MODEL 1
REMARK VINA RESULT:     -11.0      0.000      0.000
REMARK SMILES CCc1ccc(S(=O)(=O)N[C@H](C(=O)NCCCCNC(=O)c2ccc(-c3c4nc(c(-c5cccc(S(=O)(=O)[O-])c5F)c5ccc([nH]5)c(-c5cccc(S(=O)(=O)[O-])c5F)c5nc(c(-c6cccc(S(=O)(=O)[O-])c6F)c6ccc3[nH]6)C=C5)C=C4)cc2)C(C)C)cc1
REMARK SMILES IDX 16 1 15 2 14 3 12 4 13 5 11 7 10 8 7 10 8 11 9 12 6 13 3 14
REMARK SMILES IDX 4 15 89 16 5 17 88 18 2 19 1 20 85 21 86 22 87 23 17 24
REMARK SMILES IDX 18 25 19 26 20 27 21 29 22 30 23 31 84 32 24 33 83 34 25 35
REMARK SMILES IDX 26 36 27 37 77 38 28 39 82 40 76 41 78 42 29 43 81 44 75 45
REMARK SMILES IDX 74 46 30 48 62 49 42 50 61 51 43 52 46 53 60 54 79 55 44 56
REMARK SMILES IDX 45 57 59 59 80 60 47 61 31 62 32 63 40 64 33 65 35 66 41 67
REMARK SMILES IDX 34 68 36 69 37 70 38 71 39 72 63 73 64 74 72 75 65 76 67 77
REMARK SMILES IDX 73 78 66 79 68 80 69 81 70 82 71 83 48 84 49 85 57 86 50 87
REMARK SMILES IDX 52 88 58 89 51 90 53 91 54 92 55 93 56 94
REMARK H PARENT 14 6 10 9 19 28 78 47 46 58
REMARK Flexibility Score: inf
ROOT
ATOM      1  C   UNL A   1      36.051  23.124  23.481  1.00  0.00     0.023 C 
ENDROOT
BRANCH   1   2
ATOM      2  C   UNL A   1      34.682  23.749  23.229  1.00  0.00     0.116 C 
BRANCH   2   3
ATOM      3  N   UNL A   1      33.666  22.809  22.807  1.00  0.00    -0.355 N 
ATOM      4  C   UNL A   1      32.377  22.644  23.244  1.00  0.00     0.238 C 
ATOM      5  O   UNL A   1      31.676  21.892  22.565  1.00  0.00    -0.273 OA
ATOM      6  H   UNL A   1      33.943  22.191  22.092  1.00  0.00     0.163 HD
BRANCH   4   7
ATOM      7  C   UNL A   1      31.915  23.225  24.604  1.00  0.00     0.161 C 
BRANCH   7   8
ATOM      8  N   UNL A   1      30.677  24.053  24.583  1.00  0.00    -0.198 NA
ATOM      9  H   UNL A   1      29.954  23.471  24.159  1.00  0.00     0.142 HD
BRANCH   8  10
ATOM     10  S   UNL A   1      30.600  25.539  23.802  1.00  0.00     0.241 S 
ATOM     11  O   UNL A   1      29.244  26.026  23.859  1.00  0.00    -0.207 OA
ATOM     12  O   UNL A   1      31.286  25.325  22.546  1.00  0.00    -0.207 OA
BRANCH  10  13
ATOM     13  C   UNL A   1      31.612  26.640  24.744  1.00  0.00     0.082 A 
ATOM     14  C   UNL A   1      33.156  28.510  26.145  1.00  0.00    -0.048 A 
ATOM     15  C   UNL A   1      33.319  28.348  24.762  1.00  0.00     0.005 A 
ATOM     16  C   UNL A   1      32.223  27.705  26.818  1.00  0.00     0.005 A 
ATOM     17  C   UNL A   1      32.548  27.420  24.061  1.00  0.00     0.022 A 
ATOM     18  C   UNL A   1      31.464  26.759  26.126  1.00  0.00     0.022 A 
BRANCH  14  19
ATOM     19  C   UNL A   1      33.916  29.576  26.897  1.00  0.00     0.032 C 
ATOM     20  C   UNL A   1      35.249  29.104  27.460  1.00  0.00     0.009 C 
ENDBRANCH  14  19
ENDBRANCH  10  13
ENDBRANCH   8  10
ENDBRANCH   7   8
BRANCH   7  21
ATOM     21  C   UNL A   1      31.821  22.248  25.819  1.00  0.00     0.010 C 
ATOM     22  C   UNL A   1      32.936  21.205  25.950  1.00  0.00     0.009 C 
ATOM     23  C   UNL A   1      31.803  23.050  27.136  1.00  0.00     0.009 C 
ENDBRANCH   7  21
ENDBRANCH   4   7
ENDBRANCH   2   3
ENDBRANCH   1   2
BRANCH   1  24
ATOM     24  C   UNL A   1      36.059  21.779  24.213  1.00  0.00     0.023 C 
BRANCH  24  25
ATOM     25  C   UNL A   1      36.701  21.755  25.599  1.00  0.00     0.116 C 
BRANCH  25  26
ATOM     26  N   UNL A   1      37.825  20.834  25.704  1.00  0.00    -0.352 N 
ATOM     27  C   UNL A   1      39.126  21.058  26.090  1.00  0.00     0.251 C 
ATOM     28  H   UNL A   1      37.620  19.903  25.459  1.00  0.00     0.163 HD
ATOM     29  O   UNL A   1      39.951  20.152  26.003  1.00  0.00    -0.269 OA
BRANCH  27  30
ATOM     30  C   UNL A   1      39.552  22.391  26.576  1.00  0.00     0.039 A 
ATOM     31  C   UNL A   1      40.554  22.463  27.549  1.00  0.00     0.014 A 
ATOM     32  C   UNL A   1      38.975  23.564  26.085  1.00  0.00     0.014 A 
ATOM     33  C   UNL A   1      41.046  23.709  27.952  1.00  0.00     0.010 A 
ATOM     34  C   UNL A   1      39.517  24.801  26.432  1.00  0.00     0.010 A 
ATOM     35  C   UNL A   1      40.565  24.888  27.360  1.00  0.00    -0.014 A 
BRANCH  35  36
ATOM     36  C   UNL A   1      41.175  26.211  27.658  1.00  0.00     0.031 A 
ATOM     37  C   UNL A   1      42.591  26.512  27.249  1.00  0.00     0.074 A 
ATOM     38  C   UNL A   1      40.488  27.104  28.400  1.00  0.00     0.049 A 
ATOM     39  N   UNL A   1      43.315  27.572  27.502  1.00  0.00    -0.248 NA
ATOM     40  C   UNL A   1      43.298  25.473  26.483  1.00  0.00     0.031 C 
ATOM     41  C   UNL A   1      39.143  26.899  28.941  1.00  0.00     0.029 A 
ATOM     42  N   UNL A   1      40.841  28.351  28.858  1.00  0.00    -0.354 N 
ATOM     43  C   UNL A   1      44.569  27.314  26.964  1.00  0.00     0.074 A 
ATOM     44  C   UNL A   1      44.518  25.983  26.396  1.00  0.00     0.031 C 
ATOM     45  C   UNL A   1      38.786  27.977  29.657  1.00  0.00     0.029 A 
ATOM     46  C   UNL A   1      39.880  28.941  29.646  1.00  0.00     0.049 A 
ATOM     47  H   UNL A   1      41.700  28.780  28.642  1.00  0.00     0.167 HD
ATOM     48  C   UNL A   1      45.657  28.120  26.916  1.00  0.00     0.034 A 
ATOM     49  C   UNL A   1      39.880  30.126  30.291  1.00  0.00     0.034 A 
ATOM     50  C   UNL A   1      45.690  29.464  27.427  1.00  0.00     0.049 A 
ATOM     51  C   UNL A   1      41.070  31.035  30.154  1.00  0.00     0.074 A 
ATOM     52  C   UNL A   1      46.714  30.391  27.344  1.00  0.00     0.029 A 
ATOM     53  N   UNL A   1      44.651  30.076  28.110  1.00  0.00    -0.354 N 
ATOM     54  N   UNL A   1      42.187  30.837  29.498  1.00  0.00    -0.248 NA
ATOM     55  C   UNL A   1      40.986  32.348  30.813  1.00  0.00     0.031 C 
ATOM     56  C   UNL A   1      46.292  31.568  27.977  1.00  0.00     0.029 A 
ATOM     57  C   UNL A   1      45.005  31.371  28.450  1.00  0.00     0.049 A 
ATOM     58  H   UNL A   1      43.787  29.653  28.321  1.00  0.00     0.167 HD
ATOM     59  C   UNL A   1      42.924  32.006  29.638  1.00  0.00     0.074 A 
ATOM     60  C   UNL A   1      42.117  32.918  30.422  1.00  0.00     0.031 C 
ATOM     61  C   UNL A   1      44.167  32.291  29.175  1.00  0.00     0.034 A 
BRANCH  48  62
ATOM     62  C   UNL A   1      46.881  27.595  26.215  1.00  0.00     0.023 A 
ATOM     63  C   UNL A   1      47.063  27.884  24.847  1.00  0.00     0.012 A 
ATOM     64  C   UNL A   1      47.869  26.865  26.905  1.00  0.00     0.148 A 
ATOM     65  C   UNL A   1      48.191  27.427  24.167  1.00  0.00     0.002 A 
ATOM     66  C   UNL A   1      49.010  26.445  26.228  1.00  0.00     0.091 A 
ATOM     67  F   UNL A   1      47.669  26.578  28.199  1.00  0.00    -0.205 F 
ATOM     68  C   UNL A   1      49.168  26.717  24.859  1.00  0.00     0.022 A 
BRANCH  66  69
ATOM     69  S   UNL A   1      50.356  25.586  27.053  1.00  0.00     0.127 S 
ATOM     70  O   UNL A   1      51.300  25.389  25.955  1.00  0.00    -0.237 OA
ATOM     71  O   UNL A   1      50.783  26.564  28.055  1.00  0.00    -0.237 OA
ATOM     72  O   UNL A   1      49.769  24.374  27.609  1.00  0.00    -0.744 OA
ENDBRANCH  66  69
ENDBRANCH  48  62
BRANCH  49  73
ATOM     73  C   UNL A   1      38.669  30.553  31.047  1.00  0.00     0.023 A 
ATOM     74  C   UNL A   1      38.601  30.296  32.430  1.00  0.00     0.012 A 
ATOM     75  C   UNL A   1      37.614  31.248  30.426  1.00  0.00     0.148 A 
ATOM     76  C   UNL A   1      37.494  30.701  33.177  1.00  0.00     0.002 A 
ATOM     77  C   UNL A   1      36.537  31.693  31.184  1.00  0.00     0.091 A 
ATOM     78  F   UNL A   1      37.688  31.469  29.105  1.00  0.00    -0.205 F 
ATOM     79  C   UNL A   1      36.469  31.409  32.557  1.00  0.00     0.022 A 
BRANCH  77  80
ATOM     80  S   UNL A   1      35.241  32.726  30.489  1.00  0.00     0.127 S 
ATOM     81  O   UNL A   1      34.282  32.785  31.589  1.00  0.00    -0.237 OA
ATOM     82  O   UNL A   1      35.952  33.978  30.225  1.00  0.00    -0.237 OA
ATOM     83  O   UNL A   1      34.795  32.031  29.289  1.00  0.00    -0.744 OA
ENDBRANCH  77  80
ENDBRANCH  49  73
BRANCH  61  84
ATOM     84  C   UNL A   1      44.732  33.652  29.482  1.00  0.00     0.023 A 
ATOM     85  C   UNL A   1      45.395  33.866  30.707  1.00  0.00     0.012 A 
ATOM     86  C   UNL A   1      44.681  34.689  28.532  1.00  0.00     0.148 A 
ATOM     87  C   UNL A   1      45.979  35.099  30.990  1.00  0.00     0.002 A 
ATOM     88  C   UNL A   1      45.300  35.904  28.804  1.00  0.00     0.091 A 
ATOM     89  F   UNL A   1      44.025  34.475  27.381  1.00  0.00    -0.205 F 
ATOM     90  C   UNL A   1      45.943  36.113  30.035  1.00  0.00     0.022 A 
BRANCH  88  91
ATOM     91  S   UNL A   1      45.374  37.230  27.594  1.00  0.00     0.127 S 
ATOM     92  O   UNL A   1      45.963  36.552  26.442  1.00  0.00    -0.237 OA
ATOM     93  O   UNL A   1      43.964  37.591  27.433  1.00  0.00    -0.237 OA
ATOM     94  O   UNL A   1      46.191  38.273  28.200  1.00  0.00    -0.744 OA
ENDBRANCH  88  91
ENDBRANCH  61  84
ENDBRANCH  35  36
ENDBRANCH  27  30
ENDBRANCH  25  26
ENDBRANCH  24  25
ENDBRANCH   1  24
TORSDOF 19
ENDMDL
MODEL 2
REMARK VINA RESULT:     -10.9      1.898      8.101
REMARK SMILES CCc1ccc(S(=O)(=O)N[C@H](C(=O)NCCCCNC(=O)c2ccc(-c3c4nc(c(-c5cccc(S(=O)(=O)[O-])c5F)c5ccc([nH]5)c(-c5cccc(S(=O)(=O)[O-])c5F)c5nc(c(-c6cccc(S(=O)(=O)[O-])c6F)c6ccc3[nH]6)C=C5)C=C4)cc2)C(C)C)cc1
REMARK SMILES IDX 16 1 15 2 14 3 12 4 13 5 11 7 10 8 7 10 8 11 9 12 6 13 3 14
REMARK SMILES IDX 4 15 89 16 5 17 88 18 2 19 1 20 85 21 86 22 87 23 17 24
REMARK SMILES IDX 18 25 19 26 20 27 21 29 22 30 23 31 84 32 24 33 83 34 25 35
REMARK SMILES IDX 26 36 27 37 77 38 28 39 82 40 76 41 78 42 29 43 81 44 75 45
REMARK SMILES IDX 74 46 30 48 62 49 42 50 61 51 43 52 46 53 60 54 79 55 44 56
REMARK SMILES IDX 45 57 59 59 80 60 47 61 31 62 32 63 40 64 33 65 35 66 41 67
REMARK SMILES IDX 34 68 36 69 37 70 38 71 39 72 63 73 64 74 72 75 65 76 67 77
REMARK SMILES IDX 73 78 66 79 68 80 69 81 70 82 71 83 48 84 49 85 57 86 50 87
REMARK SMILES IDX 52 88 58 89 51 90 53 91 54 92 55 93 56 94
REMARK H PARENT 14 6 10 9 19 28 78 47 46 58
REMARK Flexibility Score: inf
ROOT
ATOM      1  C   UNL A   1      35.199  24.054  24.039  1.00  0.00     0.023 C 
ENDROOT
BRANCH   1   2
ATOM      2  C   UNL A   1      34.555  24.619  25.301  1.00  0.00     0.116 C 
BRANCH   2   3
ATOM      3  N   UNL A   1      34.532  26.065  25.363  1.00  0.00    -0.355 N 
ATOM      4  C   UNL A   1      33.571  26.952  24.952  1.00  0.00     0.238 C 
ATOM      5  O   UNL A   1      33.735  28.120  25.309  1.00  0.00    -0.273 OA
ATOM      6  H   UNL A   1      35.331  26.476  25.765  1.00  0.00     0.163 HD
BRANCH   4   7
ATOM      7  C   UNL A   1      32.467  26.526  23.951  1.00  0.00     0.161 C 
BRANCH   7   8
ATOM      8  N   UNL A   1      31.059  26.692  24.409  1.00  0.00    -0.198 NA
ATOM      9  H   UNL A   1      30.960  27.673  24.669  1.00  0.00     0.142 HD
BRANCH   8  10
ATOM     10  S   UNL A   1      30.416  25.802  25.681  1.00  0.00     0.241 S 
ATOM     11  O   UNL A   1      28.983  25.737  25.525  1.00  0.00    -0.207 OA
ATOM     12  O   UNL A   1      31.034  26.361  26.864  1.00  0.00    -0.207 OA
BRANCH  10  13
ATOM     13  C   UNL A   1      31.056  24.164  25.506  1.00  0.00     0.082 A 
ATOM     14  C   UNL A   1      32.189  21.631  25.129  1.00  0.00    -0.048 A 
ATOM     15  C   UNL A   1      31.701  22.361  24.036  1.00  0.00     0.005 A 
ATOM     16  C   UNL A   1      32.080  22.181  26.416  1.00  0.00     0.005 A 
ATOM     17  C   UNL A   1      31.141  23.625  24.220  1.00  0.00     0.022 A 
ATOM     18  C   UNL A   1      31.499  23.437  26.610  1.00  0.00     0.022 A 
BRANCH  14  19
ATOM     19  C   UNL A   1      32.882  20.305  24.929  1.00  0.00     0.032 C 
ATOM     20  C   UNL A   1      32.456  19.567  23.668  1.00  0.00     0.009 C 
ENDBRANCH  14  19
ENDBRANCH  10  13
ENDBRANCH   8  10
ENDBRANCH   7   8
BRANCH   7  21
ATOM     21  C   UNL A   1      32.564  27.064  22.488  1.00  0.00     0.010 C 
ATOM     22  C   UNL A   1      33.888  27.722  22.084  1.00  0.00     0.009 C 
ATOM     23  C   UNL A   1      32.315  25.915  21.489  1.00  0.00     0.009 C 
ENDBRANCH   7  21
ENDBRANCH   4   7
ENDBRANCH   2   3
ENDBRANCH   1   2
BRANCH   1  24
ATOM     24  C   UNL A   1      35.695  22.607  24.119  1.00  0.00     0.023 C 
BRANCH  24  25
ATOM     25  C   UNL A   1      36.165  22.117  25.487  1.00  0.00     0.116 C 
BRANCH  25  26
ATOM     26  N   UNL A   1      37.184  21.079  25.415  1.00  0.00    -0.352 N 
ATOM     27  C   UNL A   1      38.520  21.119  25.740  1.00  0.00     0.251 C 
ATOM     28  H   UNL A   1      36.866  20.210  25.080  1.00  0.00     0.163 HD
ATOM     29  O   UNL A   1      39.234  20.149  25.498  1.00  0.00    -0.269 OA
BRANCH  27  30
ATOM     30  C   UNL A   1      39.116  22.332  26.346  1.00  0.00     0.039 A 
ATOM     31  C   UNL A   1      40.207  22.187  27.208  1.00  0.00     0.014 A 
ATOM     32  C   UNL A   1      38.610  23.605  26.073  1.00  0.00     0.014 A 
ATOM     33  C   UNL A   1      40.852  23.321  27.714  1.00  0.00     0.010 A 
ATOM     34  C   UNL A   1      39.298  24.734  26.516  1.00  0.00     0.010 A 
ATOM     35  C   UNL A   1      40.433  24.606  27.332  1.00  0.00    -0.014 A 
BRANCH  35  36
ATOM     36  C   UNL A   1      41.191  25.821  27.731  1.00  0.00     0.031 A 
ATOM     37  C   UNL A   1      40.524  26.915  28.520  1.00  0.00     0.074 A 
ATOM     38  C   UNL A   1      42.452  25.991  27.285  1.00  0.00     0.049 A 
ATOM     39  N   UNL A   1      40.999  28.080  28.879  1.00  0.00    -0.248 NA
ATOM     40  C   UNL A   1      39.131  26.683  28.934  1.00  0.00     0.031 C 
ATOM     41  C   UNL A   1      43.182  25.051  26.432  1.00  0.00     0.029 A 
ATOM     42  N   UNL A   1      43.333  27.032  27.456  1.00  0.00    -0.354 N 
ATOM     43  C   UNL A   1      39.957  28.735  29.522  1.00  0.00     0.074 A 
ATOM     44  C   UNL A   1      38.813  27.848  29.480  1.00  0.00     0.031 C 
ATOM     45  C   UNL A   1      44.395  25.556  26.154  1.00  0.00     0.029 A 
ATOM     46  C   UNL A   1      44.523  26.864  26.788  1.00  0.00     0.049 A 
ATOM     47  H   UNL A   1      43.130  27.823  28.006  1.00  0.00     0.167 HD
ATOM     48  C   UNL A   1      39.957  29.949  30.124  1.00  0.00     0.034 A 
ATOM     49  C   UNL A   1      45.599  27.672  26.693  1.00  0.00     0.034 A 
ATOM     50  C   UNL A   1      41.110  30.803  30.220  1.00  0.00     0.049 A 
ATOM     51  C   UNL A   1      45.602  28.979  27.437  1.00  0.00     0.074 A 
ATOM     52  C   UNL A   1      41.234  32.009  30.887  1.00  0.00     0.029 A 
ATOM     53  N   UNL A   1      42.339  30.541  29.637  1.00  0.00    -0.354 N 
ATOM     54  N   UNL A   1      44.660  29.506  28.181  1.00  0.00    -0.248 NA
ATOM     55  C   UNL A   1      46.829  29.786  27.363  1.00  0.00     0.031 C 
ATOM     56  C   UNL A   1      42.543  32.475  30.709  1.00  0.00     0.029 A 
ATOM     57  C   UNL A   1      43.231  31.558  29.933  1.00  0.00     0.049 A 
ATOM     58  H   UNL A   1      42.548  29.748  29.093  1.00  0.00     0.167 HD
ATOM     59  C   UNL A   1      45.188  30.687  28.686  1.00  0.00     0.074 A 
ATOM     60  C   UNL A   1      46.543  30.788  28.183  1.00  0.00     0.031 C 
ATOM     61  C   UNL A   1      44.597  31.615  29.480  1.00  0.00     0.034 A 
BRANCH  48  62
ATOM     62  C   UNL A   1      38.686  30.390  30.798  1.00  0.00     0.023 A 
ATOM     63  C   UNL A   1      38.500  30.100  32.166  1.00  0.00     0.012 A 
ATOM     64  C   UNL A   1      37.704  31.127  30.109  1.00  0.00     0.148 A 
ATOM     65  C   UNL A   1      37.342  30.504  32.828  1.00  0.00     0.002 A 
ATOM     66  C   UNL A   1      36.568  31.561  30.786  1.00  0.00     0.091 A 
ATOM     67  F   UNL A   1      37.884  31.374  28.803  1.00  0.00    -0.205 F 
ATOM     68  C   UNL A   1      36.382  31.242  32.142  1.00  0.00     0.022 A 
BRANCH  66  69
ATOM     69  S   UNL A   1      35.311  32.578  30.003  1.00  0.00     0.127 S 
ATOM     70  O   UNL A   1      34.824  31.689  28.949  1.00  0.00    -0.237 OA
ATOM     71  O   UNL A   1      34.362  32.800  31.096  1.00  0.00    -0.237 OA
ATOM     72  O   UNL A   1      35.998  33.779  29.551  1.00  0.00    -0.744 OA
ENDBRANCH  66  69
ENDBRANCH  48  62
BRANCH  49  73
ATOM     73  C   UNL A   1      46.797  27.218  25.933  1.00  0.00     0.023 A 
ATOM     74  C   UNL A   1      47.676  26.293  26.530  1.00  0.00     0.012 A 
ATOM     75  C   UNL A   1      47.048  27.652  24.618  1.00  0.00     0.148 A 
ATOM     76  C   UNL A   1      48.797  25.828  25.841  1.00  0.00     0.002 A 
ATOM     77  C   UNL A   1      48.138  27.147  23.917  1.00  0.00     0.091 A 
ATOM     78  F   UNL A   1      46.210  28.545  24.071  1.00  0.00    -0.205 F 
ATOM     79  C   UNL A   1      49.022  26.245  24.532  1.00  0.00     0.022 A 
BRANCH  77  80
ATOM     80  S   UNL A   1      48.424  27.529  22.185  1.00  0.00     0.127 S 
ATOM     81  O   UNL A   1      49.593  28.401  22.259  1.00  0.00    -0.237 OA
ATOM     82  O   UNL A   1      48.678  26.205  21.614  1.00  0.00    -0.237 OA
ATOM     83  O   UNL A   1      47.191  28.151  21.719  1.00  0.00    -0.744 OA
ENDBRANCH  77  80
ENDBRANCH  49  73
BRANCH  61  84
ATOM     84  C   UNL A   1      45.412  32.815  29.878  1.00  0.00     0.023 A 
ATOM     85  C   UNL A   1      46.207  32.759  31.040  1.00  0.00     0.012 A 
ATOM     86  C   UNL A   1      45.457  33.963  29.064  1.00  0.00     0.148 A 
ATOM     87  C   UNL A   1      47.016  33.835  31.398  1.00  0.00     0.002 A 
ATOM     88  C   UNL A   1      46.297  35.017  29.405  1.00  0.00     0.091 A 
ATOM     89  F   UNL A   1      44.676  34.008  27.974  1.00  0.00    -0.205 F 
ATOM     90  C   UNL A   1      47.072  34.958  30.575  1.00  0.00     0.022 A 
BRANCH  88  91
ATOM     91  S   UNL A   1      46.491  36.462  28.354  1.00  0.00     0.127 S 
ATOM     92  O   UNL A   1      46.924  35.860  27.095  1.00  0.00    -0.237 OA
ATOM     93  O   UNL A   1      45.138  37.020  28.329  1.00  0.00    -0.237 OA
ATOM     94  O   UNL A   1      47.473  37.306  29.021  1.00  0.00    -0.744 OA
ENDBRANCH  88  91
ENDBRANCH  61  84
ENDBRANCH  35  36
ENDBRANCH  27  30
ENDBRANCH  25  26
ENDBRANCH  24  25
ENDBRANCH   1  24
TORSDOF 19
ENDMDL
MODEL 3
REMARK VINA RESULT:     -10.6      2.497      8.054
REMARK SMILES CCc1ccc(S(=O)(=O)N[C@H](C(=O)NCCCCNC(=O)c2ccc(-c3c4nc(c(-c5cccc(S(=O)(=O)[O-])c5F)c5ccc([nH]5)c(-c5cccc(S(=O)(=O)[O-])c5F)c5nc(c(-c6cccc(S(=O)(=O)[O-])c6F)c6ccc3[nH]6)C=C5)C=C4)cc2)C(C)C)cc1
REMARK SMILES IDX 16 1 15 2 14 3 12 4 13 5 11 7 10 8 7 10 8 11 9 12 6 13 3 14
REMARK SMILES IDX 4 15 89 16 5 17 88 18 2 19 1 20 85 21 86 22 87 23 17 24
REMARK SMILES IDX 18 25 19 26 20 27 21 29 22 30 23 31 84 32 24 33 83 34 25 35
REMARK SMILES IDX 26 36 27 37 77 38 28 39 82 40 76 41 78 42 29 43 81 44 75 45
REMARK SMILES IDX 74 46 30 48 62 49 42 50 61 51 43 52 46 53 60 54 79 55 44 56
REMARK SMILES IDX 45 57 59 59 80 60 47 61 31 62 32 63 40 64 33 65 35 66 41 67
REMARK SMILES IDX 34 68 36 69 37 70 38 71 39 72 63 73 64 74 72 75 65 76 67 77
REMARK SMILES IDX 73 78 66 79 68 80 69 81 70 82 71 83 48 84 49 85 57 86 50 87
REMARK SMILES IDX 52 88 58 89 51 90 53 91 54 92 55 93 56 94
REMARK H PARENT 14 6 10 9 19 28 78 47 46 58
REMARK Flexibility Score: inf
ROOT
ATOM      1  C   UNL A   1      38.882  22.915  26.384  1.00  0.00     0.023 C 
ENDROOT
BRANCH   1   2
ATOM      2  C   UNL A   1      37.719  23.660  25.735  1.00  0.00     0.116 C 
BRANCH   2   3
ATOM      3  N   UNL A   1      37.455  23.275  24.365  1.00  0.00    -0.355 N 
ATOM      4  C   UNL A   1      36.263  23.096  23.711  1.00  0.00     0.238 C 
ATOM      5  O   UNL A   1      36.341  22.958  22.489  1.00  0.00    -0.273 OA
ATOM      6  H   UNL A   1      38.257  23.117  23.816  1.00  0.00     0.163 HD
BRANCH   4   7
ATOM      7  C   UNL A   1      34.943  22.897  24.498  1.00  0.00     0.161 C 
BRANCH   7   8
ATOM      8  N   UNL A   1      33.740  22.543  23.693  1.00  0.00    -0.198 NA
ATOM      9  H   UNL A   1      34.082  22.013  22.890  1.00  0.00     0.142 HD
BRANCH   8  10
ATOM     10  S   UNL A   1      32.696  23.706  23.075  1.00  0.00     0.241 S 
ATOM     11  O   UNL A   1      31.349  23.193  23.117  1.00  0.00    -0.207 OA
ATOM     12  O   UNL A   1      33.317  24.133  21.840  1.00  0.00    -0.207 OA
BRANCH  10  13
ATOM     13  C   UNL A   1      32.787  25.082  24.182  1.00  0.00     0.082 A 
ATOM     14  C   UNL A   1      32.995  27.158  26.050  1.00  0.00    -0.048 A 
ATOM     15  C   UNL A   1      32.214  26.027  26.328  1.00  0.00     0.005 A 
ATOM     16  C   UNL A   1      33.651  27.242  24.811  1.00  0.00     0.005 A 
ATOM     17  C   UNL A   1      32.113  24.990  25.402  1.00  0.00     0.022 A 
ATOM     18  C   UNL A   1      33.535  26.216  23.870  1.00  0.00     0.022 A 
BRANCH  14  19
ATOM     19  C   UNL A   1      33.188  28.242  27.082  1.00  0.00     0.032 C 
ATOM     20  C   UNL A   1      32.065  29.269  27.119  1.00  0.00     0.009 C 
ENDBRANCH  14  19
ENDBRANCH  10  13
ENDBRANCH   8  10
ENDBRANCH   7   8
BRANCH   7  21
ATOM     21  C   UNL A   1      34.975  21.964  25.750  1.00  0.00     0.010 C 
ATOM     22  C   UNL A   1      34.375  22.529  27.043  1.00  0.00     0.009 C 
ATOM     23  C   UNL A   1      34.224  20.651  25.446  1.00  0.00     0.009 C 
ENDBRANCH   7  21
ENDBRANCH   4   7
ENDBRANCH   2   3
ENDBRANCH   1   2
BRANCH   1  24
ATOM     24  C   UNL A   1      39.249  21.562  25.769  1.00  0.00     0.023 C 
BRANCH  24  25
ATOM     25  C   UNL A   1      39.611  20.441  26.741  1.00  0.00     0.116 C 
BRANCH  25  26
ATOM     26  N   UNL A   1      40.594  19.506  26.212  1.00  0.00    -0.352 N 
ATOM     27  C   UNL A   1      41.928  19.683  25.924  1.00  0.00     0.251 C 
ATOM     28  H   UNL A   1      40.248  18.602  26.030  1.00  0.00     0.163 HD
ATOM     29  O   UNL A   1      42.556  18.782  25.375  1.00  0.00    -0.269 OA
BRANCH  27  30
ATOM     30  C   UNL A   1      42.605  20.963  26.234  1.00  0.00     0.039 A 
ATOM     31  C   UNL A   1      42.936  21.821  25.181  1.00  0.00     0.014 A 
ATOM     32  C   UNL A   1      42.915  21.323  27.548  1.00  0.00     0.014 A 
ATOM     33  C   UNL A   1      43.485  23.080  25.453  1.00  0.00     0.010 A 
ATOM     34  C   UNL A   1      43.391  22.605  27.822  1.00  0.00     0.010 A 
ATOM     35  C   UNL A   1      43.670  23.502  26.779  1.00  0.00    -0.014 A 
BRANCH  35  36
ATOM     36  C   UNL A   1      44.107  24.887  27.100  1.00  0.00     0.031 A 
ATOM     37  C   UNL A   1      43.130  25.890  27.648  1.00  0.00     0.074 A 
ATOM     38  C   UNL A   1      45.361  25.274  26.788  1.00  0.00     0.049 A 
ATOM     39  N   UNL A   1      43.308  27.161  27.901  1.00  0.00    -0.248 NA
ATOM     40  C   UNL A   1      41.765  25.412  27.920  1.00  0.00     0.031 C 
ATOM     41  C   UNL A   1      46.378  24.426  26.163  1.00  0.00     0.029 A 
ATOM     42  N   UNL A   1      45.984  26.492  26.922  1.00  0.00    -0.354 N 
ATOM     43  C   UNL A   1      42.074  27.643  28.320  1.00  0.00     0.074 A 
ATOM     44  C   UNL A   1      41.147  26.533  28.261  1.00  0.00     0.031 C 
ATOM     45  C   UNL A   1      47.494  25.147  25.967  1.00  0.00     0.029 A 
ATOM     46  C   UNL A   1      47.268  26.512  26.430  1.00  0.00     0.049 A 
ATOM     47  H   UNL A   1      45.551  27.275  27.332  1.00  0.00     0.167 HD
ATOM     48  C   UNL A   1      41.747  28.886  28.749  1.00  0.00     0.034 A 
ATOM     49  C   UNL A   1      48.164  27.517  26.356  1.00  0.00     0.034 A 
ATOM     50  C   UNL A   1      42.681  29.973  28.865  1.00  0.00     0.049 A 
ATOM     51  C   UNL A   1      47.800  28.866  26.912  1.00  0.00     0.074 A 
ATOM     52  C   UNL A   1      42.466  31.242  29.375  1.00  0.00     0.029 A 
ATOM     53  N   UNL A   1      44.010  29.919  28.474  1.00  0.00    -0.354 N 
ATOM     54  N   UNL A   1      46.675  29.255  27.460  1.00  0.00    -0.248 NA
ATOM     55  C   UNL A   1      48.842  29.905  26.877  1.00  0.00     0.031 C 
ATOM     56  C   UNL A   1      43.668  31.956  29.293  1.00  0.00     0.029 A 
ATOM     57  C   UNL A   1      44.630  31.129  28.736  1.00  0.00     0.049 A 
ATOM     58  H   UNL A   1      44.448  29.135  28.071  1.00  0.00     0.167 HD
ATOM     59  C   UNL A   1      46.881  30.569  27.861  1.00  0.00     0.074 A 
ATOM     60  C   UNL A   1      48.247  30.904  27.515  1.00  0.00     0.031 C 
ATOM     61  C   UNL A   1      46.009  31.428  28.445  1.00  0.00     0.034 A 
BRANCH  48  62
ATOM     62  C   UNL A   1      40.329  29.115  29.200  1.00  0.00     0.023 A 
ATOM     63  C   UNL A   1      39.346  29.424  28.238  1.00  0.00     0.012 A 
ATOM     64  C   UNL A   1      39.956  28.980  30.551  1.00  0.00     0.148 A 
ATOM     65  C   UNL A   1      38.020  29.629  28.616  1.00  0.00     0.002 A 
ATOM     66  C   UNL A   1      38.623  29.149  30.916  1.00  0.00     0.091 A 
ATOM     67  F   UNL A   1      40.907  28.710  31.457  1.00  0.00    -0.205 F 
ATOM     68  C   UNL A   1      37.657  29.482  29.952  1.00  0.00     0.022 A 
BRANCH  66  69
ATOM     69  S   UNL A   1      38.050  28.909  32.602  1.00  0.00     0.127 S 
ATOM     70  O   UNL A   1      36.650  29.318  32.501  1.00  0.00    -0.237 OA
ATOM     71  O   UNL A   1      38.251  27.472  32.799  1.00  0.00    -0.237 OA
ATOM     72  O   UNL A   1      38.898  29.753  33.432  1.00  0.00    -0.744 OA
ENDBRANCH  66  69
ENDBRANCH  48  62
BRANCH  49  73
ATOM     73  C   UNL A   1      49.526  27.251  25.813  1.00  0.00     0.023 A 
ATOM     74  C   UNL A   1      50.524  26.761  26.678  1.00  0.00     0.012 A 
ATOM     75  C   UNL A   1      49.828  27.433  24.450  1.00  0.00     0.148 A 
ATOM     76  C   UNL A   1      51.805  26.479  26.201  1.00  0.00     0.002 A 
ATOM     77  C   UNL A   1      51.091  27.103  23.971  1.00  0.00     0.091 A 
ATOM     78  F   UNL A   1      48.871  27.916  23.644  1.00  0.00    -0.205 F 
ATOM     79  C   UNL A   1      52.085  26.639  24.847  1.00  0.00     0.022 A 
BRANCH  77  80
ATOM     80  S   UNL A   1      51.493  27.153  22.220  1.00  0.00     0.127 S 
ATOM     81  O   UNL A   1      50.251  26.684  21.613  1.00  0.00    -0.237 OA
ATOM     82  O   UNL A   1      51.784  28.573  22.011  1.00  0.00    -0.237 OA
ATOM     83  O   UNL A   1      52.650  26.281  22.065  1.00  0.00    -0.744 OA
ENDBRANCH  77  80
ENDBRANCH  49  73
BRANCH  61  84
ATOM     84  C   UNL A   1      46.504  32.812  28.772  1.00  0.00     0.023 A 
ATOM     85  C   UNL A   1      47.109  33.053  30.022  1.00  0.00     0.012 A 
ATOM     86  C   UNL A   1      46.445  33.846  27.820  1.00  0.00     0.148 A 
ATOM     87  C   UNL A   1      47.629  34.310  30.326  1.00  0.00     0.002 A 
ATOM     88  C   UNL A   1      47.002  35.086  28.114  1.00  0.00     0.091 A 
ATOM     89  F   UNL A   1      45.844  33.605  26.645  1.00  0.00    -0.205 F 
ATOM     90  C   UNL A   1      47.587  35.322  29.369  1.00  0.00     0.022 A 
BRANCH  88  91
ATOM     91  S   UNL A   1      47.066  36.415  26.906  1.00  0.00     0.127 S 
ATOM     92  O   UNL A   1      47.105  35.674  25.648  1.00  0.00    -0.237 OA
ATOM     93  O   UNL A   1      45.811  37.129  27.154  1.00  0.00    -0.237 OA
ATOM     94  O   UNL A   1      48.262  37.182  27.226  1.00  0.00    -0.744 OA
ENDBRANCH  88  91
ENDBRANCH  61  84
ENDBRANCH  35  36
ENDBRANCH  27  30
ENDBRANCH  25  26
ENDBRANCH  24  25
ENDBRANCH   1  24
TORSDOF 19
ENDMDL
