MODEL 1
REMARK VINA RESULT:     -11.8      0.000      0.000
REMARK SMILES O=C(NCCCCNC(=O)[C@H]1CCCN(C(=O)c2cc(Br)ccc2Cl)C1)c1ccc(-c2c3nc(c(-c4cccc(S(=O)(=O)[O-])c4F)c4ccc([nH]4)c(-c4cccc(S(=O)(=O)[O-])c4F)c4nc(c(-c5cccc(S(=O)(=O)[O-])c5F)c5ccc2[nH]5)C=C4)C=C3)cc1
REMARK SMILES IDX 5 1 4 2 3 3 1 4 2 5 27 7 28 8 89 9 29 10 88 11 30 12 31 13
REMARK SMILES IDX 32 14 82 15 33 16 87 17 81 18 83 19 34 20 86 21 80 22 79 23
REMARK SMILES IDX 35 25 67 26 47 27 66 28 48 29 51 30 65 31 84 32 49 33 50 34
REMARK SMILES IDX 64 36 85 37 52 38 36 39 37 40 45 41 38 42 40 43 46 44 39 45
REMARK SMILES IDX 41 46 42 47 43 48 44 49 68 50 69 51 77 52 70 53 72 54 78 55
REMARK SMILES IDX 71 56 73 57 74 58 75 59 76 60 53 61 54 62 62 63 55 64 57 65
REMARK SMILES IDX 63 66 56 67 58 68 59 69 60 70 61 71 6 72 7 73 8 74 9 75
REMARK SMILES IDX 10 77 11 78 12 79 26 80 13 81 15 82 14 83 16 84 17 85 18 86
REMARK SMILES IDX 19 87 24 88 20 89 23 90 25 91 21 92 22 93
REMARK H PARENT 3 6 83 24 51 35 8 76
REMARK Flexibility Score: inf
ROOT
ATOM      1  C   UNL A   1      38.159  19.922  24.707  1.00  0.00     0.023 C 
ENDROOT
BRANCH   1   2
ATOM      2  C   UNL A   1      38.844  20.027  26.063  1.00  0.00     0.116 C 
BRANCH   2   3
ATOM      3  N   UNL A   1      40.049  19.219  26.162  1.00  0.00    -0.352 N 
ATOM      4  O   UNL A   1      42.264  18.821  26.309  1.00  0.00    -0.269 OA
ATOM      5  C   UNL A   1      41.345  19.632  26.372  1.00  0.00     0.251 C 
ATOM      6  H   UNL A   1      39.920  18.248  26.068  1.00  0.00     0.163 HD
BRANCH   5   7
ATOM      7  C   UNL A   1      41.621  21.063  26.635  1.00  0.00     0.039 A 
ATOM      8  C   UNL A   1      41.428  22.017  25.635  1.00  0.00     0.014 A 
ATOM      9  C   UNL A   1      42.105  21.448  27.889  1.00  0.00     0.014 A 
ATOM     10  C   UNL A   1      41.865  23.322  25.835  1.00  0.00     0.010 A 
ATOM     11  C   UNL A   1      42.461  22.783  28.117  1.00  0.00     0.010 A 
ATOM     12  C   UNL A   1      42.381  23.723  27.080  1.00  0.00    -0.014 A 
BRANCH  12  13
ATOM     13  C   UNL A   1      42.759  25.147  27.272  1.00  0.00     0.031 A 
ATOM     14  C   UNL A   1      41.846  26.123  27.964  1.00  0.00     0.074 A 
ATOM     15  C   UNL A   1      43.972  25.548  26.843  1.00  0.00     0.049 A 
ATOM     16  N   UNL A   1      42.073  27.372  28.285  1.00  0.00    -0.248 NA
ATOM     17  C   UNL A   1      40.505  25.645  28.340  1.00  0.00     0.031 C 
ATOM     18  C   UNL A   1      44.918  24.710  26.104  1.00  0.00     0.029 A 
ATOM     19  N   UNL A   1      44.624  26.747  26.974  1.00  0.00    -0.354 N 
ATOM     20  C   UNL A   1      40.904  27.839  28.872  1.00  0.00     0.074 A 
ATOM     21  C   UNL A   1      39.959  26.742  28.851  1.00  0.00     0.031 C 
ATOM     22  C   UNL A   1      46.043  25.404  25.881  1.00  0.00     0.029 A 
ATOM     23  C   UNL A   1      45.884  26.749  26.423  1.00  0.00     0.049 A 
ATOM     24  H   UNL A   1      44.229  27.532  27.419  1.00  0.00     0.167 HD
ATOM     25  C   UNL A   1      40.649  29.060  29.402  1.00  0.00     0.034 A 
ATOM     26  C   UNL A   1      46.813  27.721  26.359  1.00  0.00     0.034 A 
ATOM     27  C   UNL A   1      41.604  30.137  29.451  1.00  0.00     0.049 A 
ATOM     28  C   UNL A   1      46.524  29.044  27.009  1.00  0.00     0.074 A 
ATOM     29  C   UNL A   1      41.450  31.400  29.998  1.00  0.00     0.029 A 
ATOM     30  N   UNL A   1      42.893  30.079  28.941  1.00  0.00    -0.354 N 
ATOM     31  N   UNL A   1      45.456  29.421  27.668  1.00  0.00    -0.248 NA
ATOM     32  C   UNL A   1      47.579  30.063  26.936  1.00  0.00     0.031 C 
ATOM     33  C   UNL A   1      42.645  32.106  29.817  1.00  0.00     0.029 A 
ATOM     34  C   UNL A   1      43.546  31.281  29.164  1.00  0.00     0.049 A 
ATOM     35  H   UNL A   1      43.284  29.299  28.487  1.00  0.00     0.167 HD
ATOM     36  C   UNL A   1      45.712  30.717  28.096  1.00  0.00     0.074 A 
ATOM     37  C   UNL A   1      47.054  31.043  27.659  1.00  0.00     0.031 C 
ATOM     38  C   UNL A   1      44.898  31.572  28.763  1.00  0.00     0.034 A 
BRANCH  25  39
ATOM     39  C   UNL A   1      39.300  29.285  30.035  1.00  0.00     0.023 A 
ATOM     40  C   UNL A   1      39.053  28.773  31.324  1.00  0.00     0.012 A 
ATOM     41  C   UNL A   1      38.313  30.067  29.402  1.00  0.00     0.148 A 
ATOM     42  C   UNL A   1      37.840  29.016  31.967  1.00  0.00     0.002 A 
ATOM     43  C   UNL A   1      37.118  30.335  30.064  1.00  0.00     0.091 A 
ATOM     44  F   UNL A   1      38.556  30.530  28.168  1.00  0.00    -0.205 F 
ATOM     45  C   UNL A   1      36.878  29.805  31.342  1.00  0.00     0.022 A 
BRANCH  43  46
ATOM     46  S   UNL A   1      35.844  31.398  29.374  1.00  0.00     0.127 S 
ATOM     47  O   UNL A   1      35.174  30.490  28.445  1.00  0.00    -0.237 OA
ATOM     48  O   UNL A   1      35.057  31.749  30.557  1.00  0.00    -0.237 OA
ATOM     49  O   UNL A   1      36.546  32.517  28.760  1.00  0.00    -0.744 OA
ENDBRANCH  43  46
ENDBRANCH  25  39
BRANCH  26  50
ATOM     50  C   UNL A   1      48.121  27.446  25.704  1.00  0.00     0.023 A 
ATOM     51  C   UNL A   1      49.189  26.937  26.468  1.00  0.00     0.012 A 
ATOM     52  C   UNL A   1      48.292  27.621  24.318  1.00  0.00     0.148 A 
ATOM     53  C   UNL A   1      50.409  26.628  25.865  1.00  0.00     0.002 A 
ATOM     54  C   UNL A   1      49.488  27.252  23.714  1.00  0.00     0.091 A 
ATOM     55  F   UNL A   1      47.273  28.128  23.608  1.00  0.00    -0.205 F 
ATOM     56  C   UNL A   1      50.554  26.770  24.487  1.00  0.00     0.022 A 
BRANCH  54  57
ATOM     57  S   UNL A   1      49.673  27.258  21.927  1.00  0.00     0.127 S 
ATOM     58  O   UNL A   1      49.360  28.645  21.596  1.00  0.00    -0.237 OA
ATOM     59  O   UNL A   1      51.078  26.887  21.756  1.00  0.00    -0.237 OA
ATOM     60  O   UNL A   1      48.733  26.252  21.450  1.00  0.00    -0.744 OA
ENDBRANCH  54  57
ENDBRANCH  26  50
BRANCH  38  61
ATOM     61  C   UNL A   1      45.440  32.945  29.057  1.00  0.00     0.023 A 
ATOM     62  C   UNL A   1      46.100  33.177  30.282  1.00  0.00     0.012 A 
ATOM     63  C   UNL A   1      45.340  33.987  28.116  1.00  0.00     0.148 A 
ATOM     64  C   UNL A   1      46.621  34.435  30.579  1.00  0.00     0.002 A 
ATOM     65  C   UNL A   1      45.897  35.227  28.403  1.00  0.00     0.091 A 
ATOM     66  F   UNL A   1      44.688  33.754  26.968  1.00  0.00    -0.205 F 
ATOM     67  C   UNL A   1      46.528  35.456  29.636  1.00  0.00     0.022 A 
BRANCH  65  68
ATOM     68  S   UNL A   1      45.888  36.571  27.211  1.00  0.00     0.127 S 
ATOM     69  O   UNL A   1      46.728  37.566  27.874  1.00  0.00    -0.237 OA
ATOM     70  O   UNL A   1      46.494  35.951  26.030  1.00  0.00    -0.237 OA
ATOM     71  O   UNL A   1      44.488  36.936  27.043  1.00  0.00    -0.744 OA
ENDBRANCH  65  68
ENDBRANCH  38  61
ENDBRANCH  12  13
ENDBRANCH   5   7
ENDBRANCH   2   3
ENDBRANCH   1   2
BRANCH   1  72
ATOM     72  C   UNL A   1      36.791  19.242  24.714  1.00  0.00     0.023 C 
BRANCH  72  73
ATOM     73  C   UNL A   1      35.616  20.157  25.053  1.00  0.00     0.116 C 
BRANCH  73  74
ATOM     74  N   UNL A   1      34.392  19.414  25.311  1.00  0.00    -0.356 N 
ATOM     75  C   UNL A   1      33.092  19.805  25.173  1.00  0.00     0.224 C 
ATOM     76  H   UNL A   1      34.521  18.492  25.632  1.00  0.00     0.163 HD
ATOM     77  O   UNL A   1      32.201  18.994  25.423  1.00  0.00    -0.275 OA
BRANCH  75  78
ATOM     78  C   UNL A   1      32.793  21.224  24.732  1.00  0.00     0.098 C 
ATOM     79  C   UNL A   1      32.483  21.309  23.229  1.00  0.00     0.017 C 
ATOM     80  C   UNL A   1      31.603  21.766  25.521  1.00  0.00     0.133 C 
ATOM     81  C   UNL A   1      32.157  22.751  22.836  1.00  0.00     0.022 C 
ATOM     82  N   UNL A   1      31.330  23.148  25.125  1.00  0.00    -0.338 N 
ATOM     83  C   UNL A   1      31.041  23.335  23.701  1.00  0.00     0.120 C 
BRANCH  82  84
ATOM     84  C   UNL A   1      31.423  24.148  26.086  1.00  0.00     0.255 C 
ATOM     85  O   UNL A   1      30.941  24.061  27.214  1.00  0.00    -0.269 OA
BRANCH  84  86
ATOM     86  C   UNL A   1      32.199  25.363  25.790  1.00  0.00     0.059 A 
ATOM     87  C   UNL A   1      31.470  26.513  25.456  1.00  0.00     0.031 A 
ATOM     88  C   UNL A   1      33.597  25.382  25.780  1.00  0.00     0.053 A 
ATOM     89  C   UNL A   1      32.148  27.692  25.159  1.00  0.00     0.018 A 
ATOM     90  C   UNL A   1      34.266  26.575  25.491  1.00  0.00     0.022 A 
ATOM     91  Cl  UNL A   1      34.552  23.980  26.096  1.00  0.00    -0.083 Cl
ATOM     92  Br  UNL A   1      31.175  29.249  24.714  1.00  0.00    -0.051 Br
ATOM     93  C   UNL A   1      33.542  27.732  25.186  1.00  0.00     0.017 A 
ENDBRANCH  84  86
ENDBRANCH  82  84
ENDBRANCH  75  78
ENDBRANCH  73  74
ENDBRANCH  72  73
ENDBRANCH   1  72
TORSDOF 16
ENDMDL
MODEL 2
REMARK VINA RESULT:     -11.8      5.971      9.654
REMARK SMILES O=C(NCCCCNC(=O)[C@H]1CCCN(C(=O)c2cc(Br)ccc2Cl)C1)c1ccc(-c2c3nc(c(-c4cccc(S(=O)(=O)[O-])c4F)c4ccc([nH]4)c(-c4cccc(S(=O)(=O)[O-])c4F)c4nc(c(-c5cccc(S(=O)(=O)[O-])c5F)c5ccc2[nH]5)C=C4)C=C3)cc1
REMARK SMILES IDX 5 1 4 2 3 3 1 4 2 5 27 7 28 8 89 9 29 10 88 11 30 12 31 13
REMARK SMILES IDX 32 14 82 15 33 16 87 17 81 18 83 19 34 20 86 21 80 22 79 23
REMARK SMILES IDX 35 25 67 26 47 27 66 28 48 29 51 30 65 31 84 32 49 33 50 34
REMARK SMILES IDX 64 36 85 37 52 38 36 39 37 40 45 41 38 42 40 43 46 44 39 45
REMARK SMILES IDX 41 46 42 47 43 48 44 49 68 50 69 51 77 52 70 53 72 54 78 55
REMARK SMILES IDX 71 56 73 57 74 58 75 59 76 60 53 61 54 62 62 63 55 64 57 65
REMARK SMILES IDX 63 66 56 67 58 68 59 69 60 70 61 71 6 72 7 73 8 74 9 75
REMARK SMILES IDX 10 77 11 78 12 79 26 80 13 81 15 82 14 83 16 84 17 85 18 86
REMARK SMILES IDX 19 87 24 88 20 89 23 90 25 91 21 92 22 93
REMARK H PARENT 3 6 83 24 51 35 8 76
REMARK Flexibility Score: inf
ROOT
ATOM      1  C   UNL A   1      31.567  31.496  26.574  1.00  0.00     0.023 C 
ENDROOT
BRANCH   1   2
ATOM      2  C   UNL A   1      32.793  32.327  26.928  1.00  0.00     0.116 C 
BRANCH   2   3
ATOM      3  N   UNL A   1      32.466  33.664  27.396  1.00  0.00    -0.352 N 
ATOM      4  O   UNL A   1      32.572  35.462  28.753  1.00  0.00    -0.269 OA
ATOM      5  C   UNL A   1      33.054  34.388  28.409  1.00  0.00     0.251 C 
ATOM      6  H   UNL A   1      31.727  34.112  26.925  1.00  0.00     0.163 HD
BRANCH   5   7
ATOM      7  C   UNL A   1      34.244  33.840  29.100  1.00  0.00     0.039 A 
ATOM      8  C   UNL A   1      35.525  34.281  28.762  1.00  0.00     0.014 A 
ATOM      9  C   UNL A   1      34.076  32.855  30.078  1.00  0.00     0.014 A 
ATOM     10  C   UNL A   1      36.636  33.629  29.283  1.00  0.00     0.010 A 
ATOM     11  C   UNL A   1      35.199  32.262  30.667  1.00  0.00     0.010 A 
ATOM     12  C   UNL A   1      36.489  32.616  30.246  1.00  0.00    -0.014 A 
BRANCH  12  13
ATOM     13  C   UNL A   1      37.708  32.004  30.835  1.00  0.00     0.031 A 
ATOM     14  C   UNL A   1      38.168  32.337  32.229  1.00  0.00     0.074 A 
ATOM     15  C   UNL A   1      38.386  31.101  30.100  1.00  0.00     0.049 A 
ATOM     16  N   UNL A   1      39.158  31.819  32.910  1.00  0.00    -0.248 NA
ATOM     17  C   UNL A   1      37.432  33.387  32.951  1.00  0.00     0.031 C 
ATOM     18  C   UNL A   1      38.074  30.744  28.714  1.00  0.00     0.029 A 
ATOM     19  N   UNL A   1      39.463  30.311  30.410  1.00  0.00    -0.354 N 
ATOM     20  C   UNL A   1      39.185  32.492  34.125  1.00  0.00     0.074 A 
ATOM     21  C   UNL A   1      38.119  33.471  34.084  1.00  0.00     0.031 C 
ATOM     22  C   UNL A   1      38.911  29.780  28.307  1.00  0.00     0.029 A 
ATOM     23  C   UNL A   1      39.846  29.479  29.385  1.00  0.00     0.049 A 
ATOM     24  H   UNL A   1      39.919  30.337  31.283  1.00  0.00     0.167 HD
ATOM     25  C   UNL A   1      40.006  32.297  35.186  1.00  0.00     0.034 A 
ATOM     26  C   UNL A   1      40.839  28.572  29.315  1.00  0.00     0.034 A 
ATOM     27  C   UNL A   1      41.044  31.299  35.235  1.00  0.00     0.049 A 
ATOM     28  C   UNL A   1      41.692  28.335  30.527  1.00  0.00     0.074 A 
ATOM     29  C   UNL A   1      41.905  31.003  36.277  1.00  0.00     0.029 A 
ATOM     30  N   UNL A   1      41.358  30.431  34.200  1.00  0.00    -0.354 N 
ATOM     31  N   UNL A   1      41.618  28.899  31.708  1.00  0.00    -0.248 NA
ATOM     32  C   UNL A   1      42.744  27.316  30.410  1.00  0.00     0.031 C 
ATOM     33  C   UNL A   1      42.741  29.956  35.873  1.00  0.00     0.029 A 
ATOM     34  C   UNL A   1      42.397  29.595  34.580  1.00  0.00     0.049 A 
ATOM     35  H   UNL A   1      40.910  30.412  33.324  1.00  0.00     0.167 HD
ATOM     36  C   UNL A   1      42.605  28.298  32.478  1.00  0.00     0.074 A 
ATOM     37  C   UNL A   1      43.235  27.296  31.642  1.00  0.00     0.031 C 
ATOM     38  C   UNL A   1      42.980  28.573  33.752  1.00  0.00     0.034 A 
BRANCH  25  39
ATOM     39  C   UNL A   1      39.779  33.138  36.416  1.00  0.00     0.023 A 
ATOM     40  C   UNL A   1      40.303  34.445  36.460  1.00  0.00     0.012 A 
ATOM     41  C   UNL A   1      38.983  32.677  37.484  1.00  0.00     0.148 A 
ATOM     42  C   UNL A   1      40.060  35.274  37.555  1.00  0.00     0.002 A 
ATOM     43  C   UNL A   1      38.715  33.521  38.557  1.00  0.00     0.091 A 
ATOM     44  F   UNL A   1      38.508  31.424  37.435  1.00  0.00    -0.205 F 
ATOM     45  C   UNL A   1      39.258  34.816  38.597  1.00  0.00     0.022 A 
BRANCH  43  46
ATOM     46  S   UNL A   1      37.636  33.051  39.915  1.00  0.00     0.127 S 
ATOM     47  O   UNL A   1      36.377  32.796  39.217  1.00  0.00    -0.237 OA
ATOM     48  O   UNL A   1      38.297  31.854  40.437  1.00  0.00    -0.237 OA
ATOM     49  O   UNL A   1      37.628  34.185  40.829  1.00  0.00    -0.744 OA
ENDBRANCH  43  46
ENDBRANCH  25  39
BRANCH  26  50
ATOM     50  C   UNL A   1      41.027  27.784  28.065  1.00  0.00     0.023 A 
ATOM     51  C   UNL A   1      41.656  28.378  26.955  1.00  0.00     0.012 A 
ATOM     52  C   UNL A   1      40.647  26.430  27.994  1.00  0.00     0.148 A 
ATOM     53  C   UNL A   1      41.884  27.644  25.791  1.00  0.00     0.002 A 
ATOM     54  C   UNL A   1      40.934  25.687  26.856  1.00  0.00     0.091 A 
ATOM     55  F   UNL A   1      40.028  25.884  29.052  1.00  0.00    -0.205 F 
ATOM     56  C   UNL A   1      41.537  26.296  25.746  1.00  0.00     0.022 A 
BRANCH  54  57
ATOM     57  S   UNL A   1      40.660  23.912  26.805  1.00  0.00     0.127 S 
ATOM     58  O   UNL A   1      41.558  23.500  25.731  1.00  0.00    -0.237 OA
ATOM     59  O   UNL A   1      41.070  23.493  28.146  1.00  0.00    -0.237 OA
ATOM     60  O   UNL A   1      39.234  23.761  26.548  1.00  0.00    -0.744 OA
ENDBRANCH  54  57
ENDBRANCH  26  50
BRANCH  38  61
ATOM     61  C   UNL A   1      44.126  27.777  34.315  1.00  0.00     0.023 A 
ATOM     62  C   UNL A   1      45.438  28.280  34.197  1.00  0.00     0.012 A 
ATOM     63  C   UNL A   1      43.908  26.564  34.995  1.00  0.00     0.148 A 
ATOM     64  C   UNL A   1      46.519  27.570  34.717  1.00  0.00     0.002 A 
ATOM     65  C   UNL A   1      44.987  25.882  35.546  1.00  0.00     0.091 A 
ATOM     66  F   UNL A   1      42.657  26.089  35.076  1.00  0.00    -0.205 F 
ATOM     67  C   UNL A   1      46.292  26.378  35.399  1.00  0.00     0.022 A 
BRANCH  65  68
ATOM     68  S   UNL A   1      44.770  24.379  36.506  1.00  0.00     0.127 S 
ATOM     69  O   UNL A   1      44.057  24.875  37.682  1.00  0.00    -0.237 OA
ATOM     70  O   UNL A   1      43.966  23.545  35.612  1.00  0.00    -0.237 OA
ATOM     71  O   UNL A   1      46.114  23.872  36.749  1.00  0.00    -0.744 OA
ENDBRANCH  65  68
ENDBRANCH  38  61
ENDBRANCH  12  13
ENDBRANCH   5   7
ENDBRANCH   2   3
ENDBRANCH   1   2
BRANCH   1  72
ATOM     72  C   UNL A   1      31.791  29.985  26.523  1.00  0.00     0.023 C 
BRANCH  72  73
ATOM     73  C   UNL A   1      32.697  29.504  25.391  1.00  0.00     0.116 C 
BRANCH  73  74
ATOM     74  N   UNL A   1      32.104  29.714  24.079  1.00  0.00    -0.356 N 
ATOM     75  C   UNL A   1      31.505  28.818  23.242  1.00  0.00     0.224 C 
ATOM     76  H   UNL A   1      32.139  30.640  23.747  1.00  0.00     0.163 HD
ATOM     77  O   UNL A   1      31.039  29.223  22.178  1.00  0.00    -0.275 OA
BRANCH  75  78
ATOM     78  C   UNL A   1      31.448  27.358  23.647  1.00  0.00     0.098 C 
ATOM     79  C   UNL A   1      30.104  26.990  24.294  1.00  0.00     0.017 C 
ATOM     80  C   UNL A   1      31.672  26.477  22.419  1.00  0.00     0.133 C 
ATOM     81  C   UNL A   1      30.080  25.503  24.656  1.00  0.00     0.022 C 
ATOM     82  N   UNL A   1      31.652  25.067  22.808  1.00  0.00    -0.338 N 
ATOM     83  C   UNL A   1      30.414  24.622  23.453  1.00  0.00     0.120 C 
BRANCH  82  84
ATOM     84  C   UNL A   1      32.793  24.301  22.596  1.00  0.00     0.255 C 
ATOM     85  O   UNL A   1      33.500  24.387  21.594  1.00  0.00    -0.269 OA
BRANCH  84  86
ATOM     86  C   UNL A   1      33.246  23.376  23.647  1.00  0.00     0.059 A 
ATOM     87  C   UNL A   1      32.963  22.016  23.458  1.00  0.00     0.031 A 
ATOM     88  C   UNL A   1      33.879  23.813  24.816  1.00  0.00     0.053 A 
ATOM     89  C   UNL A   1      33.361  21.093  24.422  1.00  0.00     0.018 A 
ATOM     90  C   UNL A   1      34.283  22.874  25.770  1.00  0.00     0.022 A 
ATOM     91  Cl  UNL A   1      34.177  25.479  25.149  1.00  0.00    -0.083 Cl
ATOM     92  Br  UNL A   1      32.990  19.257  24.172  1.00  0.00    -0.051 Br
ATOM     93  C   UNL A   1      34.029  21.514  25.571  1.00  0.00     0.017 A 
ENDBRANCH  84  86
ENDBRANCH  82  84
ENDBRANCH  75  78
ENDBRANCH  73  74
ENDBRANCH  72  73
ENDBRANCH   1  72
TORSDOF 16
ENDMDL
MODEL 3
REMARK VINA RESULT:     -11.7      1.985      7.892
REMARK SMILES O=C(NCCCCNC(=O)[C@H]1CCCN(C(=O)c2cc(Br)ccc2Cl)C1)c1ccc(-c2c3nc(c(-c4cccc(S(=O)(=O)[O-])c4F)c4ccc([nH]4)c(-c4cccc(S(=O)(=O)[O-])c4F)c4nc(c(-c5cccc(S(=O)(=O)[O-])c5F)c5ccc2[nH]5)C=C4)C=C3)cc1
REMARK SMILES IDX 5 1 4 2 3 3 1 4 2 5 27 7 28 8 89 9 29 10 88 11 30 12 31 13
REMARK SMILES IDX 32 14 82 15 33 16 87 17 81 18 83 19 34 20 86 21 80 22 79 23
REMARK SMILES IDX 35 25 67 26 47 27 66 28 48 29 51 30 65 31 84 32 49 33 50 34
REMARK SMILES IDX 64 36 85 37 52 38 36 39 37 40 45 41 38 42 40 43 46 44 39 45
REMARK SMILES IDX 41 46 42 47 43 48 44 49 68 50 69 51 77 52 70 53 72 54 78 55
REMARK SMILES IDX 71 56 73 57 74 58 75 59 76 60 53 61 54 62 62 63 55 64 57 65
REMARK SMILES IDX 63 66 56 67 58 68 59 69 60 70 61 71 6 72 7 73 8 74 9 75
REMARK SMILES IDX 10 77 11 78 12 79 26 80 13 81 15 82 14 83 16 84 17 85 18 86
REMARK SMILES IDX 19 87 24 88 20 89 23 90 25 91 21 92 22 93
REMARK H PARENT 3 6 83 24 51 35 8 76
REMARK Flexibility Score: inf
ROOT
ATOM      1  C   UNL A   1      35.123  21.965  25.801  1.00  0.00     0.023 C 
ENDROOT
BRANCH   1   2
ATOM      2  C   UNL A   1      36.563  22.457  25.782  1.00  0.00     0.116 C 
BRANCH   2   3
ATOM      3  N   UNL A   1      37.539  21.379  25.756  1.00  0.00    -0.352 N 
ATOM      4  O   UNL A   1      39.586  20.441  25.880  1.00  0.00    -0.269 OA
ATOM      5  C   UNL A   1      38.878  21.424  26.072  1.00  0.00     0.251 C 
ATOM      6  H   UNL A   1      37.196  20.500  25.475  1.00  0.00     0.163 HD
BRANCH   5   7
ATOM      7  C   UNL A   1      39.458  22.676  26.609  1.00  0.00     0.039 A 
ATOM      8  C   UNL A   1      39.045  23.916  26.119  1.00  0.00     0.014 A 
ATOM      9  C   UNL A   1      40.448  22.606  27.595  1.00  0.00     0.014 A 
ATOM     10  C   UNL A   1      39.726  25.067  26.497  1.00  0.00     0.010 A 
ATOM     11  C   UNL A   1      41.072  23.777  28.039  1.00  0.00     0.010 A 
ATOM     12  C   UNL A   1      40.743  25.014  27.465  1.00  0.00    -0.014 A 
BRANCH  12  13
ATOM     13  C   UNL A   1      41.389  26.282  27.897  1.00  0.00     0.031 A 
ATOM     14  C   UNL A   1      42.804  26.620  27.513  1.00  0.00     0.074 A 
ATOM     15  C   UNL A   1      40.659  27.156  28.618  1.00  0.00     0.049 A 
ATOM     16  N   UNL A   1      43.472  27.723  27.738  1.00  0.00    -0.248 NA
ATOM     17  C   UNL A   1      43.574  25.594  26.792  1.00  0.00     0.031 C 
ATOM     18  C   UNL A   1      39.299  26.911  29.103  1.00  0.00     0.029 A 
ATOM     19  N   UNL A   1      40.945  28.422  29.058  1.00  0.00    -0.354 N 
ATOM     20  C   UNL A   1      44.743  27.519  27.215  1.00  0.00     0.074 A 
ATOM     21  C   UNL A   1      44.761  26.177  26.673  1.00  0.00     0.031 C 
ATOM     22  C   UNL A   1      38.854  28.004  29.737  1.00  0.00     0.029 A 
ATOM     23  C   UNL A   1      39.908  29.012  29.742  1.00  0.00     0.049 A 
ATOM     24  H   UNL A   1      41.809  28.867  28.899  1.00  0.00     0.167 HD
ATOM     25  C   UNL A   1      45.790  28.378  27.170  1.00  0.00     0.034 A 
ATOM     26  C   UNL A   1      39.811  30.228  30.311  1.00  0.00     0.034 A 
ATOM     27  C   UNL A   1      45.757  29.724  27.680  1.00  0.00     0.049 A 
ATOM     28  C   UNL A   1      40.967  31.180  30.190  1.00  0.00     0.074 A 
ATOM     29  C   UNL A   1      46.757  30.682  27.650  1.00  0.00     0.029 A 
ATOM     30  N   UNL A   1      44.667  30.308  28.308  1.00  0.00    -0.354 N 
ATOM     31  N   UNL A   1      42.115  31.006  29.582  1.00  0.00    -0.248 NA
ATOM     32  C   UNL A   1      40.802  32.504  30.804  1.00  0.00     0.031 C 
ATOM     33  C   UNL A   1      46.271  31.844  28.261  1.00  0.00     0.029 A 
ATOM     34  C   UNL A   1      44.967  31.613  28.666  1.00  0.00     0.049 A 
ATOM     35  H   UNL A   1      43.806  29.860  28.476  1.00  0.00     0.167 HD
ATOM     36  C   UNL A   1      42.807  32.201  29.731  1.00  0.00     0.074 A 
ATOM     37  C   UNL A   1      41.930  33.105  30.450  1.00  0.00     0.031 C 
ATOM     38  C   UNL A   1      44.066  32.513  29.339  1.00  0.00     0.034 A 
BRANCH  25  39
ATOM     39  C   UNL A   1      47.051  27.915  26.486  1.00  0.00     0.023 A 
ATOM     40  C   UNL A   1      48.061  27.300  27.253  1.00  0.00     0.012 A 
ATOM     41  C   UNL A   1      47.206  28.007  25.088  1.00  0.00     0.148 A 
ATOM     42  C   UNL A   1      49.214  26.803  26.646  1.00  0.00     0.002 A 
ATOM     43  C   UNL A   1      48.342  27.476  24.485  1.00  0.00     0.091 A 
ATOM     44  F   UNL A   1      46.244  28.611  24.376  1.00  0.00    -0.205 F 
ATOM     45  C   UNL A   1      49.349  26.881  25.262  1.00  0.00     0.022 A 
BRANCH  43  46
ATOM     46  S   UNL A   1      48.578  27.464  22.703  1.00  0.00     0.127 S 
ATOM     47  O   UNL A   1      47.411  28.215  22.245  1.00  0.00    -0.237 OA
ATOM     48  O   UNL A   1      49.852  28.169  22.554  1.00  0.00    -0.237 OA
ATOM     49  O   UNL A   1      48.614  26.061  22.314  1.00  0.00    -0.744 OA
ENDBRANCH  43  46
ENDBRANCH  25  39
BRANCH  26  50
ATOM     50  C   UNL A   1      38.546  30.623  30.989  1.00  0.00     0.023 A 
ATOM     51  C   UNL A   1      38.408  30.426  32.376  1.00  0.00     0.012 A 
ATOM     52  C   UNL A   1      37.506  31.254  30.280  1.00  0.00     0.148 A 
ATOM     53  C   UNL A   1      37.249  30.831  33.039  1.00  0.00     0.002 A 
ATOM     54  C   UNL A   1      36.383  31.712  30.956  1.00  0.00     0.091 A 
ATOM     55  F   UNL A   1      37.643  31.414  28.955  1.00  0.00    -0.205 F 
ATOM     56  C   UNL A   1      36.244  31.487  32.333  1.00  0.00     0.022 A 
BRANCH  54  57
ATOM     57  S   UNL A   1      35.135  32.707  30.130  1.00  0.00     0.127 S 
ATOM     58  O   UNL A   1      34.640  31.785  29.112  1.00  0.00    -0.237 OA
ATOM     59  O   UNL A   1      34.193  32.992  31.213  1.00  0.00    -0.237 OA
ATOM     60  O   UNL A   1      35.852  33.879  29.647  1.00  0.00    -0.744 OA
ENDBRANCH  54  57
ENDBRANCH  26  50
BRANCH  38  61
ATOM     61  C   UNL A   1      44.570  33.889  29.681  1.00  0.00     0.023 A 
ATOM     62  C   UNL A   1      45.176  34.108  30.935  1.00  0.00     0.012 A 
ATOM     63  C   UNL A   1      44.487  34.947  28.757  1.00  0.00     0.148 A 
ATOM     64  C   UNL A   1      45.660  35.370  31.278  1.00  0.00     0.002 A 
ATOM     65  C   UNL A   1      45.009  36.192  29.090  1.00  0.00     0.091 A 
ATOM     66  F   UNL A   1      43.886  34.726  27.579  1.00  0.00    -0.205 F 
ATOM     67  C   UNL A   1      45.585  36.408  30.352  1.00  0.00     0.022 A 
BRANCH  65  68
ATOM     68  S   UNL A   1      45.022  37.559  27.925  1.00  0.00     0.127 S 
ATOM     69  O   UNL A   1      45.673  38.611  28.703  1.00  0.00    -0.237 OA
ATOM     70  O   UNL A   1      45.827  37.028  26.823  1.00  0.00    -0.237 OA
ATOM     71  O   UNL A   1      43.625  37.796  27.584  1.00  0.00    -0.744 OA
ENDBRANCH  65  68
ENDBRANCH  38  61
ENDBRANCH  12  13
ENDBRANCH   5   7
ENDBRANCH   2   3
ENDBRANCH   1   2
BRANCH   1  72
ATOM     72  C   UNL A   1      34.195  22.692  26.774  1.00  0.00     0.023 C 
BRANCH  72  73
ATOM     73  C   UNL A   1      32.706  22.580  26.453  1.00  0.00     0.116 C 
BRANCH  73  74
ATOM     74  N   UNL A   1      32.453  21.769  25.272  1.00  0.00    -0.356 N 
ATOM     75  C   UNL A   1      32.265  22.153  23.976  1.00  0.00     0.224 C 
ATOM     76  H   UNL A   1      32.412  20.798  25.432  1.00  0.00     0.163 HD
ATOM     77  O   UNL A   1      32.093  21.285  23.121  1.00  0.00    -0.275 OA
BRANCH  75  78
ATOM     78  C   UNL A   1      32.261  23.632  23.641  1.00  0.00     0.098 C 
ATOM     79  C   UNL A   1      33.247  23.970  22.511  1.00  0.00     0.017 C 
ATOM     80  C   UNL A   1      30.856  24.060  23.225  1.00  0.00     0.133 C 
ATOM     81  C   UNL A   1      33.186  25.464  22.185  1.00  0.00     0.022 C 
ATOM     82  N   UNL A   1      30.836  25.493  22.933  1.00  0.00    -0.338 N 
ATOM     83  C   UNL A   1      31.760  25.919  21.878  1.00  0.00     0.120 C 
BRANCH  82  84
ATOM     84  C   UNL A   1      30.016  26.318  23.693  1.00  0.00     0.255 C 
ATOM     85  O   UNL A   1      28.861  26.036  24.005  1.00  0.00    -0.269 OA
BRANCH  84  86
ATOM     86  C   UNL A   1      30.559  27.575  24.233  1.00  0.00     0.059 A 
ATOM     87  C   UNL A   1      31.452  27.468  25.309  1.00  0.00     0.031 A 
ATOM     88  C   UNL A   1      30.174  28.831  23.754  1.00  0.00     0.053 A 
ATOM     89  C   UNL A   1      31.993  28.623  25.867  1.00  0.00     0.018 A 
ATOM     90  C   UNL A   1      30.734  29.982  24.316  1.00  0.00     0.022 A 
ATOM     91  Cl  UNL A   1      29.014  29.033  22.493  1.00  0.00    -0.083 Cl
ATOM     92  Br  UNL A   1      33.203  28.488  27.312  1.00  0.00    -0.051 Br
ATOM     93  C   UNL A   1      31.648  29.878  25.369  1.00  0.00     0.017 A 
ENDBRANCH  84  86
ENDBRANCH  82  84
ENDBRANCH  75  78
ENDBRANCH  73  74
ENDBRANCH  72  73
ENDBRANCH   1  72
TORSDOF 16
ENDMDL
