MODEL 1
REMARK VINA RESULT:     -10.1      0.000      0.000
REMARK SMILES O=C(NCCCCNC(=O)c1ccccc1NC(=O)c1ccc(N2C(=O)[C@H]3CC=CC[C@H]3C2=O)cc1)c1ccc(-c2c3nc(c(-c4cccc(S(=O)(=O)[O-])c4F)c4ccc([nH]4)c(-c4cccc(S(=O)(=O)[O-])c4F)c4nc(c(-c5cccc(S(=O)(=O)[O-])c5F)c5ccc2[nH]5)C=C4)C=C3)cc1
REMARK SMILES IDX 5 1 4 2 3 3 1 4 2 5 37 7 38 8 99 9 39 10 98 11 40 12 41 13
REMARK SMILES IDX 42 14 92 15 43 16 97 17 91 18 93 19 44 20 96 21 90 22 89 23
REMARK SMILES IDX 45 25 77 26 57 27 76 28 58 29 61 30 75 31 94 32 59 33 60 34
REMARK SMILES IDX 74 36 95 37 62 38 46 39 47 40 55 41 48 42 50 43 56 44 49 45
REMARK SMILES IDX 51 46 52 47 53 48 54 49 78 50 79 51 87 52 80 53 82 54 88 55
REMARK SMILES IDX 81 56 83 57 84 58 85 59 86 60 63 61 64 62 72 63 65 64 67 65
REMARK SMILES IDX 73 66 66 67 68 68 69 69 70 70 71 71 6 72 7 73 8 74 9 75
REMARK SMILES IDX 10 77 11 78 12 79 16 80 13 81 15 82 14 83 17 84 18 85 19 87
REMARK SMILES IDX 20 88 21 89 36 90 22 91 35 92 23 93 24 94 25 95 33 96 26 97
REMARK SMILES IDX 27 98 32 99 34 100 28 101 31 102 29 103 30 104
REMARK H PARENT 3 6 93 24 61 35 8 76 17 86
REMARK Flexibility Score: inf
ROOT
ATOM      1  C   UNL A   1      35.447  34.186  34.876  1.00  0.00     0.023 C 
ENDROOT
BRANCH   1   2
ATOM      2  C   UNL A   1      36.933  33.976  35.138  1.00  0.00     0.116 C 
BRANCH   2   3
ATOM      3  N   UNL A   1      37.203  33.359  36.426  1.00  0.00    -0.352 N 
ATOM      4  O   UNL A   1      38.094  31.868  37.863  1.00  0.00    -0.269 OA
ATOM      5  C   UNL A   1      38.109  32.373  36.744  1.00  0.00     0.251 C 
ATOM      6  H   UNL A   1      36.661  33.693  37.177  1.00  0.00     0.163 HD
BRANCH   5   7
ATOM      7  C   UNL A   1      39.072  31.902  35.723  1.00  0.00     0.039 A 
ATOM      8  C   UNL A   1      40.431  32.203  35.837  1.00  0.00     0.014 A 
ATOM      9  C   UNL A   1      38.610  31.165  34.629  1.00  0.00     0.014 A 
ATOM     10  C   UNL A   1      41.291  31.920  34.782  1.00  0.00     0.010 A 
ATOM     11  C   UNL A   1      39.499  30.794  33.613  1.00  0.00     0.010 A 
ATOM     12  C   UNL A   1      40.840  31.201  33.662  1.00  0.00    -0.014 A 
BRANCH  12  13
ATOM     13  C   UNL A   1      41.820  30.830  32.606  1.00  0.00     0.031 A 
ATOM     14  C   UNL A   1      42.239  31.799  31.535  1.00  0.00     0.074 A 
ATOM     15  C   UNL A   1      42.364  29.597  32.649  1.00  0.00     0.049 A 
ATOM     16  N   UNL A   1      43.139  31.644  30.597  1.00  0.00    -0.248 NA
ATOM     17  C   UNL A   1      41.561  33.106  31.497  1.00  0.00     0.031 C 
ATOM     18  C   UNL A   1      41.992  28.549  33.605  1.00  0.00     0.029 A 
ATOM     19  N   UNL A   1      43.346  29.016  31.889  1.00  0.00    -0.354 N 
ATOM     20  C   UNL A   1      43.118  32.811  29.842  1.00  0.00     0.074 A 
ATOM     21  C   UNL A   1      42.104  33.666  30.423  1.00  0.00     0.031 C 
ATOM     22  C   UNL A   1      42.765  27.473  33.403  1.00  0.00     0.029 A 
ATOM     23  C   UNL A   1      43.652  27.732  32.276  1.00  0.00     0.049 A 
ATOM     24  H   UNL A   1      43.789  29.474  31.138  1.00  0.00     0.167 HD
ATOM     25  C   UNL A   1      43.887  33.147  28.777  1.00  0.00     0.034 A 
ATOM     26  C   UNL A   1      44.544  26.855  31.779  1.00  0.00     0.034 A 
ATOM     27  C   UNL A   1      44.921  32.310  28.227  1.00  0.00     0.049 A 
ATOM     28  C   UNL A   1      45.417  27.278  30.634  1.00  0.00     0.074 A 
ATOM     29  C   UNL A   1      45.782  32.583  27.179  1.00  0.00     0.029 A 
ATOM     30  N   UNL A   1      45.237  31.038  28.680  1.00  0.00    -0.354 N 
ATOM     31  N   UNL A   1      45.464  28.435  30.019  1.00  0.00    -0.248 NA
ATOM     32  C   UNL A   1      46.378  26.288  30.132  1.00  0.00     0.031 C 
ATOM     33  C   UNL A   1      46.616  31.473  26.993  1.00  0.00     0.029 A 
ATOM     34  C   UNL A   1      46.280  30.513  27.933  1.00  0.00     0.049 A 
ATOM     35  H   UNL A   1      44.787  30.575  29.424  1.00  0.00     0.167 HD
ATOM     36  C   UNL A   1      46.463  28.314  29.062  1.00  0.00     0.074 A 
ATOM     37  C   UNL A   1      47.027  26.988  29.212  1.00  0.00     0.031 C 
ATOM     38  C   UNL A   1      46.857  29.208  28.122  1.00  0.00     0.034 A 
BRANCH  25  39
ATOM     39  C   UNL A   1      43.688  34.509  28.162  1.00  0.00     0.023 A 
ATOM     40  C   UNL A   1      42.839  34.642  27.045  1.00  0.00     0.012 A 
ATOM     41  C   UNL A   1      44.253  35.663  28.741  1.00  0.00     0.148 A 
ATOM     42  C   UNL A   1      42.568  35.897  26.503  1.00  0.00     0.002 A 
ATOM     43  C   UNL A   1      43.950  36.916  28.217  1.00  0.00     0.091 A 
ATOM     44  F   UNL A   1      45.071  35.515  29.793  1.00  0.00    -0.205 F 
ATOM     45  C   UNL A   1      43.113  37.033  27.095  1.00  0.00     0.022 A 
BRANCH  43  46
ATOM     46  S   UNL A   1      44.544  38.447  28.947  1.00  0.00     0.127 S 
ATOM     47  O   UNL A   1      45.987  38.335  28.733  1.00  0.00    -0.237 OA
ATOM     48  O   UNL A   1      43.883  39.459  28.124  1.00  0.00    -0.237 OA
ATOM     49  O   UNL A   1      44.116  38.421  30.338  1.00  0.00    -0.744 OA
ENDBRANCH  43  46
ENDBRANCH  25  39
BRANCH  26  50
ATOM     50  C   UNL A   1      44.684  25.511  32.406  1.00  0.00     0.023 A 
ATOM     51  C   UNL A   1      43.994  24.412  31.859  1.00  0.00     0.012 A 
ATOM     52  C   UNL A   1      45.535  25.306  33.508  1.00  0.00     0.148 A 
ATOM     53  C   UNL A   1      44.133  23.139  32.413  1.00  0.00     0.002 A 
ATOM     54  C   UNL A   1      45.718  24.025  34.015  1.00  0.00     0.091 A 
ATOM     55  F   UNL A   1      46.167  26.366  34.035  1.00  0.00    -0.205 F 
ATOM     56  C   UNL A   1      45.006  22.942  33.481  1.00  0.00     0.022 A 
BRANCH  54  57
ATOM     57  S   UNL A   1      46.949  23.690  35.280  1.00  0.00     0.127 S 
ATOM     58  O   UNL A   1      46.914  22.233  35.355  1.00  0.00    -0.237 OA
ATOM     59  O   UNL A   1      48.167  24.248  34.690  1.00  0.00    -0.237 OA
ATOM     60  O   UNL A   1      46.480  24.408  36.458  1.00  0.00    -0.744 OA
ENDBRANCH  54  57
ENDBRANCH  26  50
BRANCH  38  61
ATOM     61  C   UNL A   1      47.948  28.773  27.181  1.00  0.00     0.023 A 
ATOM     62  C   UNL A   1      49.293  28.913  27.575  1.00  0.00     0.012 A 
ATOM     63  C   UNL A   1      47.648  28.197  25.933  1.00  0.00     0.148 A 
ATOM     64  C   UNL A   1      50.326  28.519  26.726  1.00  0.00     0.002 A 
ATOM     65  C   UNL A   1      48.682  27.768  25.109  1.00  0.00     0.091 A 
ATOM     66  F   UNL A   1      46.362  28.094  25.564  1.00  0.00    -0.205 F 
ATOM     67  C   UNL A   1      50.020  27.938  25.498  1.00  0.00     0.022 A 
BRANCH  65  68
ATOM     68  S   UNL A   1      48.371  26.936  23.547  1.00  0.00     0.127 S 
ATOM     69  O   UNL A   1      49.727  26.732  23.041  1.00  0.00    -0.237 OA
ATOM     70  O   UNL A   1      47.688  25.712  23.969  1.00  0.00    -0.237 OA
ATOM     71  O   UNL A   1      47.538  27.849  22.775  1.00  0.00    -0.744 OA
ENDBRANCH  65  68
ENDBRANCH  38  61
ENDBRANCH  12  13
ENDBRANCH   5   7
ENDBRANCH   2   3
ENDBRANCH   1   2
BRANCH   1  72
ATOM     72  C   UNL A   1      35.103  34.899  33.569  1.00  0.00     0.023 C 
BRANCH  72  73
ATOM     73  C   UNL A   1      34.456  34.025  32.500  1.00  0.00     0.116 C 
BRANCH  73  74
ATOM     74  N   UNL A   1      34.884  32.637  32.575  1.00  0.00    -0.352 N 
ATOM     75  C   UNL A   1      35.862  31.982  31.876  1.00  0.00     0.253 C 
ATOM     76  H   UNL A   1      34.396  32.085  33.227  1.00  0.00     0.163 HD
ATOM     77  O   UNL A   1      35.984  30.765  31.981  1.00  0.00    -0.269 OA
BRANCH  75  78
ATOM     78  C   UNL A   1      36.782  32.721  30.989  1.00  0.00     0.063 A 
ATOM     79  C   UNL A   1      37.657  33.614  31.629  1.00  0.00     0.016 A 
ATOM     80  C   UNL A   1      36.756  32.604  29.581  1.00  0.00     0.054 A 
ATOM     81  C   UNL A   1      38.525  34.399  30.880  1.00  0.00     0.001 A 
ATOM     82  C   UNL A   1      37.588  33.459  28.853  1.00  0.00     0.027 A 
ATOM     83  C   UNL A   1      38.480  34.330  29.492  1.00  0.00     0.002 A 
BRANCH  80  84
ATOM     84  N   UNL A   1      35.890  31.656  28.987  1.00  0.00    -0.321 N 
ATOM     85  C   UNL A   1      36.049  30.376  28.508  1.00  0.00     0.255 C 
ATOM     86  H   UNL A   1      34.967  31.985  28.895  1.00  0.00     0.170 HD
ATOM     87  O   UNL A   1      35.089  29.784  28.022  1.00  0.00    -0.269 OA
BRANCH  85  88
ATOM     88  C   UNL A   1      37.337  29.675  28.559  1.00  0.00     0.040 A 
ATOM     89  C   UNL A   1      37.625  28.955  29.714  1.00  0.00     0.016 A 
ATOM     90  C   UNL A   1      38.238  29.683  27.495  1.00  0.00     0.016 A 
ATOM     91  C   UNL A   1      38.746  28.125  29.747  1.00  0.00     0.027 A 
ATOM     92  C   UNL A   1      39.361  28.842  27.536  1.00  0.00     0.027 A 
ATOM     93  C   UNL A   1      39.601  28.000  28.637  1.00  0.00     0.052 A 
BRANCH  93  94
ATOM     94  N   UNL A   1      40.625  27.001  28.613  1.00  0.00    -0.250 N 
ATOM     95  C   UNL A   1      40.381  25.665  28.377  1.00  0.00     0.238 C 
ATOM     96  C   UNL A   1      41.970  27.252  28.742  1.00  0.00     0.238 C 
ATOM     97  O   UNL A   1      39.309  25.103  28.182  1.00  0.00    -0.274 OA
ATOM     98  C   UNL A   1      41.682  24.904  28.344  1.00  0.00     0.096 C 
ATOM     99  C   UNL A   1      42.750  25.973  28.547  1.00  0.00     0.096 C 
ATOM    100  O   UNL A   1      42.526  28.309  29.016  1.00  0.00    -0.274 OA
ATOM    101  C   UNL A   1      41.776  24.087  27.051  1.00  0.00     0.041 C 
ATOM    102  C   UNL A   1      43.767  26.147  27.415  1.00  0.00     0.041 C 
ATOM    103  C   UNL A   1      42.288  24.884  25.889  1.00  0.00    -0.030 C 
ATOM    104  C   UNL A   1      43.209  25.840  26.060  1.00  0.00    -0.030 C 
ENDBRANCH  93  94
ENDBRANCH  85  88
ENDBRANCH  80  84
ENDBRANCH  75  78
ENDBRANCH  73  74
ENDBRANCH  72  73
ENDBRANCH   1  72
TORSDOF 17
ENDMDL
MODEL 2
REMARK VINA RESULT:     -10.1      5.338     10.832
REMARK SMILES O=C(NCCCCNC(=O)c1ccccc1NC(=O)c1ccc(N2C(=O)[C@H]3CC=CC[C@H]3C2=O)cc1)c1ccc(-c2c3nc(c(-c4cccc(S(=O)(=O)[O-])c4F)c4ccc([nH]4)c(-c4cccc(S(=O)(=O)[O-])c4F)c4nc(c(-c5cccc(S(=O)(=O)[O-])c5F)c5ccc2[nH]5)C=C4)C=C3)cc1
REMARK SMILES IDX 5 1 4 2 3 3 1 4 2 5 37 7 38 8 99 9 39 10 98 11 40 12 41 13
REMARK SMILES IDX 42 14 92 15 43 16 97 17 91 18 93 19 44 20 96 21 90 22 89 23
REMARK SMILES IDX 45 25 77 26 57 27 76 28 58 29 61 30 75 31 94 32 59 33 60 34
REMARK SMILES IDX 74 36 95 37 62 38 46 39 47 40 55 41 48 42 50 43 56 44 49 45
REMARK SMILES IDX 51 46 52 47 53 48 54 49 78 50 79 51 87 52 80 53 82 54 88 55
REMARK SMILES IDX 81 56 83 57 84 58 85 59 86 60 63 61 64 62 72 63 65 64 67 65
REMARK SMILES IDX 73 66 66 67 68 68 69 69 70 70 71 71 6 72 7 73 8 74 9 75
REMARK SMILES IDX 10 77 11 78 12 79 16 80 13 81 15 82 14 83 17 84 18 85 19 87
REMARK SMILES IDX 20 88 21 89 36 90 22 91 35 92 23 93 24 94 25 95 33 96 26 97
REMARK SMILES IDX 27 98 32 99 34 100 28 101 31 102 29 103 30 104
REMARK H PARENT 3 6 93 24 61 35 8 76 17 86
REMARK Flexibility Score: inf
ROOT
ATOM      1  C   UNL A   1      37.690  19.548  24.637  1.00  0.00     0.023 C 
ENDROOT
BRANCH   1   2
ATOM      2  C   UNL A   1      38.594  20.082  25.740  1.00  0.00     0.116 C 
BRANCH   2   3
ATOM      3  N   UNL A   1      39.751  19.238  25.989  1.00  0.00    -0.352 N 
ATOM      4  O   UNL A   1      41.923  18.752  26.344  1.00  0.00    -0.269 OA
ATOM      5  C   UNL A   1      41.037  19.601  26.318  1.00  0.00     0.251 C 
ATOM      6  H   UNL A   1      39.592  18.270  25.910  1.00  0.00     0.163 HD
BRANCH   5   7
ATOM      7  C   UNL A   1      41.350  21.020  26.603  1.00  0.00     0.039 A 
ATOM      8  C   UNL A   1      41.199  21.993  25.613  1.00  0.00     0.014 A 
ATOM      9  C   UNL A   1      41.815  21.381  27.871  1.00  0.00     0.014 A 
ATOM     10  C   UNL A   1      41.673  23.281  25.834  1.00  0.00     0.010 A 
ATOM     11  C   UNL A   1      42.199  22.704  28.122  1.00  0.00     0.010 A 
ATOM     12  C   UNL A   1      42.167  23.657  27.094  1.00  0.00    -0.014 A 
BRANCH  12  13
ATOM     13  C   UNL A   1      42.566  25.074  27.315  1.00  0.00     0.031 A 
ATOM     14  C   UNL A   1      41.650  26.062  27.982  1.00  0.00     0.074 A 
ATOM     15  C   UNL A   1      43.802  25.453  26.930  1.00  0.00     0.049 A 
ATOM     16  N   UNL A   1      41.889  27.307  28.312  1.00  0.00    -0.248 NA
ATOM     17  C   UNL A   1      40.290  25.610  28.317  1.00  0.00     0.031 C 
ATOM     18  C   UNL A   1      44.758  24.598  26.219  1.00  0.00     0.029 A 
ATOM     19  N   UNL A   1      44.473  26.636  27.090  1.00  0.00    -0.354 N 
ATOM     20  C   UNL A   1      40.710  27.795  28.862  1.00  0.00     0.074 A 
ATOM     21  C   UNL A   1      39.747  26.716  28.812  1.00  0.00     0.031 C 
ATOM     22  C   UNL A   1      45.904  25.270  26.044  1.00  0.00     0.029 A 
ATOM     23  C   UNL A   1      45.752  26.615  26.583  1.00  0.00     0.049 A 
ATOM     24  H   UNL A   1      44.078  27.427  27.525  1.00  0.00     0.167 HD
ATOM     25  C   UNL A   1      40.460  29.023  29.380  1.00  0.00     0.034 A 
ATOM     26  C   UNL A   1      46.699  27.571  26.551  1.00  0.00     0.034 A 
ATOM     27  C   UNL A   1      41.433  30.081  29.463  1.00  0.00     0.049 A 
ATOM     28  C   UNL A   1      46.408  28.901  27.180  1.00  0.00     0.074 A 
ATOM     29  C   UNL A   1      41.287  31.344  30.012  1.00  0.00     0.029 A 
ATOM     30  N   UNL A   1      42.733  30.004  28.987  1.00  0.00    -0.354 N 
ATOM     31  N   UNL A   1      45.327  29.297  27.807  1.00  0.00    -0.248 NA
ATOM     32  C   UNL A   1      47.476  29.908  27.124  1.00  0.00     0.031 C 
ATOM     33  C   UNL A   1      42.497  32.032  29.863  1.00  0.00     0.029 A 
ATOM     34  C   UNL A   1      43.400  31.194  29.229  1.00  0.00     0.049 A 
ATOM     35  H   UNL A   1      43.126  29.217  28.542  1.00  0.00     0.167 HD
ATOM     36  C   UNL A   1      45.586  30.595  28.226  1.00  0.00     0.074 A 
ATOM     37  C   UNL A   1      46.944  30.902  27.823  1.00  0.00     0.031 C 
ATOM     38  C   UNL A   1      44.764  31.468  28.859  1.00  0.00     0.034 A 
BRANCH  25  39
ATOM     39  C   UNL A   1      39.093  29.283  29.960  1.00  0.00     0.023 A 
ATOM     40  C   UNL A   1      38.805  28.841  31.266  1.00  0.00     0.012 A 
ATOM     41  C   UNL A   1      38.134  30.043  29.261  1.00  0.00     0.148 A 
ATOM     42  C   UNL A   1      37.581  29.137  31.864  1.00  0.00     0.002 A 
ATOM     43  C   UNL A   1      36.928  30.364  29.876  1.00  0.00     0.091 A 
ATOM     44  F   UNL A   1      38.420  30.440  28.013  1.00  0.00    -0.205 F 
ATOM     45  C   UNL A   1      36.649  29.907  31.175  1.00  0.00     0.022 A 
BRANCH  43  46
ATOM     46  S   UNL A   1      35.687  31.410  29.102  1.00  0.00     0.127 S 
ATOM     47  O   UNL A   1      36.516  32.457  28.505  1.00  0.00    -0.237 OA
ATOM     48  O   UNL A   1      35.070  30.498  28.140  1.00  0.00    -0.237 OA
ATOM     49  O   UNL A   1      34.807  31.849  30.175  1.00  0.00    -0.744 OA
ENDBRANCH  43  46
ENDBRANCH  25  39
BRANCH  26  50
ATOM     50  C   UNL A   1      48.025  27.273  25.942  1.00  0.00     0.023 A 
ATOM     51  C   UNL A   1      49.039  26.695  26.729  1.00  0.00     0.012 A 
ATOM     52  C   UNL A   1      48.270  27.513  24.576  1.00  0.00     0.148 A 
ATOM     53  C   UNL A   1      50.280  26.382  26.171  1.00  0.00     0.002 A 
ATOM     54  C   UNL A   1      49.485  27.141  24.014  1.00  0.00     0.091 A 
ATOM     55  F   UNL A   1      47.304  28.087  23.844  1.00  0.00    -0.205 F 
ATOM     56  C   UNL A   1      50.498  26.590  24.811  1.00  0.00     0.022 A 
BRANCH  54  57
ATOM     57  S   UNL A   1      49.760  27.237  22.241  1.00  0.00     0.127 S 
ATOM     58  O   UNL A   1      48.739  26.328  21.728  1.00  0.00    -0.237 OA
ATOM     59  O   UNL A   1      49.520  28.653  21.961  1.00  0.00    -0.237 OA
ATOM     60  O   UNL A   1      51.145  26.824  22.053  1.00  0.00    -0.744 OA
ENDBRANCH  54  57
ENDBRANCH  26  50
BRANCH  38  61
ATOM     61  C   UNL A   1      45.314  32.839  29.147  1.00  0.00     0.023 A 
ATOM     62  C   UNL A   1      45.987  33.069  30.363  1.00  0.00     0.012 A 
ATOM     63  C   UNL A   1      45.201  33.882  28.210  1.00  0.00     0.148 A 
ATOM     64  C   UNL A   1      46.509  34.327  30.659  1.00  0.00     0.002 A 
ATOM     65  C   UNL A   1      45.760  35.123  28.493  1.00  0.00     0.091 A 
ATOM     66  F   UNL A   1      44.536  33.652  27.067  1.00  0.00    -0.205 F 
ATOM     67  C   UNL A   1      46.404  35.351  29.720  1.00  0.00     0.022 A 
BRANCH  65  68
ATOM     68  S   UNL A   1      45.739  36.470  27.305  1.00  0.00     0.127 S 
ATOM     69  O   UNL A   1      46.418  35.870  26.158  1.00  0.00    -0.237 OA
ATOM     70  O   UNL A   1      44.306  36.700  27.111  1.00  0.00    -0.237 OA
ATOM     71  O   UNL A   1      46.439  37.573  27.949  1.00  0.00    -0.744 OA
ENDBRANCH  65  68
ENDBRANCH  38  61
ENDBRANCH  12  13
ENDBRANCH   5   7
ENDBRANCH   2   3
ENDBRANCH   1   2
BRANCH   1  72
ATOM     72  C   UNL A   1      36.323  19.039  25.094  1.00  0.00     0.023 C 
BRANCH  72  73
ATOM     73  C   UNL A   1      35.896  17.699  24.506  1.00  0.00     0.116 C 
BRANCH  73  74
ATOM     74  N   UNL A   1      34.785  17.098  25.227  1.00  0.00    -0.352 N 
ATOM     75  C   UNL A   1      33.469  17.470  25.276  1.00  0.00     0.253 C 
ATOM     76  H   UNL A   1      35.015  16.303  25.761  1.00  0.00     0.163 HD
ATOM     77  O   UNL A   1      32.701  16.915  26.057  1.00  0.00    -0.269 OA
BRANCH  75  78
ATOM     78  C   UNL A   1      32.950  18.537  24.398  1.00  0.00     0.063 A 
ATOM     79  C   UNL A   1      32.569  18.131  23.109  1.00  0.00     0.016 A 
ATOM     80  C   UNL A   1      32.896  19.895  24.784  1.00  0.00     0.054 A 
ATOM     81  C   UNL A   1      32.120  19.068  22.186  1.00  0.00     0.001 A 
ATOM     82  C   UNL A   1      32.511  20.822  23.811  1.00  0.00     0.027 A 
ATOM     83  C   UNL A   1      32.104  20.414  22.533  1.00  0.00     0.002 A 
BRANCH  80  84
ATOM     84  N   UNL A   1      33.246  20.246  26.109  1.00  0.00    -0.321 N 
ATOM     85  C   UNL A   1      33.574  21.425  26.736  1.00  0.00     0.255 C 
ATOM     86  H   UNL A   1      33.258  19.474  26.719  1.00  0.00     0.170 HD
ATOM     87  O   UNL A   1      33.851  21.422  27.934  1.00  0.00    -0.269 OA
BRANCH  85  88
ATOM     88  C   UNL A   1      33.602  22.710  26.027  1.00  0.00     0.040 A 
ATOM     89  C   UNL A   1      32.395  23.388  25.890  1.00  0.00     0.016 A 
ATOM     90  C   UNL A   1      34.781  23.267  25.531  1.00  0.00     0.016 A 
ATOM     91  C   UNL A   1      32.390  24.690  25.389  1.00  0.00     0.027 A 
ATOM     92  C   UNL A   1      34.765  24.578  25.032  1.00  0.00     0.027 A 
ATOM     93  C   UNL A   1      33.580  25.337  25.010  1.00  0.00     0.052 A 
BRANCH  93  94
ATOM     94  N   UNL A   1      33.584  26.731  24.690  1.00  0.00    -0.250 N 
ATOM     95  C   UNL A   1      33.569  27.216  23.400  1.00  0.00     0.238 C 
ATOM     96  C   UNL A   1      33.526  27.749  25.611  1.00  0.00     0.238 C 
ATOM     97  O   UNL A   1      33.577  26.593  22.345  1.00  0.00    -0.274 OA
ATOM     98  C   UNL A   1      33.500  28.722  23.419  1.00  0.00     0.096 C 
ATOM     99  C   UNL A   1      33.429  29.078  24.900  1.00  0.00     0.096 C 
ATOM    100  O   UNL A   1      33.583  27.676  26.833  1.00  0.00    -0.274 OA
ATOM    101  C   UNL A   1      32.334  29.203  22.549  1.00  0.00     0.041 C 
ATOM    102  C   UNL A   1      32.178  29.831  25.362  1.00  0.00     0.041 C 
ATOM    103  C   UNL A   1      31.021  29.198  23.271  1.00  0.00    -0.030 C 
ATOM    104  C   UNL A   1      30.951  29.487  24.576  1.00  0.00    -0.030 C 
ENDBRANCH  93  94
ENDBRANCH  85  88
ENDBRANCH  80  84
ENDBRANCH  75  78
ENDBRANCH  73  74
ENDBRANCH  72  73
ENDBRANCH   1  72
TORSDOF 17
ENDMDL
MODEL 3
REMARK VINA RESULT:     -10.0      2.630     11.757
REMARK SMILES O=C(NCCCCNC(=O)c1ccccc1NC(=O)c1ccc(N2C(=O)[C@H]3CC=CC[C@H]3C2=O)cc1)c1ccc(-c2c3nc(c(-c4cccc(S(=O)(=O)[O-])c4F)c4ccc([nH]4)c(-c4cccc(S(=O)(=O)[O-])c4F)c4nc(c(-c5cccc(S(=O)(=O)[O-])c5F)c5ccc2[nH]5)C=C4)C=C3)cc1
REMARK SMILES IDX 5 1 4 2 3 3 1 4 2 5 37 7 38 8 99 9 39 10 98 11 40 12 41 13
REMARK SMILES IDX 42 14 92 15 43 16 97 17 91 18 93 19 44 20 96 21 90 22 89 23
REMARK SMILES IDX 45 25 77 26 57 27 76 28 58 29 61 30 75 31 94 32 59 33 60 34
REMARK SMILES IDX 74 36 95 37 62 38 46 39 47 40 55 41 48 42 50 43 56 44 49 45
REMARK SMILES IDX 51 46 52 47 53 48 54 49 78 50 79 51 87 52 80 53 82 54 88 55
REMARK SMILES IDX 81 56 83 57 84 58 85 59 86 60 63 61 64 62 72 63 65 64 67 65
REMARK SMILES IDX 73 66 66 67 68 68 69 69 70 70 71 71 6 72 7 73 8 74 9 75
REMARK SMILES IDX 10 77 11 78 12 79 16 80 13 81 15 82 14 83 17 84 18 85 19 87
REMARK SMILES IDX 20 88 21 89 36 90 22 91 35 92 23 93 24 94 25 95 33 96 26 97
REMARK SMILES IDX 27 98 32 99 34 100 28 101 31 102 29 103 30 104
REMARK H PARENT 3 6 93 24 61 35 8 76 17 86
REMARK Flexibility Score: inf
ROOT
ATOM      1  C   UNL A   1      46.655  23.507  24.163  1.00  0.00     0.023 C 
ENDROOT
BRANCH   1   2
ATOM      2  C   UNL A   1      47.212  24.554  25.118  1.00  0.00     0.116 C 
BRANCH   2   3
ATOM      3  N   UNL A   1      47.959  25.603  24.443  1.00  0.00    -0.352 N 
ATOM      4  O   UNL A   1      48.519  27.711  23.877  1.00  0.00    -0.269 OA
ATOM      5  C   UNL A   1      47.925  26.963  24.648  1.00  0.00     0.251 C 
ATOM      6  H   UNL A   1      48.576  25.296  23.740  1.00  0.00     0.163 HD
BRANCH   5   7
ATOM      7  C   UNL A   1      47.143  27.517  25.776  1.00  0.00     0.039 A 
ATOM      8  C   UNL A   1      47.782  28.185  26.823  1.00  0.00     0.014 A 
ATOM      9  C   UNL A   1      45.754  27.355  25.797  1.00  0.00     0.014 A 
ATOM     10  C   UNL A   1      47.062  28.533  27.961  1.00  0.00     0.010 A 
ATOM     11  C   UNL A   1      45.017  27.796  26.902  1.00  0.00     0.010 A 
ATOM     12  C   UNL A   1      45.669  28.354  28.011  1.00  0.00    -0.014 A 
BRANCH  12  13
ATOM     13  C   UNL A   1      44.927  28.837  29.207  1.00  0.00     0.031 A 
ATOM     14  C   UNL A   1      44.748  27.979  30.430  1.00  0.00     0.074 A 
ATOM     15  C   UNL A   1      44.439  30.094  29.187  1.00  0.00     0.049 A 
ATOM     16  N   UNL A   1      44.194  28.292  31.574  1.00  0.00    -0.248 NA
ATOM     17  C   UNL A   1      45.241  26.594  30.367  1.00  0.00     0.031 C 
ATOM     18  C   UNL A   1      44.499  30.998  28.035  1.00  0.00     0.029 A 
ATOM     19  N   UNL A   1      43.814  30.834  30.156  1.00  0.00    -0.354 N 
ATOM     20  C   UNL A   1      44.242  27.143  32.355  1.00  0.00     0.074 A 
ATOM     21  C   UNL A   1      44.870  26.117  31.549  1.00  0.00     0.031 C 
ATOM     22  C   UNL A   1      43.975  32.184  28.377  1.00  0.00     0.029 A 
ATOM     23  C   UNL A   1      43.498  32.111  29.752  1.00  0.00     0.049 A 
ATOM     24  H   UNL A   1      43.610  30.486  31.054  1.00  0.00     0.167 HD
ATOM     25  C   UNL A   1      43.821  26.966  33.631  1.00  0.00     0.034 A 
ATOM     26  C   UNL A   1      42.887  33.113  30.411  1.00  0.00     0.034 A 
ATOM     27  C   UNL A   1      43.233  28.000  34.442  1.00  0.00     0.049 A 
ATOM     28  C   UNL A   1      42.482  32.902  31.840  1.00  0.00     0.074 A 
ATOM     29  C   UNL A   1      42.817  27.929  35.760  1.00  0.00     0.029 A 
ATOM     30  N   UNL A   1      42.978  29.295  34.015  1.00  0.00    -0.354 N 
ATOM     31  N   UNL A   1      42.653  31.845  32.596  1.00  0.00    -0.248 NA
ATOM     32  C   UNL A   1      41.826  34.028  32.517  1.00  0.00     0.031 C 
ATOM     33  C   UNL A   1      42.305  29.178  36.130  1.00  0.00     0.029 A 
ATOM     34  C   UNL A   1      42.411  30.031  35.043  1.00  0.00     0.049 A 
ATOM     35  H   UNL A   1      43.171  29.641  33.113  1.00  0.00     0.167 HD
ATOM     36  C   UNL A   1      42.133  32.179  33.839  1.00  0.00     0.074 A 
ATOM     37  C   UNL A   1      41.684  33.554  33.747  1.00  0.00     0.031 C 
ATOM     38  C   UNL A   1      42.007  31.409  34.948  1.00  0.00     0.034 A 
BRANCH  25  39
ATOM     39  C   UNL A   1      44.034  25.615  34.266  1.00  0.00     0.023 A 
ATOM     40  C   UNL A   1      43.009  24.651  34.191  1.00  0.00     0.012 A 
ATOM     41  C   UNL A   1      45.271  25.265  34.843  1.00  0.00     0.148 A 
ATOM     42  C   UNL A   1      43.203  23.365  34.694  1.00  0.00     0.002 A 
ATOM     43  C   UNL A   1      45.470  23.970  35.312  1.00  0.00     0.091 A 
ATOM     44  F   UNL A   1      46.228  26.200  34.920  1.00  0.00    -0.205 F 
ATOM     45  C   UNL A   1      44.436  23.022  35.243  1.00  0.00     0.022 A 
BRANCH  43  46
ATOM     46  S   UNL A   1      47.043  23.404  35.973  1.00  0.00     0.127 S 
ATOM     47  O   UNL A   1      46.628  22.249  36.770  1.00  0.00    -0.237 OA
ATOM     48  O   UNL A   1      47.787  23.070  34.759  1.00  0.00    -0.237 OA
ATOM     49  O   UNL A   1      47.586  24.522  36.731  1.00  0.00    -0.744 OA
ENDBRANCH  43  46
ENDBRANCH  25  39
BRANCH  26  50
ATOM     50  C   UNL A   1      42.676  34.421  29.730  1.00  0.00     0.023 A 
ATOM     51  C   UNL A   1      41.485  34.651  29.016  1.00  0.00     0.012 A 
ATOM     52  C   UNL A   1      43.625  35.456  29.830  1.00  0.00     0.148 A 
ATOM     53  C   UNL A   1      41.254  35.879  28.394  1.00  0.00     0.002 A 
ATOM     54  C   UNL A   1      43.362  36.697  29.262  1.00  0.00     0.091 A 
ATOM     55  F   UNL A   1      44.767  35.216  30.492  1.00  0.00    -0.205 F 
ATOM     56  C   UNL A   1      42.185  36.907  28.530  1.00  0.00     0.022 A 
BRANCH  54  57
ATOM     57  S   UNL A   1      44.447  38.100  29.543  1.00  0.00     0.127 S 
ATOM     58  O   UNL A   1      45.663  37.684  28.850  1.00  0.00    -0.237 OA
ATOM     59  O   UNL A   1      43.718  39.196  28.902  1.00  0.00    -0.237 OA
ATOM     60  O   UNL A   1      44.539  38.220  30.992  1.00  0.00    -0.744 OA
ENDBRANCH  54  57
ENDBRANCH  26  50
BRANCH  38  61
ATOM     61  C   UNL A   1      41.352  32.040  36.147  1.00  0.00     0.023 A 
ATOM     62  C   UNL A   1      42.132  32.812  37.031  1.00  0.00     0.012 A 
ATOM     63  C   UNL A   1      39.971  31.904  36.380  1.00  0.00     0.148 A 
ATOM     64  C   UNL A   1      41.555  33.410  38.150  1.00  0.00     0.002 A 
ATOM     65  C   UNL A   1      39.394  32.537  37.474  1.00  0.00     0.091 A 
ATOM     66  F   UNL A   1      39.249  31.146  35.541  1.00  0.00    -0.205 F 
ATOM     67  C   UNL A   1      40.185  33.280  38.366  1.00  0.00     0.022 A 
BRANCH  65  68
ATOM     68  S   UNL A   1      37.624  32.487  37.779  1.00  0.00     0.127 S 
ATOM     69  O   UNL A   1      37.381  31.051  37.900  1.00  0.00    -0.237 OA
ATOM     70  O   UNL A   1      37.496  33.233  39.031  1.00  0.00    -0.237 OA
ATOM     71  O   UNL A   1      37.009  33.138  36.629  1.00  0.00    -0.744 OA
ENDBRANCH  65  68
ENDBRANCH  38  61
ENDBRANCH  12  13
ENDBRANCH   5   7
ENDBRANCH   2   3
ENDBRANCH   1   2
BRANCH   1  72
ATOM     72  C   UNL A   1      45.985  22.302  24.823  1.00  0.00     0.023 C 
BRANCH  72  73
ATOM     73  C   UNL A   1      44.471  22.231  24.667  1.00  0.00     0.116 C 
BRANCH  73  74
ATOM     74  N   UNL A   1      43.857  23.543  24.537  1.00  0.00    -0.352 N 
ATOM     75  C   UNL A   1      43.223  24.311  25.477  1.00  0.00     0.253 C 
ATOM     76  H   UNL A   1      43.904  23.938  23.637  1.00  0.00     0.163 HD
ATOM     77  O   UNL A   1      42.644  25.340  25.142  1.00  0.00    -0.269 OA
BRANCH  75  78
ATOM     78  C   UNL A   1      43.225  23.921  26.901  1.00  0.00     0.063 A 
ATOM     79  C   UNL A   1      44.479  23.938  27.533  1.00  0.00     0.016 A 
ATOM     80  C   UNL A   1      42.067  23.489  27.583  1.00  0.00     0.054 A 
ATOM     81  C   UNL A   1      44.599  23.534  28.858  1.00  0.00     0.001 A 
ATOM     82  C   UNL A   1      42.232  23.020  28.890  1.00  0.00     0.027 A 
ATOM     83  C   UNL A   1      43.477  23.063  29.530  1.00  0.00     0.002 A 
BRANCH  80  84
ATOM     84  N   UNL A   1      40.820  23.536  26.916  1.00  0.00    -0.321 N 
ATOM     85  C   UNL A   1      39.790  24.445  26.867  1.00  0.00     0.255 C 
ATOM     86  H   UNL A   1      40.651  22.738  26.365  1.00  0.00     0.170 HD
ATOM     87  O   UNL A   1      38.794  24.202  26.189  1.00  0.00    -0.269 OA
BRANCH  85  88
ATOM     88  C   UNL A   1      39.831  25.717  27.598  1.00  0.00     0.040 A 
ATOM     89  C   UNL A   1      40.370  26.815  26.934  1.00  0.00     0.016 A 
ATOM     90  C   UNL A   1      39.325  25.857  28.890  1.00  0.00     0.016 A 
ATOM     91  C   UNL A   1      40.270  28.083  27.508  1.00  0.00     0.027 A 
ATOM     92  C   UNL A   1      39.226  27.137  29.456  1.00  0.00     0.027 A 
ATOM     93  C   UNL A   1      39.639  28.281  28.748  1.00  0.00     0.052 A 
BRANCH  93  94
ATOM     94  N   UNL A   1      39.367  29.601  29.227  1.00  0.00    -0.250 N 
ATOM     95  C   UNL A   1      38.348  30.393  28.744  1.00  0.00     0.238 C 
ATOM     96  C   UNL A   1      40.027  30.211  30.268  1.00  0.00     0.238 C 
ATOM     97  O   UNL A   1      37.545  30.150  27.850  1.00  0.00    -0.274 OA
ATOM     98  C   UNL A   1      38.292  31.687  29.516  1.00  0.00     0.096 C 
ATOM     99  C   UNL A   1      39.390  31.548  30.564  1.00  0.00     0.096 C 
ATOM    100  O   UNL A   1      41.013  29.819  30.881  1.00  0.00    -0.274 OA
ATOM    101  C   UNL A   1      36.873  31.918  30.045  1.00  0.00     0.041 C 
ATOM    102  C   UNL A   1      38.946  31.604  32.029  1.00  0.00     0.041 C 
ATOM    103  C   UNL A   1      36.606  31.210  31.339  1.00  0.00    -0.030 C 
ATOM    104  C   UNL A   1      37.569  31.062  32.256  1.00  0.00    -0.030 C 
ENDBRANCH  93  94
ENDBRANCH  85  88
ENDBRANCH  80  84
ENDBRANCH  75  78
ENDBRANCH  73  74
ENDBRANCH  72  73
ENDBRANCH   1  72
TORSDOF 17
ENDMDL
