MODEL 1
REMARK VINA RESULT:     -10.1      0.000      0.000
REMARK SMILES CC[C@@H](NC(=O)[C@H](C)C[NH2+]C)C(=O)NCCCCNC(=O)c1ccc(-c2c3nc(c(-c4cccc(S(=O)(=O)[O-])c4F)c4ccc([nH]4)c(-c4cccc(S(=O)(=O)[O-])c4F)c4nc(c(-c5cccc(S(=O)(=O)[O-])c5F)c5ccc2[nH]5)C=C4)C=C3)cc1
REMARK SMILES IDX 16 1 15 2 14 3 12 4 13 5 3 7 2 8 1 9 4 10 5 11 6 13 7 14
REMARK SMILES IDX 8 15 9 16 10 17 11 18 17 21 18 22 19 23 20 24 21 26 22 27
REMARK SMILES IDX 23 28 84 29 24 30 83 31 25 32 26 33 27 34 77 35 28 36 82 37
REMARK SMILES IDX 76 38 78 39 29 40 81 41 75 42 74 43 30 45 62 46 42 47 61 48
REMARK SMILES IDX 43 49 46 50 60 51 79 52 44 53 45 54 59 56 80 57 47 58 31 59
REMARK SMILES IDX 32 60 40 61 33 62 35 63 41 64 34 65 36 66 37 67 38 68 39 69
REMARK SMILES IDX 63 70 64 71 72 72 65 73 67 74 73 75 66 76 68 77 69 78 70 79
REMARK SMILES IDX 71 80 48 81 49 82 57 83 50 84 52 85 58 86 51 87 53 88 54 89
REMARK SMILES IDX 55 90 56 91
REMARK H PARENT 14 6 4 12 10 19 10 20 19 25 78 44 46 55
REMARK Flexibility Score: inf
ROOT
ATOM      1  C   UNL A   1      35.604  23.333  26.203  1.00  0.00     0.023 C 
ENDROOT
BRANCH   1   2
ATOM      2  C   UNL A   1      34.372  23.996  25.598  1.00  0.00     0.116 C 
BRANCH   2   3
ATOM      3  N   UNL A   1      33.206  23.875  26.463  1.00  0.00    -0.354 N 
ATOM      4  C   UNL A   1      31.984  24.479  26.365  1.00  0.00     0.242 C 
ATOM      5  O   UNL A   1      31.143  24.231  27.233  1.00  0.00    -0.273 OA
ATOM      6  H   UNL A   1      33.315  23.270  27.232  1.00  0.00     0.163 HD
BRANCH   4   7
ATOM      7  C   UNL A   1      31.733  25.580  25.320  1.00  0.00     0.171 C 
BRANCH   7   8
ATOM      8  C   UNL A   1      30.226  25.929  25.474  1.00  0.00     0.031 C 
ATOM      9  C   UNL A   1      29.444  26.234  24.210  1.00  0.00     0.006 C 
ENDBRANCH   7   8
BRANCH   7  10
ATOM     10  N   UNL A   1      32.634  26.732  25.451  1.00  0.00    -0.344 N 
ATOM     11  C   UNL A   1      32.869  27.799  24.635  1.00  0.00     0.229 C 
ATOM     12  H   UNL A   1      33.166  26.734  26.280  1.00  0.00     0.164 HD
ATOM     13  O   UNL A   1      33.437  28.760  25.170  1.00  0.00    -0.275 OA
BRANCH  11  14
ATOM     14  C   UNL A   1      32.584  27.836  23.125  1.00  0.00     0.130 C 
ATOM     15  C   UNL A   1      33.821  27.691  22.250  1.00  0.00     0.024 C 
BRANCH  14  16
ATOM     16  C   UNL A   1      31.669  29.033  22.801  1.00  0.00     0.273 C 
BRANCH  16  17
ATOM     17  N   UNL A   1      30.930  29.622  23.922  1.00  0.00    -0.348 N 
ATOM     18  C   UNL A   1      29.613  30.090  23.483  1.00  0.00     0.330 C 
ATOM     19  H   UNL A   1      31.459  30.411  24.294  1.00  0.00     0.346 HD
ATOM     20  H   UNL A   1      30.802  28.910  24.641  1.00  0.00     0.346 HD
ENDBRANCH  16  17
ENDBRANCH  14  16
ENDBRANCH  11  14
ENDBRANCH   7  10
ENDBRANCH   4   7
ENDBRANCH   2   3
ENDBRANCH   1   2
BRANCH   1  21
ATOM     21  C   UNL A   1      35.844  21.893  25.742  1.00  0.00     0.023 C 
BRANCH  21  22
ATOM     22  C   UNL A   1      37.054  21.694  24.836  1.00  0.00     0.116 C 
BRANCH  22  23
ATOM     23  N   UNL A   1      37.936  20.639  25.301  1.00  0.00    -0.352 N 
ATOM     24  C   UNL A   1      39.146  20.746  25.948  1.00  0.00     0.251 C 
ATOM     25  H   UNL A   1      37.626  19.720  25.131  1.00  0.00     0.163 HD
ATOM     26  O   UNL A   1      39.826  19.747  26.140  1.00  0.00    -0.269 OA
BRANCH  24  27
ATOM     27  C   UNL A   1      39.637  22.076  26.378  1.00  0.00     0.039 A 
ATOM     28  C   UNL A   1      40.598  22.134  27.389  1.00  0.00     0.014 A 
ATOM     29  C   UNL A   1      39.161  23.253  25.794  1.00  0.00     0.014 A 
ATOM     30  C   UNL A   1      41.120  23.370  27.778  1.00  0.00     0.010 A 
ATOM     31  C   UNL A   1      39.730  24.480  26.139  1.00  0.00     0.010 A 
ATOM     32  C   UNL A   1      40.714  24.554  27.138  1.00  0.00    -0.014 A 
BRANCH  32  33
ATOM     33  C   UNL A   1      41.326  25.861  27.508  1.00  0.00     0.031 A 
ATOM     34  C   UNL A   1      42.750  26.177  27.136  1.00  0.00     0.074 A 
ATOM     35  C   UNL A   1      40.609  26.756  28.217  1.00  0.00     0.049 A 
ATOM     36  N   UNL A   1      43.435  27.269  27.360  1.00  0.00    -0.248 NA
ATOM     37  C   UNL A   1      43.509  25.128  26.435  1.00  0.00     0.031 C 
ATOM     38  C   UNL A   1      39.242  26.553  28.700  1.00  0.00     0.029 A 
ATOM     39  N   UNL A   1      40.935  28.012  28.670  1.00  0.00    -0.354 N 
ATOM     40  C   UNL A   1      44.708  27.033  26.854  1.00  0.00     0.074 A 
ATOM     41  C   UNL A   1      44.710  25.682  26.337  1.00  0.00     0.031 C 
ATOM     42  C   UNL A   1      38.845  27.644  29.373  1.00  0.00     0.029 A 
ATOM     43  C   UNL A   1      39.936  28.615  29.399  1.00  0.00     0.049 A 
ATOM     44  H   UNL A   1      41.803  28.440  28.489  1.00  0.00     0.167 HD
ATOM     45  C   UNL A   1      45.772  27.871  26.799  1.00  0.00     0.034 A 
ATOM     46  C   UNL A   1      39.899  29.808  30.025  1.00  0.00     0.034 A 
ATOM     47  C   UNL A   1      45.765  29.225  27.288  1.00  0.00     0.049 A 
ATOM     48  C   UNL A   1      41.091  30.724  29.935  1.00  0.00     0.074 A 
ATOM     49  C   UNL A   1      46.770  30.173  27.202  1.00  0.00     0.029 A 
ATOM     50  N   UNL A   1      44.715  29.819  27.967  1.00  0.00    -0.354 N 
ATOM     51  N   UNL A   1      42.228  30.541  29.310  1.00  0.00    -0.248 NA
ATOM     52  C   UNL A   1      40.981  32.028  30.607  1.00  0.00     0.031 C 
ATOM     53  C   UNL A   1      46.342  31.327  27.864  1.00  0.00     0.029 A 
ATOM     54  C   UNL A   1      45.052  31.115  28.322  1.00  0.00     0.049 A 
ATOM     55  H   UNL A   1      43.854  29.384  28.169  1.00  0.00     0.167 HD
ATOM     56  C   UNL A   1      42.950  31.719  29.477  1.00  0.00     0.074 A 
ATOM     57  C   UNL A   1      42.113  32.616  30.246  1.00  0.00     0.031 C 
ATOM     58  C   UNL A   1      44.197  32.023  29.042  1.00  0.00     0.034 A 
BRANCH  45  59
ATOM     59  C   UNL A   1      47.033  27.365  26.148  1.00  0.00     0.023 A 
ATOM     60  C   UNL A   1      47.294  27.674  24.797  1.00  0.00     0.012 A 
ATOM     61  C   UNL A   1      47.998  26.657  26.892  1.00  0.00     0.148 A 
ATOM     62  C   UNL A   1      48.476  27.257  24.186  1.00  0.00     0.002 A 
ATOM     63  C   UNL A   1      49.195  26.287  26.291  1.00  0.00     0.091 A 
ATOM     64  F   UNL A   1      47.727  26.360  28.171  1.00  0.00    -0.205 F 
ATOM     65  C   UNL A   1      49.431  26.574  24.936  1.00  0.00     0.022 A 
BRANCH  63  66
ATOM     66  S   UNL A   1      50.525  25.482  27.191  1.00  0.00     0.127 S 
ATOM     67  O   UNL A   1      51.515  25.279  26.134  1.00  0.00    -0.237 OA
ATOM     68  O   UNL A   1      50.887  26.499  28.178  1.00  0.00    -0.237 OA
ATOM     69  O   UNL A   1      49.954  24.265  27.750  1.00  0.00    -0.744 OA
ENDBRANCH  63  66
ENDBRANCH  45  59
BRANCH  46  70
ATOM     70  C   UNL A   1      38.673  30.231  30.759  1.00  0.00     0.023 A 
ATOM     71  C   UNL A   1      38.510  29.872  32.111  1.00  0.00     0.012 A 
ATOM     72  C   UNL A   1      37.671  30.992  30.126  1.00  0.00     0.148 A 
ATOM     73  C   UNL A   1      37.352  30.226  32.807  1.00  0.00     0.002 A 
ATOM     74  C   UNL A   1      36.550  31.394  30.841  1.00  0.00     0.091 A 
ATOM     75  F   UNL A   1      37.840  31.314  28.836  1.00  0.00    -0.205 F 
ATOM     76  C   UNL A   1      36.378  30.994  32.175  1.00  0.00     0.022 A 
BRANCH  74  77
ATOM     77  S   UNL A   1      35.311  32.495  30.149  1.00  0.00     0.127 S 
ATOM     78  O   UNL A   1      34.841  31.730  28.997  1.00  0.00    -0.237 OA
ATOM     79  O   UNL A   1      34.355  32.602  31.252  1.00  0.00    -0.237 OA
ATOM     80  O   UNL A   1      36.013  33.735  29.843  1.00  0.00    -0.744 OA
ENDBRANCH  74  77
ENDBRANCH  46  70
BRANCH  58  81
ATOM     81  C   UNL A   1      44.729  33.402  29.337  1.00  0.00     0.023 A 
ATOM     82  C   UNL A   1      45.442  33.647  30.527  1.00  0.00     0.012 A 
ATOM     83  C   UNL A   1      44.584  34.441  28.394  1.00  0.00     0.148 A 
ATOM     84  C   UNL A   1      45.970  34.912  30.791  1.00  0.00     0.002 A 
ATOM     85  C   UNL A   1      45.157  35.682  28.640  1.00  0.00     0.091 A 
ATOM     86  F   UNL A   1      43.887  34.195  27.275  1.00  0.00    -0.205 F 
ATOM     87  C   UNL A   1      45.838  35.924  29.843  1.00  0.00     0.022 A 
BRANCH  85  88
ATOM     88  S   UNL A   1      45.124  37.016  27.437  1.00  0.00     0.127 S 
ATOM     89  O   UNL A   1      45.709  38.119  28.198  1.00  0.00    -0.237 OA
ATOM     90  O   UNL A   1      45.977  36.491  26.370  1.00  0.00    -0.237 OA
ATOM     91  O   UNL A   1      43.726  37.189  27.065  1.00  0.00    -0.744 OA
ENDBRANCH  85  88
ENDBRANCH  58  81
ENDBRANCH  32  33
ENDBRANCH  24  27
ENDBRANCH  22  23
ENDBRANCH  21  22
ENDBRANCH   1  21
TORSDOF 19
ENDMDL
MODEL 2
REMARK VINA RESULT:      -9.8      1.776      2.137
REMARK SMILES CC[C@@H](NC(=O)[C@H](C)C[NH2+]C)C(=O)NCCCCNC(=O)c1ccc(-c2c3nc(c(-c4cccc(S(=O)(=O)[O-])c4F)c4ccc([nH]4)c(-c4cccc(S(=O)(=O)[O-])c4F)c4nc(c(-c5cccc(S(=O)(=O)[O-])c5F)c5ccc2[nH]5)C=C4)C=C3)cc1
REMARK SMILES IDX 16 1 15 2 14 3 12 4 13 5 3 7 2 8 1 9 4 10 5 11 6 13 7 14
REMARK SMILES IDX 8 15 9 16 10 17 11 18 17 21 18 22 19 23 20 24 21 26 22 27
REMARK SMILES IDX 23 28 84 29 24 30 83 31 25 32 26 33 27 34 77 35 28 36 82 37
REMARK SMILES IDX 76 38 78 39 29 40 81 41 75 42 74 43 30 45 62 46 42 47 61 48
REMARK SMILES IDX 43 49 46 50 60 51 79 52 44 53 45 54 59 56 80 57 47 58 31 59
REMARK SMILES IDX 32 60 40 61 33 62 35 63 41 64 34 65 36 66 37 67 38 68 39 69
REMARK SMILES IDX 63 70 64 71 72 72 65 73 67 74 73 75 66 76 68 77 69 78 70 79
REMARK SMILES IDX 71 80 48 81 49 82 57 83 50 84 52 85 58 86 51 87 53 88 54 89
REMARK SMILES IDX 55 90 56 91
REMARK H PARENT 14 6 4 12 10 19 10 20 19 25 78 44 46 55
REMARK Flexibility Score: inf
ROOT
ATOM      1  C   UNL A   1      34.825  22.105  26.275  1.00  0.00     0.023 C 
ENDROOT
BRANCH   1   2
ATOM      2  C   UNL A   1      33.566  22.352  25.451  1.00  0.00     0.116 C 
BRANCH   2   3
ATOM      3  N   UNL A   1      33.863  22.501  24.033  1.00  0.00    -0.354 N 
ATOM      4  C   UNL A   1      33.722  23.595  23.225  1.00  0.00     0.242 C 
ATOM      5  O   UNL A   1      34.031  23.482  22.036  1.00  0.00    -0.273 OA
ATOM      6  H   UNL A   1      34.218  21.696  23.591  1.00  0.00     0.163 HD
BRANCH   4   7
ATOM      7  C   UNL A   1      33.016  24.863  23.736  1.00  0.00     0.171 C 
BRANCH   7   8
ATOM      8  C   UNL A   1      34.151  25.712  24.374  1.00  0.00     0.031 C 
ATOM      9  C   UNL A   1      33.744  26.852  25.289  1.00  0.00     0.006 C 
ENDBRANCH   7   8
BRANCH   7  10
ATOM     10  N   UNL A   1      32.248  25.566  22.700  1.00  0.00    -0.344 N 
ATOM     11  C   UNL A   1      31.353  26.592  22.772  1.00  0.00     0.229 C 
ATOM     12  H   UNL A   1      32.411  25.237  21.786  1.00  0.00     0.164 HD
ATOM     13  O   UNL A   1      31.129  27.176  21.705  1.00  0.00    -0.275 OA
BRANCH  11  14
ATOM     14  C   UNL A   1      30.552  26.979  24.027  1.00  0.00     0.130 C 
ATOM     15  C   UNL A   1      29.202  26.288  24.146  1.00  0.00     0.024 C 
BRANCH  14  16
ATOM     16  C   UNL A   1      30.538  28.513  24.177  1.00  0.00     0.273 C 
BRANCH  16  17
ATOM     17  N   UNL A   1      30.134  29.288  23.001  1.00  0.00    -0.348 N 
ATOM     18  C   UNL A   1      29.277  30.411  23.391  1.00  0.00     0.330 C 
ATOM     19  H   UNL A   1      29.621  28.683  22.359  1.00  0.00     0.346 HD
ATOM     20  H   UNL A   1      30.971  29.656  22.547  1.00  0.00     0.346 HD
ENDBRANCH  16  17
ENDBRANCH  14  16
ENDBRANCH  11  14
ENDBRANCH   7  10
ENDBRANCH   4   7
ENDBRANCH   2   3
ENDBRANCH   1   2
BRANCH   1  21
ATOM     21  C   UNL A   1      35.922  21.326  25.545  1.00  0.00     0.023 C 
BRANCH  21  22
ATOM     22  C   UNL A   1      37.310  21.956  25.596  1.00  0.00     0.116 C 
BRANCH  22  23
ATOM     23  N   UNL A   1      38.354  20.990  25.886  1.00  0.00    -0.352 N 
ATOM     24  C   UNL A   1      39.627  21.208  26.360  1.00  0.00     0.251 C 
ATOM     25  H   UNL A   1      38.119  20.048  25.721  1.00  0.00     0.163 HD
ATOM     26  O   UNL A   1      40.428  20.285  26.412  1.00  0.00    -0.269 OA
BRANCH  24  27
ATOM     27  C   UNL A   1      40.035  22.571  26.775  1.00  0.00     0.039 A 
ATOM     28  C   UNL A   1      41.000  22.701  27.776  1.00  0.00     0.014 A 
ATOM     29  C   UNL A   1      39.478  23.710  26.186  1.00  0.00     0.014 A 
ATOM     30  C   UNL A   1      41.444  23.971  28.150  1.00  0.00     0.010 A 
ATOM     31  C   UNL A   1      39.970  24.975  26.517  1.00  0.00     0.010 A 
ATOM     32  C   UNL A   1      40.956  25.120  27.505  1.00  0.00    -0.014 A 
BRANCH  32  33
ATOM     33  C   UNL A   1      41.485  26.467  27.858  1.00  0.00     0.031 A 
ATOM     34  C   UNL A   1      42.913  26.837  27.556  1.00  0.00     0.074 A 
ATOM     35  C   UNL A   1      40.688  27.352  28.490  1.00  0.00     0.049 A 
ATOM     36  N   UNL A   1      43.534  27.968  27.777  1.00  0.00    -0.248 NA
ATOM     37  C   UNL A   1      43.758  25.801  26.940  1.00  0.00     0.031 C 
ATOM     38  C   UNL A   1      39.306  27.102  28.902  1.00  0.00     0.029 A 
ATOM     39  N   UNL A   1      40.930  28.638  28.912  1.00  0.00    -0.354 N 
ATOM     40  C   UNL A   1      44.844  27.774  27.353  1.00  0.00     0.074 A 
ATOM     41  C   UNL A   1      44.937  26.407  26.889  1.00  0.00     0.031 C 
ATOM     42  C   UNL A   1      38.821  28.197  29.509  1.00  0.00     0.029 A 
ATOM     43  C   UNL A   1      39.863  29.218  29.559  1.00  0.00     0.049 A 
ATOM     44  H   UNL A   1      41.787  29.099  28.765  1.00  0.00     0.167 HD
ATOM     45  C   UNL A   1      45.870  28.659  27.326  1.00  0.00     0.034 A 
ATOM     46  C   UNL A   1      39.736  30.430  30.135  1.00  0.00     0.034 A 
ATOM     47  C   UNL A   1      45.773  30.028  27.762  1.00  0.00     0.049 A 
ATOM     48  C   UNL A   1      40.889  31.398  30.078  1.00  0.00     0.074 A 
ATOM     49  C   UNL A   1      46.738  31.019  27.697  1.00  0.00     0.029 A 
ATOM     50  N   UNL A   1      44.659  30.595  28.357  1.00  0.00    -0.354 N 
ATOM     51  N   UNL A   1      42.067  31.247  29.526  1.00  0.00    -0.248 NA
ATOM     52  C   UNL A   1      40.680  32.719  30.692  1.00  0.00     0.031 C 
ATOM     53  C   UNL A   1      46.219  32.175  28.288  1.00  0.00     0.029 A 
ATOM     54  C   UNL A   1      44.916  31.918  28.679  1.00  0.00     0.049 A 
ATOM     55  H   UNL A   1      43.808  30.128  28.525  1.00  0.00     0.167 HD
ATOM     56  C   UNL A   1      42.724  32.463  29.688  1.00  0.00     0.074 A 
ATOM     57  C   UNL A   1      41.804  33.346  30.373  1.00  0.00     0.031 C 
ATOM     58  C   UNL A   1      43.980  32.810  29.314  1.00  0.00     0.034 A 
BRANCH  45  59
ATOM     59  C   UNL A   1      47.189  28.191  26.768  1.00  0.00     0.023 A 
ATOM     60  C   UNL A   1      48.217  27.793  27.648  1.00  0.00     0.012 A 
ATOM     61  C   UNL A   1      47.384  28.066  25.379  1.00  0.00     0.148 A 
ATOM     62  C   UNL A   1      49.429  27.311  27.155  1.00  0.00     0.002 A 
ATOM     63  C   UNL A   1      48.576  27.539  24.895  1.00  0.00     0.091 A 
ATOM     64  F   UNL A   1      46.401  28.463  24.557  1.00  0.00    -0.205 F 
ATOM     65  C   UNL A   1      49.603  27.173  25.780  1.00  0.00     0.022 A 
BRANCH  63  66
ATOM     66  S   UNL A   1      48.867  27.241  23.148  1.00  0.00     0.127 S 
ATOM     67  O   UNL A   1      50.323  27.113  23.109  1.00  0.00    -0.237 OA
ATOM     68  O   UNL A   1      48.140  25.991  22.925  1.00  0.00    -0.237 OA
ATOM     69  O   UNL A   1      48.325  28.395  22.445  1.00  0.00    -0.744 OA
ENDBRANCH  63  66
ENDBRANCH  45  59
BRANCH  46  70
ATOM     70  C   UNL A   1      38.452  30.821  30.781  1.00  0.00     0.023 A 
ATOM     71  C   UNL A   1      38.221  30.495  32.132  1.00  0.00     0.012 A 
ATOM     72  C   UNL A   1      37.458  31.519  30.066  1.00  0.00     0.148 A 
ATOM     73  C   UNL A   1      37.010  30.818  32.746  1.00  0.00     0.002 A 
ATOM     74  C   UNL A   1      36.280  31.892  30.700  1.00  0.00     0.091 A 
ATOM     75  F   UNL A   1      37.691  31.810  28.778  1.00  0.00    -0.205 F 
ATOM     76  C   UNL A   1      36.045  31.525  32.034  1.00  0.00     0.022 A 
BRANCH  74  77
ATOM     77  S   UNL A   1      35.041  32.917  29.901  1.00  0.00     0.127 S 
ATOM     78  O   UNL A   1      34.511  32.010  28.887  1.00  0.00    -0.237 OA
ATOM     79  O   UNL A   1      34.129  33.205  31.009  1.00  0.00    -0.237 OA
ATOM     80  O   UNL A   1      35.758  34.081  29.398  1.00  0.00    -0.744 OA
ENDBRANCH  74  77
ENDBRANCH  46  70
BRANCH  58  81
ATOM     81  C   UNL A   1      44.430  34.223  29.585  1.00  0.00     0.023 A 
ATOM     82  C   UNL A   1      45.128  34.529  30.771  1.00  0.00     0.012 A 
ATOM     83  C   UNL A   1      44.225  35.235  28.625  1.00  0.00     0.148 A 
ATOM     84  C   UNL A   1      45.581  35.826  31.013  1.00  0.00     0.002 A 
ATOM     85  C   UNL A   1      44.725  36.511  28.849  1.00  0.00     0.091 A 
ATOM     86  F   UNL A   1      43.544  34.930  27.511  1.00  0.00    -0.205 F 
ATOM     87  C   UNL A   1      45.391  36.812  30.048  1.00  0.00     0.022 A 
BRANCH  85  88
ATOM     88  S   UNL A   1      44.614  37.821  27.624  1.00  0.00     0.127 S 
ATOM     89  O   UNL A   1      44.648  39.018  28.463  1.00  0.00    -0.237 OA
ATOM     90  O   UNL A   1      45.822  37.601  26.827  1.00  0.00    -0.237 OA
ATOM     91  O   UNL A   1      43.366  37.598  26.908  1.00  0.00    -0.744 OA
ENDBRANCH  85  88
ENDBRANCH  58  81
ENDBRANCH  32  33
ENDBRANCH  24  27
ENDBRANCH  22  23
ENDBRANCH  21  22
ENDBRANCH   1  21
TORSDOF 19
ENDMDL
MODEL 3
REMARK VINA RESULT:      -9.8      4.792      9.709
REMARK SMILES CC[C@@H](NC(=O)[C@H](C)C[NH2+]C)C(=O)NCCCCNC(=O)c1ccc(-c2c3nc(c(-c4cccc(S(=O)(=O)[O-])c4F)c4ccc([nH]4)c(-c4cccc(S(=O)(=O)[O-])c4F)c4nc(c(-c5cccc(S(=O)(=O)[O-])c5F)c5ccc2[nH]5)C=C4)C=C3)cc1
REMARK SMILES IDX 16 1 15 2 14 3 12 4 13 5 3 7 2 8 1 9 4 10 5 11 6 13 7 14
REMARK SMILES IDX 8 15 9 16 10 17 11 18 17 21 18 22 19 23 20 24 21 26 22 27
REMARK SMILES IDX 23 28 84 29 24 30 83 31 25 32 26 33 27 34 77 35 28 36 82 37
REMARK SMILES IDX 76 38 78 39 29 40 81 41 75 42 74 43 30 45 62 46 42 47 61 48
REMARK SMILES IDX 43 49 46 50 60 51 79 52 44 53 45 54 59 56 80 57 47 58 31 59
REMARK SMILES IDX 32 60 40 61 33 62 35 63 41 64 34 65 36 66 37 67 38 68 39 69
REMARK SMILES IDX 63 70 64 71 72 72 65 73 67 74 73 75 66 76 68 77 69 78 70 79
REMARK SMILES IDX 71 80 48 81 49 82 57 83 50 84 52 85 58 86 51 87 53 88 54 89
REMARK SMILES IDX 55 90 56 91
REMARK H PARENT 14 6 4 12 10 19 10 20 19 25 78 44 46 55
REMARK Flexibility Score: inf
ROOT
ATOM      1  C   UNL A   1      33.452  28.846  24.677  1.00  0.00     0.023 C 
ENDROOT
BRANCH   1   2
ATOM      2  C   UNL A   1      33.760  28.042  23.419  1.00  0.00     0.116 C 
BRANCH   2   3
ATOM      3  N   UNL A   1      32.595  27.917  22.553  1.00  0.00    -0.354 N 
ATOM      4  C   UNL A   1      31.521  27.079  22.656  1.00  0.00     0.242 C 
ATOM      5  O   UNL A   1      30.647  27.144  21.787  1.00  0.00    -0.273 OA
ATOM      6  H   UNL A   1      32.579  28.527  21.780  1.00  0.00     0.163 HD
BRANCH   4   7
ATOM      7  C   UNL A   1      31.498  25.956  23.709  1.00  0.00     0.171 C 
BRANCH   7   8
ATOM      8  C   UNL A   1      30.145  26.143  24.450  1.00  0.00     0.031 C 
ATOM      9  C   UNL A   1      30.092  25.768  25.920  1.00  0.00     0.006 C 
ENDBRANCH   7   8
BRANCH   7  10
ATOM     10  N   UNL A   1      31.694  24.616  23.143  1.00  0.00    -0.344 N 
ATOM     11  C   UNL A   1      32.223  23.475  23.672  1.00  0.00     0.229 C 
ATOM     12  H   UNL A   1      31.388  24.523  22.212  1.00  0.00     0.164 HD
ATOM     13  O   UNL A   1      31.950  22.433  23.062  1.00  0.00    -0.275 OA
BRANCH  11  14
ATOM     14  C   UNL A   1      33.189  23.420  24.867  1.00  0.00     0.130 C 
ATOM     15  C   UNL A   1      34.266  24.495  24.851  1.00  0.00     0.024 C 
BRANCH  14  16
ATOM     16  C   UNL A   1      33.686  21.975  25.064  1.00  0.00     0.273 C 
BRANCH  16  17
ATOM     17  N   UNL A   1      32.849  21.094  25.883  1.00  0.00    -0.348 N 
ATOM     18  C   UNL A   1      32.669  19.796  25.229  1.00  0.00     0.330 C 
ATOM     19  H   UNL A   1      31.936  21.530  26.019  1.00  0.00     0.346 HD
ATOM     20  H   UNL A   1      33.308  20.947  26.782  1.00  0.00     0.346 HD
ENDBRANCH  16  17
ENDBRANCH  14  16
ENDBRANCH  11  14
ENDBRANCH   7  10
ENDBRANCH   4   7
ENDBRANCH   2   3
ENDBRANCH   1   2
BRANCH   1  21
ATOM     21  C   UNL A   1      34.164  28.352  25.939  1.00  0.00     0.023 C 
BRANCH  21  22
ATOM     22  C   UNL A   1      33.517  28.769  27.256  1.00  0.00     0.116 C 
BRANCH  22  23
ATOM     23  N   UNL A   1      33.537  30.206  27.461  1.00  0.00    -0.352 N 
ATOM     24  C   UNL A   1      34.502  30.980  28.062  1.00  0.00     0.251 C 
ATOM     25  H   UNL A   1      32.752  30.694  27.122  1.00  0.00     0.163 HD
ATOM     26  O   UNL A   1      34.288  32.166  28.278  1.00  0.00    -0.269 OA
BRANCH  24  27
ATOM     27  C   UNL A   1      35.784  30.367  28.480  1.00  0.00     0.039 A 
ATOM     28  C   UNL A   1      36.877  30.457  27.614  1.00  0.00     0.014 A 
ATOM     29  C   UNL A   1      35.914  29.713  29.708  1.00  0.00     0.014 A 
ATOM     30  C   UNL A   1      38.113  29.936  28.003  1.00  0.00     0.010 A 
ATOM     31  C   UNL A   1      37.166  29.250  30.120  1.00  0.00     0.010 A 
ATOM     32  C   UNL A   1      38.279  29.352  29.271  1.00  0.00    -0.014 A 
BRANCH  32  33
ATOM     33  C   UNL A   1      39.616  28.863  29.708  1.00  0.00     0.031 A 
ATOM     34  C   UNL A   1      40.364  29.552  30.820  1.00  0.00     0.074 A 
ATOM     35  C   UNL A   1      40.181  27.814  29.077  1.00  0.00     0.049 A 
ATOM     36  N   UNL A   1      41.526  29.250  31.339  1.00  0.00    -0.248 NA
ATOM     37  C   UNL A   1      39.732  30.741  31.415  1.00  0.00     0.031 C 
ATOM     38  C   UNL A   1      39.599  27.096  27.942  1.00  0.00     0.029 A 
ATOM     39  N   UNL A   1      41.382  27.178  29.288  1.00  0.00    -0.354 N 
ATOM     40  C   UNL A   1      41.778  30.221  32.301  1.00  0.00     0.074 A 
ATOM     41  C   UNL A   1      40.662  31.140  32.273  1.00  0.00     0.031 C 
ATOM     42  C   UNL A   1      40.435  26.116  27.563  1.00  0.00     0.029 A 
ATOM     43  C   UNL A   1      41.629  26.153  28.404  1.00  0.00     0.049 A 
ATOM     44  H   UNL A   1      42.006  27.433  30.005  1.00  0.00     0.167 HD
ATOM     45  C   UNL A   1      42.830  30.326  33.150  1.00  0.00     0.034 A 
ATOM     46  C   UNL A   1      42.695  25.339  28.275  1.00  0.00     0.034 A 
ATOM     47  C   UNL A   1      43.930  29.399  33.199  1.00  0.00     0.049 A 
ATOM     48  C   UNL A   1      43.843  25.470  29.241  1.00  0.00     0.074 A 
ATOM     49  C   UNL A   1      44.998  29.380  34.079  1.00  0.00     0.029 A 
ATOM     50  N   UNL A   1      44.115  28.339  32.326  1.00  0.00    -0.354 N 
ATOM     51  N   UNL A   1      43.984  26.295  30.249  1.00  0.00    -0.248 NA
ATOM     52  C   UNL A   1      44.963  24.530  29.076  1.00  0.00     0.031 C 
ATOM     53  C   UNL A   1      45.849  28.333  33.714  1.00  0.00     0.029 A 
ATOM     54  C   UNL A   1      45.288  27.670  32.635  1.00  0.00     0.049 A 
ATOM     55  H   UNL A   1      43.503  28.097  31.593  1.00  0.00     0.167 HD
ATOM     56  C   UNL A   1      45.185  25.949  30.861  1.00  0.00     0.074 A 
ATOM     57  C   UNL A   1      45.722  24.826  30.122  1.00  0.00     0.031 C 
ATOM     58  C   UNL A   1      45.793  26.520  31.930  1.00  0.00     0.034 A 
BRANCH  45  59
ATOM     59  C   UNL A   1      42.829  31.468  34.134  1.00  0.00     0.023 A 
ATOM     60  C   UNL A   1      43.506  32.663  33.815  1.00  0.00     0.012 A 
ATOM     61  C   UNL A   1      42.094  31.390  35.333  1.00  0.00     0.148 A 
ATOM     62  C   UNL A   1      43.479  33.750  34.689  1.00  0.00     0.002 A 
ATOM     63  C   UNL A   1      42.032  32.493  36.175  1.00  0.00     0.091 A 
ATOM     64  F   UNL A   1      41.470  30.239  35.626  1.00  0.00    -0.205 F 
ATOM     65  C   UNL A   1      42.733  33.669  35.862  1.00  0.00     0.022 A 
BRANCH  63  66
ATOM     66  S   UNL A   1      41.031  32.521  37.666  1.00  0.00     0.127 S 
ATOM     67  O   UNL A   1      41.897  31.826  38.617  1.00  0.00    -0.237 OA
ATOM     68  O   UNL A   1      40.885  33.955  37.911  1.00  0.00    -0.237 OA
ATOM     69  O   UNL A   1      39.792  31.831  37.334  1.00  0.00    -0.744 OA
ENDBRANCH  63  66
ENDBRANCH  45  59
BRANCH  46  70
ATOM     70  C   UNL A   1      42.714  24.291  27.216  1.00  0.00     0.023 A 
ATOM     71  C   UNL A   1      43.353  24.552  25.988  1.00  0.00     0.012 A 
ATOM     72  C   UNL A   1      42.105  23.037  27.420  1.00  0.00     0.148 A 
ATOM     73  C   UNL A   1      43.350  23.598  24.968  1.00  0.00     0.002 A 
ATOM     74  C   UNL A   1      42.159  22.071  26.423  1.00  0.00     0.091 A 
ATOM     75  F   UNL A   1      41.492  22.813  28.590  1.00  0.00    -0.205 F 
ATOM     76  C   UNL A   1      42.763  22.356  25.189  1.00  0.00     0.022 A 
BRANCH  74  77
ATOM     77  S   UNL A   1      41.547  20.400  26.670  1.00  0.00     0.127 S 
ATOM     78  O   UNL A   1      41.925  19.755  25.415  1.00  0.00    -0.237 OA
ATOM     79  O   UNL A   1      42.313  19.970  27.840  1.00  0.00    -0.237 OA
ATOM     80  O   UNL A   1      40.116  20.536  26.907  1.00  0.00    -0.744 OA
ENDBRANCH  74  77
ENDBRANCH  46  70
BRANCH  58  81
ATOM     81  C   UNL A   1      47.086  25.914  32.411  1.00  0.00     0.023 A 
ATOM     82  C   UNL A   1      48.318  26.389  31.916  1.00  0.00     0.012 A 
ATOM     83  C   UNL A   1      47.082  24.922  33.413  1.00  0.00     0.148 A 
ATOM     84  C   UNL A   1      49.521  25.859  32.383  1.00  0.00     0.002 A 
ATOM     85  C   UNL A   1      48.285  24.438  33.911  1.00  0.00     0.091 A 
ATOM     86  F   UNL A   1      45.901  24.470  33.859  1.00  0.00    -0.205 F 
ATOM     87  C   UNL A   1      49.505  24.895  33.387  1.00  0.00     0.022 A 
BRANCH  85  88
ATOM     88  S   UNL A   1      48.366  23.267  35.271  1.00  0.00     0.127 S 
ATOM     89  O   UNL A   1      48.066  24.121  36.419  1.00  0.00    -0.237 OA
ATOM     90  O   UNL A   1      47.308  22.317  34.924  1.00  0.00    -0.237 OA
ATOM     91  O   UNL A   1      49.712  22.710  35.245  1.00  0.00    -0.744 OA
ENDBRANCH  85  88
ENDBRANCH  58  81
ENDBRANCH  32  33
ENDBRANCH  24  27
ENDBRANCH  22  23
ENDBRANCH  21  22
ENDBRANCH   1  21
TORSDOF 19
ENDMDL
