MODEL 1
REMARK VINA RESULT:     -10.7      0.000      0.000
REMARK SMILES CCN(C(=O)N(CCOC)CC(=O)NCCCCNC(=O)c1ccc(-c2c3nc(c(-c4cccc(S(=O)(=O)[O-])c4F)c4ccc([nH]4)c(-c4cccc(S(=O)(=O)[O-])c4F)c4nc(c(-c5cccc(S(=O)(=O)[O-])c5F)c5ccc2[nH]5)C=C4)C=C3)cc1)C1CCCC1
REMARK SMILES IDX 16 1 15 2 14 3 12 4 13 5 11 7 6 8 4 9 5 10 3 11 2 12 1 13
REMARK SMILES IDX 85 14 86 15 89 16 87 17 88 18 7 19 8 20 9 21 10 22 17 23
REMARK SMILES IDX 18 24 19 25 20 26 21 28 22 29 23 30 84 31 24 32 83 33 25 34
REMARK SMILES IDX 26 35 27 36 77 37 28 38 82 39 76 40 78 41 29 42 81 43 75 44
REMARK SMILES IDX 74 45 30 47 62 48 42 49 61 50 43 51 46 52 60 53 79 54 44 55
REMARK SMILES IDX 45 56 59 58 80 59 47 60 31 61 32 62 40 63 33 64 35 65 41 66
REMARK SMILES IDX 34 67 36 68 37 69 38 70 39 71 63 72 64 73 72 74 65 75 67 76
REMARK SMILES IDX 73 77 66 78 68 79 69 80 70 81 71 82 48 83 49 84 57 85 50 86
REMARK SMILES IDX 52 87 58 88 51 89 53 90 54 91 55 92 56 93
REMARK H PARENT 14 6 19 27 78 46 46 57
REMARK Flexibility Score: inf
ROOT
ATOM      1  C   UNL A   1      32.890  28.962  24.487  1.00  0.00     0.023 C 
ENDROOT
BRANCH   1   2
ATOM      2  C   UNL A   1      32.457  27.538  24.177  1.00  0.00     0.116 C 
BRANCH   2   3
ATOM      3  N   UNL A   1      33.348  26.810  23.313  1.00  0.00    -0.355 N 
ATOM      4  C   UNL A   1      33.129  25.625  22.666  1.00  0.00     0.239 C 
ATOM      5  O   UNL A   1      33.857  25.376  21.697  1.00  0.00    -0.273 OA
ATOM      6  H   UNL A   1      34.232  27.219  23.169  1.00  0.00     0.163 HD
BRANCH   4   7
ATOM      7  C   UNL A   1      31.898  24.730  22.955  1.00  0.00     0.221 C 
BRANCH   7   8
ATOM      8  N   UNL A   1      32.026  23.558  23.844  1.00  0.00    -0.313 N 
BRANCH   8   9
ATOM      9  C   UNL A   1      32.776  22.537  23.274  1.00  0.00     0.320 C 
ATOM     10  O   UNL A   1      32.757  22.415  22.042  1.00  0.00    -0.248 OA
BRANCH   9  11
ATOM     11  N   UNL A   1      33.575  21.676  24.021  1.00  0.00    -0.322 N 
BRANCH  11  12
ATOM     12  C   UNL A   1      33.132  20.663  24.980  1.00  0.00     0.118 C 
ATOM     13  C   UNL A   1      32.822  19.319  24.321  1.00  0.00     0.027 C 
ENDBRANCH  11  12
BRANCH  11  14
ATOM     14  C   UNL A   1      35.015  22.032  24.008  1.00  0.00     0.087 C 
ATOM     15  C   UNL A   1      35.291  23.419  24.604  1.00  0.00     0.025 C 
ATOM     16  C   UNL A   1      36.013  21.163  24.781  1.00  0.00     0.025 C 
ATOM     17  C   UNL A   1      36.811  23.474  24.699  1.00  0.00     0.002 C 
ATOM     18  C   UNL A   1      37.270  22.027  24.890  1.00  0.00     0.002 C 
ENDBRANCH  11  14
ENDBRANCH   9  11
ENDBRANCH   8   9
BRANCH   8  19
ATOM     19  C   UNL A   1      30.953  23.430  24.849  1.00  0.00     0.150 C 
BRANCH  19  20
ATOM     20  C   UNL A   1      30.901  24.507  25.955  1.00  0.00     0.181 C 
BRANCH  20  21
ATOM     21  O   UNL A   1      32.081  24.487  26.764  1.00  0.00    -0.383 OA
ATOM     22  C   UNL A   1      32.407  23.220  27.315  1.00  0.00     0.194 C 
ENDBRANCH  20  21
ENDBRANCH  19  20
ENDBRANCH   8  19
ENDBRANCH   7   8
ENDBRANCH   4   7
ENDBRANCH   2   3
ENDBRANCH   1   2
BRANCH   1  23
ATOM     23  C   UNL A   1      31.862  29.789  25.252  1.00  0.00     0.023 C 
BRANCH  23  24
ATOM     24  C   UNL A   1      32.260  30.198  26.668  1.00  0.00     0.116 C 
BRANCH  24  25
ATOM     25  N   UNL A   1      32.252  31.639  26.894  1.00  0.00    -0.352 N 
ATOM     26  C   UNL A   1      33.234  32.433  27.450  1.00  0.00     0.251 C 
ATOM     27  H   UNL A   1      31.434  32.109  26.611  1.00  0.00     0.163 HD
ATOM     28  O   UNL A   1      33.032  33.623  27.646  1.00  0.00    -0.269 OA
BRANCH  26  29
ATOM     29  C   UNL A   1      34.518  31.813  27.852  1.00  0.00     0.039 A 
ATOM     30  C   UNL A   1      35.638  32.629  28.024  1.00  0.00     0.014 A 
ATOM     31  C   UNL A   1      34.585  30.448  28.139  1.00  0.00     0.014 A 
ATOM     32  C   UNL A   1      36.800  32.091  28.588  1.00  0.00     0.010 A 
ATOM     33  C   UNL A   1      35.712  29.937  28.776  1.00  0.00     0.010 A 
ATOM     34  C   UNL A   1      36.826  30.755  29.021  1.00  0.00    -0.014 A 
BRANCH  34  35
ATOM     35  C   UNL A   1      37.982  30.205  29.778  1.00  0.00     0.031 A 
ATOM     36  C   UNL A   1      38.254  30.656  31.187  1.00  0.00     0.074 A 
ATOM     37  C   UNL A   1      38.856  29.387  29.156  1.00  0.00     0.049 A 
ATOM     38  N   UNL A   1      39.255  30.353  31.971  1.00  0.00    -0.248 NA
ATOM     39  C   UNL A   1      37.291  31.597  31.784  1.00  0.00     0.031 C 
ATOM     40  C   UNL A   1      38.761  28.947  27.762  1.00  0.00     0.029 A 
ATOM     41  N   UNL A   1      40.015  28.803  29.606  1.00  0.00    -0.354 N 
ATOM     42  C   UNL A   1      39.067  31.092  33.133  1.00  0.00     0.074 A 
ATOM     43  C   UNL A   1      37.874  31.886  32.938  1.00  0.00     0.031 C 
ATOM     44  C   UNL A   1      39.811  28.161  27.472  1.00  0.00     0.029 A 
ATOM     45  C   UNL A   1      40.671  28.064  28.648  1.00  0.00     0.049 A 
ATOM     46  H   UNL A   1      40.345  28.903  30.528  1.00  0.00     0.167 HD
ATOM     47  C   UNL A   1      39.802  31.090  34.270  1.00  0.00     0.034 A 
ATOM     48  C   UNL A   1      41.835  27.387  28.705  1.00  0.00     0.034 A 
ATOM     49  C   UNL A   1      40.957  30.260  34.482  1.00  0.00     0.049 A 
ATOM     50  C   UNL A   1      42.602  27.355  29.999  1.00  0.00     0.074 A 
ATOM     51  C   UNL A   1      41.708  30.111  35.635  1.00  0.00     0.029 A 
ATOM     52  N   UNL A   1      41.533  29.442  33.523  1.00  0.00    -0.354 N 
ATOM     53  N   UNL A   1      42.312  27.926  31.143  1.00  0.00    -0.248 NA
ATOM     54  C   UNL A   1      43.835  26.555  30.025  1.00  0.00     0.031 C 
ATOM     55  C   UNL A   1      42.748  29.214  35.367  1.00  0.00     0.029 A 
ATOM     56  C   UNL A   1      42.632  28.790  34.054  1.00  0.00     0.049 A 
ATOM     57  H   UNL A   1      41.207  29.341  32.599  1.00  0.00     0.167 HD
ATOM     58  C   UNL A   1      43.304  27.527  32.031  1.00  0.00     0.074 A 
ATOM     59  C   UNL A   1      44.192  26.648  31.298  1.00  0.00     0.031 C 
ATOM     60  C   UNL A   1      43.474  27.870  33.332  1.00  0.00     0.034 A 
BRANCH  47  61
ATOM     61  C   UNL A   1      39.336  31.965  35.404  1.00  0.00     0.023 A 
ATOM     62  C   UNL A   1      39.601  33.350  35.362  1.00  0.00     0.012 A 
ATOM     63  C   UNL A   1      38.592  31.436  36.476  1.00  0.00     0.148 A 
ATOM     64  C   UNL A   1      39.162  34.189  36.384  1.00  0.00     0.002 A 
ATOM     65  C   UNL A   1      38.120  32.286  37.470  1.00  0.00     0.091 A 
ATOM     66  F   UNL A   1      38.368  30.115  36.511  1.00  0.00    -0.205 F 
ATOM     67  C   UNL A   1      38.414  33.660  37.432  1.00  0.00     0.022 A 
BRANCH  65  68
ATOM     68  S   UNL A   1      37.081  31.714  38.819  1.00  0.00     0.127 S 
ATOM     69  O   UNL A   1      36.806  30.336  38.415  1.00  0.00    -0.237 OA
ATOM     70  O   UNL A   1      37.973  31.845  39.972  1.00  0.00    -0.237 OA
ATOM     71  O   UNL A   1      35.928  32.603  38.841  1.00  0.00    -0.744 OA
ENDBRANCH  65  68
ENDBRANCH  47  61
BRANCH  48  72
ATOM     72  C   UNL A   1      42.309  26.618  27.519  1.00  0.00     0.023 A 
ATOM     73  C   UNL A   1      43.075  27.274  26.535  1.00  0.00     0.012 A 
ATOM     74  C   UNL A   1      42.037  25.244  27.373  1.00  0.00     0.148 A 
ATOM     75  C   UNL A   1      43.533  26.585  25.412  1.00  0.00     0.002 A 
ATOM     76  C   UNL A   1      42.544  24.550  26.278  1.00  0.00     0.091 A 
ATOM     77  F   UNL A   1      41.295  24.639  28.312  1.00  0.00    -0.205 F 
ATOM     78  C   UNL A   1      43.278  25.222  25.288  1.00  0.00     0.022 A 
BRANCH  76  79
ATOM     79  S   UNL A   1      42.376  22.770  26.108  1.00  0.00     0.127 S 
ATOM     80  O   UNL A   1      43.179  22.286  27.227  1.00  0.00    -0.237 OA
ATOM     81  O   UNL A   1      40.932  22.586  26.259  1.00  0.00    -0.237 OA
ATOM     82  O   UNL A   1      42.882  22.456  24.779  1.00  0.00    -0.744 OA
ENDBRANCH  76  79
ENDBRANCH  48  72
BRANCH  60  83
ATOM     83  C   UNL A   1      44.642  27.271  34.068  1.00  0.00     0.023 A 
ATOM     84  C   UNL A   1      45.864  27.971  34.129  1.00  0.00     0.012 A 
ATOM     85  C   UNL A   1      44.506  26.055  34.766  1.00  0.00     0.148 A 
ATOM     86  C   UNL A   1      46.941  27.454  34.848  1.00  0.00     0.002 A 
ATOM     87  C   UNL A   1      45.569  25.570  35.520  1.00  0.00     0.091 A 
ATOM     88  F   UNL A   1      43.342  25.394  34.679  1.00  0.00    -0.205 F 
ATOM     89  C   UNL A   1      46.789  26.262  35.553  1.00  0.00     0.022 A 
BRANCH  87  90
ATOM     90  S   UNL A   1      45.432  24.093  36.533  1.00  0.00     0.127 S 
ATOM     91  O   UNL A   1      44.847  24.627  37.761  1.00  0.00    -0.237 OA
ATOM     92  O   UNL A   1      44.532  23.253  35.742  1.00  0.00    -0.237 OA
ATOM     93  O   UNL A   1      46.786  23.570  36.660  1.00  0.00    -0.744 OA
ENDBRANCH  87  90
ENDBRANCH  60  83
ENDBRANCH  34  35
ENDBRANCH  26  29
ENDBRANCH  24  25
ENDBRANCH  23  24
ENDBRANCH   1  23
TORSDOF 22
ENDMDL
MODEL 2
REMARK VINA RESULT:     -10.6      2.260      3.022
REMARK SMILES CCN(C(=O)N(CCOC)CC(=O)NCCCCNC(=O)c1ccc(-c2c3nc(c(-c4cccc(S(=O)(=O)[O-])c4F)c4ccc([nH]4)c(-c4cccc(S(=O)(=O)[O-])c4F)c4nc(c(-c5cccc(S(=O)(=O)[O-])c5F)c5ccc2[nH]5)C=C4)C=C3)cc1)C1CCCC1
REMARK SMILES IDX 16 1 15 2 14 3 12 4 13 5 11 7 6 8 4 9 5 10 3 11 2 12 1 13
REMARK SMILES IDX 85 14 86 15 89 16 87 17 88 18 7 19 8 20 9 21 10 22 17 23
REMARK SMILES IDX 18 24 19 25 20 26 21 28 22 29 23 30 84 31 24 32 83 33 25 34
REMARK SMILES IDX 26 35 27 36 77 37 28 38 82 39 76 40 78 41 29 42 81 43 75 44
REMARK SMILES IDX 74 45 30 47 62 48 42 49 61 50 43 51 46 52 60 53 79 54 44 55
REMARK SMILES IDX 45 56 59 58 80 59 47 60 31 61 32 62 40 63 33 64 35 65 41 66
REMARK SMILES IDX 34 67 36 68 37 69 38 70 39 71 63 72 64 73 72 74 65 75 67 76
REMARK SMILES IDX 73 77 66 78 68 79 69 80 70 81 71 82 48 83 49 84 57 85 50 86
REMARK SMILES IDX 52 87 58 88 51 89 53 90 54 91 55 92 56 93
REMARK H PARENT 14 6 19 27 78 46 46 57
REMARK Flexibility Score: inf
ROOT
ATOM      1  C   UNL A   1      32.325  29.315  24.912  1.00  0.00     0.023 C 
ENDROOT
BRANCH   1   2
ATOM      2  C   UNL A   1      33.429  28.655  24.101  1.00  0.00     0.116 C 
BRANCH   2   3
ATOM      3  N   UNL A   1      33.018  28.149  22.818  1.00  0.00    -0.355 N 
ATOM      4  C   UNL A   1      33.034  26.858  22.366  1.00  0.00     0.239 C 
ATOM      5  O   UNL A   1      32.299  26.595  21.406  1.00  0.00    -0.273 OA
ATOM      6  H   UNL A   1      32.680  28.821  22.183  1.00  0.00     0.163 HD
BRANCH   4   7
ATOM      7  C   UNL A   1      33.740  25.713  23.133  1.00  0.00     0.221 C 
BRANCH   7   8
ATOM      8  N   UNL A   1      32.982  24.886  24.094  1.00  0.00    -0.313 N 
BRANCH   8   9
ATOM      9  C   UNL A   1      33.620  24.783  25.325  1.00  0.00     0.320 C 
ATOM     10  O   UNL A   1      33.977  25.825  25.888  1.00  0.00    -0.248 OA
BRANCH   9  11
ATOM     11  N   UNL A   1      33.836  23.565  25.965  1.00  0.00    -0.322 N 
BRANCH  11  12
ATOM     12  C   UNL A   1      32.999  22.941  26.990  1.00  0.00     0.118 C 
ATOM     13  C   UNL A   1      33.657  21.717  27.628  1.00  0.00     0.027 C 
ENDBRANCH  11  12
BRANCH  11  14
ATOM     14  C   UNL A   1      35.191  23.004  25.743  1.00  0.00     0.087 C 
ATOM     15  C   UNL A   1      35.368  22.411  24.339  1.00  0.00     0.025 C 
ATOM     16  C   UNL A   1      36.412  23.924  25.843  1.00  0.00     0.025 C 
ATOM     17  C   UNL A   1      36.861  22.114  24.260  1.00  0.00     0.002 C 
ATOM     18  C   UNL A   1      37.539  23.139  25.170  1.00  0.00     0.002 C 
ENDBRANCH  11  14
ENDBRANCH   9  11
ENDBRANCH   8   9
BRANCH   8  19
ATOM     19  C   UNL A   1      32.062  23.914  23.475  1.00  0.00     0.150 C 
BRANCH  19  20
ATOM     20  C   UNL A   1      30.568  24.303  23.422  1.00  0.00     0.181 C 
BRANCH  20  21
ATOM     21  O   UNL A   1      30.202  25.135  24.526  1.00  0.00    -0.383 OA
ATOM     22  C   UNL A   1      29.831  26.461  24.177  1.00  0.00     0.194 C 
ENDBRANCH  20  21
ENDBRANCH  19  20
ENDBRANCH   8  19
ENDBRANCH   7   8
ENDBRANCH   4   7
ENDBRANCH   2   3
ENDBRANCH   1   2
BRANCH   1  23
ATOM     23  C   UNL A   1      32.088  28.699  26.287  1.00  0.00     0.023 C 
BRANCH  23  24
ATOM     24  C   UNL A   1      33.115  29.054  27.359  1.00  0.00     0.116 C 
BRANCH  24  25
ATOM     25  N   UNL A   1      33.367  30.485  27.488  1.00  0.00    -0.352 N 
ATOM     26  C   UNL A   1      34.517  31.126  27.900  1.00  0.00     0.251 C 
ATOM     27  H   UNL A   1      32.615  31.073  27.248  1.00  0.00     0.163 HD
ATOM     28  O   UNL A   1      34.536  32.342  28.033  1.00  0.00    -0.269 OA
BRANCH  26  29
ATOM     29  C   UNL A   1      35.715  30.318  28.225  1.00  0.00     0.039 A 
ATOM     30  C   UNL A   1      36.782  30.297  27.325  1.00  0.00     0.014 A 
ATOM     31  C   UNL A   1      35.811  29.658  29.453  1.00  0.00     0.014 A 
ATOM     32  C   UNL A   1      37.989  29.701  27.703  1.00  0.00     0.010 A 
ATOM     33  C   UNL A   1      37.037  29.140  29.858  1.00  0.00     0.010 A 
ATOM     34  C   UNL A   1      38.144  29.169  28.994  1.00  0.00    -0.014 A 
BRANCH  34  35
ATOM     35  C   UNL A   1      39.463  28.686  29.484  1.00  0.00     0.031 A 
ATOM     36  C   UNL A   1      40.181  29.417  30.585  1.00  0.00     0.074 A 
ATOM     37  C   UNL A   1      40.069  27.656  28.856  1.00  0.00     0.049 A 
ATOM     38  N   UNL A   1      41.370  29.195  31.083  1.00  0.00    -0.248 NA
ATOM     39  C   UNL A   1      39.487  30.569  31.184  1.00  0.00     0.031 C 
ATOM     40  C   UNL A   1      39.524  26.920  27.713  1.00  0.00     0.029 A 
ATOM     41  N   UNL A   1      41.293  27.069  29.071  1.00  0.00    -0.354 N 
ATOM     42  C   UNL A   1      41.583  30.198  32.021  1.00  0.00     0.074 A 
ATOM     43  C   UNL A   1      40.414  31.050  31.999  1.00  0.00     0.031 C 
ATOM     44  C   UNL A   1      40.403  25.980  27.331  1.00  0.00     0.029 A 
ATOM     45  C   UNL A   1      41.588  26.063  28.180  1.00  0.00     0.049 A 
ATOM     46  H   UNL A   1      41.901  27.343  29.795  1.00  0.00     0.167 HD
ATOM     47  C   UNL A   1      42.639  30.378  32.848  1.00  0.00     0.034 A 
ATOM     48  C   UNL A   1      42.689  25.295  28.055  1.00  0.00     0.034 A 
ATOM     49  C   UNL A   1      43.776  29.500  32.908  1.00  0.00     0.049 A 
ATOM     50  C   UNL A   1      43.825  25.479  29.025  1.00  0.00     0.074 A 
ATOM     51  C   UNL A   1      44.849  29.539  33.781  1.00  0.00     0.029 A 
ATOM     52  N   UNL A   1      43.992  28.425  32.059  1.00  0.00    -0.354 N 
ATOM     53  N   UNL A   1      43.930  26.326  30.020  1.00  0.00    -0.248 NA
ATOM     54  C   UNL A   1      44.977  24.577  28.881  1.00  0.00     0.031 C 
ATOM     55  C   UNL A   1      45.722  28.497  33.450  1.00  0.00     0.029 A 
ATOM     56  C   UNL A   1      45.182  27.797  32.383  1.00  0.00     0.049 A 
ATOM     57  H   UNL A   1      43.388  28.149  31.332  1.00  0.00     0.167 HD
ATOM     58  C   UNL A   1      45.140  26.037  30.640  1.00  0.00     0.074 A 
ATOM     59  C   UNL A   1      45.722  24.922  29.922  1.00  0.00     0.031 C 
ATOM     60  C   UNL A   1      45.723  26.650  31.700  1.00  0.00     0.034 A 
BRANCH  47  61
ATOM     61  C   UNL A   1      42.584  31.536  33.809  1.00  0.00     0.023 A 
ATOM     62  C   UNL A   1      43.100  32.788  33.414  1.00  0.00     0.012 A 
ATOM     63  C   UNL A   1      41.975  31.407  35.073  1.00  0.00     0.148 A 
ATOM     64  C   UNL A   1      43.042  33.884  34.273  1.00  0.00     0.002 A 
ATOM     65  C   UNL A   1      41.882  32.517  35.907  1.00  0.00     0.091 A 
ATOM     66  F   UNL A   1      41.510  30.206  35.441  1.00  0.00    -0.205 F 
ATOM     67  C   UNL A   1      42.425  33.752  35.513  1.00  0.00     0.022 A 
BRANCH  65  68
ATOM     68  S   UNL A   1      41.036  32.468  37.490  1.00  0.00     0.127 S 
ATOM     69  O   UNL A   1      41.914  31.593  38.266  1.00  0.00    -0.237 OA
ATOM     70  O   UNL A   1      41.063  33.873  37.898  1.00  0.00    -0.237 OA
ATOM     71  O   UNL A   1      39.707  31.941  37.218  1.00  0.00    -0.744 OA
ENDBRANCH  65  68
ENDBRANCH  47  61
BRANCH  48  72
ATOM     72  C   UNL A   1      42.739  24.226  27.016  1.00  0.00     0.023 A 
ATOM     73  C   UNL A   1      43.452  24.459  25.824  1.00  0.00     0.012 A 
ATOM     74  C   UNL A   1      42.116  22.979  27.211  1.00  0.00     0.148 A 
ATOM     75  C   UNL A   1      43.518  23.483  24.831  1.00  0.00     0.002 A 
ATOM     76  C   UNL A   1      42.231  21.989  26.239  1.00  0.00     0.091 A 
ATOM     77  F   UNL A   1      41.430  22.779  28.345  1.00  0.00    -0.205 F 
ATOM     78  C   UNL A   1      42.918  22.244  25.042  1.00  0.00     0.022 A 
BRANCH  76  79
ATOM     79  S   UNL A   1      41.604  20.323  26.485  1.00  0.00     0.127 S 
ATOM     80  O   UNL A   1      42.213  19.607  25.368  1.00  0.00    -0.237 OA
ATOM     81  O   UNL A   1      42.147  19.987  27.802  1.00  0.00    -0.237 OA
ATOM     82  O   UNL A   1      40.154  20.444  26.450  1.00  0.00    -0.744 OA
ENDBRANCH  76  79
ENDBRANCH  48  72
BRANCH  60  83
ATOM     83  C   UNL A   1      47.046  26.114  32.178  1.00  0.00     0.023 A 
ATOM     84  C   UNL A   1      48.244  26.643  31.660  1.00  0.00     0.012 A 
ATOM     85  C   UNL A   1      47.102  25.143  33.199  1.00  0.00     0.148 A 
ATOM     86  C   UNL A   1      49.479  26.193  32.128  1.00  0.00     0.002 A 
ATOM     87  C   UNL A   1      48.335  24.734  33.694  1.00  0.00     0.091 A 
ATOM     88  F   UNL A   1      45.950  24.637  33.664  1.00  0.00    -0.205 F 
ATOM     89  C   UNL A   1      49.523  25.250  33.152  1.00  0.00     0.022 A 
BRANCH  87  90
ATOM     90  S   UNL A   1      48.485  23.594  35.074  1.00  0.00     0.127 S 
ATOM     91  O   UNL A   1      49.896  23.219  34.998  1.00  0.00    -0.237 OA
ATOM     92  O   UNL A   1      48.140  24.440  36.217  1.00  0.00    -0.237 OA
ATOM     93  O   UNL A   1      47.536  22.521  34.810  1.00  0.00    -0.744 OA
ENDBRANCH  87  90
ENDBRANCH  60  83
ENDBRANCH  34  35
ENDBRANCH  26  29
ENDBRANCH  24  25
ENDBRANCH  23  24
ENDBRANCH   1  23
TORSDOF 22
ENDMDL
MODEL 3
REMARK VINA RESULT:     -10.3      1.697      7.850
REMARK SMILES CCN(C(=O)N(CCOC)CC(=O)NCCCCNC(=O)c1ccc(-c2c3nc(c(-c4cccc(S(=O)(=O)[O-])c4F)c4ccc([nH]4)c(-c4cccc(S(=O)(=O)[O-])c4F)c4nc(c(-c5cccc(S(=O)(=O)[O-])c5F)c5ccc2[nH]5)C=C4)C=C3)cc1)C1CCCC1
REMARK SMILES IDX 16 1 15 2 14 3 12 4 13 5 11 7 6 8 4 9 5 10 3 11 2 12 1 13
REMARK SMILES IDX 85 14 86 15 89 16 87 17 88 18 7 19 8 20 9 21 10 22 17 23
REMARK SMILES IDX 18 24 19 25 20 26 21 28 22 29 23 30 84 31 24 32 83 33 25 34
REMARK SMILES IDX 26 35 27 36 77 37 28 38 82 39 76 40 78 41 29 42 81 43 75 44
REMARK SMILES IDX 74 45 30 47 62 48 42 49 61 50 43 51 46 52 60 53 79 54 44 55
REMARK SMILES IDX 45 56 59 58 80 59 47 60 31 61 32 62 40 63 33 64 35 65 41 66
REMARK SMILES IDX 34 67 36 68 37 69 38 70 39 71 63 72 64 73 72 74 65 75 67 76
REMARK SMILES IDX 73 77 66 78 68 79 69 80 70 81 71 82 48 83 49 84 57 85 50 86
REMARK SMILES IDX 52 87 58 88 51 89 53 90 54 91 55 92 56 93
REMARK H PARENT 14 6 19 27 78 46 46 57
REMARK Flexibility Score: inf
ROOT
ATOM      1  C   UNL A   1      31.287  27.604  26.721  1.00  0.00     0.023 C 
ENDROOT
BRANCH   1   2
ATOM      2  C   UNL A   1      30.664  26.717  25.656  1.00  0.00     0.116 C 
BRANCH   2   3
ATOM      3  N   UNL A   1      30.046  25.517  26.154  1.00  0.00    -0.355 N 
ATOM      4  C   UNL A   1      30.639  24.335  26.506  1.00  0.00     0.239 C 
ATOM      5  O   UNL A   1      29.994  23.588  27.252  1.00  0.00    -0.273 OA
ATOM      6  H   UNL A   1      29.067  25.551  26.255  1.00  0.00     0.163 HD
BRANCH   4   7
ATOM      7  C   UNL A   1      32.124  24.022  26.197  1.00  0.00     0.221 C 
BRANCH   7   8
ATOM      8  N   UNL A   1      32.475  22.909  25.292  1.00  0.00    -0.313 N 
BRANCH   8   9
ATOM      9  C   UNL A   1      33.242  21.934  25.920  1.00  0.00     0.320 C 
ATOM     10  O   UNL A   1      33.366  21.992  27.150  1.00  0.00    -0.248 OA
BRANCH   9  11
ATOM     11  N   UNL A   1      33.838  20.881  25.232  1.00  0.00    -0.322 N 
BRANCH  11  12
ATOM     12  C   UNL A   1      33.314  19.526  25.056  1.00  0.00     0.118 C 
ATOM     13  C   UNL A   1      32.532  19.358  23.752  1.00  0.00     0.027 C 
ENDBRANCH  11  12
BRANCH  11  14
ATOM     14  C   UNL A   1      35.259  21.123  24.882  1.00  0.00     0.087 C 
ATOM     15  C   UNL A   1      35.914  22.200  25.757  1.00  0.00     0.025 C 
ATOM     16  C   UNL A   1      36.269  19.977  25.000  1.00  0.00     0.025 C 
ATOM     17  C   UNL A   1      37.390  22.117  25.386  1.00  0.00     0.002 C 
ATOM     18  C   UNL A   1      37.635  20.666  24.972  1.00  0.00     0.002 C 
ENDBRANCH  11  14
ENDBRANCH   9  11
ENDBRANCH   8   9
BRANCH   8  19
ATOM     19  C   UNL A   1      32.463  23.256  23.859  1.00  0.00     0.150 C 
BRANCH  19  20
ATOM     20  C   UNL A   1      32.909  24.686  23.483  1.00  0.00     0.181 C 
BRANCH  20  21
ATOM     21  O   UNL A   1      31.989  25.303  22.579  1.00  0.00    -0.383 OA
ATOM     22  C   UNL A   1      32.528  25.622  21.304  1.00  0.00     0.194 C 
ENDBRANCH  20  21
ENDBRANCH  19  20
ENDBRANCH   8  19
ENDBRANCH   7   8
ENDBRANCH   4   7
ENDBRANCH   2   3
ENDBRANCH   1   2
BRANCH   1  23
ATOM     23  C   UNL A   1      32.763  27.923  26.503  1.00  0.00     0.023 C 
BRANCH  23  24
ATOM     24  C   UNL A   1      33.056  29.165  25.663  1.00  0.00     0.116 C 
BRANCH  24  25
ATOM     25  N   UNL A   1      32.576  30.409  26.256  1.00  0.00    -0.352 N 
ATOM     26  C   UNL A   1      33.209  31.236  27.160  1.00  0.00     0.251 C 
ATOM     27  H   UNL A   1      31.679  30.696  25.971  1.00  0.00     0.163 HD
ATOM     28  O   UNL A   1      32.628  32.206  27.625  1.00  0.00    -0.269 OA
BRANCH  26  29
ATOM     29  C   UNL A   1      34.585  30.905  27.597  1.00  0.00     0.039 A 
ATOM     30  C   UNL A   1      35.502  31.941  27.789  1.00  0.00     0.014 A 
ATOM     31  C   UNL A   1      34.933  29.586  27.900  1.00  0.00     0.014 A 
ATOM     32  C   UNL A   1      36.736  31.664  28.385  1.00  0.00     0.010 A 
ATOM     33  C   UNL A   1      36.127  29.328  28.567  1.00  0.00     0.010 A 
ATOM     34  C   UNL A   1      37.035  30.366  28.831  1.00  0.00    -0.014 A 
BRANCH  34  35
ATOM     35  C   UNL A   1      38.262  30.077  29.620  1.00  0.00     0.031 A 
ATOM     36  C   UNL A   1      39.302  29.127  29.091  1.00  0.00     0.074 A 
ATOM     37  C   UNL A   1      38.386  30.580  30.866  1.00  0.00     0.049 A 
ATOM     38  N   UNL A   1      40.390  28.690  29.670  1.00  0.00    -0.248 NA
ATOM     39  C   UNL A   1      39.073  28.569  27.748  1.00  0.00     0.031 C 
ATOM     40  C   UNL A   1      37.405  31.438  31.535  1.00  0.00     0.029 A 
ATOM     41  N   UNL A   1      39.374  30.416  31.806  1.00  0.00    -0.354 N 
ATOM     42  C   UNL A   1      40.953  27.779  28.784  1.00  0.00     0.074 A 
ATOM     43  C   UNL A   1      40.068  27.700  27.643  1.00  0.00     0.031 C 
ATOM     44  C   UNL A   1      37.842  31.729  32.771  1.00  0.00     0.029 A 
ATOM     45  C   UNL A   1      39.117  31.056  32.997  1.00  0.00     0.049 A 
ATOM     46  H   UNL A   1      40.191  29.891  31.642  1.00  0.00     0.167 HD
ATOM     47  C   UNL A   1      42.115  27.093  28.895  1.00  0.00     0.034 A 
ATOM     48  C   UNL A   1      39.824  31.095  34.144  1.00  0.00     0.034 A 
ATOM     49  C   UNL A   1      43.020  27.214  30.005  1.00  0.00     0.049 A 
ATOM     50  C   UNL A   1      41.140  30.369  34.219  1.00  0.00     0.074 A 
ATOM     51  C   UNL A   1      44.269  26.639  30.163  1.00  0.00     0.029 A 
ATOM     52  N   UNL A   1      42.775  27.956  31.151  1.00  0.00    -0.354 N 
ATOM     53  N   UNL A   1      41.738  29.650  33.300  1.00  0.00    -0.248 NA
ATOM     54  C   UNL A   1      41.898  30.491  35.473  1.00  0.00     0.031 C 
ATOM     55  C   UNL A   1      44.773  27.021  31.411  1.00  0.00     0.029 A 
ATOM     56  C   UNL A   1      43.846  27.850  32.022  1.00  0.00     0.049 A 
ATOM     57  H   UNL A   1      41.959  28.481  31.319  1.00  0.00     0.167 HD
ATOM     58  C   UNL A   1      42.955  29.264  33.850  1.00  0.00     0.074 A 
ATOM     59  C   UNL A   1      43.019  29.848  35.174  1.00  0.00     0.031 C 
ATOM     60  C   UNL A   1      43.925  28.484  33.313  1.00  0.00     0.034 A 
BRANCH  47  61
ATOM     61  C   UNL A   1      42.510  26.199  27.749  1.00  0.00     0.023 A 
ATOM     62  C   UNL A   1      43.280  26.729  26.693  1.00  0.00     0.012 A 
ATOM     63  C   UNL A   1      42.174  24.832  27.742  1.00  0.00     0.148 A 
ATOM     64  C   UNL A   1      43.681  25.920  25.631  1.00  0.00     0.002 A 
ATOM     65  C   UNL A   1      42.616  24.021  26.700  1.00  0.00     0.091 A 
ATOM     66  F   UNL A   1      41.424  24.350  28.742  1.00  0.00    -0.205 F 
ATOM     67  C   UNL A   1      43.359  24.567  25.639  1.00  0.00     0.022 A 
BRANCH  65  68
ATOM     68  S   UNL A   1      42.319  22.251  26.660  1.00  0.00     0.127 S 
ATOM     69  O   UNL A   1      41.005  22.187  26.023  1.00  0.00    -0.237 OA
ATOM     70  O   UNL A   1      43.423  21.772  25.827  1.00  0.00    -0.237 OA
ATOM     71  O   UNL A   1      42.367  21.805  28.044  1.00  0.00    -0.744 OA
ENDBRANCH  65  68
ENDBRANCH  47  61
BRANCH  48  72
ATOM     72  C   UNL A   1      39.338  31.913  35.292  1.00  0.00     0.023 A 
ATOM     73  C   UNL A   1      38.438  31.340  36.212  1.00  0.00     0.012 A 
ATOM     74  C   UNL A   1      39.780  33.234  35.496  1.00  0.00     0.148 A 
ATOM     75  C   UNL A   1      37.962  32.077  37.296  1.00  0.00     0.002 A 
ATOM     76  C   UNL A   1      39.344  33.945  36.610  1.00  0.00     0.091 A 
ATOM     77  F   UNL A   1      40.626  33.767  34.603  1.00  0.00    -0.205 F 
ATOM     78  C   UNL A   1      38.423  33.375  37.502  1.00  0.00     0.022 A 
BRANCH  76  79
ATOM     79  S   UNL A   1      39.988  35.571  37.025  1.00  0.00     0.127 S 
ATOM     80  O   UNL A   1      39.279  35.865  38.267  1.00  0.00    -0.237 OA
ATOM     81  O   UNL A   1      41.418  35.299  37.180  1.00  0.00    -0.237 OA
ATOM     82  O   UNL A   1      39.661  36.421  35.888  1.00  0.00    -0.744 OA
ENDBRANCH  76  79
ENDBRANCH  48  72
BRANCH  60  83
ATOM     83  C   UNL A   1      45.161  28.237  34.136  1.00  0.00     0.023 A 
ATOM     84  C   UNL A   1      46.247  29.129  34.052  1.00  0.00     0.012 A 
ATOM     85  C   UNL A   1      45.214  27.166  35.050  1.00  0.00     0.148 A 
ATOM     86  C   UNL A   1      47.381  28.943  34.844  1.00  0.00     0.002 A 
ATOM     87  C   UNL A   1      46.327  27.014  35.870  1.00  0.00     0.091 A 
ATOM     88  F   UNL A   1      44.179  26.315  35.100  1.00  0.00    -0.205 F 
ATOM     89  C   UNL A   1      47.414  27.895  35.760  1.00  0.00     0.022 A 
BRANCH  87  90
ATOM     90  S   UNL A   1      46.416  25.749  37.143  1.00  0.00     0.127 S 
ATOM     91  O   UNL A   1      46.420  24.524  36.346  1.00  0.00    -0.237 OA
ATOM     92  O   UNL A   1      47.689  26.055  37.798  1.00  0.00    -0.237 OA
ATOM     93  O   UNL A   1      45.243  25.946  37.984  1.00  0.00    -0.744 OA
ENDBRANCH  87  90
ENDBRANCH  60  83
ENDBRANCH  34  35
ENDBRANCH  26  29
ENDBRANCH  24  25
ENDBRANCH  23  24
ENDBRANCH   1  23
TORSDOF 22
ENDMDL
