MODEL 1
REMARK VINA RESULT:     -11.5      0.000      0.000
REMARK SMILES CS(=O)(=O)c1ccc(-n2nc(C(F)(F)F)cc2-c2ccc(CC(=O)NCCCCNC(=O)c3ccc(-c4c5nc(c(-c6cccc(S(=O)(=O)[O-])c6F)c6ccc([nH]6)c(-c6cccc(S(=O)(=O)[O-])c6F)c6nc(c(-c7cccc(S(=O)(=O)[O-])c7F)c7ccc4[nH]7)C=C6)C=C5)cc3)cc2)cc1
REMARK SMILES IDX 27 1 26 2 25 3 23 4 24 5 22 7 21 8 18 9 19 10 97 11 20 12
REMARK SMILES IDX 96 13 17 14 9 15 10 16 11 17 16 18 8 19 5 20 6 21 99 22 7 23
REMARK SMILES IDX 98 24 2 25 1 26 3 27 4 28 12 29 13 30 14 31 15 32 28 33
REMARK SMILES IDX 29 34 30 35 31 36 32 38 33 39 34 40 95 41 35 42 94 43 36 44
REMARK SMILES IDX 37 45 38 46 88 47 39 48 93 49 87 50 89 51 40 52 92 53 86 54
REMARK SMILES IDX 85 55 41 57 73 58 53 59 72 60 54 61 57 62 71 63 90 64 55 65
REMARK SMILES IDX 56 66 70 68 91 69 58 70 42 71 43 72 51 73 44 74 46 75 52 76
REMARK SMILES IDX 45 77 47 78 48 79 49 80 50 81 74 82 75 83 83 84 76 85 78 86
REMARK SMILES IDX 84 87 77 88 79 89 80 90 81 91 82 92 59 93 60 94 68 95 61 96
REMARK SMILES IDX 63 97 69 98 62 99 64 100 65 101 66 102 67 103
REMARK H PARENT 25 6 30 37 89 56 57 67
REMARK Flexibility Score: inf
ROOT
ATOM      1  C   UNL A   1      32.538  28.460  26.725  1.00  0.00     0.023 C 
ENDROOT
BRANCH   1   2
ATOM      2  C   UNL A   1      31.643  28.140  25.523  1.00  0.00     0.116 C 
BRANCH   2   3
ATOM      3  N   UNL A   1      32.323  28.405  24.270  1.00  0.00    -0.356 N 
ATOM      4  C   UNL A   1      32.784  27.522  23.335  1.00  0.00     0.224 C 
ATOM      5  O   UNL A   1      33.520  27.939  22.438  1.00  0.00    -0.275 OA
ATOM      6  H   UNL A   1      32.474  29.356  24.064  1.00  0.00     0.163 HD
BRANCH   4   7
ATOM      7  C   UNL A   1      32.410  26.052  23.425  1.00  0.00     0.135 C 
BRANCH   7   8
ATOM      8  C   UNL A   1      33.534  25.183  23.938  1.00  0.00    -0.039 A 
ATOM      9  C   UNL A   1      35.768  23.726  24.845  1.00  0.00     0.000 A 
ATOM     10  C   UNL A   1      35.328  23.607  23.519  1.00  0.00     0.010 A 
ATOM     11  C   UNL A   1      35.039  24.528  25.729  1.00  0.00     0.010 A 
ATOM     12  C   UNL A   1      34.223  24.329  23.068  1.00  0.00     0.005 A 
ATOM     13  C   UNL A   1      33.926  25.243  25.281  1.00  0.00     0.005 A 
BRANCH   9  14
ATOM     14  C   UNL A   1      36.942  22.986  25.312  1.00  0.00     0.075 A 
ATOM     15  N   UNL A   1      36.980  21.631  25.626  1.00  0.00    -0.233 N 
ATOM     16  N   UNL A   1      38.106  21.303  26.311  1.00  0.00    -0.163 NA
ATOM     17  C   UNL A   1      38.897  22.387  26.213  1.00  0.00     0.167 A 
ATOM     18  C   UNL A   1      38.198  23.466  25.621  1.00  0.00     0.064 A 
BRANCH  15  19
ATOM     19  C   UNL A   1      36.065  20.612  25.261  1.00  0.00     0.065 A 
ATOM     20  C   UNL A   1      34.260  18.619  24.511  1.00  0.00     0.067 A 
ATOM     21  C   UNL A   1      35.627  18.358  24.507  1.00  0.00     0.022 A 
ATOM     22  C   UNL A   1      33.786  19.860  24.949  1.00  0.00     0.022 A 
ATOM     23  C   UNL A   1      36.537  19.367  24.833  1.00  0.00     0.030 A 
ATOM     24  C   UNL A   1      34.687  20.844  25.367  1.00  0.00     0.030 A 
BRANCH  20  25
ATOM     25  S   UNL A   1      33.065  17.421  23.959  1.00  0.00     0.175 S 
ATOM     26  C   UNL A   1      33.460  15.863  24.706  1.00  0.00     0.163 C 
ATOM     27  O   UNL A   1      33.266  17.281  22.530  1.00  0.00    -0.224 OA
ATOM     28  O   UNL A   1      31.788  17.851  24.496  1.00  0.00    -0.224 OA
ENDBRANCH  20  25
ENDBRANCH  15  19
BRANCH  17  29
ATOM     29  C   UNL A   1      40.320  22.412  26.697  1.00  0.00     0.435 C 
ATOM     30  F   UNL A   1      41.229  22.384  25.688  1.00  0.00    -0.164 F 
ATOM     31  F   UNL A   1      40.587  23.517  27.444  1.00  0.00    -0.164 F 
ATOM     32  F   UNL A   1      40.600  21.341  27.493  1.00  0.00    -0.164 F 
ENDBRANCH  17  29
ENDBRANCH   9  14
ENDBRANCH   7   8
ENDBRANCH   4   7
ENDBRANCH   2   3
ENDBRANCH   1   2
BRANCH   1  33
ATOM     33  C   UNL A   1      33.861  29.150  26.370  1.00  0.00     0.023 C 
BRANCH  33  34
ATOM     34  C   UNL A   1      34.996  28.920  27.350  1.00  0.00     0.116 C 
BRANCH  34  35
ATOM     35  N   UNL A   1      35.059  29.948  28.393  1.00  0.00    -0.352 N 
ATOM     36  C   UNL A   1      36.052  30.121  29.346  1.00  0.00     0.251 C 
ATOM     37  H   UNL A   1      34.311  30.588  28.420  1.00  0.00     0.163 HD
ATOM     38  O   UNL A   1      35.847  30.744  30.368  1.00  0.00    -0.269 OA
BRANCH  36  39
ATOM     39  C   UNL A   1      37.367  29.520  29.064  1.00  0.00     0.039 A 
ATOM     40  C   UNL A   1      38.198  30.021  28.059  1.00  0.00     0.014 A 
ATOM     41  C   UNL A   1      37.793  28.511  29.922  1.00  0.00     0.014 A 
ATOM     42  C   UNL A   1      39.514  29.567  27.998  1.00  0.00     0.010 A 
ATOM     43  C   UNL A   1      39.124  28.189  29.960  1.00  0.00     0.010 A 
ATOM     44  C   UNL A   1      39.980  28.675  28.974  1.00  0.00    -0.014 A 
BRANCH  44  45
ATOM     45  C   UNL A   1      41.391  28.315  29.054  1.00  0.00     0.031 A 
ATOM     46  C   UNL A   1      41.851  27.277  28.090  1.00  0.00     0.074 A 
ATOM     47  C   UNL A   1      42.274  29.039  29.775  1.00  0.00     0.049 A 
ATOM     48  N   UNL A   1      42.268  26.086  28.365  1.00  0.00    -0.248 NA
ATOM     49  C   UNL A   1      41.730  27.543  26.649  1.00  0.00     0.031 C 
ATOM     50  C   UNL A   1      42.027  30.282  30.520  1.00  0.00     0.029 A 
ATOM     51  N   UNL A   1      43.625  28.909  29.851  1.00  0.00    -0.354 N 
ATOM     52  C   UNL A   1      42.686  25.536  27.154  1.00  0.00     0.074 A 
ATOM     53  C   UNL A   1      42.150  26.388  26.124  1.00  0.00     0.031 C 
ATOM     54  C   UNL A   1      43.196  30.924  30.717  1.00  0.00     0.029 A 
ATOM     55  C   UNL A   1      44.276  30.059  30.286  1.00  0.00     0.049 A 
ATOM     56  H   UNL A   1      44.099  28.077  29.619  1.00  0.00     0.167 HD
ATOM     57  C   UNL A   1      43.638  24.560  27.107  1.00  0.00     0.034 A 
ATOM     58  C   UNL A   1      45.608  30.298  30.248  1.00  0.00     0.034 A 
ATOM     59  C   UNL A   1      43.914  24.037  28.421  1.00  0.00     0.049 A 
ATOM     60  C   UNL A   1      46.281  28.983  30.165  1.00  0.00     0.074 A 
ATOM     61  C   UNL A   1      43.172  23.428  29.414  1.00  0.00     0.029 A 
ATOM     62  N   UNL A   1      45.072  24.468  29.025  1.00  0.00    -0.354 N 
ATOM     63  N   UNL A   1      46.253  28.105  31.129  1.00  0.00    -0.248 NA
ATOM     64  C   UNL A   1      46.629  28.463  28.854  1.00  0.00     0.031 C 
ATOM     65  C   UNL A   1      43.694  23.955  30.631  1.00  0.00     0.029 A 
ATOM     66  C   UNL A   1      44.763  24.795  30.316  1.00  0.00     0.049 A 
ATOM     67  H   UNL A   1      45.960  24.531  28.604  1.00  0.00     0.167 HD
ATOM     68  C   UNL A   1      46.103  26.889  30.476  1.00  0.00     0.074 A 
ATOM     69  C   UNL A   1      46.478  27.157  29.088  1.00  0.00     0.031 C 
ATOM     70  C   UNL A   1      45.405  25.865  31.051  1.00  0.00     0.034 A 
BRANCH  57  71
ATOM     71  C   UNL A   1      44.599  24.299  25.968  1.00  0.00     0.023 A 
ATOM     72  C   UNL A   1      44.669  22.975  25.473  1.00  0.00     0.012 A 
ATOM     73  C   UNL A   1      45.615  25.188  25.554  1.00  0.00     0.148 A 
ATOM     74  C   UNL A   1      45.727  22.542  24.668  1.00  0.00     0.002 A 
ATOM     75  C   UNL A   1      46.621  24.774  24.686  1.00  0.00     0.091 A 
ATOM     76  F   UNL A   1      45.703  26.404  26.100  1.00  0.00    -0.205 F 
ATOM     77  C   UNL A   1      46.702  23.444  24.266  1.00  0.00     0.022 A 
BRANCH  75  78
ATOM     78  S   UNL A   1      47.878  25.913  24.091  1.00  0.00     0.127 S 
ATOM     79  O   UNL A   1      47.106  27.139  23.922  1.00  0.00    -0.237 OA
ATOM     80  O   UNL A   1      48.824  25.922  25.208  1.00  0.00    -0.237 OA
ATOM     81  O   UNL A   1      48.401  25.309  22.872  1.00  0.00    -0.744 OA
ENDBRANCH  75  78
ENDBRANCH  57  71
BRANCH  58  82
ATOM     82  C   UNL A   1      46.335  31.575  30.069  1.00  0.00     0.023 A 
ATOM     83  C   UNL A   1      47.382  31.904  30.951  1.00  0.00     0.012 A 
ATOM     84  C   UNL A   1      46.200  32.328  28.882  1.00  0.00     0.148 A 
ATOM     85  C   UNL A   1      48.294  32.918  30.640  1.00  0.00     0.002 A 
ATOM     86  C   UNL A   1      47.106  33.340  28.579  1.00  0.00     0.091 A 
ATOM     87  F   UNL A   1      45.246  31.991  28.004  1.00  0.00    -0.205 F 
ATOM     88  C   UNL A   1      48.164  33.629  29.450  1.00  0.00     0.022 A 
BRANCH  86  89
ATOM     89  S   UNL A   1      47.010  34.274  27.045  1.00  0.00     0.127 S 
ATOM     90  O   UNL A   1      47.189  33.227  26.037  1.00  0.00    -0.237 OA
ATOM     91  O   UNL A   1      45.663  34.831  27.118  1.00  0.00    -0.237 OA
ATOM     92  O   UNL A   1      48.102  35.238  27.101  1.00  0.00    -0.744 OA
ENDBRANCH  86  89
ENDBRANCH  58  82
BRANCH  70  93
ATOM     93  C   UNL A   1      45.029  25.984  32.507  1.00  0.00     0.023 A 
ATOM     94  C   UNL A   1      45.906  25.612  33.547  1.00  0.00     0.012 A 
ATOM     95  C   UNL A   1      43.840  26.659  32.834  1.00  0.00     0.148 A 
ATOM     96  C   UNL A   1      45.595  25.884  34.882  1.00  0.00     0.002 A 
ATOM     97  C   UNL A   1      43.559  26.974  34.158  1.00  0.00     0.091 A 
ATOM     98  F   UNL A   1      43.017  27.014  31.836  1.00  0.00    -0.205 F 
ATOM     99  C   UNL A   1      44.427  26.579  35.187  1.00  0.00     0.022 A 
BRANCH  97 100
ATOM    100  S   UNL A   1      42.143  27.984  34.595  1.00  0.00     0.127 S 
ATOM    101  O   UNL A   1      42.298  28.117  36.042  1.00  0.00    -0.237 OA
ATOM    102  O   UNL A   1      42.385  29.213  33.839  1.00  0.00    -0.237 OA
ATOM    103  O   UNL A   1      40.970  27.238  34.153  1.00  0.00    -0.744 OA
ENDBRANCH  97 100
ENDBRANCH  70  93
ENDBRANCH  44  45
ENDBRANCH  36  39
ENDBRANCH  34  35
ENDBRANCH  33  34
ENDBRANCH   1  33
TORSDOF 19
ENDMDL
MODEL 2
REMARK VINA RESULT:     -11.4      1.975      2.331
REMARK SMILES CS(=O)(=O)c1ccc(-n2nc(C(F)(F)F)cc2-c2ccc(CC(=O)NCCCCNC(=O)c3ccc(-c4c5nc(c(-c6cccc(S(=O)(=O)[O-])c6F)c6ccc([nH]6)c(-c6cccc(S(=O)(=O)[O-])c6F)c6nc(c(-c7cccc(S(=O)(=O)[O-])c7F)c7ccc4[nH]7)C=C6)C=C5)cc3)cc2)cc1
REMARK SMILES IDX 27 1 26 2 25 3 23 4 24 5 22 7 21 8 18 9 19 10 97 11 20 12
REMARK SMILES IDX 96 13 17 14 9 15 10 16 11 17 16 18 8 19 5 20 6 21 99 22 7 23
REMARK SMILES IDX 98 24 2 25 1 26 3 27 4 28 12 29 13 30 14 31 15 32 28 33
REMARK SMILES IDX 29 34 30 35 31 36 32 38 33 39 34 40 95 41 35 42 94 43 36 44
REMARK SMILES IDX 37 45 38 46 88 47 39 48 93 49 87 50 89 51 40 52 92 53 86 54
REMARK SMILES IDX 85 55 41 57 73 58 53 59 72 60 54 61 57 62 71 63 90 64 55 65
REMARK SMILES IDX 56 66 70 68 91 69 58 70 42 71 43 72 51 73 44 74 46 75 52 76
REMARK SMILES IDX 45 77 47 78 48 79 49 80 50 81 74 82 75 83 83 84 76 85 78 86
REMARK SMILES IDX 84 87 77 88 79 89 80 90 81 91 82 92 59 93 60 94 68 95 61 96
REMARK SMILES IDX 63 97 69 98 62 99 64 100 65 101 66 102 67 103
REMARK H PARENT 25 6 30 37 89 56 57 67
REMARK Flexibility Score: inf
ROOT
ATOM      1  C   UNL A   1      32.664  28.606  27.043  1.00  0.00     0.023 C 
ENDROOT
BRANCH   1   2
ATOM      2  C   UNL A   1      31.782  28.006  25.942  1.00  0.00     0.116 C 
BRANCH   2   3
ATOM      3  N   UNL A   1      32.285  28.335  24.623  1.00  0.00    -0.356 N 
ATOM      4  C   UNL A   1      32.701  27.499  23.624  1.00  0.00     0.224 C 
ATOM      5  O   UNL A   1      33.288  27.982  22.654  1.00  0.00    -0.275 OA
ATOM      6  H   UNL A   1      32.333  29.297  24.416  1.00  0.00     0.163 HD
BRANCH   4   7
ATOM      7  C   UNL A   1      32.459  26.003  23.734  1.00  0.00     0.135 C 
BRANCH   7   8
ATOM      8  C   UNL A   1      33.701  25.227  24.106  1.00  0.00    -0.039 A 
ATOM      9  C   UNL A   1      35.886  23.613  24.851  1.00  0.00     0.000 A 
ATOM     10  C   UNL A   1      35.269  24.456  25.787  1.00  0.00     0.010 A 
ATOM     11  C   UNL A   1      35.442  23.636  23.525  1.00  0.00     0.010 A 
ATOM     12  C   UNL A   1      34.186  25.254  25.419  1.00  0.00     0.005 A 
ATOM     13  C   UNL A   1      34.364  24.444  23.154  1.00  0.00     0.005 A 
BRANCH   9  14
ATOM     14  C   UNL A   1      37.008  22.757  25.242  1.00  0.00     0.075 A 
ATOM     15  N   UNL A   1      36.940  21.394  25.509  1.00  0.00    -0.233 N 
ATOM     16  N   UNL A   1      38.059  20.944  26.135  1.00  0.00    -0.163 NA
ATOM     17  C   UNL A   1      38.937  21.960  26.040  1.00  0.00     0.167 A 
ATOM     18  C   UNL A   1      38.313  23.116  25.515  1.00  0.00     0.064 A 
BRANCH  15  19
ATOM     19  C   UNL A   1      35.926  20.471  25.148  1.00  0.00     0.065 A 
ATOM     20  C   UNL A   1      33.930  18.642  24.468  1.00  0.00     0.067 A 
ATOM     21  C   UNL A   1      33.593  19.956  24.782  1.00  0.00     0.022 A 
ATOM     22  C   UNL A   1      35.273  18.253  24.434  1.00  0.00     0.022 A 
ATOM     23  C   UNL A   1      34.583  20.861  25.171  1.00  0.00     0.030 A 
ATOM     24  C   UNL A   1      36.276  19.180  24.732  1.00  0.00     0.030 A 
BRANCH  20  25
ATOM     25  S   UNL A   1      32.698  17.407  24.114  1.00  0.00     0.175 S 
ATOM     26  C   UNL A   1      33.413  15.813  24.412  1.00  0.00     0.163 C 
ATOM     27  O   UNL A   1      32.430  17.503  22.692  1.00  0.00    -0.224 OA
ATOM     28  O   UNL A   1      31.643  17.601  25.089  1.00  0.00    -0.224 OA
ENDBRANCH  20  25
ENDBRANCH  15  19
BRANCH  17  29
ATOM     29  C   UNL A   1      40.375  21.844  26.464  1.00  0.00     0.435 C 
ATOM     30  F   UNL A   1      41.212  22.626  25.735  1.00  0.00    -0.164 F 
ATOM     31  F   UNL A   1      40.551  22.180  27.771  1.00  0.00    -0.164 F 
ATOM     32  F   UNL A   1      40.836  20.567  26.338  1.00  0.00    -0.164 F 
ENDBRANCH  17  29
ENDBRANCH   9  14
ENDBRANCH   7   8
ENDBRANCH   4   7
ENDBRANCH   2   3
ENDBRANCH   1   2
BRANCH   1  33
ATOM     33  C   UNL A   1      33.964  29.247  26.541  1.00  0.00     0.023 C 
BRANCH  33  34
ATOM     34  C   UNL A   1      35.195  28.962  27.382  1.00  0.00     0.116 C 
BRANCH  34  35
ATOM     35  N   UNL A   1      35.347  29.902  28.496  1.00  0.00    -0.352 N 
ATOM     36  C   UNL A   1      36.380  29.951  29.420  1.00  0.00     0.251 C 
ATOM     37  H   UNL A   1      34.635  30.574  28.600  1.00  0.00     0.163 HD
ATOM     38  O   UNL A   1      36.244  30.502  30.494  1.00  0.00    -0.269 OA
BRANCH  36  39
ATOM     39  C   UNL A   1      37.652  29.309  29.043  1.00  0.00     0.039 A 
ATOM     40  C   UNL A   1      38.373  29.723  27.921  1.00  0.00     0.014 A 
ATOM     41  C   UNL A   1      38.160  28.357  29.922  1.00  0.00     0.014 A 
ATOM     42  C   UNL A   1      39.670  29.243  27.751  1.00  0.00     0.010 A 
ATOM     43  C   UNL A   1      39.484  28.017  29.841  1.00  0.00     0.010 A 
ATOM     44  C   UNL A   1      40.232  28.417  28.735  1.00  0.00    -0.014 A 
BRANCH  44  45
ATOM     45  C   UNL A   1      41.640  28.040  28.689  1.00  0.00     0.031 A 
ATOM     46  C   UNL A   1      41.945  26.753  28.002  1.00  0.00     0.074 A 
ATOM     47  C   UNL A   1      42.623  28.903  29.021  1.00  0.00     0.049 A 
ATOM     48  N   UNL A   1      42.411  25.674  28.537  1.00  0.00    -0.248 NA
ATOM     49  C   UNL A   1      41.587  26.603  26.584  1.00  0.00     0.031 C 
ATOM     50  C   UNL A   1      42.490  30.316  29.408  1.00  0.00     0.029 A 
ATOM     51  N   UNL A   1      43.969  28.748  28.915  1.00  0.00    -0.354 N 
ATOM     52  C   UNL A   1      42.630  24.787  27.484  1.00  0.00     0.074 A 
ATOM     53  C   UNL A   1      41.926  25.331  26.352  1.00  0.00     0.031 C 
ATOM     54  C   UNL A   1      43.671  30.942  29.225  1.00  0.00     0.029 A 
ATOM     55  C   UNL A   1      44.672  29.948  28.894  1.00  0.00     0.049 A 
ATOM     56  H   UNL A   1      44.406  27.867  28.859  1.00  0.00     0.167 HD
ATOM     57  C   UNL A   1      43.570  23.802  27.567  1.00  0.00     0.034 A 
ATOM     58  C   UNL A   1      45.978  30.115  28.576  1.00  0.00     0.034 A 
ATOM     59  C   UNL A   1      44.062  23.663  28.915  1.00  0.00     0.049 A 
ATOM     60  C   UNL A   1      46.640  28.806  28.768  1.00  0.00     0.074 A 
ATOM     61  C   UNL A   1      43.498  23.390  30.145  1.00  0.00     0.029 A 
ATOM     62  N   UNL A   1      45.299  24.203  29.177  1.00  0.00    -0.354 N 
ATOM     63  N   UNL A   1      46.778  28.239  29.934  1.00  0.00    -0.248 NA
ATOM     64  C   UNL A   1      46.773  27.921  27.622  1.00  0.00     0.031 C 
ATOM     65  C   UNL A   1      44.208  24.221  31.061  1.00  0.00     0.029 A 
ATOM     66  C   UNL A   1      45.204  24.895  30.352  1.00  0.00     0.049 A 
ATOM     67  H   UNL A   1      46.106  24.109  28.620  1.00  0.00     0.167 HD
ATOM     68  C   UNL A   1      46.534  26.894  29.690  1.00  0.00     0.074 A 
ATOM     69  C   UNL A   1      46.673  26.742  28.242  1.00  0.00     0.031 C 
ATOM     70  C   UNL A   1      45.948  26.104  30.637  1.00  0.00     0.034 A 
BRANCH  57  71
ATOM     71  C   UNL A   1      44.334  23.191  26.412  1.00  0.00     0.023 A 
ATOM     72  C   UNL A   1      44.973  24.083  25.518  1.00  0.00     0.012 A 
ATOM     73  C   UNL A   1      44.227  21.845  26.001  1.00  0.00     0.148 A 
ATOM     74  C   UNL A   1      45.422  23.672  24.259  1.00  0.00     0.002 A 
ATOM     75  C   UNL A   1      44.748  21.424  24.782  1.00  0.00     0.091 A 
ATOM     76  F   UNL A   1      43.502  20.982  26.718  1.00  0.00    -0.205 F 
ATOM     77  C   UNL A   1      45.316  22.338  23.892  1.00  0.00     0.022 A 
BRANCH  75  78
ATOM     78  S   UNL A   1      44.687  19.699  24.278  1.00  0.00     0.127 S 
ATOM     79  O   UNL A   1      43.449  19.254  24.909  1.00  0.00    -0.237 OA
ATOM     80  O   UNL A   1      44.634  19.816  22.820  1.00  0.00    -0.237 OA
ATOM     81  O   UNL A   1      45.917  19.104  24.784  1.00  0.00    -0.744 OA
ENDBRANCH  75  78
ENDBRANCH  57  71
BRANCH  58  82
ATOM     82  C   UNL A   1      46.655  31.259  27.926  1.00  0.00     0.023 A 
ATOM     83  C   UNL A   1      46.039  31.897  26.832  1.00  0.00     0.012 A 
ATOM     84  C   UNL A   1      47.750  31.902  28.544  1.00  0.00     0.148 A 
ATOM     85  C   UNL A   1      46.468  33.156  26.397  1.00  0.00     0.002 A 
ATOM     86  C   UNL A   1      48.177  33.152  28.104  1.00  0.00     0.091 A 
ATOM     87  F   UNL A   1      48.310  31.338  29.623  1.00  0.00    -0.205 F 
ATOM     88  C   UNL A   1      47.530  33.788  27.038  1.00  0.00     0.022 A 
BRANCH  86  89
ATOM     89  S   UNL A   1      49.522  34.034  28.910  1.00  0.00     0.127 S 
ATOM     90  O   UNL A   1      50.645  33.113  28.728  1.00  0.00    -0.237 OA
ATOM     91  O   UNL A   1      49.595  35.257  28.116  1.00  0.00    -0.237 OA
ATOM     92  O   UNL A   1      49.108  34.201  30.298  1.00  0.00    -0.744 OA
ENDBRANCH  86  89
ENDBRANCH  58  82
BRANCH  70  93
ATOM     93  C   UNL A   1      45.814  26.646  32.039  1.00  0.00     0.023 A 
ATOM     94  C   UNL A   1      46.891  26.661  32.949  1.00  0.00     0.012 A 
ATOM     95  C   UNL A   1      44.631  27.324  32.380  1.00  0.00     0.148 A 
ATOM     96  C   UNL A   1      46.785  27.315  34.180  1.00  0.00     0.002 A 
ATOM     97  C   UNL A   1      44.546  28.016  33.582  1.00  0.00     0.091 A 
ATOM     98  F   UNL A   1      43.615  27.307  31.504  1.00  0.00    -0.205 F 
ATOM     99  C   UNL A   1      45.615  28.005  34.490  1.00  0.00     0.022 A 
BRANCH  97 100
ATOM    100  S   UNL A   1      43.122  29.033  33.973  1.00  0.00     0.127 S 
ATOM    101  O   UNL A   1      43.501  29.606  35.263  1.00  0.00    -0.237 OA
ATOM    102  O   UNL A   1      43.100  29.987  32.863  1.00  0.00    -0.237 OA
ATOM    103  O   UNL A   1      41.980  28.127  33.997  1.00  0.00    -0.744 OA
ENDBRANCH  97 100
ENDBRANCH  70  93
ENDBRANCH  44  45
ENDBRANCH  36  39
ENDBRANCH  34  35
ENDBRANCH  33  34
ENDBRANCH   1  33
TORSDOF 19
ENDMDL
MODEL 3
REMARK VINA RESULT:     -11.3      2.454      6.849
REMARK SMILES CS(=O)(=O)c1ccc(-n2nc(C(F)(F)F)cc2-c2ccc(CC(=O)NCCCCNC(=O)c3ccc(-c4c5nc(c(-c6cccc(S(=O)(=O)[O-])c6F)c6ccc([nH]6)c(-c6cccc(S(=O)(=O)[O-])c6F)c6nc(c(-c7cccc(S(=O)(=O)[O-])c7F)c7ccc4[nH]7)C=C6)C=C5)cc3)cc2)cc1
REMARK SMILES IDX 27 1 26 2 25 3 23 4 24 5 22 7 21 8 18 9 19 10 97 11 20 12
REMARK SMILES IDX 96 13 17 14 9 15 10 16 11 17 16 18 8 19 5 20 6 21 99 22 7 23
REMARK SMILES IDX 98 24 2 25 1 26 3 27 4 28 12 29 13 30 14 31 15 32 28 33
REMARK SMILES IDX 29 34 30 35 31 36 32 38 33 39 34 40 95 41 35 42 94 43 36 44
REMARK SMILES IDX 37 45 38 46 88 47 39 48 93 49 87 50 89 51 40 52 92 53 86 54
REMARK SMILES IDX 85 55 41 57 73 58 53 59 72 60 54 61 57 62 71 63 90 64 55 65
REMARK SMILES IDX 56 66 70 68 91 69 58 70 42 71 43 72 51 73 44 74 46 75 52 76
REMARK SMILES IDX 45 77 47 78 48 79 49 80 50 81 74 82 75 83 83 84 76 85 78 86
REMARK SMILES IDX 84 87 77 88 79 89 80 90 81 91 82 92 59 93 60 94 68 95 61 96
REMARK SMILES IDX 63 97 69 98 62 99 64 100 65 101 66 102 67 103
REMARK H PARENT 25 6 30 37 89 56 57 67
REMARK Flexibility Score: inf
ROOT
ATOM      1  C   UNL A   1      31.886  29.305  25.641  1.00  0.00     0.023 C 
ENDROOT
BRANCH   1   2
ATOM      2  C   UNL A   1      30.773  28.368  25.159  1.00  0.00     0.116 C 
BRANCH   2   3
ATOM      3  N   UNL A   1      30.665  28.375  23.713  1.00  0.00    -0.356 N 
ATOM      4  C   UNL A   1      30.607  27.320  22.847  1.00  0.00     0.224 C 
ATOM      5  O   UNL A   1      30.726  27.537  21.639  1.00  0.00    -0.275 OA
ATOM      6  H   UNL A   1      30.627  29.267  23.295  1.00  0.00     0.163 HD
BRANCH   4   7
ATOM      7  C   UNL A   1      30.425  25.907  23.377  1.00  0.00     0.135 C 
BRANCH   7   8
ATOM      8  C   UNL A   1      31.709  25.293  23.883  1.00  0.00    -0.039 A 
ATOM      9  C   UNL A   1      34.178  24.349  24.857  1.00  0.00     0.000 A 
ATOM     10  C   UNL A   1      33.985  24.559  23.484  1.00  0.00     0.010 A 
ATOM     11  C   UNL A   1      33.102  24.551  25.729  1.00  0.00     0.010 A 
ATOM     12  C   UNL A   1      32.763  25.028  23.001  1.00  0.00     0.005 A 
ATOM     13  C   UNL A   1      31.876  25.010  25.244  1.00  0.00     0.005 A 
BRANCH   9  14
ATOM     14  C   UNL A   1      35.467  23.879  25.367  1.00  0.00     0.075 A 
ATOM     15  N   UNL A   1      35.790  22.563  25.681  1.00  0.00    -0.233 N 
ATOM     16  N   UNL A   1      36.935  22.482  26.407  1.00  0.00    -0.163 NA
ATOM     17  C   UNL A   1      37.472  23.715  26.340  1.00  0.00     0.167 A 
ATOM     18  C   UNL A   1      36.576  24.620  25.724  1.00  0.00     0.064 A 
BRANCH  15  19
ATOM     19  C   UNL A   1      35.134  21.371  25.280  1.00  0.00     0.065 A 
ATOM     20  C   UNL A   1      33.844  19.015  24.522  1.00  0.00     0.067 A 
ATOM     21  C   UNL A   1      33.110  20.183  24.707  1.00  0.00     0.022 A 
ATOM     22  C   UNL A   1      35.236  19.036  24.655  1.00  0.00     0.022 A 
ATOM     23  C   UNL A   1      33.744  21.352  25.135  1.00  0.00     0.030 A 
ATOM     24  C   UNL A   1      35.888  20.226  24.992  1.00  0.00     0.030 A 
BRANCH  20  25
ATOM     25  S   UNL A   1      33.071  17.462  24.126  1.00  0.00     0.175 S 
ATOM     26  C   UNL A   1      34.194  16.160  24.556  1.00  0.00     0.163 C 
ATOM     27  O   UNL A   1      32.918  17.445  22.684  1.00  0.00    -0.224 OA
ATOM     28  O   UNL A   1      31.920  17.352  25.001  1.00  0.00    -0.224 OA
ENDBRANCH  20  25
ENDBRANCH  15  19
BRANCH  17  29
ATOM     29  C   UNL A   1      38.837  24.045  26.878  1.00  0.00     0.435 C 
ATOM     30  F   UNL A   1      39.496  22.962  27.364  1.00  0.00    -0.164 F 
ATOM     31  F   UNL A   1      39.637  24.608  25.932  1.00  0.00    -0.164 F 
ATOM     32  F   UNL A   1      38.771  24.944  27.900  1.00  0.00    -0.164 F 
ENDBRANCH  17  29
ENDBRANCH   9  14
ENDBRANCH   7   8
ENDBRANCH   4   7
ENDBRANCH   2   3
ENDBRANCH   1   2
BRANCH   1  33
ATOM     33  C   UNL A   1      33.254  28.635  25.818  1.00  0.00     0.023 C 
BRANCH  33  34
ATOM     34  C   UNL A   1      34.097  29.170  26.960  1.00  0.00     0.116 C 
BRANCH  34  35
ATOM     35  N   UNL A   1      34.245  30.627  26.917  1.00  0.00    -0.352 N 
ATOM     36  C   UNL A   1      35.128  31.406  27.651  1.00  0.00     0.251 C 
ATOM     37  H   UNL A   1      33.650  31.108  26.297  1.00  0.00     0.163 HD
ATOM     38  O   UNL A   1      34.935  32.593  27.823  1.00  0.00    -0.269 OA
BRANCH  36  39
ATOM     39  C   UNL A   1      36.313  30.733  28.211  1.00  0.00     0.039 A 
ATOM     40  C   UNL A   1      36.551  29.374  27.994  1.00  0.00     0.014 A 
ATOM     41  C   UNL A   1      37.243  31.538  28.862  1.00  0.00     0.014 A 
ATOM     42  C   UNL A   1      37.795  28.853  28.345  1.00  0.00     0.010 A 
ATOM     43  C   UNL A   1      38.513  31.063  29.056  1.00  0.00     0.010 A 
ATOM     44  C   UNL A   1      38.784  29.712  28.845  1.00  0.00    -0.014 A 
BRANCH  44  45
ATOM     45  C   UNL A   1      40.150  29.248  29.055  1.00  0.00     0.031 A 
ATOM     46  C   UNL A   1      40.561  29.065  30.475  1.00  0.00     0.074 A 
ATOM     47  C   UNL A   1      40.911  28.780  28.042  1.00  0.00     0.049 A 
ATOM     48  N   UNL A   1      41.451  29.739  31.124  1.00  0.00    -0.248 NA
ATOM     49  C   UNL A   1      39.826  28.102  31.309  1.00  0.00     0.031 C 
ATOM     50  C   UNL A   1      40.526  28.596  26.635  1.00  0.00     0.029 A 
ATOM     51  N   UNL A   1      42.141  28.203  28.093  1.00  0.00    -0.354 N 
ATOM     52  C   UNL A   1      41.558  29.132  32.374  1.00  0.00     0.074 A 
ATOM     53  C   UNL A   1      40.409  28.274  32.499  1.00  0.00     0.031 C 
ATOM     54  C   UNL A   1      41.366  27.716  26.054  1.00  0.00     0.029 A 
ATOM     55  C   UNL A   1      42.442  27.426  26.980  1.00  0.00     0.049 A 
ATOM     56  H   UNL A   1      42.761  28.325  28.848  1.00  0.00     0.167 HD
ATOM     57  C   UNL A   1      42.708  29.205  33.104  1.00  0.00     0.034 A 
ATOM     58  C   UNL A   1      43.479  26.565  26.851  1.00  0.00     0.034 A 
ATOM     59  C   UNL A   1      43.622  30.168  32.544  1.00  0.00     0.049 A 
ATOM     60  C   UNL A   1      44.501  26.968  27.842  1.00  0.00     0.074 A 
ATOM     61  C   UNL A   1      43.578  31.518  32.262  1.00  0.00     0.029 A 
ATOM     62  N   UNL A   1      44.680  29.665  31.823  1.00  0.00    -0.354 N 
ATOM     63  N   UNL A   1      45.153  28.095  27.778  1.00  0.00    -0.248 NA
ATOM     64  C   UNL A   1      44.499  26.319  29.143  1.00  0.00     0.031 C 
ATOM     65  C   UNL A   1      44.285  31.656  31.032  1.00  0.00     0.029 A 
ATOM     66  C   UNL A   1      44.777  30.399  30.673  1.00  0.00     0.049 A 
ATOM     67  H   UNL A   1      45.259  28.914  32.085  1.00  0.00     0.167 HD
ATOM     68  C   UNL A   1      45.223  28.523  29.097  1.00  0.00     0.074 A 
ATOM     69  C   UNL A   1      44.930  27.334  29.896  1.00  0.00     0.031 C 
ATOM     70  C   UNL A   1      45.211  29.854  29.404  1.00  0.00     0.034 A 
BRANCH  57  71
ATOM     71  C   UNL A   1      43.200  28.182  34.105  1.00  0.00     0.023 A 
ATOM     72  C   UNL A   1      43.529  28.653  35.399  1.00  0.00     0.012 A 
ATOM     73  C   UNL A   1      43.619  26.874  33.779  1.00  0.00     0.148 A 
ATOM     74  C   UNL A   1      44.288  27.890  36.293  1.00  0.00     0.002 A 
ATOM     75  C   UNL A   1      44.303  26.088  34.701  1.00  0.00     0.091 A 
ATOM     76  F   UNL A   1      43.483  26.421  32.529  1.00  0.00    -0.205 F 
ATOM     77  C   UNL A   1      44.670  26.602  35.946  1.00  0.00     0.022 A 
BRANCH  75  78
ATOM     78  S   UNL A   1      44.777  24.395  34.326  1.00  0.00     0.127 S 
ATOM     79  O   UNL A   1      45.726  24.591  33.235  1.00  0.00    -0.237 OA
ATOM     80  O   UNL A   1      45.367  23.963  35.593  1.00  0.00    -0.237 OA
ATOM     81  O   UNL A   1      43.535  23.713  33.983  1.00  0.00    -0.744 OA
ENDBRANCH  75  78
ENDBRANCH  57  71
BRANCH  58  82
ATOM     82  C   UNL A   1      43.572  25.303  26.084  1.00  0.00     0.023 A 
ATOM     83  C   UNL A   1      44.555  25.170  25.085  1.00  0.00     0.012 A 
ATOM     84  C   UNL A   1      42.898  24.138  26.517  1.00  0.00     0.148 A 
ATOM     85  C   UNL A   1      44.891  23.914  24.567  1.00  0.00     0.002 A 
ATOM     86  C   UNL A   1      43.232  22.892  25.995  1.00  0.00     0.091 A 
ATOM     87  F   UNL A   1      42.002  24.238  27.509  1.00  0.00    -0.205 F 
ATOM     88  C   UNL A   1      44.238  22.774  25.028  1.00  0.00     0.022 A 
BRANCH  86  89
ATOM     89  S   UNL A   1      42.446  21.380  26.570  1.00  0.00     0.127 S 
ATOM     90  O   UNL A   1      43.373  20.353  26.093  1.00  0.00    -0.237 OA
ATOM     91  O   UNL A   1      42.441  21.578  28.017  1.00  0.00    -0.237 OA
ATOM     92  O   UNL A   1      41.138  21.345  25.928  1.00  0.00    -0.744 OA
ENDBRANCH  86  89
ENDBRANCH  58  82
BRANCH  70  93
ATOM     93  C   UNL A   1      45.388  30.849  28.284  1.00  0.00     0.023 A 
ATOM     94  C   UNL A   1      44.298  31.357  27.546  1.00  0.00     0.012 A 
ATOM     95  C   UNL A   1      46.657  31.422  28.097  1.00  0.00     0.148 A 
ATOM     96  C   UNL A   1      44.473  32.394  26.626  1.00  0.00     0.002 A 
ATOM     97  C   UNL A   1      46.818  32.488  27.219  1.00  0.00     0.091 A 
ATOM     98  F   UNL A   1      47.685  30.934  28.808  1.00  0.00    -0.205 F 
ATOM     99  C   UNL A   1      45.732  32.970  26.473  1.00  0.00     0.022 A 
BRANCH  97 100
ATOM    100  S   UNL A   1      48.382  33.356  27.084  1.00  0.00     0.127 S 
ATOM    101  O   UNL A   1      49.187  32.415  26.306  1.00  0.00    -0.237 OA
ATOM    102  O   UNL A   1      48.006  34.576  26.368  1.00  0.00    -0.237 OA
ATOM    103  O   UNL A   1      48.829  33.586  28.452  1.00  0.00    -0.744 OA
ENDBRANCH  97 100
ENDBRANCH  70  93
ENDBRANCH  44  45
ENDBRANCH  36  39
ENDBRANCH  34  35
ENDBRANCH  33  34
ENDBRANCH   1  33
TORSDOF 19
ENDMDL
