MODEL 1
REMARK VINA RESULT:     -12.0      0.000      0.000
REMARK SMILES C[C@@H]1CCC[C@@H](N(C)C(=O)N2CCC(CC(=O)NCCCCNC(=O)c3ccc(-c4c5nc(c(-c6cccc(S(=O)(=O)[O-])c6F)c6ccc([nH]6)c(-c6cccc(S(=O)(=O)[O-])c6F)c6nc(c(-c7cccc(S(=O)(=O)[O-])c7F)c7ccc4[nH]7)C=C6)C=C5)cc3)CC2)C1
REMARK SMILES IDX 20 1 19 2 18 3 16 4 17 5 15 7 14 8 9 9 10 10 11 11 12 12
REMARK SMILES IDX 90 13 13 14 89 15 7 16 8 17 6 18 1 19 2 20 3 21 91 22 4 23
REMARK SMILES IDX 5 24 21 25 22 26 23 27 24 28 25 30 26 31 27 32 88 33 28 34
REMARK SMILES IDX 87 35 29 36 30 37 31 38 81 39 32 40 86 41 80 42 82 43 33 44
REMARK SMILES IDX 85 45 79 46 78 47 34 49 66 50 46 51 65 52 47 53 50 54 64 55
REMARK SMILES IDX 83 56 48 57 49 58 63 60 84 61 51 62 35 63 36 64 44 65 37 66
REMARK SMILES IDX 39 67 45 68 38 69 40 70 41 71 42 72 43 73 67 74 68 75 76 76
REMARK SMILES IDX 69 77 71 78 77 79 70 80 72 81 73 82 74 83 75 84 52 85 53 86
REMARK SMILES IDX 61 87 54 88 56 89 62 90 55 91 57 92 58 93 59 94 60 95
REMARK H PARENT 18 6 23 29 82 48 50 59
REMARK Flexibility Score: inf
ROOT
ATOM      1  C   UNL A   1      31.458  28.989  25.680  1.00  0.00     0.023 C 
ENDROOT
BRANCH   1   2
ATOM      2  C   UNL A   1      30.862  27.915  24.763  1.00  0.00     0.116 C 
BRANCH   2   3
ATOM      3  N   UNL A   1      30.676  26.656  25.467  1.00  0.00    -0.356 N 
ATOM      4  C   UNL A   1      30.494  25.389  24.995  1.00  0.00     0.220 C 
ATOM      5  O   UNL A   1      30.278  24.487  25.806  1.00  0.00    -0.275 OA
ATOM      6  H   UNL A   1      30.683  26.730  26.450  1.00  0.00     0.163 HD
BRANCH   4   7
ATOM      7  C   UNL A   1      30.549  25.084  23.503  1.00  0.00     0.103 C 
BRANCH   7   8
ATOM      8  C   UNL A   1      31.834  24.349  23.064  1.00  0.00     0.002 C 
ATOM      9  C   UNL A   1      34.345  21.968  25.032  1.00  0.00     0.319 C 
ATOM     10  O   UNL A   1      34.054  22.451  26.123  1.00  0.00    -0.248 OA
ATOM     11  N   UNL A   1      34.043  22.618  23.848  1.00  0.00    -0.325 N 
ATOM     12  C   UNL A   1      34.302  24.029  23.729  1.00  0.00     0.121 C 
ATOM     13  C   UNL A   1      33.009  22.092  22.971  1.00  0.00     0.121 C 
ATOM     14  C   UNL A   1      33.032  24.838  23.876  1.00  0.00     0.026 C 
ATOM     15  C   UNL A   1      31.681  22.825  23.202  1.00  0.00     0.026 C 
BRANCH   9  16
ATOM     16  N   UNL A   1      35.009  20.759  24.865  1.00  0.00    -0.325 N 
ATOM     17  C   UNL A   1      36.457  20.661  24.989  1.00  0.00     0.149 C 
BRANCH  16  18
ATOM     18  C   UNL A   1      34.284  19.505  24.633  1.00  0.00     0.086 C 
ATOM     19  C   UNL A   1      34.059  16.956  22.756  1.00  0.00     0.008 C 
ATOM     20  C   UNL A   1      34.372  16.985  24.256  1.00  0.00    -0.012 C 
ATOM     21  C   UNL A   1      33.098  16.846  25.107  1.00  0.00     0.003 C 
ATOM     22  C   UNL A   1      35.166  18.245  24.646  1.00  0.00     0.028 C 
ATOM     23  C   UNL A   1      32.257  18.121  25.174  1.00  0.00     0.002 C 
ATOM     24  C   UNL A   1      33.090  19.337  25.579  1.00  0.00     0.025 C 
ENDBRANCH  16  18
ENDBRANCH   9  16
ENDBRANCH   7   8
ENDBRANCH   4   7
ENDBRANCH   2   3
ENDBRANCH   1   2
BRANCH   1  25
ATOM     25  C   UNL A   1      32.473  28.508  26.700  1.00  0.00     0.023 C 
BRANCH  25  26
ATOM     26  C   UNL A   1      33.860  29.085  26.525  1.00  0.00     0.116 C 
BRANCH  26  27
ATOM     27  N   UNL A   1      33.964  30.495  26.877  1.00  0.00    -0.352 N 
ATOM     28  C   UNL A   1      34.958  31.122  27.595  1.00  0.00     0.251 C 
ATOM     29  H   UNL A   1      33.230  31.073  26.562  1.00  0.00     0.163 HD
ATOM     30  O   UNL A   1      34.870  32.307  27.886  1.00  0.00    -0.269 OA
BRANCH  28  31
ATOM     31  C   UNL A   1      36.115  30.319  28.046  1.00  0.00     0.039 A 
ATOM     32  C   UNL A   1      37.285  30.325  27.287  1.00  0.00     0.014 A 
ATOM     33  C   UNL A   1      36.065  29.643  29.267  1.00  0.00     0.014 A 
ATOM     34  C   UNL A   1      38.431  29.707  27.791  1.00  0.00     0.010 A 
ATOM     35  C   UNL A   1      37.234  29.143  29.820  1.00  0.00     0.010 A 
ATOM     36  C   UNL A   1      38.423  29.145  29.079  1.00  0.00    -0.014 A 
BRANCH  36  37
ATOM     37  C   UNL A   1      39.634  28.518  29.661  1.00  0.00     0.031 A 
ATOM     38  C   UNL A   1      40.242  29.095  30.914  1.00  0.00     0.074 A 
ATOM     39  C   UNL A   1      40.235  27.494  29.022  1.00  0.00     0.049 A 
ATOM     40  N   UNL A   1      41.317  28.721  31.555  1.00  0.00    -0.248 NA
ATOM     41  C   UNL A   1      39.581  30.275  31.499  1.00  0.00     0.031 C 
ATOM     42  C   UNL A   1      39.806  26.922  27.743  1.00  0.00     0.029 A 
ATOM     43  N   UNL A   1      41.347  26.764  29.353  1.00  0.00    -0.354 N 
ATOM     44  C   UNL A   1      41.483  29.641  32.583  1.00  0.00     0.074 A 
ATOM     45  C   UNL A   1      40.433  30.624  32.448  1.00  0.00     0.031 C 
ATOM     46  C   UNL A   1      40.633  25.917  27.410  1.00  0.00     0.029 A 
ATOM     47  C   UNL A   1      41.660  25.785  28.438  1.00  0.00     0.049 A 
ATOM     48  H   UNL A   1      41.875  26.925  30.169  1.00  0.00     0.167 HD
ATOM     49  C   UNL A   1      42.397  29.645  33.581  1.00  0.00     0.034 A 
ATOM     50  C   UNL A   1      42.653  24.875  28.439  1.00  0.00     0.034 A 
ATOM     51  C   UNL A   1      43.389  28.621  33.753  1.00  0.00     0.049 A 
ATOM     52  C   UNL A   1      43.593  24.835  29.615  1.00  0.00     0.074 A 
ATOM     53  C   UNL A   1      44.298  28.466  34.782  1.00  0.00     0.029 A 
ATOM     54  N   UNL A   1      43.592  27.568  32.874  1.00  0.00    -0.354 N 
ATOM     55  N   UNL A   1      43.629  25.613  30.671  1.00  0.00    -0.248 NA
ATOM     56  C   UNL A   1      44.598  23.763  29.625  1.00  0.00     0.031 C 
ATOM     57  C   UNL A   1      45.060  27.322  34.521  1.00  0.00     0.029 A 
ATOM     58  C   UNL A   1      44.610  26.755  33.339  1.00  0.00     0.049 A 
ATOM     59  H   UNL A   1      43.087  27.422  32.042  1.00  0.00     0.167 HD
ATOM     60  C   UNL A   1      44.628  25.101  31.489  1.00  0.00     0.074 A 
ATOM     61  C   UNL A   1      45.161  23.934  30.816  1.00  0.00     0.031 C 
ATOM     62  C   UNL A   1      45.078  25.562  32.682  1.00  0.00     0.034 A 
BRANCH  49  63
ATOM     63  C   UNL A   1      42.313  30.750  34.602  1.00  0.00     0.023 A 
ATOM     64  C   UNL A   1      41.550  30.556  35.773  1.00  0.00     0.012 A 
ATOM     65  C   UNL A   1      43.012  31.958  34.426  1.00  0.00     0.148 A 
ATOM     66  C   UNL A   1      41.452  31.561  36.733  1.00  0.00     0.002 A 
ATOM     67  C   UNL A   1      42.950  32.938  35.411  1.00  0.00     0.091 A 
ATOM     68  F   UNL A   1      43.711  32.136  33.296  1.00  0.00    -0.205 F 
ATOM     69  C   UNL A   1      42.160  32.747  36.557  1.00  0.00     0.022 A 
BRANCH  67  70
ATOM     70  S   UNL A   1      43.888  34.467  35.318  1.00  0.00     0.127 S 
ATOM     71  O   UNL A   1      43.288  35.111  34.150  1.00  0.00    -0.237 OA
ATOM     72  O   UNL A   1      43.568  35.101  36.597  1.00  0.00    -0.237 OA
ATOM     73  O   UNL A   1      45.282  34.072  35.169  1.00  0.00    -0.744 OA
ENDBRANCH  67  70
ENDBRANCH  49  63
BRANCH  50  74
ATOM     74  C   UNL A   1      42.742  23.864  27.348  1.00  0.00     0.023 A 
ATOM     75  C   UNL A   1      43.571  24.119  26.238  1.00  0.00     0.012 A 
ATOM     76  C   UNL A   1      42.045  22.643  27.417  1.00  0.00     0.148 A 
ATOM     77  C   UNL A   1      43.675  23.194  25.199  1.00  0.00     0.002 A 
ATOM     78  C   UNL A   1      42.196  21.702  26.403  1.00  0.00     0.091 A 
ATOM     79  F   UNL A   1      41.254  22.421  28.476  1.00  0.00    -0.205 F 
ATOM     80  C   UNL A   1      42.997  21.982  25.286  1.00  0.00     0.022 A 
BRANCH  78  81
ATOM     81  S   UNL A   1      41.464  20.063  26.497  1.00  0.00     0.127 S 
ATOM     82  O   UNL A   1      41.861  19.635  27.836  1.00  0.00    -0.237 OA
ATOM     83  O   UNL A   1      40.039  20.357  26.341  1.00  0.00    -0.237 OA
ATOM     84  O   UNL A   1      42.044  19.315  25.390  1.00  0.00    -0.744 OA
ENDBRANCH  78  81
ENDBRANCH  50  74
BRANCH  62  85
ATOM     85  C   UNL A   1      46.170  24.783  33.364  1.00  0.00     0.023 A 
ATOM     86  C   UNL A   1      47.507  25.214  33.260  1.00  0.00     0.012 A 
ATOM     87  C   UNL A   1      45.861  23.669  34.167  1.00  0.00     0.148 A 
ATOM     88  C   UNL A   1      48.524  24.526  33.919  1.00  0.00     0.002 A 
ATOM     89  C   UNL A   1      46.873  23.017  34.860  1.00  0.00     0.091 A 
ATOM     90  F   UNL A   1      44.584  23.262  34.236  1.00  0.00    -0.205 F 
ATOM     91  C   UNL A   1      48.207  23.437  34.728  1.00  0.00     0.022 A 
BRANCH  89  92
ATOM     92  S   UNL A   1      46.535  21.672  36.000  1.00  0.00     0.127 S 
ATOM     93  O   UNL A   1      47.878  21.337  36.472  1.00  0.00    -0.237 OA
ATOM     94  O   UNL A   1      45.681  22.313  37.000  1.00  0.00    -0.237 OA
ATOM     95  O   UNL A   1      45.869  20.642  35.213  1.00  0.00    -0.744 OA
ENDBRANCH  89  92
ENDBRANCH  62  85
ENDBRANCH  36  37
ENDBRANCH  28  31
ENDBRANCH  26  27
ENDBRANCH  25  26
ENDBRANCH   1  25
TORSDOF 17
ENDMDL
MODEL 2
REMARK VINA RESULT:     -11.8      2.209      2.970
REMARK SMILES C[C@@H]1CCC[C@@H](N(C)C(=O)N2CCC(CC(=O)NCCCCNC(=O)c3ccc(-c4c5nc(c(-c6cccc(S(=O)(=O)[O-])c6F)c6ccc([nH]6)c(-c6cccc(S(=O)(=O)[O-])c6F)c6nc(c(-c7cccc(S(=O)(=O)[O-])c7F)c7ccc4[nH]7)C=C6)C=C5)cc3)CC2)C1
REMARK SMILES IDX 20 1 19 2 18 3 16 4 17 5 15 7 14 8 9 9 10 10 11 11 12 12
REMARK SMILES IDX 90 13 13 14 89 15 7 16 8 17 6 18 1 19 2 20 3 21 91 22 4 23
REMARK SMILES IDX 5 24 21 25 22 26 23 27 24 28 25 30 26 31 27 32 88 33 28 34
REMARK SMILES IDX 87 35 29 36 30 37 31 38 81 39 32 40 86 41 80 42 82 43 33 44
REMARK SMILES IDX 85 45 79 46 78 47 34 49 66 50 46 51 65 52 47 53 50 54 64 55
REMARK SMILES IDX 83 56 48 57 49 58 63 60 84 61 51 62 35 63 36 64 44 65 37 66
REMARK SMILES IDX 39 67 45 68 38 69 40 70 41 71 42 72 43 73 67 74 68 75 76 76
REMARK SMILES IDX 69 77 71 78 77 79 70 80 72 81 73 82 74 83 75 84 52 85 53 86
REMARK SMILES IDX 61 87 54 88 56 89 62 90 55 91 57 92 58 93 59 94 60 95
REMARK H PARENT 18 6 23 29 82 48 50 59
REMARK Flexibility Score: inf
ROOT
ATOM      1  C   UNL A   1      32.288  28.880  23.620  1.00  0.00     0.023 C 
ENDROOT
BRANCH   1   2
ATOM      2  C   UNL A   1      31.310  28.137  22.703  1.00  0.00     0.116 C 
BRANCH   2   3
ATOM      3  N   UNL A   1      29.928  28.462  23.023  1.00  0.00    -0.356 N 
ATOM      4  C   UNL A   1      28.882  27.658  23.368  1.00  0.00     0.220 C 
ATOM      5  O   UNL A   1      27.772  28.173  23.518  1.00  0.00    -0.275 OA
ATOM      6  H   UNL A   1      29.713  29.423  22.986  1.00  0.00     0.163 HD
BRANCH   4   7
ATOM      7  C   UNL A   1      29.065  26.158  23.562  1.00  0.00     0.103 C 
BRANCH   7   8
ATOM      8  C   UNL A   1      30.400  25.774  24.236  1.00  0.00     0.002 C 
ATOM      9  C   UNL A   1      31.703  22.355  25.805  1.00  0.00     0.319 C 
ATOM     10  O   UNL A   1      30.567  21.948  26.031  1.00  0.00    -0.248 OA
ATOM     11  N   UNL A   1      31.957  23.692  25.553  1.00  0.00    -0.325 N 
ATOM     12  C   UNL A   1      31.340  24.698  26.379  1.00  0.00     0.121 C 
ATOM     13  C   UNL A   1      32.338  24.123  24.217  1.00  0.00     0.121 C 
ATOM     14  C   UNL A   1      30.162  25.339  25.681  1.00  0.00     0.026 C 
ATOM     15  C   UNL A   1      31.121  24.661  23.455  1.00  0.00     0.026 C 
BRANCH   9  16
ATOM     16  N   UNL A   1      32.836  21.549  25.798  1.00  0.00    -0.325 N 
ATOM     17  C   UNL A   1      33.896  21.713  26.784  1.00  0.00     0.149 C 
BRANCH  16  18
ATOM     18  C   UNL A   1      32.989  20.442  24.848  1.00  0.00     0.086 C 
ATOM     19  C   UNL A   1      34.549  17.744  24.250  1.00  0.00     0.008 C 
ATOM     20  C   UNL A   1      33.039  17.927  24.437  1.00  0.00    -0.012 C 
ATOM     21  C   UNL A   1      32.324  18.165  23.095  1.00  0.00     0.003 C 
ATOM     22  C   UNL A   1      32.722  19.049  25.441  1.00  0.00     0.028 C 
ATOM     23  C   UNL A   1      32.510  19.577  22.537  1.00  0.00     0.002 C 
ATOM     24  C   UNL A   1      32.169  20.651  23.570  1.00  0.00     0.025 C 
ENDBRANCH  16  18
ENDBRANCH   9  16
ENDBRANCH   7   8
ENDBRANCH   4   7
ENDBRANCH   2   3
ENDBRANCH   1   2
BRANCH   1  25
ATOM     25  C   UNL A   1      31.890  28.981  25.081  1.00  0.00     0.023 C 
BRANCH  25  26
ATOM     26  C   UNL A   1      32.934  29.611  25.974  1.00  0.00     0.116 C 
BRANCH  26  27
ATOM     27  N   UNL A   1      32.607  30.965  26.404  1.00  0.00    -0.352 N 
ATOM     28  C   UNL A   1      33.337  31.797  27.224  1.00  0.00     0.251 C 
ATOM     29  H   UNL A   1      31.757  31.330  26.066  1.00  0.00     0.163 HD
ATOM     30  O   UNL A   1      32.895  32.883  27.568  1.00  0.00    -0.269 OA
BRANCH  28  31
ATOM     31  C   UNL A   1      34.649  31.327  27.717  1.00  0.00     0.039 A 
ATOM     32  C   UNL A   1      35.687  32.246  27.873  1.00  0.00     0.014 A 
ATOM     33  C   UNL A   1      34.815  29.997  28.111  1.00  0.00     0.014 A 
ATOM     34  C   UNL A   1      36.871  31.842  28.493  1.00  0.00     0.010 A 
ATOM     35  C   UNL A   1      35.937  29.634  28.839  1.00  0.00     0.010 A 
ATOM     36  C   UNL A   1      36.989  30.543  29.014  1.00  0.00    -0.014 A 
BRANCH  36  37
ATOM     37  C   UNL A   1      38.217  30.096  29.716  1.00  0.00     0.031 A 
ATOM     38  C   UNL A   1      38.476  30.555  31.128  1.00  0.00     0.074 A 
ATOM     39  C   UNL A   1      39.134  29.356  29.062  1.00  0.00     0.049 A 
ATOM     40  N   UNL A   1      39.503  30.310  31.898  1.00  0.00    -0.248 NA
ATOM     41  C   UNL A   1      37.471  31.441  31.742  1.00  0.00     0.031 C 
ATOM     42  C   UNL A   1      39.049  28.945  27.657  1.00  0.00     0.029 A 
ATOM     43  N   UNL A   1      40.328  28.833  29.486  1.00  0.00    -0.354 N 
ATOM     44  C   UNL A   1      39.289  31.045  33.058  1.00  0.00     0.074 A 
ATOM     45  C   UNL A   1      38.064  31.788  32.871  1.00  0.00     0.031 C 
ATOM     46  C   UNL A   1      40.133  28.217  27.345  1.00  0.00     0.029 A 
ATOM     47  C   UNL A   1      40.999  28.125  28.516  1.00  0.00     0.049 A 
ATOM     48  H   UNL A   1      40.675  28.955  30.400  1.00  0.00     0.167 HD
ATOM     49  C   UNL A   1      40.018  31.064  34.198  1.00  0.00     0.034 A 
ATOM     50  C   UNL A   1      42.171  27.463  28.573  1.00  0.00     0.034 A 
ATOM     51  C   UNL A   1      41.191  30.262  34.404  1.00  0.00     0.049 A 
ATOM     52  C   UNL A   1      42.909  27.415  29.884  1.00  0.00     0.074 A 
ATOM     53  C   UNL A   1      41.949  30.123  35.552  1.00  0.00     0.029 A 
ATOM     54  N   UNL A   1      41.769  29.453  33.439  1.00  0.00    -0.354 N 
ATOM     55  N   UNL A   1      42.600  27.979  31.027  1.00  0.00    -0.248 NA
ATOM     56  C   UNL A   1      44.130  26.598  29.929  1.00  0.00     0.031 C 
ATOM     57  C   UNL A   1      42.994  29.234  35.277  1.00  0.00     0.029 A 
ATOM     58  C   UNL A   1      42.873  28.806  33.964  1.00  0.00     0.049 A 
ATOM     59  H   UNL A   1      41.442  29.354  32.515  1.00  0.00     0.167 HD
ATOM     60  C   UNL A   1      43.562  27.554  31.935  1.00  0.00     0.074 A 
ATOM     61  C   UNL A   1      44.453  26.668  31.214  1.00  0.00     0.031 C 
ATOM     62  C   UNL A   1      43.706  27.879  33.244  1.00  0.00     0.034 A 
BRANCH  49  63
ATOM     63  C   UNL A   1      39.520  31.923  35.331  1.00  0.00     0.023 A 
ATOM     64  C   UNL A   1      38.651  31.368  36.294  1.00  0.00     0.012 A 
ATOM     65  C   UNL A   1      39.937  33.261  35.468  1.00  0.00     0.148 A 
ATOM     66  C   UNL A   1      38.173  32.140  37.351  1.00  0.00     0.002 A 
ATOM     67  C   UNL A   1      39.495  34.011  36.552  1.00  0.00     0.091 A 
ATOM     68  F   UNL A   1      40.742  33.781  34.530  1.00  0.00    -0.205 F 
ATOM     69  C   UNL A   1      38.603  33.457  37.486  1.00  0.00     0.022 A 
BRANCH  67  70
ATOM     70  S   UNL A   1      40.054  35.690  36.861  1.00  0.00     0.127 S 
ATOM     71  O   UNL A   1      39.352  36.010  38.104  1.00  0.00    -0.237 OA
ATOM     72  O   UNL A   1      41.499  35.511  37.006  1.00  0.00    -0.237 OA
ATOM     73  O   UNL A   1      39.652  36.466  35.696  1.00  0.00    -0.744 OA
ENDBRANCH  67  70
ENDBRANCH  49  63
BRANCH  50  74
ATOM     74  C   UNL A   1      42.661  26.707  27.385  1.00  0.00     0.023 A 
ATOM     75  C   UNL A   1      43.437  27.374  26.416  1.00  0.00     0.012 A 
ATOM     76  C   UNL A   1      42.397  25.334  27.226  1.00  0.00     0.148 A 
ATOM     77  C   UNL A   1      43.910  26.695  25.292  1.00  0.00     0.002 A 
ATOM     78  C   UNL A   1      42.916  24.652  26.131  1.00  0.00     0.091 A 
ATOM     79  F   UNL A   1      41.649  24.718  28.153  1.00  0.00    -0.205 F 
ATOM     80  C   UNL A   1      43.658  25.333  25.155  1.00  0.00     0.022 A 
BRANCH  78  81
ATOM     81  S   UNL A   1      42.754  22.872  25.942  1.00  0.00     0.127 S 
ATOM     82  O   UNL A   1      43.033  22.695  24.519  1.00  0.00    -0.237 OA
ATOM     83  O   UNL A   1      43.796  22.375  26.841  1.00  0.00    -0.237 OA
ATOM     84  O   UNL A   1      41.397  22.558  26.369  1.00  0.00    -0.744 OA
ENDBRANCH  78  81
ENDBRANCH  50  74
BRANCH  62  85
ATOM     85  C   UNL A   1      44.842  27.241  33.999  1.00  0.00     0.023 A 
ATOM     86  C   UNL A   1      46.111  27.852  34.002  1.00  0.00     0.012 A 
ATOM     87  C   UNL A   1      44.629  26.080  34.766  1.00  0.00     0.148 A 
ATOM     88  C   UNL A   1      47.161  27.296  34.729  1.00  0.00     0.002 A 
ATOM     89  C   UNL A   1      45.667  25.558  35.527  1.00  0.00     0.091 A 
ATOM     90  F   UNL A   1      43.419  25.502  34.733  1.00  0.00    -0.205 F 
ATOM     91  C   UNL A   1      46.937  26.158  35.501  1.00  0.00     0.022 A 
BRANCH  89  92
ATOM     92  S   UNL A   1      45.433  24.156  36.625  1.00  0.00     0.127 S 
ATOM     93  O   UNL A   1      44.437  24.674  37.561  1.00  0.00    -0.237 OA
ATOM     94  O   UNL A   1      44.937  23.123  35.716  1.00  0.00    -0.237 OA
ATOM     95  O   UNL A   1      46.745  23.874  37.193  1.00  0.00    -0.744 OA
ENDBRANCH  89  92
ENDBRANCH  62  85
ENDBRANCH  36  37
ENDBRANCH  28  31
ENDBRANCH  26  27
ENDBRANCH  25  26
ENDBRANCH   1  25
TORSDOF 17
ENDMDL
MODEL 3
REMARK VINA RESULT:     -11.8      9.821     14.966
REMARK SMILES C[C@@H]1CCC[C@@H](N(C)C(=O)N2CCC(CC(=O)NCCCCNC(=O)c3ccc(-c4c5nc(c(-c6cccc(S(=O)(=O)[O-])c6F)c6ccc([nH]6)c(-c6cccc(S(=O)(=O)[O-])c6F)c6nc(c(-c7cccc(S(=O)(=O)[O-])c7F)c7ccc4[nH]7)C=C6)C=C5)cc3)CC2)C1
REMARK SMILES IDX 20 1 19 2 18 3 16 4 17 5 15 7 14 8 9 9 10 10 11 11 12 12
REMARK SMILES IDX 90 13 13 14 89 15 7 16 8 17 6 18 1 19 2 20 3 21 91 22 4 23
REMARK SMILES IDX 5 24 21 25 22 26 23 27 24 28 25 30 26 31 27 32 88 33 28 34
REMARK SMILES IDX 87 35 29 36 30 37 31 38 81 39 32 40 86 41 80 42 82 43 33 44
REMARK SMILES IDX 85 45 79 46 78 47 34 49 66 50 46 51 65 52 47 53 50 54 64 55
REMARK SMILES IDX 83 56 48 57 49 58 63 60 84 61 51 62 35 63 36 64 44 65 37 66
REMARK SMILES IDX 39 67 45 68 38 69 40 70 41 71 42 72 43 73 67 74 68 75 76 76
REMARK SMILES IDX 69 77 71 78 77 79 70 80 72 81 73 82 74 83 75 84 52 85 53 86
REMARK SMILES IDX 61 87 54 88 56 89 62 90 55 91 57 92 58 93 59 94 60 95
REMARK H PARENT 18 6 23 29 82 48 50 59
REMARK Flexibility Score: inf
ROOT
ATOM      1  C   UNL A   1      43.022  39.403  26.650  1.00  0.00     0.023 C 
ENDROOT
BRANCH   1   2
ATOM      2  C   UNL A   1      42.672  40.822  26.184  1.00  0.00     0.116 C 
BRANCH   2   3
ATOM      3  N   UNL A   1      43.850  41.675  26.145  1.00  0.00    -0.356 N 
ATOM      4  C   UNL A   1      44.173  42.709  25.317  1.00  0.00     0.220 C 
ATOM      5  O   UNL A   1      45.283  43.232  25.439  1.00  0.00    -0.275 OA
ATOM      6  H   UNL A   1      44.527  41.472  26.832  1.00  0.00     0.163 HD
BRANCH   4   7
ATOM      7  C   UNL A   1      43.198  43.212  24.260  1.00  0.00     0.103 C 
BRANCH   7   8
ATOM      8  C   UNL A   1      43.655  42.942  22.810  1.00  0.00     0.002 C 
ATOM      9  C   UNL A   1      42.292  44.245  19.303  1.00  0.00     0.319 C 
ATOM     10  O   UNL A   1      41.164  44.453  19.743  1.00  0.00    -0.248 OA
ATOM     11  N   UNL A   1      43.194  43.439  19.975  1.00  0.00    -0.325 N 
ATOM     12  C   UNL A   1      42.752  42.181  20.520  1.00  0.00     0.121 C 
ATOM     13  C   UNL A   1      44.360  44.026  20.617  1.00  0.00     0.121 C 
ATOM     14  C   UNL A   1      42.535  42.273  22.014  1.00  0.00     0.026 C 
ATOM     15  C   UNL A   1      44.103  44.239  22.114  1.00  0.00     0.026 C 
BRANCH   9  16
ATOM     16  N   UNL A   1      42.772  44.762  18.106  1.00  0.00    -0.325 N 
ATOM     17  C   UNL A   1      43.206  43.893  17.019  1.00  0.00     0.149 C 
BRANCH  16  18
ATOM     18  C   UNL A   1      42.793  46.204  17.841  1.00  0.00     0.086 C 
ATOM     19  C   UNL A   1      43.840  49.011  18.887  1.00  0.00     0.008 C 
ATOM     20  C   UNL A   1      44.160  48.336  17.549  1.00  0.00    -0.012 C 
ATOM     21  C   UNL A   1      43.183  48.773  16.443  1.00  0.00     0.003 C 
ATOM     22  C   UNL A   1      44.200  46.803  17.681  1.00  0.00     0.028 C 
ATOM     23  C   UNL A   1      41.805  48.115  16.541  1.00  0.00     0.002 C 
ATOM     24  C   UNL A   1      41.903  46.594  16.655  1.00  0.00     0.025 C 
ENDBRANCH  16  18
ENDBRANCH   9  16
ENDBRANCH   7   8
ENDBRANCH   4   7
ENDBRANCH   2   3
ENDBRANCH   1   2
BRANCH   1  25
ATOM     25  C   UNL A   1      42.233  38.875  27.834  1.00  0.00     0.023 C 
BRANCH  25  26
ATOM     26  C   UNL A   1      43.048  38.068  28.819  1.00  0.00     0.116 C 
BRANCH  26  27
ATOM     27  N   UNL A   1      44.466  38.403  28.829  1.00  0.00    -0.352 N 
ATOM     28  C   UNL A   1      45.543  37.545  28.775  1.00  0.00     0.251 C 
ATOM     29  H   UNL A   1      44.682  39.362  28.882  1.00  0.00     0.163 HD
ATOM     30  O   UNL A   1      46.687  37.967  28.877  1.00  0.00    -0.269 OA
BRANCH  28  31
ATOM     31  C   UNL A   1      45.284  36.096  28.638  1.00  0.00     0.039 A 
ATOM     32  C   UNL A   1      45.421  35.272  29.756  1.00  0.00     0.014 A 
ATOM     33  C   UNL A   1      44.815  35.579  27.429  1.00  0.00     0.014 A 
ATOM     34  C   UNL A   1      45.018  33.938  29.675  1.00  0.00     0.010 A 
ATOM     35  C   UNL A   1      44.298  34.293  27.390  1.00  0.00     0.010 A 
ATOM     36  C   UNL A   1      44.419  33.449  28.502  1.00  0.00    -0.014 A 
BRANCH  36  37
ATOM     37  C   UNL A   1      43.941  32.049  28.398  1.00  0.00     0.031 A 
ATOM     38  C   UNL A   1      42.630  31.661  29.033  1.00  0.00     0.074 A 
ATOM     39  C   UNL A   1      44.717  31.115  27.814  1.00  0.00     0.049 A 
ATOM     40  N   UNL A   1      42.058  30.488  29.089  1.00  0.00    -0.248 NA
ATOM     41  C   UNL A   1      41.885  32.720  29.737  1.00  0.00     0.031 C 
ATOM     42  C   UNL A   1      46.056  31.346  27.263  1.00  0.00     0.029 A 
ATOM     43  N   UNL A   1      44.501  29.778  27.603  1.00  0.00    -0.354 N 
ATOM     44  C   UNL A   1      40.919  30.659  29.868  1.00  0.00     0.074 A 
ATOM     45  C   UNL A   1      40.909  32.035  30.309  1.00  0.00     0.031 C 
ATOM     46  C   UNL A   1      46.529  30.195  26.759  1.00  0.00     0.029 A 
ATOM     47  C   UNL A   1      45.542  29.142  26.967  1.00  0.00     0.049 A 
ATOM     48  H   UNL A   1      43.678  29.315  27.882  1.00  0.00     0.167 HD
ATOM     49  C   UNL A   1      39.942  29.767  30.151  1.00  0.00     0.034 A 
ATOM     50  C   UNL A   1      45.674  27.858  26.582  1.00  0.00     0.034 A 
ATOM     51  C   UNL A   1      39.921  28.424  29.644  1.00  0.00     0.049 A 
ATOM     52  C   UNL A   1      44.527  26.912  26.817  1.00  0.00     0.074 A 
ATOM     53  C   UNL A   1      38.933  27.468  29.780  1.00  0.00     0.029 A 
ATOM     54  N   UNL A   1      40.934  27.853  28.890  1.00  0.00    -0.354 N 
ATOM     55  N   UNL A   1      43.378  27.138  27.408  1.00  0.00    -0.248 NA
ATOM     56  C   UNL A   1      44.672  25.547  26.291  1.00  0.00     0.031 C 
ATOM     57  C   UNL A   1      39.353  26.311  29.115  1.00  0.00     0.029 A 
ATOM     58  C   UNL A   1      40.595  26.557  28.548  1.00  0.00     0.049 A 
ATOM     59  H   UNL A   1      41.772  28.304  28.636  1.00  0.00     0.167 HD
ATOM     60  C   UNL A   1      42.648  25.962  27.288  1.00  0.00     0.074 A 
ATOM     61  C   UNL A   1      43.477  25.031  26.550  1.00  0.00     0.031 C 
ATOM     62  C   UNL A   1      41.410  25.671  27.758  1.00  0.00     0.034 A 
BRANCH  49  63
ATOM     63  C   UNL A   1      38.782  30.244  30.987  1.00  0.00     0.023 A 
ATOM     64  C   UNL A   1      38.772  29.983  32.373  1.00  0.00     0.012 A 
ATOM     65  C   UNL A   1      37.727  30.979  30.415  1.00  0.00     0.148 A 
ATOM     66  C   UNL A   1      37.711  30.410  33.170  1.00  0.00     0.002 A 
ATOM     67  C   UNL A   1      36.696  31.444  31.223  1.00  0.00     0.091 A 
ATOM     68  F   UNL A   1      37.740  31.196  29.092  1.00  0.00    -0.205 F 
ATOM     69  C   UNL A   1      36.680  31.149  32.597  1.00  0.00     0.022 A 
BRANCH  67  70
ATOM     70  S   UNL A   1      35.363  32.473  30.599  1.00  0.00     0.127 S 
ATOM     71  O   UNL A   1      34.869  31.670  29.481  1.00  0.00    -0.237 OA
ATOM     72  O   UNL A   1      34.461  32.539  31.749  1.00  0.00    -0.237 OA
ATOM     73  O   UNL A   1      35.975  33.744  30.235  1.00  0.00    -0.744 OA
ENDBRANCH  67  70
ENDBRANCH  49  63
BRANCH  50  74
ATOM     74  C   UNL A   1      46.891  27.422  25.840  1.00  0.00     0.023 A 
ATOM     75  C   UNL A   1      46.980  27.670  24.456  1.00  0.00     0.012 A 
ATOM     76  C   UNL A   1      47.971  26.800  26.495  1.00  0.00     0.148 A 
ATOM     77  C   UNL A   1      48.104  27.274  23.731  1.00  0.00     0.002 A 
ATOM     78  C   UNL A   1      49.111  26.456  25.777  1.00  0.00     0.091 A 
ATOM     79  F   UNL A   1      47.865  26.563  27.810  1.00  0.00    -0.205 F 
ATOM     80  C   UNL A   1      49.173  26.676  24.393  1.00  0.00     0.022 A 
BRANCH  78  81
ATOM     81  S   UNL A   1      50.586  25.804  26.570  1.00  0.00     0.127 S 
ATOM     82  O   UNL A   1      51.517  25.720  25.448  1.00  0.00    -0.237 OA
ATOM     83  O   UNL A   1      50.892  26.848  27.549  1.00  0.00    -0.237 OA
ATOM     84  O   UNL A   1      50.182  24.534  27.158  1.00  0.00    -0.744 OA
ENDBRANCH  78  81
ENDBRANCH  50  74
BRANCH  62  85
ATOM     85  C   UNL A   1      40.852  24.306  27.455  1.00  0.00     0.023 A 
ATOM     86  C   UNL A   1      41.448  23.164  28.023  1.00  0.00     0.012 A 
ATOM     87  C   UNL A   1      39.693  24.165  26.668  1.00  0.00     0.148 A 
ATOM     88  C   UNL A   1      40.918  21.897  27.784  1.00  0.00     0.002 A 
ATOM     89  C   UNL A   1      39.142  22.905  26.474  1.00  0.00     0.091 A 
ATOM     90  F   UNL A   1      39.152  25.264  26.120  1.00  0.00    -0.205 F 
ATOM     91  C   UNL A   1      39.760  21.769  27.021  1.00  0.00     0.022 A 
BRANCH  89  92
ATOM     92  S   UNL A   1      37.597  22.666  25.590  1.00  0.00     0.127 S 
ATOM     93  O   UNL A   1      37.563  21.212  25.437  1.00  0.00    -0.237 OA
ATOM     94  O   UNL A   1      36.611  23.204  26.527  1.00  0.00    -0.237 OA
ATOM     95  O   UNL A   1      37.726  23.426  24.353  1.00  0.00    -0.744 OA
ENDBRANCH  89  92
ENDBRANCH  62  85
ENDBRANCH  36  37
ENDBRANCH  28  31
ENDBRANCH  26  27
ENDBRANCH  25  26
ENDBRANCH   1  25
TORSDOF 17
ENDMDL
