MODEL 1
REMARK VINA RESULT:     -12.5      0.000      0.000
REMARK SMILES CC(C)OC(=O)c1c(NC(=O)[C@H]2[C@@H](C(=O)NCCCCNC(=O)c3ccc(-c4c5nc(c(-c6cccc(S(=O)(=O)[O-])c6F)c6ccc([nH]6)c(-c6cccc(S(=O)(=O)[O-])c6F)c6nc(c(-c7cccc(S(=O)(=O)[O-])c7F)c7ccc4[nH]7)C=C6)C=C5)cc3)[C@@H]3C=C[C@H]2CC3)sc2c1CCC2
REMARK SMILES IDX 17 1 16 2 14 3 15 4 13 6 12 7 90 8 87 9 89 10 91 11 88 12
REMARK SMILES IDX 92 13 10 14 9 15 11 17 8 18 7 19 95 20 93 21 94 22 96 23
REMARK SMILES IDX 98 24 97 25 5 26 6 27 4 28 2 29 1 30 3 31 18 32 19 33 20 34
REMARK SMILES IDX 21 35 22 36 23 38 24 39 25 40 86 41 26 42 85 43 27 44 28 45
REMARK SMILES IDX 29 46 79 47 30 48 84 49 78 50 80 51 31 52 83 53 77 54 76 55
REMARK SMILES IDX 32 57 64 58 44 59 63 60 45 61 48 62 62 63 81 64 46 65 47 66
REMARK SMILES IDX 61 68 82 69 49 70 33 71 34 72 42 73 35 74 37 75 43 76 36 77
REMARK SMILES IDX 38 78 39 79 40 80 41 81 65 82 66 83 74 84 67 85 69 86 75 87
REMARK SMILES IDX 68 88 70 89 71 90 72 91 73 92 50 93 51 94 59 95 52 96 54 97
REMARK SMILES IDX 60 98 53 99 55 100 56 101 57 102 58 103
REMARK H PARENT 16 5 9 16 21 37 80 56 48 67
REMARK Flexibility Score: inf
ROOT
ATOM      1  C   UNL A   1      32.335  29.266  26.748  1.00  0.00     0.116 C 
ENDROOT
BRANCH   1   2
ATOM      2  N   UNL A   1      33.254  28.344  26.106  1.00  0.00    -0.356 N 
ATOM      3  C   UNL A   1      33.143  27.071  25.652  1.00  0.00     0.224 C 
ATOM      4  O   UNL A   1      34.171  26.383  25.740  1.00  0.00    -0.275 OA
ATOM      5  H   UNL A   1      34.152  28.725  25.971  1.00  0.00     0.163 HD
BRANCH   3   6
ATOM      6  C   UNL A   1      31.857  26.403  25.150  1.00  0.00     0.098 C 
ATOM      7  C   UNL A   1      32.042  25.310  24.012  1.00  0.00     0.099 C 
ATOM      8  C   UNL A   1      30.976  25.568  22.893  1.00  0.00     0.025 C 
ATOM      9  C   UNL A   1      30.602  27.245  24.818  1.00  0.00     0.025 C 
ATOM     10  C   UNL A   1      29.621  25.436  23.562  1.00  0.00    -0.027 C 
ATOM     11  C   UNL A   1      31.098  27.004  22.358  1.00  0.00     0.009 C 
ATOM     12  C   UNL A   1      29.437  26.290  24.579  1.00  0.00    -0.027 C 
ATOM     13  C   UNL A   1      30.823  28.003  23.489  1.00  0.00     0.009 C 
BRANCH   7  14
ATOM     14  C   UNL A   1      33.408  25.049  23.373  1.00  0.00     0.229 C 
ATOM     15  N   UNL A   1      33.967  23.786  23.335  1.00  0.00    -0.317 N 
ATOM     16  H   UNL A   1      34.893  23.761  23.001  1.00  0.00     0.170 HD
ATOM     17  O   UNL A   1      34.017  25.946  22.788  1.00  0.00    -0.274 OA
BRANCH  15  18
ATOM     18  C   UNL A   1      33.448  22.547  23.688  1.00  0.00     0.110 A 
ATOM     19  C   UNL A   1      33.871  21.718  24.734  1.00  0.00     0.098 A 
ATOM     20  C   UNL A   1      33.450  20.383  24.442  1.00  0.00    -0.017 A 
ATOM     21  S   UNL A   1      32.104  21.846  22.875  1.00  0.00    -0.122 S 
ATOM     22  C   UNL A   1      32.590  20.338  23.381  1.00  0.00     0.011 A 
ATOM     23  C   UNL A   1      33.691  19.013  24.963  1.00  0.00     0.038 C 
ATOM     24  C   UNL A   1      32.214  18.988  22.924  1.00  0.00     0.047 C 
ATOM     25  C   UNL A   1      33.156  18.108  23.799  1.00  0.00     0.010 C 
BRANCH  19  26
ATOM     26  C   UNL A   1      34.696  22.197  25.834  1.00  0.00     0.341 C 
ATOM     27  O   UNL A   1      34.352  23.162  26.514  1.00  0.00    -0.246 OA
BRANCH  26  28
ATOM     28  O   UNL A   1      35.793  21.428  26.067  1.00  0.00    -0.459 OA
BRANCH  28  29
ATOM     29  C   UNL A   1      36.941  21.561  25.196  1.00  0.00     0.170 C 
ATOM     30  C   UNL A   1      37.971  22.587  25.659  1.00  0.00     0.052 C 
ATOM     31  C   UNL A   1      37.554  20.193  24.909  1.00  0.00     0.052 C 
ENDBRANCH  28  29
ENDBRANCH  26  28
ENDBRANCH  19  26
ENDBRANCH  15  18
ENDBRANCH   7  14
ENDBRANCH   3   6
ENDBRANCH   1   2
BRANCH   1  32
ATOM     32  C   UNL A   1      31.848  30.345  25.779  1.00  0.00     0.023 C 
BRANCH  32  33
ATOM     33  C   UNL A   1      31.441  31.665  26.440  1.00  0.00     0.023 C 
BRANCH  33  34
ATOM     34  C   UNL A   1      32.493  32.254  27.376  1.00  0.00     0.116 C 
BRANCH  34  35
ATOM     35  N   UNL A   1      32.333  33.697  27.577  1.00  0.00    -0.352 N 
ATOM     36  C   UNL A   1      33.032  34.511  28.445  1.00  0.00     0.251 C 
ATOM     37  H   UNL A   1      31.645  34.137  27.029  1.00  0.00     0.163 HD
ATOM     38  O   UNL A   1      32.583  35.595  28.800  1.00  0.00    -0.269 OA
BRANCH  36  39
ATOM     39  C   UNL A   1      34.346  34.054  28.924  1.00  0.00     0.039 A 
ATOM     40  C   UNL A   1      34.474  33.300  30.092  1.00  0.00     0.014 A 
ATOM     41  C   UNL A   1      35.454  34.354  28.133  1.00  0.00     0.014 A 
ATOM     42  C   UNL A   1      35.722  32.773  30.413  1.00  0.00     0.010 A 
ATOM     43  C   UNL A   1      36.645  33.721  28.374  1.00  0.00     0.010 A 
ATOM     44  C   UNL A   1      36.801  32.971  29.536  1.00  0.00    -0.014 A 
BRANCH  44  45
ATOM     45  C   UNL A   1      38.071  32.289  29.758  1.00  0.00     0.031 A 
ATOM     46  C   UNL A   1      38.124  30.888  29.251  1.00  0.00     0.074 A 
ATOM     47  C   UNL A   1      39.182  32.940  30.165  1.00  0.00     0.049 A 
ATOM     48  N   UNL A   1      38.257  29.802  29.940  1.00  0.00    -0.248 NA
ATOM     49  C   UNL A   1      37.868  30.654  27.820  1.00  0.00     0.031 C 
ATOM     50  C   UNL A   1      39.360  34.384  30.370  1.00  0.00     0.029 A 
ATOM     51  N   UNL A   1      40.446  32.461  30.319  1.00  0.00    -0.354 N 
ATOM     52  C   UNL A   1      38.350  28.772  29.006  1.00  0.00     0.074 A 
ATOM     53  C   UNL A   1      37.898  29.322  27.754  1.00  0.00     0.031 C 
ATOM     54  C   UNL A   1      40.677  34.682  30.336  1.00  0.00     0.029 A 
ATOM     55  C   UNL A   1      41.430  33.445  30.285  1.00  0.00     0.049 A 
ATOM     56  H   UNL A   1      40.647  31.505  30.444  1.00  0.00     0.167 HD
ATOM     57  C   UNL A   1      39.038  27.627  29.274  1.00  0.00     0.034 A 
ATOM     58  C   UNL A   1      42.766  33.249  30.157  1.00  0.00     0.034 A 
ATOM     59  C   UNL A   1      39.295  27.481  30.684  1.00  0.00     0.049 A 
ATOM     60  C   UNL A   1      43.037  31.848  30.552  1.00  0.00     0.074 A 
ATOM     61  C   UNL A   1      38.510  27.471  31.821  1.00  0.00     0.029 A 
ATOM     62  N   UNL A   1      40.575  27.734  31.121  1.00  0.00    -0.354 N 
ATOM     63  N   UNL A   1      42.869  31.397  31.763  1.00  0.00    -0.248 NA
ATOM     64  C   UNL A   1      43.064  30.842  29.503  1.00  0.00     0.031 C 
ATOM     65  C   UNL A   1      39.248  28.232  32.775  1.00  0.00     0.029 A 
ATOM     66  C   UNL A   1      40.469  28.581  32.193  1.00  0.00     0.049 A 
ATOM     67  H   UNL A   1      41.407  27.375  30.737  1.00  0.00     0.167 HD
ATOM     68  C   UNL A   1      42.303  30.141  31.583  1.00  0.00     0.074 A 
ATOM     69  C   UNL A   1      42.548  29.813  30.179  1.00  0.00     0.031 C 
ATOM     70  C   UNL A   1      41.432  29.615  32.496  1.00  0.00     0.034 A 
BRANCH  57  71
ATOM     71  C   UNL A   1      39.795  26.818  28.246  1.00  0.00     0.023 A 
ATOM     72  C   UNL A   1      39.608  25.417  28.246  1.00  0.00     0.012 A 
ATOM     73  C   UNL A   1      40.868  27.317  27.471  1.00  0.00     0.148 A 
ATOM     74  C   UNL A   1      40.466  24.560  27.546  1.00  0.00     0.002 A 
ATOM     75  C   UNL A   1      41.658  26.471  26.703  1.00  0.00     0.091 A 
ATOM     76  F   UNL A   1      41.229  28.599  27.575  1.00  0.00    -0.205 F 
ATOM     77  C   UNL A   1      41.484  25.087  26.762  1.00  0.00     0.022 A 
BRANCH  75  78
ATOM     78  S   UNL A   1      42.940  27.114  25.622  1.00  0.00     0.127 S 
ATOM     79  O   UNL A   1      42.182  28.047  24.793  1.00  0.00    -0.237 OA
ATOM     80  O   UNL A   1      43.856  27.735  26.579  1.00  0.00    -0.237 OA
ATOM     81  O   UNL A   1      43.491  25.947  24.943  1.00  0.00    -0.744 OA
ENDBRANCH  75  78
ENDBRANCH  57  71
BRANCH  58  82
ATOM     82  C   UNL A   1      43.785  34.084  29.476  1.00  0.00     0.023 A 
ATOM     83  C   UNL A   1      44.609  34.933  30.242  1.00  0.00     0.012 A 
ATOM     84  C   UNL A   1      44.144  33.847  28.129  1.00  0.00     0.148 A 
ATOM     85  C   UNL A   1      45.775  35.489  29.702  1.00  0.00     0.002 A 
ATOM     86  C   UNL A   1      45.295  34.416  27.593  1.00  0.00     0.091 A 
ATOM     87  F   UNL A   1      43.410  32.994  27.403  1.00  0.00    -0.205 F 
ATOM     88  C   UNL A   1      46.125  35.223  28.381  1.00  0.00     0.022 A 
BRANCH  86  89
ATOM     89  S   UNL A   1      45.805  34.126  25.894  1.00  0.00     0.127 S 
ATOM     90  O   UNL A   1      46.029  32.680  25.890  1.00  0.00    -0.237 OA
ATOM     91  O   UNL A   1      44.630  34.565  25.146  1.00  0.00    -0.237 OA
ATOM     92  O   UNL A   1      47.017  34.914  25.705  1.00  0.00    -0.744 OA
ENDBRANCH  86  89
ENDBRANCH  58  82
BRANCH  70  93
ATOM     93  C   UNL A   1      41.260  30.319  33.821  1.00  0.00     0.023 A 
ATOM     94  C   UNL A   1      42.165  30.156  34.892  1.00  0.00     0.012 A 
ATOM     95  C   UNL A   1      40.269  31.310  33.922  1.00  0.00     0.148 A 
ATOM     96  C   UNL A   1      42.069  30.946  36.042  1.00  0.00     0.002 A 
ATOM     97  C   UNL A   1      40.206  32.125  35.045  1.00  0.00     0.091 A 
ATOM     98  F   UNL A   1      39.416  31.459  32.897  1.00  0.00    -0.205 F 
ATOM     99  C   UNL A   1      41.098  31.941  36.113  1.00  0.00     0.022 A 
BRANCH  97 100
ATOM    100  S   UNL A   1      39.060  33.503  35.138  1.00  0.00     0.127 S 
ATOM    101  O   UNL A   1      39.432  34.124  36.407  1.00  0.00    -0.237 OA
ATOM    102  O   UNL A   1      39.408  34.284  33.950  1.00  0.00    -0.237 OA
ATOM    103  O   UNL A   1      37.727  32.916  35.091  1.00  0.00    -0.744 OA
ENDBRANCH  97 100
ENDBRANCH  70  93
ENDBRANCH  44  45
ENDBRANCH  36  39
ENDBRANCH  34  35
ENDBRANCH  33  34
ENDBRANCH  32  33
ENDBRANCH   1  32
TORSDOF 19
ENDMDL
MODEL 2
REMARK VINA RESULT:     -12.1      3.101      6.931
REMARK SMILES CC(C)OC(=O)c1c(NC(=O)[C@H]2[C@@H](C(=O)NCCCCNC(=O)c3ccc(-c4c5nc(c(-c6cccc(S(=O)(=O)[O-])c6F)c6ccc([nH]6)c(-c6cccc(S(=O)(=O)[O-])c6F)c6nc(c(-c7cccc(S(=O)(=O)[O-])c7F)c7ccc4[nH]7)C=C6)C=C5)cc3)[C@@H]3C=C[C@H]2CC3)sc2c1CCC2
REMARK SMILES IDX 17 1 16 2 14 3 15 4 13 6 12 7 90 8 87 9 89 10 91 11 88 12
REMARK SMILES IDX 92 13 10 14 9 15 11 17 8 18 7 19 95 20 93 21 94 22 96 23
REMARK SMILES IDX 98 24 97 25 5 26 6 27 4 28 2 29 1 30 3 31 18 32 19 33 20 34
REMARK SMILES IDX 21 35 22 36 23 38 24 39 25 40 86 41 26 42 85 43 27 44 28 45
REMARK SMILES IDX 29 46 79 47 30 48 84 49 78 50 80 51 31 52 83 53 77 54 76 55
REMARK SMILES IDX 32 57 64 58 44 59 63 60 45 61 48 62 62 63 81 64 46 65 47 66
REMARK SMILES IDX 61 68 82 69 49 70 33 71 34 72 42 73 35 74 37 75 43 76 36 77
REMARK SMILES IDX 38 78 39 79 40 80 41 81 65 82 66 83 74 84 67 85 69 86 75 87
REMARK SMILES IDX 68 88 70 89 71 90 72 91 73 92 50 93 51 94 59 95 52 96 54 97
REMARK SMILES IDX 60 98 53 99 55 100 56 101 57 102 58 103
REMARK H PARENT 16 5 9 16 21 37 80 56 48 67
REMARK Flexibility Score: inf
ROOT
ATOM      1  C   UNL A   1      33.258  29.206  25.801  1.00  0.00     0.116 C 
ENDROOT
BRANCH   1   2
ATOM      2  N   UNL A   1      33.994  27.998  25.476  1.00  0.00    -0.356 N 
ATOM      3  C   UNL A   1      33.655  26.688  25.384  1.00  0.00     0.224 C 
ATOM      4  O   UNL A   1      34.545  25.886  25.700  1.00  0.00    -0.275 OA
ATOM      5  H   UNL A   1      34.944  28.166  25.280  1.00  0.00     0.163 HD
BRANCH   3   6
ATOM      6  C   UNL A   1      32.268  26.140  25.030  1.00  0.00     0.098 C 
ATOM      7  C   UNL A   1      32.228  25.043  23.883  1.00  0.00     0.099 C 
ATOM      8  C   UNL A   1      31.071  25.400  22.888  1.00  0.00     0.025 C 
ATOM      9  C   UNL A   1      31.062  27.091  24.838  1.00  0.00     0.025 C 
ATOM     10  C   UNL A   1      29.793  25.384  23.704  1.00  0.00    -0.027 C 
ATOM     11  C   UNL A   1      31.259  26.824  22.338  1.00  0.00     0.009 C 
ATOM     12  C   UNL A   1      29.798  26.244  24.733  1.00  0.00    -0.027 C 
ATOM     13  C   UNL A   1      31.200  27.836  23.490  1.00  0.00     0.009 C 
BRANCH   7  14
ATOM     14  C   UNL A   1      33.486  24.666  23.096  1.00  0.00     0.229 C 
ATOM     15  N   UNL A   1      33.933  23.362  23.014  1.00  0.00    -0.317 N 
ATOM     16  H   UNL A   1      34.810  23.258  22.577  1.00  0.00     0.170 HD
ATOM     17  O   UNL A   1      34.094  25.507  22.432  1.00  0.00    -0.274 OA
BRANCH  15  18
ATOM     18  C   UNL A   1      33.358  22.172  23.442  1.00  0.00     0.110 A 
ATOM     19  C   UNL A   1      33.638  21.473  24.623  1.00  0.00     0.098 A 
ATOM     20  C   UNL A   1      33.241  20.111  24.439  1.00  0.00    -0.017 A 
ATOM     21  S   UNL A   1      32.119  21.375  22.555  1.00  0.00    -0.122 S 
ATOM     22  C   UNL A   1      32.520  19.939  23.291  1.00  0.00     0.011 A 
ATOM     23  C   UNL A   1      33.398  18.814  25.144  1.00  0.00     0.038 C 
ATOM     24  C   UNL A   1      32.187  18.543  22.953  1.00  0.00     0.047 C 
ATOM     25  C   UNL A   1      33.002  17.776  24.037  1.00  0.00     0.010 C 
BRANCH  19  26
ATOM     26  C   UNL A   1      34.325  22.081  25.754  1.00  0.00     0.341 C 
ATOM     27  O   UNL A   1      33.877  23.085  26.305  1.00  0.00    -0.246 OA
BRANCH  26  28
ATOM     28  O   UNL A   1      35.416  21.384  26.166  1.00  0.00    -0.459 OA
BRANCH  28  29
ATOM     29  C   UNL A   1      36.720  21.754  25.657  1.00  0.00     0.170 C 
ATOM     30  C   UNL A   1      37.322  20.757  24.672  1.00  0.00     0.052 C 
ATOM     31  C   UNL A   1      36.694  23.181  25.116  1.00  0.00     0.052 C 
ENDBRANCH  28  29
ENDBRANCH  26  28
ENDBRANCH  19  26
ENDBRANCH  15  18
ENDBRANCH   7  14
ENDBRANCH   3   6
ENDBRANCH   1   2
BRANCH   1  32
ATOM     32  C   UNL A   1      33.696  29.791  27.145  1.00  0.00     0.023 C 
BRANCH  32  33
ATOM     33  C   UNL A   1      33.228  31.227  27.404  1.00  0.00     0.023 C 
BRANCH  33  34
ATOM     34  C   UNL A   1      34.341  32.192  27.805  1.00  0.00     0.116 C 
BRANCH  34  35
ATOM     35  N   UNL A   1      34.209  32.672  29.183  1.00  0.00    -0.352 N 
ATOM     36  C   UNL A   1      34.916  32.256  30.294  1.00  0.00     0.251 C 
ATOM     37  H   UNL A   1      33.536  33.374  29.335  1.00  0.00     0.163 HD
ATOM     38  O   UNL A   1      34.485  32.442  31.426  1.00  0.00    -0.269 OA
BRANCH  36  39
ATOM     39  C   UNL A   1      36.214  31.597  30.087  1.00  0.00     0.039 A 
ATOM     40  C   UNL A   1      37.373  32.334  29.831  1.00  0.00     0.014 A 
ATOM     41  C   UNL A   1      36.254  30.210  30.215  1.00  0.00     0.014 A 
ATOM     42  C   UNL A   1      38.593  31.665  29.791  1.00  0.00     0.010 A 
ATOM     43  C   UNL A   1      37.466  29.576  30.314  1.00  0.00     0.010 A 
ATOM     44  C   UNL A   1      38.635  30.286  30.055  1.00  0.00    -0.014 A 
BRANCH  44  45
ATOM     45  C   UNL A   1      39.912  29.596  30.190  1.00  0.00     0.031 A 
ATOM     46  C   UNL A   1      40.465  29.571  31.574  1.00  0.00     0.074 A 
ATOM     47  C   UNL A   1      40.432  28.835  29.202  1.00  0.00     0.049 A 
ATOM     48  N   UNL A   1      41.552  30.126  32.001  1.00  0.00    -0.248 NA
ATOM     49  C   UNL A   1      39.648  28.969  32.641  1.00  0.00     0.031 C 
ATOM     50  C   UNL A   1      39.825  28.492  27.910  1.00  0.00     0.029 A 
ATOM     51  N   UNL A   1      41.552  28.062  29.218  1.00  0.00    -0.354 N 
ATOM     52  C   UNL A   1      41.678  29.732  33.332  1.00  0.00     0.074 A 
ATOM     53  C   UNL A   1      40.395  29.209  33.720  1.00  0.00     0.031 C 
ATOM     54  C   UNL A   1      40.425  27.390  27.411  1.00  0.00     0.029 A 
ATOM     55  C   UNL A   1      41.559  27.060  28.251  1.00  0.00     0.049 A 
ATOM     56  H   UNL A   1      42.290  28.199  29.855  1.00  0.00     0.167 HD
ATOM     57  C   UNL A   1      42.898  29.622  33.930  1.00  0.00     0.034 A 
ATOM     58  C   UNL A   1      42.402  25.999  28.192  1.00  0.00     0.034 A 
ATOM     59  C   UNL A   1      43.922  30.297  33.174  1.00  0.00     0.049 A 
ATOM     60  C   UNL A   1      43.589  26.344  29.008  1.00  0.00     0.074 A 
ATOM     61  C   UNL A   1      44.089  31.581  32.693  1.00  0.00     0.029 A 
ATOM     62  N   UNL A   1      44.788  29.515  32.446  1.00  0.00    -0.354 N 
ATOM     63  N   UNL A   1      44.421  27.299  28.699  1.00  0.00    -0.248 NA
ATOM     64  C   UNL A   1      43.597  25.927  30.400  1.00  0.00     0.031 C 
ATOM     65  C   UNL A   1      44.628  31.409  31.383  1.00  0.00     0.029 A 
ATOM     66  C   UNL A   1      44.836  30.043  31.183  1.00  0.00     0.049 A 
ATOM     67  H   UNL A   1      45.280  28.727  32.771  1.00  0.00     0.167 HD
ATOM     68  C   UNL A   1      44.702  27.912  29.912  1.00  0.00     0.074 A 
ATOM     69  C   UNL A   1      44.255  26.961  30.930  1.00  0.00     0.031 C 
ATOM     70  C   UNL A   1      44.989  29.246  29.986  1.00  0.00     0.034 A 
BRANCH  57  71
ATOM     71  C   UNL A   1      43.244  28.610  34.997  1.00  0.00     0.023 A 
ATOM     72  C   UNL A   1      43.909  29.078  36.153  1.00  0.00     0.012 A 
ATOM     73  C   UNL A   1      43.196  27.209  34.813  1.00  0.00     0.148 A 
ATOM     74  C   UNL A   1      44.526  28.200  37.054  1.00  0.00     0.002 A 
ATOM     75  C   UNL A   1      43.729  26.338  35.757  1.00  0.00     0.091 A 
ATOM     76  F   UNL A   1      42.763  26.700  33.657  1.00  0.00    -0.205 F 
ATOM     77  C   UNL A   1      44.425  26.828  36.863  1.00  0.00     0.022 A 
BRANCH  75  78
ATOM     78  S   UNL A   1      43.560  24.558  35.587  1.00  0.00     0.127 S 
ATOM     79  O   UNL A   1      44.238  24.084  36.790  1.00  0.00    -0.237 OA
ATOM     80  O   UNL A   1      42.106  24.394  35.588  1.00  0.00    -0.237 OA
ATOM     81  O   UNL A   1      44.194  24.231  34.316  1.00  0.00    -0.744 OA
ENDBRANCH  75  78
ENDBRANCH  57  71
BRANCH  58  82
ATOM     82  C   UNL A   1      42.155  24.619  27.710  1.00  0.00     0.023 A 
ATOM     83  C   UNL A   1      40.858  24.075  27.801  1.00  0.00     0.012 A 
ATOM     84  C   UNL A   1      43.104  23.943  26.909  1.00  0.00     0.148 A 
ATOM     85  C   UNL A   1      40.504  22.925  27.085  1.00  0.00     0.002 A 
ATOM     86  C   UNL A   1      42.751  22.792  26.213  1.00  0.00     0.091 A 
ATOM     87  F   UNL A   1      44.323  24.478  26.757  1.00  0.00    -0.205 F 
ATOM     88  C   UNL A   1      41.446  22.289  26.283  1.00  0.00     0.022 A 
BRANCH  86  89
ATOM     89  S   UNL A   1      43.916  21.910  25.165  1.00  0.00     0.127 S 
ATOM     90  O   UNL A   1      45.163  22.053  25.917  1.00  0.00    -0.237 OA
ATOM     91  O   UNL A   1      43.357  20.561  25.160  1.00  0.00    -0.237 OA
ATOM     92  O   UNL A   1      43.909  22.612  23.888  1.00  0.00    -0.744 OA
ENDBRANCH  86  89
ENDBRANCH  58  82
BRANCH  70  93
ATOM     93  C   UNL A   1      45.220  30.009  28.703  1.00  0.00     0.023 A 
ATOM     94  C   UNL A   1      44.162  30.468  27.890  1.00  0.00     0.012 A 
ATOM     95  C   UNL A   1      46.527  30.434  28.410  1.00  0.00     0.148 A 
ATOM     96  C   UNL A   1      44.403  31.311  26.801  1.00  0.00     0.002 A 
ATOM     97  C   UNL A   1      46.759  31.309  27.356  1.00  0.00     0.091 A 
ATOM     98  F   UNL A   1      47.525  29.994  29.192  1.00  0.00    -0.205 F 
ATOM     99  C   UNL A   1      45.701  31.743  26.542  1.00  0.00     0.022 A 
BRANCH  97 100
ATOM    100  S   UNL A   1      48.388  31.998  27.054  1.00  0.00     0.127 S 
ATOM    101  O   UNL A   1      49.127  30.834  26.574  1.00  0.00    -0.237 OA
ATOM    102  O   UNL A   1      48.118  33.015  26.037  1.00  0.00    -0.237 OA
ATOM    103  O   UNL A   1      48.833  32.543  28.332  1.00  0.00    -0.744 OA
ENDBRANCH  97 100
ENDBRANCH  70  93
ENDBRANCH  44  45
ENDBRANCH  36  39
ENDBRANCH  34  35
ENDBRANCH  33  34
ENDBRANCH  32  33
ENDBRANCH   1  32
TORSDOF 19
ENDMDL
MODEL 3
REMARK VINA RESULT:     -12.1      3.230      7.272
REMARK SMILES CC(C)OC(=O)c1c(NC(=O)[C@H]2[C@@H](C(=O)NCCCCNC(=O)c3ccc(-c4c5nc(c(-c6cccc(S(=O)(=O)[O-])c6F)c6ccc([nH]6)c(-c6cccc(S(=O)(=O)[O-])c6F)c6nc(c(-c7cccc(S(=O)(=O)[O-])c7F)c7ccc4[nH]7)C=C6)C=C5)cc3)[C@@H]3C=C[C@H]2CC3)sc2c1CCC2
REMARK SMILES IDX 17 1 16 2 14 3 15 4 13 6 12 7 90 8 87 9 89 10 91 11 88 12
REMARK SMILES IDX 92 13 10 14 9 15 11 17 8 18 7 19 95 20 93 21 94 22 96 23
REMARK SMILES IDX 98 24 97 25 5 26 6 27 4 28 2 29 1 30 3 31 18 32 19 33 20 34
REMARK SMILES IDX 21 35 22 36 23 38 24 39 25 40 86 41 26 42 85 43 27 44 28 45
REMARK SMILES IDX 29 46 79 47 30 48 84 49 78 50 80 51 31 52 83 53 77 54 76 55
REMARK SMILES IDX 32 57 64 58 44 59 63 60 45 61 48 62 62 63 81 64 46 65 47 66
REMARK SMILES IDX 61 68 82 69 49 70 33 71 34 72 42 73 35 74 37 75 43 76 36 77
REMARK SMILES IDX 38 78 39 79 40 80 41 81 65 82 66 83 74 84 67 85 69 86 75 87
REMARK SMILES IDX 68 88 70 89 71 90 72 91 73 92 50 93 51 94 59 95 52 96 54 97
REMARK SMILES IDX 60 98 53 99 55 100 56 101 57 102 58 103
REMARK H PARENT 16 5 9 16 21 37 80 56 48 67
REMARK Flexibility Score: inf
ROOT
ATOM      1  C   UNL A   1      32.779  29.731  25.462  1.00  0.00     0.116 C 
ENDROOT
BRANCH   1   2
ATOM      2  N   UNL A   1      33.625  28.577  25.217  1.00  0.00    -0.356 N 
ATOM      3  C   UNL A   1      33.405  27.239  25.198  1.00  0.00     0.224 C 
ATOM      4  O   UNL A   1      34.358  26.539  25.571  1.00  0.00    -0.275 OA
ATOM      5  H   UNL A   1      34.559  28.818  25.022  1.00  0.00     0.163 HD
BRANCH   3   6
ATOM      6  C   UNL A   1      32.078  26.549  24.862  1.00  0.00     0.098 C 
ATOM      7  C   UNL A   1      32.162  25.357  23.815  1.00  0.00     0.099 C 
ATOM      8  C   UNL A   1      31.011  25.530  22.765  1.00  0.00     0.025 C 
ATOM      9  C   UNL A   1      30.807  27.377  24.557  1.00  0.00     0.025 C 
ATOM     10  C   UNL A   1      29.714  25.478  23.550  1.00  0.00    -0.027 C 
ATOM     11  C   UNL A   1      31.101  26.912  22.097  1.00  0.00     0.009 C 
ATOM     12  C   UNL A   1      29.619  26.422  24.498  1.00  0.00    -0.027 C 
ATOM     13  C   UNL A   1      30.926  28.011  23.152  1.00  0.00     0.009 C 
BRANCH   7  14
ATOM     14  C   UNL A   1      33.470  25.020  23.095  1.00  0.00     0.229 C 
ATOM     15  N   UNL A   1      33.966  23.732  23.046  1.00  0.00    -0.317 N 
ATOM     16  H   UNL A   1      34.866  23.656  22.654  1.00  0.00     0.170 HD
ATOM     17  O   UNL A   1      34.081  25.877  22.455  1.00  0.00    -0.274 OA
BRANCH  15  18
ATOM     18  C   UNL A   1      33.413  22.525  23.456  1.00  0.00     0.110 A 
ATOM     19  C   UNL A   1      33.743  21.786  24.599  1.00  0.00     0.098 A 
ATOM     20  C   UNL A   1      33.342  20.430  24.385  1.00  0.00    -0.017 A 
ATOM     21  S   UNL A   1      32.139  21.755  22.595  1.00  0.00    -0.122 S 
ATOM     22  C   UNL A   1      32.574  20.296  23.263  1.00  0.00     0.011 A 
ATOM     23  C   UNL A   1      33.532  19.109  25.036  1.00  0.00     0.038 C 
ATOM     24  C   UNL A   1      32.230  18.912  22.889  1.00  0.00     0.047 C 
ATOM     25  C   UNL A   1      33.092  18.110  23.910  1.00  0.00     0.010 C 
BRANCH  19  26
ATOM     26  C   UNL A   1      34.476  22.357  25.721  1.00  0.00     0.341 C 
ATOM     27  O   UNL A   1      35.553  21.886  26.081  1.00  0.00    -0.246 OA
BRANCH  26  28
ATOM     28  O   UNL A   1      33.901  23.477  26.233  1.00  0.00    -0.459 OA
BRANCH  28  29
ATOM     29  C   UNL A   1      32.818  23.338  27.183  1.00  0.00     0.170 C 
ATOM     30  C   UNL A   1      31.426  23.316  26.559  1.00  0.00     0.052 C 
ATOM     31  C   UNL A   1      33.071  22.152  28.109  1.00  0.00     0.052 C 
ENDBRANCH  28  29
ENDBRANCH  26  28
ENDBRANCH  19  26
ENDBRANCH  15  18
ENDBRANCH   7  14
ENDBRANCH   3   6
ENDBRANCH   1   2
BRANCH   1  32
ATOM     32  C   UNL A   1      32.720  30.083  26.950  1.00  0.00     0.023 C 
BRANCH  32  33
ATOM     33  C   UNL A   1      34.084  30.252  27.625  1.00  0.00     0.023 C 
BRANCH  33  34
ATOM     34  C   UNL A   1      34.519  31.702  27.818  1.00  0.00     0.116 C 
BRANCH  34  35
ATOM     35  N   UNL A   1      34.487  32.125  29.220  1.00  0.00    -0.352 N 
ATOM     36  C   UNL A   1      35.331  31.732  30.240  1.00  0.00     0.251 C 
ATOM     37  H   UNL A   1      33.780  32.764  29.464  1.00  0.00     0.163 HD
ATOM     38  O   UNL A   1      35.001  31.846  31.415  1.00  0.00    -0.269 OA
BRANCH  36  39
ATOM     39  C   UNL A   1      36.650  31.188  29.883  1.00  0.00     0.039 A 
ATOM     40  C   UNL A   1      37.749  32.023  29.670  1.00  0.00     0.014 A 
ATOM     41  C   UNL A   1      36.774  29.802  29.824  1.00  0.00     0.014 A 
ATOM     42  C   UNL A   1      39.000  31.444  29.480  1.00  0.00     0.010 A 
ATOM     43  C   UNL A   1      38.023  29.238  29.778  1.00  0.00     0.010 A 
ATOM     44  C   UNL A   1      39.134  30.048  29.557  1.00  0.00    -0.014 A 
BRANCH  44  45
ATOM     45  C   UNL A   1      40.453  29.428  29.535  1.00  0.00     0.031 A 
ATOM     46  C   UNL A   1      41.045  29.171  30.880  1.00  0.00     0.074 A 
ATOM     47  C   UNL A   1      40.991  28.907  28.410  1.00  0.00     0.049 A 
ATOM     48  N   UNL A   1      42.108  29.701  31.390  1.00  0.00    -0.248 NA
ATOM     49  C   UNL A   1      40.295  28.323  31.821  1.00  0.00     0.031 C 
ATOM     50  C   UNL A   1      40.370  28.782  27.086  1.00  0.00     0.029 A 
ATOM     51  N   UNL A   1      42.154  28.219  28.259  1.00  0.00    -0.354 N 
ATOM     52  C   UNL A   1      42.294  29.066  32.617  1.00  0.00     0.074 A 
ATOM     53  C   UNL A   1      41.055  28.397  32.915  1.00  0.00     0.031 C 
ATOM     54  C   UNL A   1      41.021  27.838  26.373  1.00  0.00     0.029 A 
ATOM     55  C   UNL A   1      42.195  27.425  27.115  1.00  0.00     0.049 A 
ATOM     56  H   UNL A   1      42.900  28.277  28.898  1.00  0.00     0.167 HD
ATOM     57  C   UNL A   1      43.534  28.921  33.163  1.00  0.00     0.034 A 
ATOM     58  C   UNL A   1      43.098  26.452  26.838  1.00  0.00     0.034 A 
ATOM     59  C   UNL A   1      44.494  29.794  32.537  1.00  0.00     0.049 A 
ATOM     60  C   UNL A   1      44.284  26.708  27.687  1.00  0.00     0.074 A 
ATOM     61  C   UNL A   1      44.572  31.155  32.313  1.00  0.00     0.029 A 
ATOM     62  N   UNL A   1      45.385  29.224  31.657  1.00  0.00    -0.354 N 
ATOM     63  N   UNL A   1      45.049  27.755  27.557  1.00  0.00    -0.248 NA
ATOM     64  C   UNL A   1      44.356  26.030  28.971  1.00  0.00     0.031 C 
ATOM     65  C   UNL A   1      45.083  31.274  30.987  1.00  0.00     0.029 A 
ATOM     66  C   UNL A   1      45.367  29.988  30.520  1.00  0.00     0.049 A 
ATOM     67  H   UNL A   1      45.932  28.421  31.815  1.00  0.00     0.167 HD
ATOM     68  C   UNL A   1      45.326  28.139  28.862  1.00  0.00     0.074 A 
ATOM     69  C   UNL A   1      44.965  26.982  29.682  1.00  0.00     0.031 C 
ATOM     70  C   UNL A   1      45.535  29.450  29.189  1.00  0.00     0.034 A 
BRANCH  57  71
ATOM     71  C   UNL A   1      43.969  27.746  34.007  1.00  0.00     0.023 A 
ATOM     72  C   UNL A   1      44.483  26.612  33.338  1.00  0.00     0.012 A 
ATOM     73  C   UNL A   1      43.657  27.590  35.378  1.00  0.00     0.148 A 
ATOM     74  C   UNL A   1      44.638  25.382  33.988  1.00  0.00     0.002 A 
ATOM     75  C   UNL A   1      43.900  26.394  36.041  1.00  0.00     0.091 A 
ATOM     76  F   UNL A   1      42.989  28.548  36.025  1.00  0.00    -0.205 F 
ATOM     77  C   UNL A   1      44.360  25.275  35.345  1.00  0.00     0.022 A 
BRANCH  75  78
ATOM     78  S   UNL A   1      43.622  26.231  37.808  1.00  0.00     0.127 S 
ATOM     79  O   UNL A   1      44.300  27.418  38.321  1.00  0.00    -0.237 OA
ATOM     80  O   UNL A   1      42.161  26.267  37.886  1.00  0.00    -0.237 OA
ATOM     81  O   UNL A   1      44.204  24.945  38.173  1.00  0.00    -0.744 OA
ENDBRANCH  75  78
ENDBRANCH  57  71
BRANCH  58  82
ATOM     82  C   UNL A   1      42.921  25.178  26.100  1.00  0.00     0.023 A 
ATOM     83  C   UNL A   1      43.851  24.820  25.103  1.00  0.00     0.012 A 
ATOM     84  C   UNL A   1      42.021  24.187  26.555  1.00  0.00     0.148 A 
ATOM     85  C   UNL A   1      43.915  23.511  24.609  1.00  0.00     0.002 A 
ATOM     86  C   UNL A   1      42.079  22.892  26.049  1.00  0.00     0.091 A 
ATOM     87  F   UNL A   1      41.172  24.488  27.546  1.00  0.00    -0.205 F 
ATOM     88  C   UNL A   1      43.037  22.545  25.089  1.00  0.00     0.022 A 
BRANCH  86  89
ATOM     89  S   UNL A   1      40.971  21.593  26.612  1.00  0.00     0.127 S 
ATOM     90  O   UNL A   1      41.218  21.592  28.054  1.00  0.00    -0.237 OA
ATOM     91  O   UNL A   1      39.666  22.116  26.216  1.00  0.00    -0.237 OA
ATOM     92  O   UNL A   1      41.408  20.379  25.934  1.00  0.00    -0.744 OA
ENDBRANCH  86  89
ENDBRANCH  58  82
BRANCH  70  93
ATOM     93  C   UNL A   1      45.684  30.459  28.076  1.00  0.00     0.023 A 
ATOM     94  C   UNL A   1      44.577  31.018  27.403  1.00  0.00     0.012 A 
ATOM     95  C   UNL A   1      46.961  30.993  27.833  1.00  0.00     0.148 A 
ATOM     96  C   UNL A   1      44.742  32.070  26.495  1.00  0.00     0.002 A 
ATOM     97  C   UNL A   1      47.116  32.068  26.966  1.00  0.00     0.091 A 
ATOM     98  F   UNL A   1      48.006  30.456  28.480  1.00  0.00    -0.205 F 
ATOM     99  C   UNL A   1      46.010  32.604  26.287  1.00  0.00     0.022 A 
BRANCH  97 100
ATOM    100  S   UNL A   1      48.703  32.879  26.756  1.00  0.00     0.127 S 
ATOM    101  O   UNL A   1      48.408  33.864  25.718  1.00  0.00    -0.237 OA
ATOM    102  O   UNL A   1      48.949  33.443  28.083  1.00  0.00    -0.237 OA
ATOM    103  O   UNL A   1      49.640  31.827  26.377  1.00  0.00    -0.744 OA
ENDBRANCH  97 100
ENDBRANCH  70  93
ENDBRANCH  44  45
ENDBRANCH  36  39
ENDBRANCH  34  35
ENDBRANCH  33  34
ENDBRANCH  32  33
ENDBRANCH   1  32
TORSDOF 19
ENDMDL
