MODEL 1
REMARK VINA RESULT:     -12.7      0.000      0.000
REMARK SMILES O=C(NCCCCNC(=O)c1ccccc1-c1ccccc1C(=O)N1CC[NH+](Cc2ccc3c(c2)OCO3)CC1)c1ccc(-c2c3nc(c(-c4cccc(S(=O)(=O)[O-])c4F)c4ccc([nH]4)c(-c4cccc(S(=O)(=O)[O-])c4F)c4nc(c(-c5cccc(S(=O)(=O)[O-])c5F)c5ccc2[nH]5)C=C4)C=C3)cc1
REMARK SMILES IDX 6 1 5 2 4 3 3 4 1 5 2 6 41 8 42 9 103 10 43 11 102 12 44 13
REMARK SMILES IDX 45 14 46 15 96 16 47 17 101 18 95 19 97 20 48 21 100 22
REMARK SMILES IDX 94 23 93 24 49 26 81 27 61 28 80 29 62 30 65 31 79 32 98 33
REMARK SMILES IDX 63 34 64 35 78 37 99 38 66 39 50 40 51 41 59 42 52 43 54 44
REMARK SMILES IDX 60 45 53 46 55 47 56 48 57 49 58 50 82 51 83 52 91 53 84 54
REMARK SMILES IDX 86 55 92 56 85 57 87 58 88 59 89 60 90 61 67 62 68 63 76 64
REMARK SMILES IDX 69 65 71 66 77 67 70 68 72 69 73 70 74 71 75 72 7 73 8 74
REMARK SMILES IDX 9 75 10 77 11 78 12 79 16 80 13 81 15 82 14 83 17 84 18 85
REMARK SMILES IDX 22 86 19 87 21 88 20 89 23 90 24 91 25 92 26 93 40 94 27 95
REMARK SMILES IDX 39 96 28 97 29 99 30 100 31 101 35 102 32 103 34 104 33 105
REMARK SMILES IDX 36 106 38 107 37 108
REMARK H PARENT 3 7 97 25 65 36 8 76 28 98
REMARK Flexibility Score: inf
ROOT
ATOM      1  C   UNL A   1      34.215  30.542  27.556  1.00  0.00     0.023 C 
ENDROOT
BRANCH   1   2
ATOM      2  C   UNL A   1      33.207  31.683  27.658  1.00  0.00     0.023 C 
BRANCH   2   3
ATOM      3  C   UNL A   1      33.746  33.028  27.197  1.00  0.00     0.116 C 
BRANCH   3   4
ATOM      4  N   UNL A   1      33.059  34.154  27.818  1.00  0.00    -0.352 N 
ATOM      5  O   UNL A   1      32.544  35.588  29.486  1.00  0.00    -0.269 OA
ATOM      6  C   UNL A   1      33.260  34.698  29.064  1.00  0.00     0.251 C 
ATOM      7  H   UNL A   1      32.360  34.583  27.273  1.00  0.00     0.163 HD
BRANCH   6   8
ATOM      8  C   UNL A   1      34.346  34.124  29.876  1.00  0.00     0.039 A 
ATOM      9  C   UNL A   1      35.668  34.421  29.544  1.00  0.00     0.014 A 
ATOM     10  C   UNL A   1      34.035  33.184  30.858  1.00  0.00     0.014 A 
ATOM     11  C   UNL A   1      36.682  33.649  30.082  1.00  0.00     0.010 A 
ATOM     12  C   UNL A   1      35.070  32.491  31.483  1.00  0.00     0.010 A 
ATOM     13  C   UNL A   1      36.397  32.693  31.075  1.00  0.00    -0.014 A 
BRANCH  13  14
ATOM     14  C   UNL A   1      37.531  32.000  31.730  1.00  0.00     0.031 A 
ATOM     15  C   UNL A   1      38.320  30.932  31.031  1.00  0.00     0.074 A 
ATOM     16  C   UNL A   1      37.850  32.387  32.980  1.00  0.00     0.049 A 
ATOM     17  N   UNL A   1      39.358  30.267  31.468  1.00  0.00    -0.248 NA
ATOM     18  C   UNL A   1      37.889  30.544  29.678  1.00  0.00     0.031 C 
ATOM     19  C   UNL A   1      37.104  33.379  33.765  1.00  0.00     0.029 A 
ATOM     20  N   UNL A   1      38.878  32.020  33.804  1.00  0.00    -0.354 N 
ATOM     21  C   UNL A   1      39.685  29.360  30.468  1.00  0.00     0.074 A 
ATOM     22  C   UNL A   1      38.727  29.551  29.399  1.00  0.00     0.031 C 
ATOM     23  C   UNL A   1      37.728  33.578  34.932  1.00  0.00     0.029 A 
ATOM     24  C   UNL A   1      38.872  32.680  35.009  1.00  0.00     0.049 A 
ATOM     25  H   UNL A   1      39.554  31.349  33.558  1.00  0.00     0.167 HD
ATOM     26  C   UNL A   1      40.700  28.464  30.442  1.00  0.00     0.034 A 
ATOM     27  C   UNL A   1      39.688  32.566  36.072  1.00  0.00     0.034 A 
ATOM     28  C   UNL A   1      41.664  28.312  31.503  1.00  0.00     0.049 A 
ATOM     29  C   UNL A   1      40.836  31.608  35.987  1.00  0.00     0.074 A 
ATOM     30  C   UNL A   1      42.749  27.455  31.566  1.00  0.00     0.029 A 
ATOM     31  N   UNL A   1      41.664  29.040  32.684  1.00  0.00    -0.354 N 
ATOM     32  N   UNL A   1      41.183  30.828  34.992  1.00  0.00    -0.248 NA
ATOM     33  C   UNL A   1      41.721  31.532  37.154  1.00  0.00     0.031 C 
ATOM     34  C   UNL A   1      43.399  27.660  32.787  1.00  0.00     0.029 A 
ATOM     35  C   UNL A   1      42.730  28.655  33.480  1.00  0.00     0.049 A 
ATOM     36  H   UNL A   1      41.002  29.729  32.922  1.00  0.00     0.167 HD
ATOM     37  C   UNL A   1      42.329  30.169  35.409  1.00  0.00     0.074 A 
ATOM     38  C   UNL A   1      42.645  30.681  36.729  1.00  0.00     0.031 C 
ATOM     39  C   UNL A   1      43.042  29.206  34.774  1.00  0.00     0.034 A 
BRANCH  26  40
ATOM     40  C   UNL A   1      40.858  27.606  29.211  1.00  0.00     0.023 A 
ATOM     41  C   UNL A   1      40.095  26.427  29.089  1.00  0.00     0.012 A 
ATOM     42  C   UNL A   1      41.690  28.003  28.145  1.00  0.00     0.148 A 
ATOM     43  C   UNL A   1      40.174  25.646  27.936  1.00  0.00     0.002 A 
ATOM     44  C   UNL A   1      41.734  27.239  26.983  1.00  0.00     0.091 A 
ATOM     45  F   UNL A   1      42.422  29.117  28.286  1.00  0.00    -0.205 F 
ATOM     46  C   UNL A   1      40.983  26.056  26.880  1.00  0.00     0.022 A 
BRANCH  44  47
ATOM     47  S   UNL A   1      42.689  27.719  25.537  1.00  0.00     0.127 S 
ATOM     48  O   UNL A   1      42.431  26.601  24.630  1.00  0.00    -0.237 OA
ATOM     49  O   UNL A   1      42.051  28.977  25.150  1.00  0.00    -0.237 OA
ATOM     50  O   UNL A   1      44.066  27.850  25.991  1.00  0.00    -0.744 OA
ENDBRANCH  44  47
ENDBRANCH  26  40
BRANCH  27  51
ATOM     51  C   UNL A   1      39.449  33.411  37.274  1.00  0.00     0.023 A 
ATOM     52  C   UNL A   1      38.629  32.933  38.312  1.00  0.00     0.012 A 
ATOM     53  C   UNL A   1      40.094  34.655  37.425  1.00  0.00     0.148 A 
ATOM     54  C   UNL A   1      38.438  33.688  39.469  1.00  0.00     0.002 A 
ATOM     55  C   UNL A   1      39.953  35.369  38.609  1.00  0.00     0.091 A 
ATOM     56  F   UNL A   1      40.857  35.105  36.419  1.00  0.00    -0.205 F 
ATOM     57  C   UNL A   1      39.111  34.897  39.625  1.00  0.00     0.022 A 
BRANCH  55  58
ATOM     58  S   UNL A   1      40.930  36.841  38.937  1.00  0.00     0.127 S 
ATOM     59  O   UNL A   1      41.870  36.833  37.821  1.00  0.00    -0.237 OA
ATOM     60  O   UNL A   1      39.921  37.901  38.887  1.00  0.00    -0.237 OA
ATOM     61  O   UNL A   1      41.500  36.631  40.262  1.00  0.00    -0.744 OA
ENDBRANCH  55  58
ENDBRANCH  27  51
BRANCH  39  62
ATOM     62  C   UNL A   1      44.230  28.650  35.510  1.00  0.00     0.023 A 
ATOM     63  C   UNL A   1      45.513  29.172  35.247  1.00  0.00     0.012 A 
ATOM     64  C   UNL A   1      44.077  27.640  36.477  1.00  0.00     0.148 A 
ATOM     65  C   UNL A   1      46.631  28.667  35.907  1.00  0.00     0.002 A 
ATOM     66  C   UNL A   1      45.191  27.173  37.164  1.00  0.00     0.091 A 
ATOM     67  F   UNL A   1      42.851  27.140  36.694  1.00  0.00    -0.205 F 
ATOM     68  C   UNL A   1      46.469  27.675  36.871  1.00  0.00     0.022 A 
BRANCH  66  69
ATOM     69  S   UNL A   1      45.060  25.956  38.479  1.00  0.00     0.127 S 
ATOM     70  O   UNL A   1      44.351  24.868  37.809  1.00  0.00    -0.237 OA
ATOM     71  O   UNL A   1      46.462  25.673  38.785  1.00  0.00    -0.237 OA
ATOM     72  O   UNL A   1      44.333  26.615  39.555  1.00  0.00    -0.744 OA
ENDBRANCH  66  69
ENDBRANCH  39  62
ENDBRANCH  13  14
ENDBRANCH   6   8
ENDBRANCH   3   4
ENDBRANCH   2   3
ENDBRANCH   1   2
BRANCH   1  73
ATOM     73  C   UNL A   1      33.621  29.255  26.991  1.00  0.00     0.116 C 
BRANCH  73  74
ATOM     74  N   UNL A   1      32.240  29.474  26.634  1.00  0.00    -0.352 N 
ATOM     75  C   UNL A   1      31.831  29.710  25.355  1.00  0.00     0.251 C 
ATOM     76  H   UNL A   1      31.562  29.450  27.346  1.00  0.00     0.163 HD
ATOM     77  O   UNL A   1      31.007  30.591  25.135  1.00  0.00    -0.269 OA
BRANCH  75  78
ATOM     78  C   UNL A   1      32.442  28.919  24.256  1.00  0.00     0.047 A 
ATOM     79  C   UNL A   1      33.726  29.323  23.858  1.00  0.00     0.014 A 
ATOM     80  C   UNL A   1      31.791  27.834  23.618  1.00  0.00    -0.005 A 
ATOM     81  C   UNL A   1      34.403  28.639  22.853  1.00  0.00     0.001 A 
ATOM     82  C   UNL A   1      32.512  27.157  22.609  1.00  0.00     0.009 A 
ATOM     83  C   UNL A   1      33.801  27.549  22.235  1.00  0.00     0.001 A 
BRANCH  80  84
ATOM     84  C   UNL A   1      30.449  27.312  23.984  1.00  0.00    -0.005 A 
ATOM     85  C   UNL A   1      29.363  27.785  23.195  1.00  0.00     0.009 A 
ATOM     86  C   UNL A   1      30.160  26.345  24.974  1.00  0.00     0.047 A 
ATOM     87  C   UNL A   1      28.064  27.292  23.327  1.00  0.00     0.001 A 
ATOM     88  C   UNL A   1      28.831  25.870  25.101  1.00  0.00     0.014 A 
ATOM     89  C   UNL A   1      27.798  26.328  24.282  1.00  0.00     0.001 A 
BRANCH  86  90
ATOM     90  C   UNL A   1      31.161  25.614  25.822  1.00  0.00     0.254 C 
ATOM     91  O   UNL A   1      31.527  26.149  26.872  1.00  0.00    -0.269 OA
ATOM     92  N   UNL A   1      31.592  24.338  25.484  1.00  0.00    -0.327 N 
ATOM     93  C   UNL A   1      31.974  23.469  26.588  1.00  0.00     0.181 C 
ATOM     94  C   UNL A   1      32.304  24.053  24.246  1.00  0.00     0.181 C 
ATOM     95  C   UNL A   1      31.841  21.976  26.223  1.00  0.00     0.284 C 
ATOM     96  C   UNL A   1      32.333  22.543  23.884  1.00  0.00     0.284 C 
ATOM     97  N   UNL A   1      32.475  21.551  24.962  1.00  0.00    -0.328 N 
ATOM     98  H   UNL A   1      31.923  20.763  24.625  1.00  0.00     0.348 HD
BRANCH  97  99
ATOM     99  C   UNL A   1      33.782  20.905  25.108  1.00  0.00     0.299 C 
BRANCH  99 100
ATOM    100  C   UNL A   1      33.790  19.451  24.700  1.00  0.00     0.010 A 
ATOM    101  C   UNL A   1      35.022  18.799  24.466  1.00  0.00     0.013 A 
ATOM    102  C   UNL A   1      32.605  18.706  24.811  1.00  0.00     0.060 A 
ATOM    103  C   UNL A   1      35.108  17.408  24.532  1.00  0.00     0.051 A 
ATOM    104  C   UNL A   1      32.735  17.346  24.944  1.00  0.00     0.166 A 
ATOM    105  C   UNL A   1      33.956  16.719  24.845  1.00  0.00     0.165 A 
ATOM    106  O   UNL A   1      31.757  16.503  25.377  1.00  0.00    -0.454 OA
ATOM    107  O   UNL A   1      33.884  15.408  25.208  1.00  0.00    -0.454 OA
ATOM    108  C   UNL A   1      32.570  15.395  25.812  1.00  0.00     0.468 C 
ENDBRANCH  99 100
ENDBRANCH  97  99
ENDBRANCH  86  90
ENDBRANCH  80  84
ENDBRANCH  75  78
ENDBRANCH  73  74
ENDBRANCH   1  73
TORSDOF 18
ENDMDL
MODEL 2
REMARK VINA RESULT:     -12.4      2.224      7.715
REMARK SMILES O=C(NCCCCNC(=O)c1ccccc1-c1ccccc1C(=O)N1CC[NH+](Cc2ccc3c(c2)OCO3)CC1)c1ccc(-c2c3nc(c(-c4cccc(S(=O)(=O)[O-])c4F)c4ccc([nH]4)c(-c4cccc(S(=O)(=O)[O-])c4F)c4nc(c(-c5cccc(S(=O)(=O)[O-])c5F)c5ccc2[nH]5)C=C4)C=C3)cc1
REMARK SMILES IDX 6 1 5 2 4 3 3 4 1 5 2 6 41 8 42 9 103 10 43 11 102 12 44 13
REMARK SMILES IDX 45 14 46 15 96 16 47 17 101 18 95 19 97 20 48 21 100 22
REMARK SMILES IDX 94 23 93 24 49 26 81 27 61 28 80 29 62 30 65 31 79 32 98 33
REMARK SMILES IDX 63 34 64 35 78 37 99 38 66 39 50 40 51 41 59 42 52 43 54 44
REMARK SMILES IDX 60 45 53 46 55 47 56 48 57 49 58 50 82 51 83 52 91 53 84 54
REMARK SMILES IDX 86 55 92 56 85 57 87 58 88 59 89 60 90 61 67 62 68 63 76 64
REMARK SMILES IDX 69 65 71 66 77 67 70 68 72 69 73 70 74 71 75 72 7 73 8 74
REMARK SMILES IDX 9 75 10 77 11 78 12 79 16 80 13 81 15 82 14 83 17 84 18 85
REMARK SMILES IDX 22 86 19 87 21 88 20 89 23 90 24 91 25 92 26 93 40 94 27 95
REMARK SMILES IDX 39 96 28 97 29 99 30 100 31 101 35 102 32 103 34 104 33 105
REMARK SMILES IDX 36 106 38 107 37 108
REMARK H PARENT 3 7 97 25 65 36 8 76 28 98
REMARK Flexibility Score: inf
ROOT
ATOM      1  C   UNL A   1      32.100  30.700  26.920  1.00  0.00     0.023 C 
ENDROOT
BRANCH   1   2
ATOM      2  C   UNL A   1      33.237  31.318  27.728  1.00  0.00     0.023 C 
BRANCH   2   3
ATOM      3  C   UNL A   1      33.756  32.631  27.164  1.00  0.00     0.116 C 
BRANCH   3   4
ATOM      4  N   UNL A   1      33.042  33.791  27.684  1.00  0.00    -0.352 N 
ATOM      5  O   UNL A   1      32.530  35.386  29.199  1.00  0.00    -0.269 OA
ATOM      6  C   UNL A   1      33.269  34.485  28.849  1.00  0.00     0.251 C 
ATOM      7  H   UNL A   1      32.300  34.122  27.128  1.00  0.00     0.163 HD
BRANCH   6   8
ATOM      8  C   UNL A   1      34.416  34.059  29.668  1.00  0.00     0.039 A 
ATOM      9  C   UNL A   1      35.704  34.419  29.268  1.00  0.00     0.014 A 
ATOM     10  C   UNL A   1      34.202  33.185  30.732  1.00  0.00     0.014 A 
ATOM     11  C   UNL A   1      36.786  33.769  29.833  1.00  0.00     0.010 A 
ATOM     12  C   UNL A   1      35.302  32.620  31.376  1.00  0.00     0.010 A 
ATOM     13  C   UNL A   1      36.599  32.881  30.909  1.00  0.00    -0.014 A 
BRANCH  13  14
ATOM     14  C   UNL A   1      37.798  32.326  31.580  1.00  0.00     0.031 A 
ATOM     15  C   UNL A   1      38.257  32.818  32.921  1.00  0.00     0.074 A 
ATOM     16  C   UNL A   1      38.451  31.332  30.948  1.00  0.00     0.049 A 
ATOM     17  N   UNL A   1      39.266  32.399  33.641  1.00  0.00    -0.248 NA
ATOM     18  C   UNL A   1      37.508  33.928  33.532  1.00  0.00     0.031 C 
ATOM     19  C   UNL A   1      38.113  30.824  29.613  1.00  0.00     0.029 A 
ATOM     20  N   UNL A   1      39.512  30.560  31.335  1.00  0.00    -0.354 N 
ATOM     21  C   UNL A   1      39.299  33.211  34.768  1.00  0.00     0.074 A 
ATOM     22  C   UNL A   1      38.212  34.158  34.635  1.00  0.00     0.031 C 
ATOM     23  C   UNL A   1      38.914  29.795  29.316  1.00  0.00     0.029 A 
ATOM     24  C   UNL A   1      39.867  29.616  30.403  1.00  0.00     0.049 A 
ATOM     25  H   UNL A   1      39.975  30.671  32.197  1.00  0.00     0.167 HD
ATOM     26  C   UNL A   1      40.150  33.157  35.821  1.00  0.00     0.034 A 
ATOM     27  C   UNL A   1      40.862  28.711  30.411  1.00  0.00     0.034 A 
ATOM     28  C   UNL A   1      41.205  32.184  35.951  1.00  0.00     0.049 A 
ATOM     29  C   UNL A   1      41.747  28.638  31.616  1.00  0.00     0.074 A 
ATOM     30  C   UNL A   1      42.105  32.022  36.989  1.00  0.00     0.029 A 
ATOM     31  N   UNL A   1      41.498  31.203  35.015  1.00  0.00    -0.354 N 
ATOM     32  N   UNL A   1      41.700  29.354  32.714  1.00  0.00    -0.248 NA
ATOM     33  C   UNL A   1      42.804  27.621  31.601  1.00  0.00     0.031 C 
ATOM     34  C   UNL A   1      42.946  30.949  36.677  1.00  0.00     0.029 A 
ATOM     35  C   UNL A   1      42.561  30.430  35.453  1.00  0.00     0.049 A 
ATOM     36  H   UNL A   1      41.020  31.074  34.163  1.00  0.00     0.167 HD
ATOM     37  C   UNL A   1      42.717  28.872  33.524  1.00  0.00     0.074 A 
ATOM     38  C   UNL A   1      43.331  27.769  32.808  1.00  0.00     0.031 C 
ATOM     39  C   UNL A   1      43.129  29.317  34.736  1.00  0.00     0.034 A 
BRANCH  26  40
ATOM     40  C   UNL A   1      39.951  34.144  36.944  1.00  0.00     0.023 A 
ATOM     41  C   UNL A   1      40.271  35.501  36.735  1.00  0.00     0.012 A 
ATOM     42  C   UNL A   1      39.374  33.751  38.169  1.00  0.00     0.148 A 
ATOM     43  C   UNL A   1      40.041  36.447  37.734  1.00  0.00     0.002 A 
ATOM     44  C   UNL A   1      39.113  34.707  39.146  1.00  0.00     0.091 A 
ATOM     45  F   UNL A   1      39.094  32.455  38.358  1.00  0.00    -0.205 F 
ATOM     46  C   UNL A   1      39.453  36.053  38.933  1.00  0.00     0.022 A 
BRANCH  44  47
ATOM     47  S   UNL A   1      38.293  34.316  40.697  1.00  0.00     0.127 S 
ATOM     48  O   UNL A   1      39.326  33.549  41.392  1.00  0.00    -0.237 OA
ATOM     49  O   UNL A   1      38.041  35.644  41.256  1.00  0.00    -0.237 OA
ATOM     50  O   UNL A   1      37.095  33.570  40.340  1.00  0.00    -0.744 OA
ENDBRANCH  44  47
ENDBRANCH  26  40
BRANCH  27  51
ATOM     51  C   UNL A   1      41.030  27.796  29.248  1.00  0.00     0.023 A 
ATOM     52  C   UNL A   1      40.314  26.585  29.204  1.00  0.00     0.012 A 
ATOM     53  C   UNL A   1      41.837  28.158  28.151  1.00  0.00     0.148 A 
ATOM     54  C   UNL A   1      40.416  25.742  28.097  1.00  0.00     0.002 A 
ATOM     55  C   UNL A   1      41.879  27.346  27.025  1.00  0.00     0.091 A 
ATOM     56  F   UNL A   1      42.526  29.305  28.217  1.00  0.00    -0.205 F 
ATOM     57  C   UNL A   1      41.185  26.129  27.002  1.00  0.00     0.022 A 
BRANCH  55  58
ATOM     58  S   UNL A   1      42.709  27.873  25.520  1.00  0.00     0.127 S 
ATOM     59  O   UNL A   1      44.057  28.156  26.004  1.00  0.00    -0.237 OA
ATOM     60  O   UNL A   1      42.596  26.686  24.671  1.00  0.00    -0.237 OA
ATOM     61  O   UNL A   1      41.942  29.016  25.044  1.00  0.00    -0.744 OA
ENDBRANCH  55  58
ENDBRANCH  27  51
BRANCH  39  62
ATOM     62  C   UNL A   1      44.300  28.604  35.355  1.00  0.00     0.023 A 
ATOM     63  C   UNL A   1      45.609  28.951  34.962  1.00  0.00     0.012 A 
ATOM     64  C   UNL A   1      44.110  27.618  36.340  1.00  0.00     0.148 A 
ATOM     65  C   UNL A   1      46.709  28.297  35.511  1.00  0.00     0.002 A 
ATOM     66  C   UNL A   1      45.215  27.002  36.917  1.00  0.00     0.091 A 
ATOM     67  F   UNL A   1      42.856  27.285  36.682  1.00  0.00    -0.205 F 
ATOM     68  C   UNL A   1      46.514  27.331  36.494  1.00  0.00     0.022 A 
BRANCH  66  69
ATOM     69  S   UNL A   1      45.054  25.808  38.248  1.00  0.00     0.127 S 
ATOM     70  O   UNL A   1      44.230  26.539  39.208  1.00  0.00    -0.237 OA
ATOM     71  O   UNL A   1      44.376  24.692  37.587  1.00  0.00    -0.237 OA
ATOM     72  O   UNL A   1      46.414  25.512  38.679  1.00  0.00    -0.744 OA
ENDBRANCH  66  69
ENDBRANCH  39  62
ENDBRANCH  13  14
ENDBRANCH   6   8
ENDBRANCH   3   4
ENDBRANCH   2   3
ENDBRANCH   1   2
BRANCH   1  73
ATOM     73  C   UNL A   1      31.969  29.192  27.110  1.00  0.00     0.116 C 
BRANCH  73  74
ATOM     74  N   UNL A   1      33.201  28.546  26.728  1.00  0.00    -0.352 N 
ATOM     75  C   UNL A   1      33.256  27.515  25.837  1.00  0.00     0.251 C 
ATOM     76  H   UNL A   1      34.042  28.864  27.129  1.00  0.00     0.163 HD
ATOM     77  O   UNL A   1      33.965  26.543  26.077  1.00  0.00    -0.269 OA
BRANCH  75  78
ATOM     78  C   UNL A   1      32.408  27.583  24.619  1.00  0.00     0.047 A 
ATOM     79  C   UNL A   1      32.693  28.640  23.740  1.00  0.00     0.014 A 
ATOM     80  C   UNL A   1      31.362  26.668  24.342  1.00  0.00    -0.005 A 
ATOM     81  C   UNL A   1      31.976  28.787  22.557  1.00  0.00     0.001 A 
ATOM     82  C   UNL A   1      30.662  26.843  23.127  1.00  0.00     0.009 A 
ATOM     83  C   UNL A   1      30.967  27.883  22.245  1.00  0.00     0.001 A 
BRANCH  80  84
ATOM     84  C   UNL A   1      31.003  25.503  25.192  1.00  0.00    -0.005 A 
ATOM     85  C   UNL A   1      29.874  25.678  26.040  1.00  0.00     0.009 A 
ATOM     86  C   UNL A   1      31.617  24.229  25.181  1.00  0.00     0.047 A 
ATOM     87  C   UNL A   1      29.333  24.640  26.799  1.00  0.00     0.001 A 
ATOM     88  C   UNL A   1      31.059  23.193  25.971  1.00  0.00     0.014 A 
ATOM     89  C   UNL A   1      29.926  23.391  26.761  1.00  0.00     0.001 A 
BRANCH  86  90
ATOM     90  C   UNL A   1      32.725  23.783  24.271  1.00  0.00     0.254 C 
ATOM     91  O   UNL A   1      32.613  24.023  23.066  1.00  0.00    -0.269 OA
ATOM     92  N   UNL A   1      33.881  23.203  24.778  1.00  0.00    -0.327 N 
ATOM     93  C   UNL A   1      35.102  23.416  24.015  1.00  0.00     0.181 C 
ATOM     94  C   UNL A   1      33.869  21.949  25.519  1.00  0.00     0.181 C 
ATOM     95  C   UNL A   1      36.363  23.299  24.896  1.00  0.00     0.284 C 
ATOM     96  C   UNL A   1      35.172  21.695  26.323  1.00  0.00     0.284 C 
ATOM     97  N   UNL A   1      36.462  22.096  25.741  1.00  0.00    -0.328 N 
ATOM     98  H   UNL A   1      37.007  22.375  26.557  1.00  0.00     0.348 HD
BRANCH  97  99
ATOM     99  C   UNL A   1      37.319  21.031  25.212  1.00  0.00     0.299 C 
BRANCH  99 100
ATOM    100  C   UNL A   1      38.770  21.168  25.605  1.00  0.00     0.010 A 
ATOM    101  C   UNL A   1      39.164  22.217  26.467  1.00  0.00     0.013 A 
ATOM    102  C   UNL A   1      39.653  20.113  25.327  1.00  0.00     0.060 A 
ATOM    103  C   UNL A   1      40.350  22.126  27.195  1.00  0.00     0.051 A 
ATOM    104  C   UNL A   1      40.775  20.016  26.112  1.00  0.00     0.166 A 
ATOM    105  C   UNL A   1      41.094  20.976  27.045  1.00  0.00     0.165 A 
ATOM    106  O   UNL A   1      41.569  18.914  26.214  1.00  0.00    -0.454 OA
ATOM    107  O   UNL A   1      42.125  20.584  27.844  1.00  0.00    -0.454 OA
ATOM    108  C   UNL A   1      42.190  19.184  27.487  1.00  0.00     0.468 C 
ENDBRANCH  99 100
ENDBRANCH  97  99
ENDBRANCH  86  90
ENDBRANCH  80  84
ENDBRANCH  75  78
ENDBRANCH  73  74
ENDBRANCH   1  73
TORSDOF 18
ENDMDL
MODEL 3
REMARK VINA RESULT:     -11.5      9.904     16.481
REMARK SMILES O=C(NCCCCNC(=O)c1ccccc1-c1ccccc1C(=O)N1CC[NH+](Cc2ccc3c(c2)OCO3)CC1)c1ccc(-c2c3nc(c(-c4cccc(S(=O)(=O)[O-])c4F)c4ccc([nH]4)c(-c4cccc(S(=O)(=O)[O-])c4F)c4nc(c(-c5cccc(S(=O)(=O)[O-])c5F)c5ccc2[nH]5)C=C4)C=C3)cc1
REMARK SMILES IDX 6 1 5 2 4 3 3 4 1 5 2 6 41 8 42 9 103 10 43 11 102 12 44 13
REMARK SMILES IDX 45 14 46 15 96 16 47 17 101 18 95 19 97 20 48 21 100 22
REMARK SMILES IDX 94 23 93 24 49 26 81 27 61 28 80 29 62 30 65 31 79 32 98 33
REMARK SMILES IDX 63 34 64 35 78 37 99 38 66 39 50 40 51 41 59 42 52 43 54 44
REMARK SMILES IDX 60 45 53 46 55 47 56 48 57 49 58 50 82 51 83 52 91 53 84 54
REMARK SMILES IDX 86 55 92 56 85 57 87 58 88 59 89 60 90 61 67 62 68 63 76 64
REMARK SMILES IDX 69 65 71 66 77 67 70 68 72 69 73 70 74 71 75 72 7 73 8 74
REMARK SMILES IDX 9 75 10 77 11 78 12 79 16 80 13 81 15 82 14 83 17 84 18 85
REMARK SMILES IDX 22 86 19 87 21 88 20 89 23 90 24 91 25 92 26 93 40 94 27 95
REMARK SMILES IDX 39 96 28 97 29 99 30 100 31 101 35 102 32 103 34 104 33 105
REMARK SMILES IDX 36 106 38 107 37 108
REMARK H PARENT 3 7 97 25 65 36 8 76 28 98
REMARK Flexibility Score: inf
ROOT
ATOM      1  C   UNL A   1      43.075  39.444  29.035  1.00  0.00     0.023 C 
ENDROOT
BRANCH   1   2
ATOM      2  C   UNL A   1      44.128  39.257  30.123  1.00  0.00     0.023 C 
BRANCH   2   3
ATOM      3  C   UNL A   1      44.513  37.808  30.371  1.00  0.00     0.116 C 
BRANCH   3   4
ATOM      4  N   UNL A   1      45.955  37.614  30.466  1.00  0.00    -0.352 N 
ATOM      5  O   UNL A   1      47.875  36.426  30.513  1.00  0.00    -0.269 OA
ATOM      6  C   UNL A   1      46.674  36.453  30.316  1.00  0.00     0.251 C 
ATOM      7  H   UNL A   1      46.483  38.421  30.663  1.00  0.00     0.163 HD
BRANCH   6   8
ATOM      8  C   UNL A   1      45.920  35.242  29.953  1.00  0.00     0.039 A 
ATOM      9  C   UNL A   1      45.835  34.196  30.873  1.00  0.00     0.014 A 
ATOM     10  C   UNL A   1      45.440  35.107  28.651  1.00  0.00     0.014 A 
ATOM     11  C   UNL A   1      45.416  32.952  30.434  1.00  0.00     0.010 A 
ATOM     12  C   UNL A   1      44.910  33.882  28.248  1.00  0.00     0.010 A 
ATOM     13  C   UNL A   1      44.926  32.788  29.125  1.00  0.00    -0.014 A 
BRANCH  13  14
ATOM     14  C   UNL A   1      44.348  31.476  28.750  1.00  0.00     0.031 A 
ATOM     15  C   UNL A   1      45.133  30.453  27.983  1.00  0.00     0.074 A 
ATOM     16  C   UNL A   1      43.088  31.221  29.152  1.00  0.00     0.049 A 
ATOM     17  N   UNL A   1      44.768  29.251  27.619  1.00  0.00    -0.248 NA
ATOM     18  C   UNL A   1      46.492  30.819  27.553  1.00  0.00     0.031 C 
ATOM     19  C   UNL A   1      42.224  32.178  29.855  1.00  0.00     0.029 A 
ATOM     20  N   UNL A   1      42.319  30.095  29.052  1.00  0.00    -0.354 N 
ATOM     21  C   UNL A   1      45.828  28.730  26.889  1.00  0.00     0.074 A 
ATOM     22  C   UNL A   1      46.854  29.750  26.852  1.00  0.00     0.031 C 
ATOM     23  C   UNL A   1      41.068  31.582  30.167  1.00  0.00     0.029 A 
ATOM     24  C   UNL A   1      41.078  30.230  29.626  1.00  0.00     0.049 A 
ATOM     25  H   UNL A   1      42.625  29.269  28.612  1.00  0.00     0.167 HD
ATOM     26  C   UNL A   1      45.938  27.506  26.318  1.00  0.00     0.034 A 
ATOM     27  C   UNL A   1      40.050  29.366  29.697  1.00  0.00     0.034 A 
ATOM     28  C   UNL A   1      44.918  26.490  26.395  1.00  0.00     0.049 A 
ATOM     29  C   UNL A   1      40.226  28.001  29.108  1.00  0.00     0.074 A 
ATOM     30  C   UNL A   1      44.939  25.207  25.877  1.00  0.00     0.029 A 
ATOM     31  N   UNL A   1      43.697  26.640  27.037  1.00  0.00    -0.354 N 
ATOM     32  N   UNL A   1      41.275  27.496  28.505  1.00  0.00    -0.248 NA
ATOM     33  C   UNL A   1      39.094  27.077  29.229  1.00  0.00     0.031 C 
ATOM     34  C   UNL A   1      43.728  24.584  26.199  1.00  0.00     0.029 A 
ATOM     35  C   UNL A   1      42.958  25.473  26.932  1.00  0.00     0.049 A 
ATOM     36  H   UNL A   1      43.399  27.456  27.499  1.00  0.00     0.167 HD
ATOM     37  C   UNL A   1      40.933  26.193  28.178  1.00  0.00     0.074 A 
ATOM     38  C   UNL A   1      39.596  25.972  28.695  1.00  0.00     0.031 C 
ATOM     39  C   UNL A   1      41.644  25.269  27.486  1.00  0.00     0.034 A 
BRANCH  26  40
ATOM     40  C   UNL A   1      47.221  27.171  25.599  1.00  0.00     0.023 A 
ATOM     41  C   UNL A   1      48.209  26.418  26.266  1.00  0.00     0.012 A 
ATOM     42  C   UNL A   1      47.417  27.525  24.249  1.00  0.00     0.148 A 
ATOM     43  C   UNL A   1      49.380  26.042  25.607  1.00  0.00     0.002 A 
ATOM     44  C   UNL A   1      48.570  27.113  23.588  1.00  0.00     0.091 A 
ATOM     45  F   UNL A   1      46.476  28.257  23.637  1.00  0.00    -0.205 F 
ATOM     46  C   UNL A   1      49.556  26.379  24.268  1.00  0.00     0.022 A 
BRANCH  44  47
ATOM     47  S   UNL A   1      48.860  27.433  21.843  1.00  0.00     0.127 S 
ATOM     48  O   UNL A   1      48.281  26.241  21.225  1.00  0.00    -0.237 OA
ATOM     49  O   UNL A   1      48.098  28.663  21.625  1.00  0.00    -0.237 OA
ATOM     50  O   UNL A   1      50.301  27.577  21.695  1.00  0.00    -0.744 OA
ENDBRANCH  44  47
ENDBRANCH  26  40
BRANCH  27  51
ATOM     51  C   UNL A   1      38.794  29.777  30.383  1.00  0.00     0.023 A 
ATOM     52  C   UNL A   1      38.597  29.447  31.736  1.00  0.00     0.012 A 
ATOM     53  C   UNL A   1      37.829  30.560  29.719  1.00  0.00     0.148 A 
ATOM     54  C   UNL A   1      37.452  29.871  32.410  1.00  0.00     0.002 A 
ATOM     55  C   UNL A   1      36.725  31.036  30.416  1.00  0.00     0.091 A 
ATOM     56  F   UNL A   1      38.022  30.850  28.425  1.00  0.00    -0.205 F 
ATOM     57  C   UNL A   1      36.524  30.679  31.756  1.00  0.00     0.022 A 
BRANCH  55  58
ATOM     58  S   UNL A   1      35.590  32.220  29.679  1.00  0.00     0.127 S 
ATOM     59  O   UNL A   1      34.605  32.392  30.741  1.00  0.00    -0.237 OA
ATOM     60  O   UNL A   1      36.456  33.377  29.446  1.00  0.00    -0.237 OA
ATOM     61  O   UNL A   1      35.116  31.581  28.458  1.00  0.00    -0.744 OA
ENDBRANCH  55  58
ENDBRANCH  27  51
BRANCH  39  62
ATOM     62  C   UNL A   1      40.980  23.940  27.254  1.00  0.00     0.023 A 
ATOM     63  C   UNL A   1      41.531  22.779  27.835  1.00  0.00     0.012 A 
ATOM     64  C   UNL A   1      39.800  23.842  26.494  1.00  0.00     0.148 A 
ATOM     65  C   UNL A   1      40.941  21.535  27.626  1.00  0.00     0.002 A 
ATOM     66  C   UNL A   1      39.192  22.603  26.328  1.00  0.00     0.091 A 
ATOM     67  F   UNL A   1      39.305  24.954  25.930  1.00  0.00    -0.205 F 
ATOM     68  C   UNL A   1      39.768  21.448  26.882  1.00  0.00     0.022 A 
BRANCH  66  69
ATOM     69  S   UNL A   1      37.634  22.416  25.455  1.00  0.00     0.127 S 
ATOM     70  O   UNL A   1      37.664  21.001  25.090  1.00  0.00    -0.237 OA
ATOM     71  O   UNL A   1      36.653  22.759  26.485  1.00  0.00    -0.237 OA
ATOM     72  O   UNL A   1      37.688  23.356  24.343  1.00  0.00    -0.744 OA
ENDBRANCH  66  69
ENDBRANCH  39  62
ENDBRANCH  13  14
ENDBRANCH   6   8
ENDBRANCH   3   4
ENDBRANCH   2   3
ENDBRANCH   1   2
BRANCH   1  73
ATOM     73  C   UNL A   1      42.951  40.885  28.548  1.00  0.00     0.116 C 
BRANCH  73  74
ATOM     74  N   UNL A   1      42.652  40.896  27.137  1.00  0.00    -0.352 N 
ATOM     75  C   UNL A   1      43.541  41.313  26.191  1.00  0.00     0.251 C 
ATOM     76  H   UNL A   1      41.764  40.589  26.842  1.00  0.00     0.163 HD
ATOM     77  O   UNL A   1      43.160  42.039  25.279  1.00  0.00    -0.269 OA
BRANCH  75  78
ATOM     78  C   UNL A   1      44.965  40.910  26.328  1.00  0.00     0.047 A 
ATOM     79  C   UNL A   1      45.237  39.554  26.090  1.00  0.00     0.014 A 
ATOM     80  C   UNL A   1      46.000  41.807  26.691  1.00  0.00    -0.005 A 
ATOM     81  C   UNL A   1      46.539  39.070  26.168  1.00  0.00     0.001 A 
ATOM     82  C   UNL A   1      47.310  41.283  26.751  1.00  0.00     0.009 A 
ATOM     83  C   UNL A   1      47.578  39.937  26.489  1.00  0.00     0.001 A 
BRANCH  80  84
ATOM     84  C   UNL A   1      45.820  43.262  26.934  1.00  0.00    -0.005 A 
ATOM     85  C   UNL A   1      45.327  43.620  28.220  1.00  0.00     0.009 A 
ATOM     86  C   UNL A   1      46.160  44.314  26.053  1.00  0.00     0.047 A 
ATOM     87  C   UNL A   1      45.227  44.944  28.648  1.00  0.00     0.001 A 
ATOM     88  C   UNL A   1      46.036  45.652  26.502  1.00  0.00     0.014 A 
ATOM     89  C   UNL A   1      45.587  45.964  27.786  1.00  0.00     0.001 A 
BRANCH  86  90
ATOM     90  C   UNL A   1      46.820  44.172  24.711  1.00  0.00     0.254 C 
ATOM     91  O   UNL A   1      48.048  44.267  24.659  1.00  0.00    -0.269 OA
ATOM     92  N   UNL A   1      46.081  43.852  23.579  1.00  0.00    -0.327 N 
ATOM     93  C   UNL A   1      46.774  43.098  22.544  1.00  0.00     0.181 C 
ATOM     94  C   UNL A   1      45.023  44.710  23.064  1.00  0.00     0.181 C 
ATOM     95  C   UNL A   1      45.800  42.285  21.668  1.00  0.00     0.284 C 
ATOM     96  C   UNL A   1      44.080  43.993  22.061  1.00  0.00     0.284 C 
ATOM     97  N   UNL A   1      44.647  43.018  21.116  1.00  0.00    -0.328 N 
ATOM     98  H   UNL A   1      43.901  42.330  21.019  1.00  0.00     0.348 HD
BRANCH  97  99
ATOM     99  C   UNL A   1      44.788  43.443  19.721  1.00  0.00     0.299 C 
BRANCH  99 100
ATOM    100  C   UNL A   1      44.164  44.786  19.429  1.00  0.00     0.010 A 
ATOM    101  C   UNL A   1      44.914  45.965  19.643  1.00  0.00     0.013 A 
ATOM    102  C   UNL A   1      42.959  44.835  18.711  1.00  0.00     0.060 A 
ATOM    103  C   UNL A   1      44.570  47.149  18.990  1.00  0.00     0.051 A 
ATOM    104  C   UNL A   1      42.690  45.994  18.023  1.00  0.00     0.166 A 
ATOM    105  C   UNL A   1      43.494  47.106  18.131  1.00  0.00     0.165 A 
ATOM    106  O   UNL A   1      41.761  46.122  17.036  1.00  0.00    -0.454 OA
ATOM    107  O   UNL A   1      43.162  48.061  17.218  1.00  0.00    -0.454 OA
ATOM    108  C   UNL A   1      42.281  47.290  16.369  1.00  0.00     0.468 C 
ENDBRANCH  99 100
ENDBRANCH  97  99
ENDBRANCH  86  90
ENDBRANCH  80  84
ENDBRANCH  75  78
ENDBRANCH  73  74
ENDBRANCH   1  73
TORSDOF 18
ENDMDL
