MODEL 1
REMARK VINA RESULT:     -12.6      0.000      0.000
REMARK SMILES C[C@@]1(C(=O)c2ccccc2N)[C@H](C(=O)NCCCCNC(=O)c2ccc(-c3c4nc(c(-c5cccc(S(=O)(=O)[O-])c5F)c5ccc([nH]5)c(-c5cccc(S(=O)(=O)[O-])c5F)c5nc(c(-c6cccc(S(=O)(=O)[O-])c6F)c6ccc3[nH]6)C=C5)C=C4)cc2)[C@@H]1C(=O)N1CCOCC1
REMARK SMILES IDX 17 1 16 2 15 3 13 4 14 5 12 7 1 8 2 9 86 10 3 11 4 12 5 13
REMARK SMILES IDX 6 14 10 15 7 16 9 17 8 18 11 19 87 22 88 23 89 24 90 25
REMARK SMILES IDX 94 26 91 27 93 28 92 29 18 30 19 31 20 32 21 33 22 35 23 36
REMARK SMILES IDX 24 37 85 38 25 39 84 40 26 41 27 42 28 43 78 44 29 45 83 46
REMARK SMILES IDX 77 47 79 48 30 49 82 50 76 51 75 52 31 54 63 55 43 56 62 57
REMARK SMILES IDX 44 58 47 59 61 60 80 61 45 62 46 63 60 65 81 66 48 67 32 68
REMARK SMILES IDX 33 69 41 70 34 71 36 72 42 73 35 74 37 75 38 76 39 77 40 78
REMARK SMILES IDX 64 79 65 80 73 81 66 82 68 83 74 84 67 85 69 86 70 87 71 88
REMARK SMILES IDX 72 89 49 90 50 91 58 92 51 93 53 94 59 95 52 96 54 97 55 98
REMARK SMILES IDX 56 99 57 100
REMARK H PARENT 15 6 11 20 11 21 20 34 79 53 47 64
REMARK Flexibility Score: inf
ROOT
ATOM      1  C   UNL A   1      34.409  30.011  27.735  1.00  0.00     0.023 C 
ENDROOT
BRANCH   1   2
ATOM      2  C   UNL A   1      34.325  28.904  26.691  1.00  0.00     0.116 C 
BRANCH   2   3
ATOM      3  N   UNL A   1      33.481  29.263  25.579  1.00  0.00    -0.356 N 
ATOM      4  C   UNL A   1      32.158  29.005  25.374  1.00  0.00     0.224 C 
ATOM      5  O   UNL A   1      31.479  29.947  24.960  1.00  0.00    -0.275 OA
ATOM      6  H   UNL A   1      33.926  29.770  24.861  1.00  0.00     0.163 HD
BRANCH   4   7
ATOM      7  C   UNL A   1      31.455  27.708  25.521  1.00  0.00     0.106 C 
ATOM      8  C   UNL A   1      29.597  25.936  25.076  1.00  0.00     0.022 C 
ATOM      9  C   UNL A   1      30.836  26.675  24.561  1.00  0.00     0.056 C 
ATOM     10  C   UNL A   1      32.104  26.389  25.401  1.00  0.00     0.106 C 
BRANCH   9  11
ATOM     11  C   UNL A   1      30.569  27.267  23.199  1.00  0.00     0.172 C 
ATOM     12  O   UNL A   1      31.293  26.842  22.297  1.00  0.00    -0.293 OA
BRANCH  11  13
ATOM     13  C   UNL A   1      29.598  28.356  22.848  1.00  0.00     0.041 A 
ATOM     14  C   UNL A   1      28.245  28.046  23.126  1.00  0.00     0.014 A 
ATOM     15  C   UNL A   1      29.897  29.645  22.389  1.00  0.00     0.042 A 
ATOM     16  C   UNL A   1      27.242  29.018  23.113  1.00  0.00     0.001 A 
ATOM     17  C   UNL A   1      28.874  30.618  22.404  1.00  0.00     0.026 A 
ATOM     18  C   UNL A   1      27.573  30.325  22.808  1.00  0.00     0.002 A 
BRANCH  15  19
ATOM     19  N   UNL A   1      31.049  29.978  21.681  1.00  0.00    -0.398 N 
ATOM     20  H   UNL A   1      31.797  29.340  21.629  1.00  0.00     0.156 HD
ATOM     21  H   UNL A   1      31.117  30.853  21.235  1.00  0.00     0.156 HD
ENDBRANCH  15  19
ENDBRANCH  11  13
ENDBRANCH   9  11
BRANCH  10  22
ATOM     22  C   UNL A   1      33.312  25.857  24.757  1.00  0.00     0.227 C 
ATOM     23  O   UNL A   1      34.003  26.669  24.145  1.00  0.00    -0.275 OA
ATOM     24  N   UNL A   1      33.587  24.508  24.699  1.00  0.00    -0.338 N 
ATOM     25  C   UNL A   1      32.562  23.511  24.384  1.00  0.00     0.148 C 
ATOM     26  C   UNL A   1      34.933  24.139  24.256  1.00  0.00     0.148 C 
ATOM     27  C   UNL A   1      33.008  22.090  24.749  1.00  0.00     0.181 C 
ATOM     28  C   UNL A   1      35.292  22.720  24.678  1.00  0.00     0.181 C 
ATOM     29  O   UNL A   1      34.307  21.789  24.215  1.00  0.00    -0.378 OA
ENDBRANCH  10  22
ENDBRANCH   4   7
ENDBRANCH   2   3
ENDBRANCH   1   2
BRANCH   1  30
ATOM     30  C   UNL A   1      33.376  31.127  27.603  1.00  0.00     0.023 C 
BRANCH  30  31
ATOM     31  C   UNL A   1      33.929  32.507  27.248  1.00  0.00     0.116 C 
BRANCH  31  32
ATOM     32  N   UNL A   1      33.090  33.637  27.653  1.00  0.00    -0.352 N 
ATOM     33  C   UNL A   1      33.264  34.489  28.719  1.00  0.00     0.251 C 
ATOM     34  H   UNL A   1      32.300  33.808  27.091  1.00  0.00     0.163 HD
ATOM     35  O   UNL A   1      32.461  35.390  28.936  1.00  0.00    -0.269 OA
BRANCH  33  36
ATOM     36  C   UNL A   1      34.405  34.263  29.630  1.00  0.00     0.039 A 
ATOM     37  C   UNL A   1      34.181  33.586  30.832  1.00  0.00     0.014 A 
ATOM     38  C   UNL A   1      35.701  34.606  29.235  1.00  0.00     0.014 A 
ATOM     39  C   UNL A   1      35.273  33.147  31.583  1.00  0.00     0.010 A 
ATOM     40  C   UNL A   1      36.785  34.109  29.951  1.00  0.00     0.010 A 
ATOM     41  C   UNL A   1      36.581  33.350  31.114  1.00  0.00    -0.014 A 
BRANCH  41  42
ATOM     42  C   UNL A   1      37.747  32.703  31.770  1.00  0.00     0.031 A 
ATOM     43  C   UNL A   1      38.440  31.539  31.118  1.00  0.00     0.074 A 
ATOM     44  C   UNL A   1      38.087  33.077  33.020  1.00  0.00     0.049 A 
ATOM     45  N   UNL A   1      39.412  30.798  31.583  1.00  0.00    -0.248 NA
ATOM     46  C   UNL A   1      37.956  31.131  29.789  1.00  0.00     0.031 C 
ATOM     47  C   UNL A   1      37.414  34.116  33.806  1.00  0.00     0.029 A 
ATOM     48  N   UNL A   1      39.055  32.601  33.869  1.00  0.00    -0.354 N 
ATOM     49  C   UNL A   1      39.624  29.811  30.629  1.00  0.00     0.074 A 
ATOM     50  C   UNL A   1      38.668  30.036  29.567  1.00  0.00     0.031 C 
ATOM     51  C   UNL A   1      37.982  34.191  35.021  1.00  0.00     0.029 A 
ATOM     52  C   UNL A   1      39.046  33.196  35.111  1.00  0.00     0.049 A 
ATOM     53  H   UNL A   1      39.696  31.899  33.614  1.00  0.00     0.167 HD
ATOM     54  C   UNL A   1      40.549  28.822  30.628  1.00  0.00     0.034 A 
ATOM     55  C   UNL A   1      39.804  32.965  36.200  1.00  0.00     0.034 A 
ATOM     56  C   UNL A   1      41.543  28.647  31.651  1.00  0.00     0.049 A 
ATOM     57  C   UNL A   1      40.893  31.929  36.125  1.00  0.00     0.074 A 
ATOM     58  C   UNL A   1      42.606  27.760  31.673  1.00  0.00     0.029 A 
ATOM     59  N   UNL A   1      41.598  29.368  32.833  1.00  0.00    -0.354 N 
ATOM     60  N   UNL A   1      41.214  31.144  35.126  1.00  0.00    -0.248 NA
ATOM     61  C   UNL A   1      41.752  31.775  37.309  1.00  0.00     0.031 C 
ATOM     62  C   UNL A   1      43.300  27.941  32.873  1.00  0.00     0.029 A 
ATOM     63  C   UNL A   1      42.673  28.945  33.593  1.00  0.00     0.049 A 
ATOM     64  H   UNL A   1      40.966  30.077  33.092  1.00  0.00     0.167 HD
ATOM     65  C   UNL A   1      42.330  30.429  35.546  1.00  0.00     0.074 A 
ATOM     66  C   UNL A   1      42.644  30.891  36.882  1.00  0.00     0.031 C 
ATOM     67  C   UNL A   1      43.017  29.462  34.892  1.00  0.00     0.034 A 
BRANCH  54  68
ATOM     68  C   UNL A   1      40.582  27.891  29.447  1.00  0.00     0.023 A 
ATOM     69  C   UNL A   1      39.679  26.809  29.399  1.00  0.00     0.012 A 
ATOM     70  C   UNL A   1      41.437  28.131  28.354  1.00  0.00     0.148 A 
ATOM     71  C   UNL A   1      39.644  25.965  28.289  1.00  0.00     0.002 A 
ATOM     72  C   UNL A   1      41.370  27.307  27.237  1.00  0.00     0.091 A 
ATOM     73  F   UNL A   1      42.301  29.153  28.431  1.00  0.00    -0.205 F 
ATOM     74  C   UNL A   1      40.480  26.221  27.206  1.00  0.00     0.022 A 
BRANCH  72  75
ATOM     75  S   UNL A   1      42.353  27.591  25.760  1.00  0.00     0.127 S 
ATOM     76  O   UNL A   1      43.713  27.481  26.286  1.00  0.00    -0.237 OA
ATOM     77  O   UNL A   1      41.940  26.484  24.898  1.00  0.00    -0.237 OA
ATOM     78  O   UNL A   1      41.978  28.912  25.275  1.00  0.00    -0.744 OA
ENDBRANCH  72  75
ENDBRANCH  54  68
BRANCH  55  79
ATOM     79  C   UNL A   1      39.615  33.785  37.431  1.00  0.00     0.023 A 
ATOM     80  C   UNL A   1      40.187  35.071  37.495  1.00  0.00     0.012 A 
ATOM     81  C   UNL A   1      38.859  33.316  38.521  1.00  0.00     0.148 A 
ATOM     82  C   UNL A   1      40.039  35.860  38.636  1.00  0.00     0.002 A 
ATOM     83  C   UNL A   1      38.671  34.130  39.635  1.00  0.00     0.091 A 
ATOM     84  F   UNL A   1      38.334  32.085  38.453  1.00  0.00    -0.205 F 
ATOM     85  C   UNL A   1      39.274  35.395  39.702  1.00  0.00     0.022 A 
BRANCH  83  86
ATOM     86  S   UNL A   1      37.582  33.645  40.980  1.00  0.00     0.127 S 
ATOM     87  O   UNL A   1      37.372  34.915  41.669  1.00  0.00    -0.237 OA
ATOM     88  O   UNL A   1      36.413  33.130  40.266  1.00  0.00    -0.237 OA
ATOM     89  O   UNL A   1      38.323  32.628  41.714  1.00  0.00    -0.744 OA
ENDBRANCH  83  86
ENDBRANCH  55  79
BRANCH  67  90
ATOM     90  C   UNL A   1      44.202  28.850  35.590  1.00  0.00     0.023 A 
ATOM     91  C   UNL A   1      45.478  29.420  35.417  1.00  0.00     0.012 A 
ATOM     92  C   UNL A   1      44.037  27.774  36.483  1.00  0.00     0.148 A 
ATOM     93  C   UNL A   1      46.578  28.912  36.107  1.00  0.00     0.002 A 
ATOM     94  C   UNL A   1      45.130  27.301  37.199  1.00  0.00     0.091 A 
ATOM     95  F   UNL A   1      42.817  27.231  36.615  1.00  0.00    -0.205 F 
ATOM     96  C   UNL A   1      46.402  27.863  37.006  1.00  0.00     0.022 A 
BRANCH  94  97
ATOM     97  S   UNL A   1      44.970  26.016  38.444  1.00  0.00     0.127 S 
ATOM     98  O   UNL A   1      43.993  26.604  39.357  1.00  0.00    -0.237 OA
ATOM     99  O   UNL A   1      44.472  24.881  37.665  1.00  0.00    -0.237 OA
ATOM    100  O   UNL A   1      46.308  25.826  38.989  1.00  0.00    -0.744 OA
ENDBRANCH  94  97
ENDBRANCH  67  90
ENDBRANCH  41  42
ENDBRANCH  33  36
ENDBRANCH  31  32
ENDBRANCH  30  31
ENDBRANCH   1  30
TORSDOF 18
ENDMDL
MODEL 2
REMARK VINA RESULT:     -12.5      5.911     12.059
REMARK SMILES C[C@@]1(C(=O)c2ccccc2N)[C@H](C(=O)NCCCCNC(=O)c2ccc(-c3c4nc(c(-c5cccc(S(=O)(=O)[O-])c5F)c5ccc([nH]5)c(-c5cccc(S(=O)(=O)[O-])c5F)c5nc(c(-c6cccc(S(=O)(=O)[O-])c6F)c6ccc3[nH]6)C=C5)C=C4)cc2)[C@@H]1C(=O)N1CCOCC1
REMARK SMILES IDX 17 1 16 2 15 3 13 4 14 5 12 7 1 8 2 9 86 10 3 11 4 12 5 13
REMARK SMILES IDX 6 14 10 15 7 16 9 17 8 18 11 19 87 22 88 23 89 24 90 25
REMARK SMILES IDX 94 26 91 27 93 28 92 29 18 30 19 31 20 32 21 33 22 35 23 36
REMARK SMILES IDX 24 37 85 38 25 39 84 40 26 41 27 42 28 43 78 44 29 45 83 46
REMARK SMILES IDX 77 47 79 48 30 49 82 50 76 51 75 52 31 54 63 55 43 56 62 57
REMARK SMILES IDX 44 58 47 59 61 60 80 61 45 62 46 63 60 65 81 66 48 67 32 68
REMARK SMILES IDX 33 69 41 70 34 71 36 72 42 73 35 74 37 75 38 76 39 77 40 78
REMARK SMILES IDX 64 79 65 80 73 81 66 82 68 83 74 84 67 85 69 86 70 87 71 88
REMARK SMILES IDX 72 89 49 90 50 91 58 92 51 93 53 94 59 95 52 96 54 97 55 98
REMARK SMILES IDX 56 99 57 100
REMARK H PARENT 15 6 11 20 11 21 20 34 79 53 47 64
REMARK Flexibility Score: inf
ROOT
ATOM      1  C   UNL A   1      38.062  23.358  25.754  1.00  0.00     0.023 C 
ENDROOT
BRANCH   1   2
ATOM      2  C   UNL A   1      36.545  23.511  25.764  1.00  0.00     0.116 C 
BRANCH   2   3
ATOM      3  N   UNL A   1      35.868  22.244  25.881  1.00  0.00    -0.356 N 
ATOM      4  C   UNL A   1      35.247  21.499  24.924  1.00  0.00     0.224 C 
ATOM      5  O   UNL A   1      35.486  20.290  24.936  1.00  0.00    -0.275 OA
ATOM      6  H   UNL A   1      35.852  21.860  26.788  1.00  0.00     0.163 HD
BRANCH   4   7
ATOM      7  C   UNL A   1      34.263  21.959  23.914  1.00  0.00     0.106 C 
ATOM      8  C   UNL A   1      32.274  21.738  22.245  1.00  0.00     0.022 C 
ATOM      9  C   UNL A   1      32.745  21.798  23.701  1.00  0.00     0.056 C 
ATOM     10  C   UNL A   1      33.405  23.150  24.070  1.00  0.00     0.106 C 
BRANCH   9  11
ATOM     11  C   UNL A   1      32.191  20.633  24.483  1.00  0.00     0.172 C 
ATOM     12  O   UNL A   1      31.415  20.938  25.390  1.00  0.00    -0.293 OA
BRANCH  11  13
ATOM     13  C   UNL A   1      32.542  19.181  24.336  1.00  0.00     0.041 A 
ATOM     14  C   UNL A   1      32.446  18.687  23.012  1.00  0.00     0.014 A 
ATOM     15  C   UNL A   1      33.042  18.323  25.324  1.00  0.00     0.042 A 
ATOM     16  C   UNL A   1      32.978  17.451  22.641  1.00  0.00     0.001 A 
ATOM     17  C   UNL A   1      33.594  17.087  24.924  1.00  0.00     0.026 A 
ATOM     18  C   UNL A   1      33.609  16.673  23.594  1.00  0.00     0.002 A 
BRANCH  15  19
ATOM     19  N   UNL A   1      32.809  18.478  26.688  1.00  0.00    -0.398 N 
ATOM     20  H   UNL A   1      32.180  17.880  27.152  1.00  0.00     0.156 HD
ATOM     21  H   UNL A   1      33.271  19.189  27.189  1.00  0.00     0.156 HD
ENDBRANCH  15  19
ENDBRANCH  11  13
ENDBRANCH   9  11
BRANCH  10  22
ATOM     22  C   UNL A   1      32.885  23.943  25.190  1.00  0.00     0.227 C 
ATOM     23  O   UNL A   1      33.149  23.528  26.317  1.00  0.00    -0.275 OA
ATOM     24  N   UNL A   1      32.022  25.002  25.011  1.00  0.00    -0.338 N 
ATOM     25  C   UNL A   1      30.894  24.946  24.078  1.00  0.00     0.148 C 
ATOM     26  C   UNL A   1      31.787  25.852  26.180  1.00  0.00     0.148 C 
ATOM     27  C   UNL A   1      30.327  26.338  23.775  1.00  0.00     0.181 C 
ATOM     28  C   UNL A   1      31.240  27.216  25.779  1.00  0.00     0.181 C 
ATOM     29  O   UNL A   1      30.059  27.075  24.979  1.00  0.00    -0.378 OA
ENDBRANCH  10  22
ENDBRANCH   4   7
ENDBRANCH   2   3
ENDBRANCH   1   2
BRANCH   1  30
ATOM     30  C   UNL A   1      38.586  21.964  25.421  1.00  0.00     0.023 C 
BRANCH  30  31
ATOM     31  C   UNL A   1      39.340  21.251  26.544  1.00  0.00     0.116 C 
BRANCH  31  32
ATOM     32  N   UNL A   1      40.049  20.034  26.142  1.00  0.00    -0.352 N 
ATOM     33  C   UNL A   1      41.405  19.829  26.047  1.00  0.00     0.251 C 
ATOM     34  H   UNL A   1      39.481  19.263  25.909  1.00  0.00     0.163 HD
ATOM     35  O   UNL A   1      41.850  18.746  25.682  1.00  0.00    -0.269 OA
BRANCH  33  36
ATOM     36  C   UNL A   1      42.315  20.956  26.340  1.00  0.00     0.039 A 
ATOM     37  C   UNL A   1      42.748  21.762  25.283  1.00  0.00     0.014 A 
ATOM     38  C   UNL A   1      42.630  21.283  27.662  1.00  0.00     0.014 A 
ATOM     39  C   UNL A   1      43.399  22.965  25.563  1.00  0.00     0.010 A 
ATOM     40  C   UNL A   1      43.217  22.513  27.937  1.00  0.00     0.010 A 
ATOM     41  C   UNL A   1      43.580  23.378  26.892  1.00  0.00    -0.014 A 
BRANCH  41  42
ATOM     42  C   UNL A   1      44.061  24.746  27.219  1.00  0.00     0.031 A 
ATOM     43  C   UNL A   1      43.113  25.779  27.758  1.00  0.00     0.074 A 
ATOM     44  C   UNL A   1      45.323  25.091  26.893  1.00  0.00     0.049 A 
ATOM     45  N   UNL A   1      43.335  27.043  28.014  1.00  0.00    -0.248 NA
ATOM     46  C   UNL A   1      41.727  25.351  28.007  1.00  0.00     0.031 C 
ATOM     47  C   UNL A   1      46.306  24.209  26.255  1.00  0.00     0.029 A 
ATOM     48  N   UNL A   1      45.987  26.288  27.011  1.00  0.00    -0.354 N 
ATOM     49  C   UNL A   1      42.112  27.570  28.408  1.00  0.00     0.074 A 
ATOM     50  C   UNL A   1      41.146  26.494  28.340  1.00  0.00     0.031 C 
ATOM     51  C   UNL A   1      47.438  24.896  26.031  1.00  0.00     0.029 A 
ATOM     52  C   UNL A   1      47.261  26.270  26.490  1.00  0.00     0.049 A 
ATOM     53  H   UNL A   1      45.588  27.085  27.430  1.00  0.00     0.167 HD
ATOM     54  C   UNL A   1      41.826  28.829  28.813  1.00  0.00     0.034 A 
ATOM     55  C   UNL A   1      48.181  27.249  26.389  1.00  0.00     0.034 A 
ATOM     56  C   UNL A   1      42.803  29.874  28.947  1.00  0.00     0.049 A 
ATOM     57  C   UNL A   1      47.864  28.610  26.947  1.00  0.00     0.074 A 
ATOM     58  C   UNL A   1      42.637  31.143  29.476  1.00  0.00     0.029 A 
ATOM     59  N   UNL A   1      44.126  29.777  28.548  1.00  0.00    -0.354 N 
ATOM     60  N   UNL A   1      46.758  29.030  27.512  1.00  0.00    -0.248 NA
ATOM     61  C   UNL A   1      48.931  29.620  26.893  1.00  0.00     0.031 C 
ATOM     62  C   UNL A   1      43.860  31.814  29.391  1.00  0.00     0.029 A 
ATOM     63  C   UNL A   1      44.788  30.962  28.815  1.00  0.00     0.049 A 
ATOM     64  H   UNL A   1      44.535  28.981  28.136  1.00  0.00     0.167 HD
ATOM     65  C   UNL A   1      47.008  30.337  27.912  1.00  0.00     0.074 A 
ATOM     66  C   UNL A   1      48.377  30.634  27.544  1.00  0.00     0.031 C 
ATOM     67  C   UNL A   1      46.171  31.220  28.509  1.00  0.00     0.034 A 
BRANCH  54  68
ATOM     68  C   UNL A   1      40.409  29.135  29.214  1.00  0.00     0.023 A 
ATOM     69  C   UNL A   1      39.476  29.499  28.222  1.00  0.00     0.012 A 
ATOM     70  C   UNL A   1      39.980  28.979  30.547  1.00  0.00     0.148 A 
ATOM     71  C   UNL A   1      38.141  29.729  28.555  1.00  0.00     0.002 A 
ATOM     72  C   UNL A   1      38.641  29.173  30.863  1.00  0.00     0.091 A 
ATOM     73  F   UNL A   1      40.888  28.651  31.477  1.00  0.00    -0.205 F 
ATOM     74  C   UNL A   1      37.723  29.555  29.871  1.00  0.00     0.022 A 
BRANCH  72  75
ATOM     75  S   UNL A   1      37.984  28.907  32.514  1.00  0.00     0.127 S 
ATOM     76  O   UNL A   1      38.843  29.778  33.317  1.00  0.00    -0.237 OA
ATOM     77  O   UNL A   1      36.604  29.370  32.376  1.00  0.00    -0.237 OA
ATOM     78  O   UNL A   1      38.124  27.481  32.778  1.00  0.00    -0.744 OA
ENDBRANCH  72  75
ENDBRANCH  54  68
BRANCH  55  79
ATOM     79  C   UNL A   1      49.522  26.957  25.805  1.00  0.00     0.023 A 
ATOM     80  C   UNL A   1      50.506  26.350  26.610  1.00  0.00     0.012 A 
ATOM     81  C   UNL A   1      49.822  27.251  24.462  1.00  0.00     0.148 A 
ATOM     82  C   UNL A   1      51.774  26.074  26.099  1.00  0.00     0.002 A 
ATOM     83  C   UNL A   1      51.072  26.925  23.944  1.00  0.00     0.091 A 
ATOM     84  F   UNL A   1      48.883  27.844  23.712  1.00  0.00    -0.205 F 
ATOM     85  C   UNL A   1      52.055  26.352  24.764  1.00  0.00     0.022 A 
BRANCH  83  86
ATOM     86  S   UNL A   1      51.449  27.129  22.198  1.00  0.00     0.127 S 
ATOM     87  O   UNL A   1      50.240  26.608  21.566  1.00  0.00    -0.237 OA
ATOM     88  O   UNL A   1      51.629  28.577  22.084  1.00  0.00    -0.237 OA
ATOM     89  O   UNL A   1      52.669  26.363  21.986  1.00  0.00    -0.744 OA
ENDBRANCH  83  86
ENDBRANCH  55  79
BRANCH  67  90
ATOM     90  C   UNL A   1      46.710  32.586  28.837  1.00  0.00     0.023 A 
ATOM     91  C   UNL A   1      47.421  32.780  30.037  1.00  0.00     0.012 A 
ATOM     92  C   UNL A   1      46.592  33.648  27.919  1.00  0.00     0.148 A 
ATOM     93  C   UNL A   1      47.987  34.020  30.329  1.00  0.00     0.002 A 
ATOM     94  C   UNL A   1      47.196  34.868  28.198  1.00  0.00     0.091 A 
ATOM     95  F   UNL A   1      45.891  33.448  26.793  1.00  0.00    -0.205 F 
ATOM     96  C   UNL A   1      47.887  35.058  29.406  1.00  0.00     0.022 A 
BRANCH  94  97
ATOM     97  S   UNL A   1      47.192  36.225  27.021  1.00  0.00     0.127 S 
ATOM     98  O   UNL A   1      47.824  35.611  25.855  1.00  0.00    -0.237 OA
ATOM     99  O   UNL A   1      45.764  36.504  26.865  1.00  0.00    -0.237 OA
ATOM    100  O   UNL A   1      47.946  37.299  27.655  1.00  0.00    -0.744 OA
ENDBRANCH  94  97
ENDBRANCH  67  90
ENDBRANCH  41  42
ENDBRANCH  33  36
ENDBRANCH  31  32
ENDBRANCH  30  31
ENDBRANCH   1  30
TORSDOF 18
ENDMDL
MODEL 3
REMARK VINA RESULT:     -12.4      2.685      8.415
REMARK SMILES C[C@@]1(C(=O)c2ccccc2N)[C@H](C(=O)NCCCCNC(=O)c2ccc(-c3c4nc(c(-c5cccc(S(=O)(=O)[O-])c5F)c5ccc([nH]5)c(-c5cccc(S(=O)(=O)[O-])c5F)c5nc(c(-c6cccc(S(=O)(=O)[O-])c6F)c6ccc3[nH]6)C=C5)C=C4)cc2)[C@@H]1C(=O)N1CCOCC1
REMARK SMILES IDX 17 1 16 2 15 3 13 4 14 5 12 7 1 8 2 9 86 10 3 11 4 12 5 13
REMARK SMILES IDX 6 14 10 15 7 16 9 17 8 18 11 19 87 22 88 23 89 24 90 25
REMARK SMILES IDX 94 26 91 27 93 28 92 29 18 30 19 31 20 32 21 33 22 35 23 36
REMARK SMILES IDX 24 37 85 38 25 39 84 40 26 41 27 42 28 43 78 44 29 45 83 46
REMARK SMILES IDX 77 47 79 48 30 49 82 50 76 51 75 52 31 54 63 55 43 56 62 57
REMARK SMILES IDX 44 58 47 59 61 60 80 61 45 62 46 63 60 65 81 66 48 67 32 68
REMARK SMILES IDX 33 69 41 70 34 71 36 72 42 73 35 74 37 75 38 76 39 77 40 78
REMARK SMILES IDX 64 79 65 80 73 81 66 82 68 83 74 84 67 85 69 86 70 87 71 88
REMARK SMILES IDX 72 89 49 90 50 91 58 92 51 93 53 94 59 95 52 96 54 97 55 98
REMARK SMILES IDX 56 99 57 100
REMARK H PARENT 15 6 11 20 11 21 20 34 79 53 47 64
REMARK Flexibility Score: inf
ROOT
ATOM      1  C   UNL A   1      31.554  27.645  25.208  1.00  0.00     0.023 C 
ENDROOT
BRANCH   1   2
ATOM      2  C   UNL A   1      32.382  26.777  26.148  1.00  0.00     0.116 C 
BRANCH   2   3
ATOM      3  N   UNL A   1      31.582  25.791  26.829  1.00  0.00    -0.356 N 
ATOM      4  C   UNL A   1      31.416  24.466  26.555  1.00  0.00     0.224 C 
ATOM      5  O   UNL A   1      31.466  23.701  27.520  1.00  0.00    -0.275 OA
ATOM      6  H   UNL A   1      31.080  26.123  27.609  1.00  0.00     0.163 HD
BRANCH   4   7
ATOM      7  C   UNL A   1      31.110  23.844  25.243  1.00  0.00     0.106 C 
ATOM      8  C   UNL A   1      31.187  23.576  22.653  1.00  0.00     0.022 C 
ATOM      9  C   UNL A   1      31.920  23.455  23.992  1.00  0.00     0.056 C 
ATOM     10  C   UNL A   1      31.283  22.411  24.940  1.00  0.00     0.106 C 
BRANCH   9  11
ATOM     11  C   UNL A   1      33.243  24.178  23.936  1.00  0.00     0.172 C 
ATOM     12  O   UNL A   1      33.196  25.315  23.464  1.00  0.00    -0.293 OA
BRANCH  11  13
ATOM     13  C   UNL A   1      34.596  23.641  24.305  1.00  0.00     0.041 A 
ATOM     14  C   UNL A   1      35.344  23.139  23.213  1.00  0.00     0.014 A 
ATOM     15  C   UNL A   1      35.214  23.686  25.561  1.00  0.00     0.042 A 
ATOM     16  C   UNL A   1      36.706  22.846  23.318  1.00  0.00     0.001 A 
ATOM     17  C   UNL A   1      36.595  23.407  25.642  1.00  0.00     0.026 A 
ATOM     18  C   UNL A   1      37.347  23.039  24.527  1.00  0.00     0.002 A 
BRANCH  15  19
ATOM     19  N   UNL A   1      34.526  23.733  26.772  1.00  0.00    -0.398 N 
ATOM     20  H   UNL A   1      33.542  23.725  26.780  1.00  0.00     0.156 HD
ATOM     21  H   UNL A   1      35.026  23.777  27.619  1.00  0.00     0.156 HD
ENDBRANCH  15  19
ENDBRANCH  11  13
ENDBRANCH   9  11
BRANCH  10  22
ATOM     22  C   UNL A   1      32.090  21.305  25.470  1.00  0.00     0.227 C 
ATOM     23  O   UNL A   1      32.754  21.551  26.475  1.00  0.00    -0.275 OA
ATOM     24  N   UNL A   1      32.231  20.106  24.806  1.00  0.00    -0.338 N 
ATOM     25  C   UNL A   1      32.452  20.031  23.360  1.00  0.00     0.148 C 
ATOM     26  C   UNL A   1      32.851  19.015  25.562  1.00  0.00     0.148 C 
ATOM     27  C   UNL A   1      32.196  18.622  22.811  1.00  0.00     0.181 C 
ATOM     28  C   UNL A   1      32.528  17.658  24.951  1.00  0.00     0.181 C 
ATOM     29  O   UNL A   1      32.898  17.623  23.567  1.00  0.00    -0.378 OA
ENDBRANCH  10  22
ENDBRANCH   4   7
ENDBRANCH   2   3
ENDBRANCH   1   2
BRANCH   1  30
ATOM     30  C   UNL A   1      31.391  29.105  25.625  1.00  0.00     0.023 C 
BRANCH  30  31
ATOM     31  C   UNL A   1      32.657  29.799  26.128  1.00  0.00     0.116 C 
BRANCH  31  32
ATOM     32  N   UNL A   1      32.459  31.154  26.647  1.00  0.00    -0.352 N 
ATOM     33  C   UNL A   1      33.338  31.926  27.370  1.00  0.00     0.251 C 
ATOM     34  H   UNL A   1      31.585  31.564  26.454  1.00  0.00     0.163 HD
ATOM     35  O   UNL A   1      33.019  33.049  27.747  1.00  0.00    -0.269 OA
BRANCH  33  36
ATOM     36  C   UNL A   1      34.652  31.356  27.732  1.00  0.00     0.039 A 
ATOM     37  C   UNL A   1      35.721  32.226  27.963  1.00  0.00     0.014 A 
ATOM     38  C   UNL A   1      34.786  29.985  27.965  1.00  0.00     0.014 A 
ATOM     39  C   UNL A   1      36.892  31.733  28.542  1.00  0.00     0.010 A 
ATOM     40  C   UNL A   1      35.927  29.511  28.604  1.00  0.00     0.010 A 
ATOM     41  C   UNL A   1      36.977  30.385  28.925  1.00  0.00    -0.014 A 
BRANCH  41  42
ATOM     42  C   UNL A   1      38.112  29.883  29.742  1.00  0.00     0.031 A 
ATOM     43  C   UNL A   1      38.324  30.383  31.143  1.00  0.00     0.074 A 
ATOM     44  C   UNL A   1      39.032  29.083  29.165  1.00  0.00     0.049 A 
ATOM     45  N   UNL A   1      39.306  30.125  31.967  1.00  0.00    -0.248 NA
ATOM     46  C   UNL A   1      37.324  31.323  31.676  1.00  0.00     0.031 C 
ATOM     47  C   UNL A   1      39.001  28.622  27.773  1.00  0.00     0.029 A 
ATOM     48  N   UNL A   1      40.196  28.548  29.660  1.00  0.00    -0.354 N 
ATOM     49  C   UNL A   1      39.070  30.904  33.093  1.00  0.00     0.074 A 
ATOM     50  C   UNL A   1      37.861  31.658  32.841  1.00  0.00     0.031 C 
ATOM     51  C   UNL A   1      40.095  27.885  27.525  1.00  0.00     0.029 A 
ATOM     52  C   UNL A   1      40.918  27.834  28.730  1.00  0.00     0.049 A 
ATOM     53  H   UNL A   1      40.487  28.665  30.593  1.00  0.00     0.167 HD
ATOM     54  C   UNL A   1      39.781  30.965  34.243  1.00  0.00     0.034 A 
ATOM     55  C   UNL A   1      42.108  27.211  28.833  1.00  0.00     0.034 A 
ATOM     56  C   UNL A   1      40.941  30.161  34.517  1.00  0.00     0.049 A 
ATOM     57  C   UNL A   1      42.820  27.212  30.159  1.00  0.00     0.074 A 
ATOM     58  C   UNL A   1      41.651  30.052  35.700  1.00  0.00     0.029 A 
ATOM     59  N   UNL A   1      41.562  29.329  33.599  1.00  0.00    -0.354 N 
ATOM     60  N   UNL A   1      42.466  27.788  31.282  1.00  0.00    -0.248 NA
ATOM     61  C   UNL A   1      44.071  26.445  30.246  1.00  0.00     0.031 C 
ATOM     62  C   UNL A   1      42.707  29.159  35.495  1.00  0.00     0.029 A 
ATOM     63  C   UNL A   1      42.650  28.708  34.186  1.00  0.00     0.049 A 
ATOM     64  H   UNL A   1      41.273  29.201  32.666  1.00  0.00     0.167 HD
ATOM     65  C   UNL A   1      43.429  27.425  32.216  1.00  0.00     0.074 A 
ATOM     66  C   UNL A   1      44.370  26.561  31.534  1.00  0.00     0.031 C 
ATOM     67  C   UNL A   1      43.537  27.794  33.515  1.00  0.00     0.034 A 
BRANCH  54  68
ATOM     68  C   UNL A   1      39.288  31.882  35.328  1.00  0.00     0.023 A 
ATOM     69  C   UNL A   1      38.378  31.389  36.285  1.00  0.00     0.012 A 
ATOM     70  C   UNL A   1      39.785  33.193  35.455  1.00  0.00     0.148 A 
ATOM     71  C   UNL A   1      37.950  32.196  37.339  1.00  0.00     0.002 A 
ATOM     72  C   UNL A   1      39.383  33.979  36.528  1.00  0.00     0.091 A 
ATOM     73  F   UNL A   1      40.635  33.648  34.523  1.00  0.00    -0.205 F 
ATOM     74  C   UNL A   1      38.461  33.484  37.466  1.00  0.00     0.022 A 
BRANCH  72  75
ATOM     75  S   UNL A   1      40.034  35.627  36.824  1.00  0.00     0.127 S 
ATOM     76  O   UNL A   1      39.548  36.351  35.650  1.00  0.00    -0.237 OA
ATOM     77  O   UNL A   1      39.382  35.995  38.080  1.00  0.00    -0.237 OA
ATOM     78  O   UNL A   1      41.480  35.479  36.910  1.00  0.00    -0.744 OA
ENDBRANCH  72  75
ENDBRANCH  54  68
BRANCH  55  79
ATOM     79  C   UNL A   1      42.665  26.464  27.669  1.00  0.00     0.023 A 
ATOM     80  C   UNL A   1      43.614  27.093  26.839  1.00  0.00     0.012 A 
ATOM     81  C   UNL A   1      42.285  25.138  27.391  1.00  0.00     0.148 A 
ATOM     82  C   UNL A   1      44.147  26.428  25.735  1.00  0.00     0.002 A 
ATOM     83  C   UNL A   1      42.859  24.462  26.320  1.00  0.00     0.091 A 
ATOM     84  F   UNL A   1      41.368  24.558  28.179  1.00  0.00    -0.205 F 
ATOM     85  C   UNL A   1      43.778  25.110  25.479  1.00  0.00     0.022 A 
BRANCH  83  86
ATOM     86  S   UNL A   1      42.532  22.720  26.021  1.00  0.00     0.127 S 
ATOM     87  O   UNL A   1      41.073  22.677  26.063  1.00  0.00    -0.237 OA
ATOM     88  O   UNL A   1      43.117  22.514  24.696  1.00  0.00    -0.237 OA
ATOM     89  O   UNL A   1      43.229  22.019  27.091  1.00  0.00    -0.744 OA
ENDBRANCH  83  86
ENDBRANCH  55  79
BRANCH  67  90
ATOM     90  C   UNL A   1      44.693  27.244  34.307  1.00  0.00     0.023 A 
ATOM     91  C   UNL A   1      45.914  27.946  34.328  1.00  0.00     0.012 A 
ATOM     92  C   UNL A   1      44.542  26.089  35.097  1.00  0.00     0.148 A 
ATOM     93  C   UNL A   1      46.976  27.492  35.108  1.00  0.00     0.002 A 
ATOM     94  C   UNL A   1      45.591  25.666  35.905  1.00  0.00     0.091 A 
ATOM     95  F   UNL A   1      43.379  25.422  35.044  1.00  0.00    -0.205 F 
ATOM     96  C   UNL A   1      46.811  26.362  35.906  1.00  0.00     0.022 A 
BRANCH  94  97
ATOM     97  S   UNL A   1      45.427  24.276  37.032  1.00  0.00     0.127 S 
ATOM     98  O   UNL A   1      44.348  24.726  37.908  1.00  0.00    -0.237 OA
ATOM     99  O   UNL A   1      45.065  23.181  36.130  1.00  0.00    -0.237 OA
ATOM    100  O   UNL A   1      46.731  24.125  37.663  1.00  0.00    -0.744 OA
ENDBRANCH  94  97
ENDBRANCH  67  90
ENDBRANCH  41  42
ENDBRANCH  33  36
ENDBRANCH  31  32
ENDBRANCH  30  31
ENDBRANCH   1  30
TORSDOF 18
ENDMDL
