MODEL 1
REMARK VINA RESULT:     -11.7      0.000      0.000
REMARK SMILES [NH3+][C@H](Cc1ccc(O)c(F)c1)C(=O)NCCCCNC(=O)c1ccc(-c2c3nc(c(-c4cccc(S(=O)(=O)[O-])c4F)c4ccc([nH]4)c(-c4cccc(S(=O)(=O)[O-])c4F)c4nc(c(-c5cccc(S(=O)(=O)[O-])c5F)c5ccc2[nH]5)C=C4)C=C3)cc1
REMARK SMILES IDX 16 1 15 2 14 3 12 4 13 5 2 7 1 8 3 12 4 13 5 14 11 15 6 16
REMARK SMILES IDX 9 17 7 18 10 19 8 20 17 22 18 23 19 24 20 25 21 27 22 28
REMARK SMILES IDX 23 29 84 30 24 31 83 32 25 33 26 34 27 35 77 36 28 37 82 38
REMARK SMILES IDX 76 39 78 40 29 41 81 42 75 43 74 44 30 46 62 47 42 48 61 49
REMARK SMILES IDX 43 50 46 51 60 52 79 53 44 54 45 55 59 57 80 58 47 59 31 60
REMARK SMILES IDX 32 61 40 62 33 63 35 64 41 65 34 66 36 67 37 68 38 69 39 70
REMARK SMILES IDX 63 71 64 72 72 73 65 74 67 75 73 76 66 77 68 78 69 79 70 80
REMARK SMILES IDX 71 81 48 82 49 83 57 84 50 85 52 86 58 87 51 88 53 89 54 90
REMARK SMILES IDX 55 91 56 92
REMARK H PARENT 14 6 1 9 1 10 1 11 8 21 19 26 78 45 46 56
REMARK Flexibility Score: inf
ROOT
ATOM      1  C   UNL A   1      32.107  27.708  26.854  1.00  0.00     0.023 C 
ENDROOT
BRANCH   1   2
ATOM      2  C   UNL A   1      31.311  26.601  26.165  1.00  0.00     0.116 C 
BRANCH   2   3
ATOM      3  N   UNL A   1      31.604  26.565  24.746  1.00  0.00    -0.351 N 
ATOM      4  C   UNL A   1      30.863  26.791  23.632  1.00  0.00     0.278 C 
ATOM      5  O   UNL A   1      31.390  26.480  22.555  1.00  0.00    -0.268 OA
ATOM      6  H   UNL A   1      32.539  26.325  24.549  1.00  0.00     0.163 HD
BRANCH   4   7
ATOM      7  C   UNL A   1      29.443  27.397  23.635  1.00  0.00     0.275 C 
BRANCH   7   8
ATOM      8  N   UNL A   1      28.419  26.445  24.105  1.00  0.00    -0.347 N 
ATOM      9  H   UNL A   1      28.238  25.754  23.376  1.00  0.00     0.345 HD
ATOM     10  H   UNL A   1      27.559  26.949  24.317  1.00  0.00     0.345 HD
ATOM     11  H   UNL A   1      28.754  25.974  24.945  1.00  0.00     0.345 HD
ENDBRANCH   7   8
BRANCH   7  12
ATOM     12  C   UNL A   1      29.098  28.318  22.440  1.00  0.00     0.111 C 
BRANCH  12  13
ATOM     13  C   UNL A   1      28.945  29.817  22.585  1.00  0.00    -0.038 A 
ATOM     14  C   UNL A   1      29.377  30.534  23.713  1.00  0.00     0.008 A 
ATOM     15  C   UNL A   1      28.421  30.550  21.505  1.00  0.00     0.047 A 
ATOM     16  C   UNL A   1      29.166  31.918  23.817  1.00  0.00     0.049 A 
ATOM     17  C   UNL A   1      28.240  31.931  21.598  1.00  0.00     0.165 A 
ATOM     18  C   UNL A   1      28.569  32.609  22.768  1.00  0.00     0.151 A 
ATOM     19  F   UNL A   1      27.699  32.585  20.559  1.00  0.00    -0.203 F 
BRANCH  18  20
ATOM     20  O   UNL A   1      28.287  33.939  22.880  1.00  0.00    -0.505 OA
ATOM     21  H   UNL A   1      28.280  34.346  23.723  1.00  0.00     0.293 HD
ENDBRANCH  18  20
ENDBRANCH  12  13
ENDBRANCH   7  12
ENDBRANCH   4   7
ENDBRANCH   2   3
ENDBRANCH   1   2
BRANCH   1  22
ATOM     22  C   UNL A   1      31.592  29.128  26.671  1.00  0.00     0.023 C 
BRANCH  22  23
ATOM     23  C   UNL A   1      32.605  30.147  26.170  1.00  0.00     0.116 C 
BRANCH  23  24
ATOM     24  N   UNL A   1      32.441  31.489  26.714  1.00  0.00    -0.352 N 
ATOM     25  C   UNL A   1      33.339  32.211  27.479  1.00  0.00     0.251 C 
ATOM     26  H   UNL A   1      31.588  31.937  26.512  1.00  0.00     0.163 HD
ATOM     27  O   UNL A   1      33.005  33.296  27.946  1.00  0.00    -0.269 OA
BRANCH  25  28
ATOM     28  C   UNL A   1      34.671  31.612  27.765  1.00  0.00     0.039 A 
ATOM     29  C   UNL A   1      35.769  32.446  27.988  1.00  0.00     0.014 A 
ATOM     30  C   UNL A   1      34.792  30.236  27.970  1.00  0.00     0.014 A 
ATOM     31  C   UNL A   1      36.940  31.916  28.548  1.00  0.00     0.010 A 
ATOM     32  C   UNL A   1      35.913  29.733  28.624  1.00  0.00     0.010 A 
ATOM     33  C   UNL A   1      36.996  30.567  28.944  1.00  0.00    -0.014 A 
BRANCH  33  34
ATOM     34  C   UNL A   1      38.132  30.014  29.737  1.00  0.00     0.031 A 
ATOM     35  C   UNL A   1      38.368  30.473  31.155  1.00  0.00     0.074 A 
ATOM     36  C   UNL A   1      39.042  29.209  29.145  1.00  0.00     0.049 A 
ATOM     37  N   UNL A   1      39.369  30.207  31.955  1.00  0.00    -0.248 NA
ATOM     38  C   UNL A   1      37.369  31.386  31.734  1.00  0.00     0.031 C 
ATOM     39  C   UNL A   1      39.007  28.769  27.748  1.00  0.00     0.029 A 
ATOM     40  N   UNL A   1      40.196  28.644  29.634  1.00  0.00    -0.354 N 
ATOM     41  C   UNL A   1      39.152  30.962  33.102  1.00  0.00     0.074 A 
ATOM     42  C   UNL A   1      37.942  31.723  32.882  1.00  0.00     0.031 C 
ATOM     43  C   UNL A   1      40.076  27.995  27.498  1.00  0.00     0.029 A 
ATOM     44  C   UNL A   1      40.892  27.904  28.704  1.00  0.00     0.049 A 
ATOM     45  H   UNL A   1      40.498  28.758  30.564  1.00  0.00     0.167 HD
ATOM     46  C   UNL A   1      39.870  30.998  34.250  1.00  0.00     0.034 A 
ATOM     47  C   UNL A   1      42.056  27.229  28.806  1.00  0.00     0.034 A 
ATOM     48  C   UNL A   1      41.022  30.178  34.508  1.00  0.00     0.049 A 
ATOM     49  C   UNL A   1      42.783  27.208  30.124  1.00  0.00     0.074 A 
ATOM     50  C   UNL A   1      41.741  30.050  35.683  1.00  0.00     0.029 A 
ATOM     51  N   UNL A   1      41.621  29.340  33.580  1.00  0.00    -0.354 N 
ATOM     52  N   UNL A   1      42.460  27.791  31.252  1.00  0.00    -0.248 NA
ATOM     53  C   UNL A   1      44.014  26.405  30.195  1.00  0.00     0.031 C 
ATOM     54  C   UNL A   1      42.778  29.137  35.466  1.00  0.00     0.029 A 
ATOM     55  C   UNL A   1      42.699  28.690  34.157  1.00  0.00     0.049 A 
ATOM     56  H   UNL A   1      41.323  29.224  32.649  1.00  0.00     0.167 HD
ATOM     57  C   UNL A   1      43.424  27.397  32.174  1.00  0.00     0.074 A 
ATOM     58  C   UNL A   1      44.332  26.510  31.478  1.00  0.00     0.031 C 
ATOM     59  C   UNL A   1      43.555  27.754  33.475  1.00  0.00     0.034 A 
BRANCH  46  60
ATOM     60  C   UNL A   1      39.380  31.898  35.353  1.00  0.00     0.023 A 
ATOM     61  C   UNL A   1      38.455  31.399  36.293  1.00  0.00     0.012 A 
ATOM     62  C   UNL A   1      39.869  33.211  35.496  1.00  0.00     0.148 A 
ATOM     63  C   UNL A   1      37.995  32.202  37.334  1.00  0.00     0.002 A 
ATOM     64  C   UNL A   1      39.437  33.993  36.563  1.00  0.00     0.091 A 
ATOM     65  F   UNL A   1      40.731  33.678  34.581  1.00  0.00    -0.205 F 
ATOM     66  C   UNL A   1      38.492  33.495  37.475  1.00  0.00     0.022 A 
BRANCH  64  67
ATOM     67  S   UNL A   1      40.075  35.643  36.871  1.00  0.00     0.127 S 
ATOM     68  O   UNL A   1      39.429  35.978  38.139  1.00  0.00    -0.237 OA
ATOM     69  O   UNL A   1      41.516  35.405  36.967  1.00  0.00    -0.237 OA
ATOM     70  O   UNL A   1      39.671  36.448  35.727  1.00  0.00    -0.744 OA
ENDBRANCH  64  67
ENDBRANCH  46  60
BRANCH  47  71
ATOM     71  C   UNL A   1      42.562  26.432  27.650  1.00  0.00     0.023 A 
ATOM     72  C   UNL A   1      43.443  27.042  26.734  1.00  0.00     0.012 A 
ATOM     73  C   UNL A   1      42.203  25.084  27.461  1.00  0.00     0.148 A 
ATOM     74  C   UNL A   1      43.932  26.336  25.635  1.00  0.00     0.002 A 
ATOM     75  C   UNL A   1      42.734  24.370  26.391  1.00  0.00     0.091 A 
ATOM     76  F   UNL A   1      41.351  24.525  28.332  1.00  0.00    -0.205 F 
ATOM     77  C   UNL A   1      43.586  24.997  25.469  1.00  0.00     0.022 A 
BRANCH  75  78
ATOM     78  S   UNL A   1      42.442  22.610  26.174  1.00  0.00     0.127 S 
ATOM     79  O   UNL A   1      43.065  22.053  27.371  1.00  0.00    -0.237 OA
ATOM     80  O   UNL A   1      40.980  22.542  26.152  1.00  0.00    -0.237 OA
ATOM     81  O   UNL A   1      43.074  22.267  24.907  1.00  0.00    -0.744 OA
ENDBRANCH  75  78
ENDBRANCH  47  71
BRANCH  59  82
ATOM     82  C   UNL A   1      44.699  27.163  34.256  1.00  0.00     0.023 A 
ATOM     83  C   UNL A   1      45.952  27.806  34.251  1.00  0.00     0.012 A 
ATOM     84  C   UNL A   1      44.507  26.024  35.063  1.00  0.00     0.148 A 
ATOM     85  C   UNL A   1      47.004  27.310  35.018  1.00  0.00     0.002 A 
ATOM     86  C   UNL A   1      45.548  25.561  35.859  1.00  0.00     0.091 A 
ATOM     87  F   UNL A   1      43.313  25.414  35.037  1.00  0.00    -0.205 F 
ATOM     88  C   UNL A   1      46.799  26.197  35.832  1.00  0.00     0.022 A 
BRANCH  86  89
ATOM     89  S   UNL A   1      45.341  24.193  37.005  1.00  0.00     0.127 S 
ATOM     90  O   UNL A   1      44.348  24.729  37.934  1.00  0.00    -0.237 OA
ATOM     91  O   UNL A   1      44.848  23.124  36.135  1.00  0.00    -0.237 OA
ATOM     92  O   UNL A   1      46.662  23.946  37.570  1.00  0.00    -0.744 OA
ENDBRANCH  86  89
ENDBRANCH  59  82
ENDBRANCH  33  34
ENDBRANCH  25  28
ENDBRANCH  23  24
ENDBRANCH  22  23
ENDBRANCH   1  22
TORSDOF 18
ENDMDL
MODEL 2
REMARK VINA RESULT:     -11.6      1.588      7.876
REMARK SMILES [NH3+][C@H](Cc1ccc(O)c(F)c1)C(=O)NCCCCNC(=O)c1ccc(-c2c3nc(c(-c4cccc(S(=O)(=O)[O-])c4F)c4ccc([nH]4)c(-c4cccc(S(=O)(=O)[O-])c4F)c4nc(c(-c5cccc(S(=O)(=O)[O-])c5F)c5ccc2[nH]5)C=C4)C=C3)cc1
REMARK SMILES IDX 16 1 15 2 14 3 12 4 13 5 2 7 1 8 3 12 4 13 5 14 11 15 6 16
REMARK SMILES IDX 9 17 7 18 10 19 8 20 17 22 18 23 19 24 20 25 21 27 22 28
REMARK SMILES IDX 23 29 84 30 24 31 83 32 25 33 26 34 27 35 77 36 28 37 82 38
REMARK SMILES IDX 76 39 78 40 29 41 81 42 75 43 74 44 30 46 62 47 42 48 61 49
REMARK SMILES IDX 43 50 46 51 60 52 79 53 44 54 45 55 59 57 80 58 47 59 31 60
REMARK SMILES IDX 32 61 40 62 33 63 35 64 41 65 34 66 36 67 37 68 38 69 39 70
REMARK SMILES IDX 63 71 64 72 72 73 65 74 67 75 73 76 66 77 68 78 69 79 70 80
REMARK SMILES IDX 71 81 48 82 49 83 57 84 50 85 52 86 58 87 51 88 53 89 54 90
REMARK SMILES IDX 55 91 56 92
REMARK H PARENT 14 6 1 9 1 10 1 11 8 21 19 26 78 45 46 56
REMARK Flexibility Score: inf
ROOT
ATOM      1  C   UNL A   1      32.081  28.388  27.259  1.00  0.00     0.023 C 
ENDROOT
BRANCH   1   2
ATOM      2  C   UNL A   1      31.410  27.184  26.602  1.00  0.00     0.116 C 
BRANCH   2   3
ATOM      3  N   UNL A   1      31.810  27.067  25.214  1.00  0.00    -0.351 N 
ATOM      4  C   UNL A   1      31.124  27.024  24.043  1.00  0.00     0.278 C 
ATOM      5  O   UNL A   1      31.781  26.722  23.038  1.00  0.00    -0.268 OA
ATOM      6  H   UNL A   1      32.786  27.007  25.095  1.00  0.00     0.163 HD
BRANCH   4   7
ATOM      7  C   UNL A   1      29.615  27.322  23.903  1.00  0.00     0.275 C 
BRANCH   7   8
ATOM      8  N   UNL A   1      28.772  26.169  24.270  1.00  0.00    -0.347 N 
ATOM      9  H   UNL A   1      28.849  25.450  23.551  1.00  0.00     0.345 HD
ATOM     10  H   UNL A   1      27.800  26.471  24.346  1.00  0.00     0.345 HD
ATOM     11  H   UNL A   1      29.083  25.792  25.164  1.00  0.00     0.345 HD
ENDBRANCH   7   8
BRANCH   7  12
ATOM     12  C   UNL A   1      29.205  28.174  22.677  1.00  0.00     0.111 C 
BRANCH  12  13
ATOM     13  C   UNL A   1      29.056  29.679  22.746  1.00  0.00    -0.038 A 
ATOM     14  C   UNL A   1      29.448  30.447  23.853  1.00  0.00     0.008 A 
ATOM     15  C   UNL A   1      28.578  30.362  21.612  1.00  0.00     0.047 A 
ATOM     16  C   UNL A   1      29.242  31.835  23.884  1.00  0.00     0.049 A 
ATOM     17  C   UNL A   1      28.401  31.746  21.633  1.00  0.00     0.165 A 
ATOM     18  C   UNL A   1      28.690  32.477  22.781  1.00  0.00     0.151 A 
ATOM     19  F   UNL A   1      27.905  32.352  20.544  1.00  0.00    -0.203 F 
BRANCH  18  20
ATOM     20  O   UNL A   1      28.412  33.813  22.819  1.00  0.00    -0.505 OA
ATOM     21  H   UNL A   1      27.695  34.155  22.323  1.00  0.00     0.293 HD
ENDBRANCH  18  20
ENDBRANCH  12  13
ENDBRANCH   7  12
ENDBRANCH   4   7
ENDBRANCH   2   3
ENDBRANCH   1   2
BRANCH   1  22
ATOM     22  C   UNL A   1      31.402  29.736  27.060  1.00  0.00     0.023 C 
BRANCH  22  23
ATOM     23  C   UNL A   1      32.231  30.806  26.364  1.00  0.00     0.116 C 
BRANCH  23  24
ATOM     24  N   UNL A   1      32.025  32.159  26.865  1.00  0.00    -0.352 N 
ATOM     25  C   UNL A   1      32.909  32.941  27.585  1.00  0.00     0.251 C 
ATOM     26  H   UNL A   1      31.151  32.565  26.666  1.00  0.00     0.163 HD
ATOM     27  O   UNL A   1      32.541  34.028  28.022  1.00  0.00    -0.269 OA
BRANCH  25  28
ATOM     28  C   UNL A   1      34.269  32.405  27.863  1.00  0.00     0.039 A 
ATOM     29  C   UNL A   1      35.333  33.290  28.054  1.00  0.00     0.014 A 
ATOM     30  C   UNL A   1      34.451  31.040  28.092  1.00  0.00     0.014 A 
ATOM     31  C   UNL A   1      36.533  32.821  28.607  1.00  0.00     0.010 A 
ATOM     32  C   UNL A   1      35.602  30.597  28.739  1.00  0.00     0.010 A 
ATOM     33  C   UNL A   1      36.653  31.483  29.027  1.00  0.00    -0.014 A 
BRANCH  33  34
ATOM     34  C   UNL A   1      37.822  30.994  29.814  1.00  0.00     0.031 A 
ATOM     35  C   UNL A   1      38.769  29.979  29.222  1.00  0.00     0.074 A 
ATOM     36  C   UNL A   1      37.958  31.344  31.111  1.00  0.00     0.049 A 
ATOM     37  N   UNL A   1      39.760  29.342  29.792  1.00  0.00    -0.248 NA
ATOM     38  C   UNL A   1      38.546  29.599  27.817  1.00  0.00     0.031 C 
ATOM     39  C   UNL A   1      37.056  32.230  31.853  1.00  0.00     0.029 A 
ATOM     40  N   UNL A   1      38.890  30.970  32.051  1.00  0.00    -0.354 N 
ATOM     41  C   UNL A   1      40.237  28.448  28.839  1.00  0.00     0.074 A 
ATOM     42  C   UNL A   1      39.405  28.601  27.666  1.00  0.00     0.031 C 
ATOM     43  C   UNL A   1      37.486  32.342  33.121  1.00  0.00     0.029 A 
ATOM     44  C   UNL A   1      38.674  31.515  33.297  1.00  0.00     0.049 A 
ATOM     45  H   UNL A   1      39.643  30.368  31.851  1.00  0.00     0.167 HD
ATOM     46  C   UNL A   1      41.291  27.600  28.915  1.00  0.00     0.034 A 
ATOM     47  C   UNL A   1      39.354  31.367  34.454  1.00  0.00     0.034 A 
ATOM     48  C   UNL A   1      42.174  27.509  30.046  1.00  0.00     0.049 A 
ATOM     49  C   UNL A   1      40.579  30.493  34.483  1.00  0.00     0.074 A 
ATOM     50  C   UNL A   1      43.340  26.773  30.168  1.00  0.00     0.029 A 
ATOM     51  N   UNL A   1      41.995  28.178  31.246  1.00  0.00    -0.354 N 
ATOM     52  N   UNL A   1      41.114  29.793  33.513  1.00  0.00    -0.248 NA
ATOM     53  C   UNL A   1      41.316  30.417  35.755  1.00  0.00     0.031 C 
ATOM     54  C   UNL A   1      43.865  26.996  31.445  1.00  0.00     0.029 A 
ATOM     55  C   UNL A   1      43.030  27.875  32.114  1.00  0.00     0.049 A 
ATOM     56  H   UNL A   1      41.244  28.780  31.450  1.00  0.00     0.167 HD
ATOM     57  C   UNL A   1      42.268  29.225  34.045  1.00  0.00     0.074 A 
ATOM     58  C   UNL A   1      42.364  29.678  35.416  1.00  0.00     0.031 C 
ATOM     59  C   UNL A   1      43.155  28.388  33.454  1.00  0.00     0.034 A 
BRANCH  46  60
ATOM     60  C   UNL A   1      41.599  26.759  27.705  1.00  0.00     0.023 A 
ATOM     61  C   UNL A   1      42.218  27.356  26.587  1.00  0.00     0.012 A 
ATOM     62  C   UNL A   1      41.331  25.376  27.689  1.00  0.00     0.148 A 
ATOM     63  C   UNL A   1      42.530  26.601  25.459  1.00  0.00     0.002 A 
ATOM     64  C   UNL A   1      41.684  24.621  26.575  1.00  0.00     0.091 A 
ATOM     65  F   UNL A   1      40.723  24.828  28.751  1.00  0.00    -0.205 F 
ATOM     66  C   UNL A   1      42.272  25.233  25.456  1.00  0.00     0.022 A 
BRANCH  64  67
ATOM     67  S   UNL A   1      41.462  22.840  26.507  1.00  0.00     0.127 S 
ATOM     68  O   UNL A   1      42.279  22.484  25.348  1.00  0.00    -0.237 OA
ATOM     69  O   UNL A   1      42.010  22.409  27.794  1.00  0.00    -0.237 OA
ATOM     70  O   UNL A   1      40.030  22.622  26.357  1.00  0.00    -0.744 OA
ENDBRANCH  64  67
ENDBRANCH  46  60
BRANCH  47  71
ATOM     71  C   UNL A   1      38.949  32.142  35.664  1.00  0.00     0.023 A 
ATOM     72  C   UNL A   1      39.304  33.502  35.753  1.00  0.00     0.012 A 
ATOM     73  C   UNL A   1      38.205  31.558  36.706  1.00  0.00     0.148 A 
ATOM     74  C   UNL A   1      38.954  34.260  36.870  1.00  0.00     0.002 A 
ATOM     75  C   UNL A   1      37.815  32.332  37.795  1.00  0.00     0.091 A 
ATOM     76  F   UNL A   1      37.889  30.259  36.613  1.00  0.00    -0.205 F 
ATOM     77  C   UNL A   1      38.201  33.679  37.887  1.00  0.00     0.022 A 
BRANCH  75  78
ATOM     78  S   UNL A   1      36.738  31.697  39.086  1.00  0.00     0.127 S 
ATOM     79  O   UNL A   1      36.720  30.269  38.786  1.00  0.00    -0.237 OA
ATOM     80  O   UNL A   1      37.467  32.063  40.301  1.00  0.00    -0.237 OA
ATOM     81  O   UNL A   1      35.473  32.401  38.915  1.00  0.00    -0.744 OA
ENDBRANCH  75  78
ENDBRANCH  47  71
BRANCH  59  82
ATOM     82  C   UNL A   1      44.336  27.928  34.267  1.00  0.00     0.023 A 
ATOM     83  C   UNL A   1      45.518  28.696  34.275  1.00  0.00     0.012 A 
ATOM     84  C   UNL A   1      44.245  26.788  35.090  1.00  0.00     0.148 A 
ATOM     85  C   UNL A   1      46.599  28.321  35.070  1.00  0.00     0.002 A 
ATOM     86  C   UNL A   1      45.311  26.446  35.913  1.00  0.00     0.091 A 
ATOM     87  F   UNL A   1      43.120  26.059  35.052  1.00  0.00    -0.205 F 
ATOM     88  C   UNL A   1      46.492  27.206  35.899  1.00  0.00     0.022 A 
BRANCH  86  89
ATOM     89  S   UNL A   1      45.221  25.082  37.079  1.00  0.00     0.127 S 
ATOM     90  O   UNL A   1      43.918  25.309  37.704  1.00  0.00    -0.237 OA
ATOM     91  O   UNL A   1      45.281  23.912  36.201  1.00  0.00    -0.237 OA
ATOM     92  O   UNL A   1      46.374  25.234  37.957  1.00  0.00    -0.744 OA
ENDBRANCH  86  89
ENDBRANCH  59  82
ENDBRANCH  33  34
ENDBRANCH  25  28
ENDBRANCH  23  24
ENDBRANCH  22  23
ENDBRANCH   1  22
TORSDOF 18
ENDMDL
MODEL 3
REMARK VINA RESULT:     -11.5      6.338      9.003
REMARK SMILES [NH3+][C@H](Cc1ccc(O)c(F)c1)C(=O)NCCCCNC(=O)c1ccc(-c2c3nc(c(-c4cccc(S(=O)(=O)[O-])c4F)c4ccc([nH]4)c(-c4cccc(S(=O)(=O)[O-])c4F)c4nc(c(-c5cccc(S(=O)(=O)[O-])c5F)c5ccc2[nH]5)C=C4)C=C3)cc1
REMARK SMILES IDX 16 1 15 2 14 3 12 4 13 5 2 7 1 8 3 12 4 13 5 14 11 15 6 16
REMARK SMILES IDX 9 17 7 18 10 19 8 20 17 22 18 23 19 24 20 25 21 27 22 28
REMARK SMILES IDX 23 29 84 30 24 31 83 32 25 33 26 34 27 35 77 36 28 37 82 38
REMARK SMILES IDX 76 39 78 40 29 41 81 42 75 43 74 44 30 46 62 47 42 48 61 49
REMARK SMILES IDX 43 50 46 51 60 52 79 53 44 54 45 55 59 57 80 58 47 59 31 60
REMARK SMILES IDX 32 61 40 62 33 63 35 64 41 65 34 66 36 67 37 68 38 69 39 70
REMARK SMILES IDX 63 71 64 72 72 73 65 74 67 75 73 76 66 77 68 78 69 79 70 80
REMARK SMILES IDX 71 81 48 82 49 83 57 84 50 85 52 86 58 87 51 88 53 89 54 90
REMARK SMILES IDX 55 91 56 92
REMARK H PARENT 14 6 1 9 1 10 1 11 8 21 19 26 78 45 46 56
REMARK Flexibility Score: inf
ROOT
ATOM      1  C   UNL A   1      35.895  23.274  23.948  1.00  0.00     0.023 C 
ENDROOT
BRANCH   1   2
ATOM      2  C   UNL A   1      35.368  23.801  25.281  1.00  0.00     0.116 C 
BRANCH   2   3
ATOM      3  N   UNL A   1      33.938  24.028  25.214  1.00  0.00    -0.351 N 
ATOM      4  C   UNL A   1      32.859  23.331  25.654  1.00  0.00     0.278 C 
ATOM      5  O   UNL A   1      31.756  23.726  25.251  1.00  0.00    -0.268 OA
ATOM      6  H   UNL A   1      33.699  24.864  24.753  1.00  0.00     0.163 HD
BRANCH   4   7
ATOM      7  C   UNL A   1      32.931  22.111  26.598  1.00  0.00     0.275 C 
BRANCH   7   8
ATOM      8  N   UNL A   1      33.127  22.495  28.008  1.00  0.00    -0.347 N 
ATOM      9  H   UNL A   1      33.231  23.508  28.073  1.00  0.00     0.345 HD
ATOM     10  H   UNL A   1      33.967  22.044  28.369  1.00  0.00     0.345 HD
ATOM     11  H   UNL A   1      32.319  22.199  28.556  1.00  0.00     0.345 HD
ENDBRANCH   7   8
BRANCH   7  12
ATOM     12  C   UNL A   1      33.698  20.881  26.056  1.00  0.00     0.111 C 
BRANCH  12  13
ATOM     13  C   UNL A   1      33.208  20.072  24.875  1.00  0.00    -0.038 A 
ATOM     14  C   UNL A   1      32.643  20.644  23.724  1.00  0.00     0.008 A 
ATOM     15  C   UNL A   1      33.400  18.678  24.885  1.00  0.00     0.047 A 
ATOM     16  C   UNL A   1      32.159  19.844  22.677  1.00  0.00     0.049 A 
ATOM     17  C   UNL A   1      32.945  17.886  23.830  1.00  0.00     0.165 A 
ATOM     18  C   UNL A   1      32.286  18.461  22.748  1.00  0.00     0.151 A 
ATOM     19  F   UNL A   1      33.113  16.557  23.899  1.00  0.00    -0.203 F 
BRANCH  18  20
ATOM     20  O   UNL A   1      31.755  17.662  21.778  1.00  0.00    -0.505 OA
ATOM     21  H   UNL A   1      32.005  17.783  20.884  1.00  0.00     0.293 HD
ENDBRANCH  18  20
ENDBRANCH  12  13
ENDBRANCH   7  12
ENDBRANCH   4   7
ENDBRANCH   2   3
ENDBRANCH   1   2
BRANCH   1  22
ATOM     22  C   UNL A   1      36.656  21.957  23.993  1.00  0.00     0.023 C 
BRANCH  22  23
ATOM     23  C   UNL A   1      37.062  21.465  25.374  1.00  0.00     0.116 C 
BRANCH  23  24
ATOM     24  N   UNL A   1      38.123  20.466  25.379  1.00  0.00    -0.352 N 
ATOM     25  C   UNL A   1      39.389  20.576  25.924  1.00  0.00     0.251 C 
ATOM     26  H   UNL A   1      37.914  19.610  24.941  1.00  0.00     0.163 HD
ATOM     27  O   UNL A   1      40.205  19.674  25.753  1.00  0.00    -0.269 OA
BRANCH  25  28
ATOM     28  C   UNL A   1      39.744  21.824  26.654  1.00  0.00     0.039 A 
ATOM     29  C   UNL A   1      40.791  21.809  27.579  1.00  0.00     0.014 A 
ATOM     30  C   UNL A   1      39.146  23.035  26.302  1.00  0.00     0.014 A 
ATOM     31  C   UNL A   1      41.325  23.020  28.040  1.00  0.00     0.010 A 
ATOM     32  C   UNL A   1      39.746  24.235  26.677  1.00  0.00     0.010 A 
ATOM     33  C   UNL A   1      40.858  24.247  27.534  1.00  0.00    -0.014 A 
BRANCH  33  34
ATOM     34  C   UNL A   1      41.537  25.543  27.827  1.00  0.00     0.031 A 
ATOM     35  C   UNL A   1      40.805  26.637  28.565  1.00  0.00     0.074 A 
ATOM     36  C   UNL A   1      42.758  25.800  27.308  1.00  0.00     0.049 A 
ATOM     37  N   UNL A   1      41.179  27.869  28.798  1.00  0.00    -0.248 NA
ATOM     38  C   UNL A   1      39.460  26.317  29.068  1.00  0.00     0.031 C 
ATOM     39  C   UNL A   1      43.541  24.879  26.480  1.00  0.00     0.029 A 
ATOM     40  N   UNL A   1      43.543  26.927  27.370  1.00  0.00    -0.354 N 
ATOM     41  C   UNL A   1      40.097  28.485  29.418  1.00  0.00     0.074 A 
ATOM     42  C   UNL A   1      39.041  27.500  29.496  1.00  0.00     0.031 C 
ATOM     43  C   UNL A   1      44.694  25.470  26.127  1.00  0.00     0.029 A 
ATOM     44  C   UNL A   1      44.725  26.822  26.673  1.00  0.00     0.049 A 
ATOM     45  H   UNL A   1      43.283  27.736  27.868  1.00  0.00     0.167 HD
ATOM     46  C   UNL A   1      39.998  29.742  29.913  1.00  0.00     0.034 A 
ATOM     47  C   UNL A   1      45.724  27.711  26.491  1.00  0.00     0.034 A 
ATOM     48  C   UNL A   1      41.074  30.695  29.919  1.00  0.00     0.049 A 
ATOM     49  C   UNL A   1      45.628  29.069  27.134  1.00  0.00     0.074 A 
ATOM     50  C   UNL A   1      41.110  31.947  30.508  1.00  0.00     0.029 A 
ATOM     51  N   UNL A   1      42.307  30.502  29.315  1.00  0.00    -0.354 N 
ATOM     52  N   UNL A   1      44.664  29.566  27.870  1.00  0.00    -0.248 NA
ATOM     53  C   UNL A   1      46.773  29.976  26.954  1.00  0.00     0.031 C 
ATOM     54  C   UNL A   1      42.365  32.513  30.256  1.00  0.00     0.029 A 
ATOM     55  C   UNL A   1      43.111  31.609  29.519  1.00  0.00     0.049 A 
ATOM     56  H   UNL A   1      42.569  29.695  28.816  1.00  0.00     0.167 HD
ATOM     57  C   UNL A   1      45.101  30.824  28.271  1.00  0.00     0.074 A 
ATOM     58  C   UNL A   1      46.423  31.007  27.712  1.00  0.00     0.031 C 
ATOM     59  C   UNL A   1      44.454  31.752  29.018  1.00  0.00     0.034 A 
BRANCH  46  60
ATOM     60  C   UNL A   1      38.700  30.135  30.567  1.00  0.00     0.023 A 
ATOM     61  C   UNL A   1      38.483  29.811  31.922  1.00  0.00     0.012 A 
ATOM     62  C   UNL A   1      37.721  30.867  29.867  1.00  0.00     0.148 A 
ATOM     63  C   UNL A   1      37.298  30.174  32.560  1.00  0.00     0.002 A 
ATOM     64  C   UNL A   1      36.560  31.264  30.523  1.00  0.00     0.091 A 
ATOM     65  F   UNL A   1      37.934  31.149  28.574  1.00  0.00    -0.205 F 
ATOM     66  C   UNL A   1      36.342  30.908  31.864  1.00  0.00     0.022 A 
BRANCH  64  67
ATOM     67  S   UNL A   1      35.303  32.276  29.734  1.00  0.00     0.127 S 
ATOM     68  O   UNL A   1      34.385  32.526  30.844  1.00  0.00    -0.237 OA
ATOM     69  O   UNL A   1      36.072  33.445  29.304  1.00  0.00    -0.237 OA
ATOM     70  O   UNL A   1      34.768  31.471  28.645  1.00  0.00    -0.744 OA
ENDBRANCH  64  67
ENDBRANCH  46  60
BRANCH  47  71
ATOM     71  C   UNL A   1      46.952  27.314  25.743  1.00  0.00     0.023 A 
ATOM     72  C   UNL A   1      47.936  26.550  26.402  1.00  0.00     0.012 A 
ATOM     73  C   UNL A   1      47.147  27.663  24.393  1.00  0.00     0.148 A 
ATOM     74  C   UNL A   1      49.103  26.166  25.742  1.00  0.00     0.002 A 
ATOM     75  C   UNL A   1      48.290  27.234  23.725  1.00  0.00     0.091 A 
ATOM     76  F   UNL A   1      46.209  28.404  23.786  1.00  0.00    -0.205 F 
ATOM     77  C   UNL A   1      49.276  26.498  24.401  1.00  0.00     0.022 A 
BRANCH  75  78
ATOM     78  S   UNL A   1      48.533  27.509  21.966  1.00  0.00     0.127 S 
ATOM     79  O   UNL A   1      47.258  28.106  21.577  1.00  0.00    -0.237 OA
ATOM     80  O   UNL A   1      49.673  28.428  21.954  1.00  0.00    -0.237 OA
ATOM     81  O   UNL A   1      48.820  26.196  21.405  1.00  0.00    -0.744 OA
ENDBRANCH  75  78
ENDBRANCH  47  71
BRANCH  59  82
ATOM     82  C   UNL A   1      45.173  33.041  29.315  1.00  0.00     0.023 A 
ATOM     83  C   UNL A   1      45.997  33.133  30.454  1.00  0.00     0.012 A 
ATOM     84  C   UNL A   1      45.103  34.128  28.421  1.00  0.00     0.148 A 
ATOM     85  C   UNL A   1      46.721  34.296  30.712  1.00  0.00     0.002 A 
ATOM     86  C   UNL A   1      45.861  35.267  28.662  1.00  0.00     0.091 A 
ATOM     87  F   UNL A   1      44.296  34.029  27.355  1.00  0.00    -0.205 F 
ATOM     88  C   UNL A   1      46.664  35.357  29.810  1.00  0.00     0.022 A 
BRANCH  86  89
ATOM     89  S   UNL A   1      45.919  36.641  27.504  1.00  0.00     0.127 S 
ATOM     90  O   UNL A   1      46.399  35.986  26.288  1.00  0.00    -0.237 OA
ATOM     91  O   UNL A   1      44.521  37.071  27.455  1.00  0.00    -0.237 OA
ATOM     92  O   UNL A   1      46.827  37.617  28.093  1.00  0.00    -0.744 OA
ENDBRANCH  86  89
ENDBRANCH  59  82
ENDBRANCH  33  34
ENDBRANCH  25  28
ENDBRANCH  23  24
ENDBRANCH  22  23
ENDBRANCH   1  22
TORSDOF 18
ENDMDL
