MODEL 1
REMARK VINA RESULT:      -9.9      0.000      0.000
REMARK SMILES CC1=[NH+]/C(=C/c2ccco2)C(=O)N1c1ccc(C(=O)NCCCCNC(=O)c2ccc(-c3c4nc(c(-c5cccc(S(=O)(=O)[O-])c5F)c5ccc([nH]5)c(-c5cccc(S(=O)(=O)[O-])c5F)c5nc(c(-c6cccc(S(=O)(=O)[O-])c6F)c6ccc3[nH]6)C=C5)C=C4)cc2)cc1
REMARK SMILES IDX 23 1 22 2 21 3 20 4 18 5 19 6 17 8 14 9 15 10 92 11 16 12
REMARK SMILES IDX 91 13 13 14 1 15 2 16 3 17 4 18 11 20 5 21 12 22 6 23 7 24
REMARK SMILES IDX 10 25 8 26 9 27 24 28 25 29 26 30 27 32 28 33 29 34 90 35
REMARK SMILES IDX 30 36 89 37 31 38 32 39 33 40 83 41 34 42 88 43 82 44 84 45
REMARK SMILES IDX 35 46 87 47 81 48 80 49 36 51 68 52 48 53 67 54 49 55 52 56
REMARK SMILES IDX 66 57 85 58 50 59 51 60 65 62 86 63 53 64 37 65 38 66 46 67
REMARK SMILES IDX 39 68 41 69 47 70 40 71 42 72 43 73 44 74 45 75 69 76 70 77
REMARK SMILES IDX 78 78 71 79 73 80 79 81 72 82 74 83 75 84 76 85 77 86 54 87
REMARK SMILES IDX 55 88 63 89 56 90 58 91 64 92 57 93 59 94 60 95 61 96 62 97
REMARK H PARENT 20 7 3 19 25 31 84 50 52 61
REMARK Flexibility Score: inf
ROOT
ATOM      1  C   UNL A   1      42.724  21.428  26.585  1.00  0.00     0.023 C 
ENDROOT
BRANCH   1   2
ATOM      2  C   UNL A   1      43.036  22.368  25.417  1.00  0.00     0.023 C 
BRANCH   2   3
ATOM      3  C   UNL A   1      43.625  23.715  25.845  1.00  0.00     0.116 C 
BRANCH   3   4
ATOM      4  N   UNL A   1      45.063  23.616  25.986  1.00  0.00    -0.352 N 
ATOM      5  C   UNL A   1      45.906  23.858  27.038  1.00  0.00     0.251 C 
ATOM      6  O   UNL A   1      47.111  23.673  26.858  1.00  0.00    -0.269 OA
ATOM      7  H   UNL A   1      45.523  23.319  25.167  1.00  0.00     0.163 HD
BRANCH   5   8
ATOM      8  C   UNL A   1      45.442  24.281  28.391  1.00  0.00     0.040 A 
ATOM      9  C   UNL A   1      44.756  25.164  30.978  1.00  0.00     0.136 A 
ATOM     10  C   UNL A   1      45.916  25.634  30.363  1.00  0.00     0.053 A 
ATOM     11  C   UNL A   1      43.913  24.294  30.283  1.00  0.00     0.053 A 
ATOM     12  C   UNL A   1      46.270  25.171  29.094  1.00  0.00     0.018 A 
ATOM     13  C   UNL A   1      44.235  23.897  28.983  1.00  0.00     0.018 A 
BRANCH   9  14
ATOM     14  N   UNL A   1      44.367  25.651  32.231  1.00  0.00    -0.158 N 
ATOM     15  C   UNL A   1      45.567  23.994  33.659  1.00  0.00     0.146 C 
ATOM     16  C   UNL A   1      44.608  25.128  33.455  1.00  0.00     0.259 C 
ATOM     17  N   UNL A   1      43.994  25.705  34.448  1.00  0.00    -0.237 N 
ATOM     18  C   UNL A   1      43.234  26.691  33.847  1.00  0.00     0.219 C 
ATOM     19  H   UNL A   1      44.056  25.488  35.406  1.00  0.00     0.312 HD
ATOM     20  C   UNL A   1      43.534  26.730  32.379  1.00  0.00     0.385 C 
ATOM     21  C   UNL A   1      42.319  27.425  34.492  1.00  0.00     0.107 C 
ATOM     22  O   UNL A   1      43.104  27.495  31.541  1.00  0.00    -0.236 OA
BRANCH  21  23
ATOM     23  C   UNL A   1      41.426  28.292  33.815  1.00  0.00     0.131 A 
ATOM     24  C   UNL A   1      41.541  29.660  33.587  1.00  0.00     0.050 A 
ATOM     25  O   UNL A   1      40.248  27.873  33.246  1.00  0.00    -0.465 OA
ATOM     26  C   UNL A   1      40.370  30.088  32.923  1.00  0.00     0.042 A 
ATOM     27  C   UNL A   1      39.611  28.961  32.745  1.00  0.00     0.195 A 
ENDBRANCH  21  23
ENDBRANCH   9  14
ENDBRANCH   5   8
ENDBRANCH   3   4
ENDBRANCH   2   3
ENDBRANCH   1   2
BRANCH   1  28
ATOM     28  C   UNL A   1      41.517  21.834  27.425  1.00  0.00     0.116 C 
BRANCH  28  29
ATOM     29  N   UNL A   1      40.250  21.655  26.730  1.00  0.00    -0.352 N 
ATOM     30  C   UNL A   1      39.277  22.594  26.486  1.00  0.00     0.251 C 
ATOM     31  H   UNL A   1      40.067  20.747  26.394  1.00  0.00     0.163 HD
ATOM     32  O   UNL A   1      38.210  22.264  25.978  1.00  0.00    -0.269 OA
BRANCH  30  33
ATOM     33  C   UNL A   1      39.522  23.996  26.880  1.00  0.00     0.039 A 
ATOM     34  C   UNL A   1      39.272  24.378  28.199  1.00  0.00     0.014 A 
ATOM     35  C   UNL A   1      40.044  24.910  25.961  1.00  0.00     0.014 A 
ATOM     36  C   UNL A   1      39.607  25.667  28.616  1.00  0.00     0.010 A 
ATOM     37  C   UNL A   1      40.439  26.170  26.395  1.00  0.00     0.010 A 
ATOM     38  C   UNL A   1      40.223  26.561  27.725  1.00  0.00    -0.014 A 
BRANCH  38  39
ATOM     39  C   UNL A   1      40.667  27.906  28.169  1.00  0.00     0.031 A 
ATOM     40  C   UNL A   1      42.131  28.249  28.193  1.00  0.00     0.074 A 
ATOM     41  C   UNL A   1      39.757  28.783  28.639  1.00  0.00     0.049 A 
ATOM     42  N   UNL A   1      42.711  29.348  28.598  1.00  0.00    -0.248 NA
ATOM     43  C   UNL A   1      43.067  27.211  27.731  1.00  0.00     0.031 C 
ATOM     44  C   UNL A   1      38.318  28.532  28.748  1.00  0.00     0.029 A 
ATOM     45  N   UNL A   1      39.911  30.050  29.140  1.00  0.00    -0.354 N 
ATOM     46  C   UNL A   1      44.076  29.124  28.473  1.00  0.00     0.074 A 
ATOM     47  C   UNL A   1      44.240  27.771  27.988  1.00  0.00     0.031 C 
ATOM     48  C   UNL A   1      37.722  29.611  29.278  1.00  0.00     0.029 A 
ATOM     49  C   UNL A   1      38.735  30.621  29.568  1.00  0.00     0.049 A 
ATOM     50  H   UNL A   1      40.782  30.508  29.187  1.00  0.00     0.167 HD
ATOM     51  C   UNL A   1      45.101  29.978  28.708  1.00  0.00     0.034 A 
ATOM     52  C   UNL A   1      38.502  31.822  30.134  1.00  0.00     0.034 A 
ATOM     53  C   UNL A   1      44.932  31.337  29.141  1.00  0.00     0.049 A 
ATOM     54  C   UNL A   1      39.652  32.769  30.336  1.00  0.00     0.074 A 
ATOM     55  C   UNL A   1      45.897  32.313  29.312  1.00  0.00     0.029 A 
ATOM     56  N   UNL A   1      43.716  31.914  29.476  1.00  0.00    -0.354 N 
ATOM     57  N   UNL A   1      40.920  32.602  30.047  1.00  0.00    -0.248 NA
ATOM     58  C   UNL A   1      39.337  34.086  30.908  1.00  0.00     0.031 C 
ATOM     59  C   UNL A   1      45.267  33.476  29.766  1.00  0.00     0.029 A 
ATOM     60  C   UNL A   1      43.906  33.229  29.861  1.00  0.00     0.049 A 
ATOM     61  H   UNL A   1      42.845  31.455  29.445  1.00  0.00     0.167 HD
ATOM     62  C   UNL A   1      41.548  33.799  30.371  1.00  0.00     0.074 A 
ATOM     63  C   UNL A   1      40.515  34.692  30.855  1.00  0.00     0.031 C 
ATOM     64  C   UNL A   1      42.862  34.124  30.290  1.00  0.00     0.034 A 
BRANCH  51  65
ATOM     65  C   UNL A   1      46.497  29.482  28.436  1.00  0.00     0.023 A 
ATOM     66  C   UNL A   1      47.039  29.614  27.142  1.00  0.00     0.012 A 
ATOM     67  C   UNL A   1      47.290  28.936  29.465  1.00  0.00     0.148 A 
ATOM     68  C   UNL A   1      48.333  29.179  26.863  1.00  0.00     0.002 A 
ATOM     69  C   UNL A   1      48.596  28.544  29.190  1.00  0.00     0.091 A 
ATOM     70  F   UNL A   1      46.751  28.797  30.684  1.00  0.00    -0.205 F 
ATOM     71  C   UNL A   1      49.114  28.655  27.889  1.00  0.00     0.022 A 
BRANCH  69  72
ATOM     72  S   UNL A   1      49.707  27.926  30.458  1.00  0.00     0.127 S 
ATOM     73  O   UNL A   1      51.003  28.027  29.790  1.00  0.00    -0.237 OA
ATOM     74  O   UNL A   1      49.504  28.888  31.543  1.00  0.00    -0.237 OA
ATOM     75  O   UNL A   1      49.260  26.574  30.758  1.00  0.00    -0.744 OA
ENDBRANCH  69  72
ENDBRANCH  51  65
BRANCH  52  76
ATOM     76  C   UNL A   1      37.108  32.223  30.475  1.00  0.00     0.023 A 
ATOM     77  C   UNL A   1      36.628  31.999  31.781  1.00  0.00     0.012 A 
ATOM     78  C   UNL A   1      36.271  32.852  29.533  1.00  0.00     0.148 A 
ATOM     79  C   UNL A   1      35.329  32.366  32.134  1.00  0.00     0.002 A 
ATOM     80  C   UNL A   1      34.996  33.262  29.907  1.00  0.00     0.091 A 
ATOM     81  F   UNL A   1      36.742  33.044  28.293  1.00  0.00    -0.205 F 
ATOM     82  C   UNL A   1      34.518  33.006  31.201  1.00  0.00     0.022 A 
BRANCH  80  83
ATOM     83  S   UNL A   1      33.933  34.210  28.813  1.00  0.00     0.127 S 
ATOM     84  O   UNL A   1      33.536  33.202  27.833  1.00  0.00    -0.237 OA
ATOM     85  O   UNL A   1      32.868  34.641  29.721  1.00  0.00    -0.237 OA
ATOM     86  O   UNL A   1      34.763  35.297  28.308  1.00  0.00    -0.744 OA
ENDBRANCH  80  83
ENDBRANCH  52  76
BRANCH  64  87
ATOM     87  C   UNL A   1      43.264  35.513  30.712  1.00  0.00     0.023 A 
ATOM     88  C   UNL A   1      43.668  35.748  32.039  1.00  0.00     0.012 A 
ATOM     89  C   UNL A   1      43.318  36.563  29.774  1.00  0.00     0.148 A 
ATOM     90  C   UNL A   1      44.093  37.015  32.437  1.00  0.00     0.002 A 
ATOM     91  C   UNL A   1      43.787  37.811  30.166  1.00  0.00     0.091 A 
ATOM     92  F   UNL A   1      42.911  36.324  28.519  1.00  0.00    -0.205 F 
ATOM     93  C   UNL A   1      44.164  38.042  31.499  1.00  0.00     0.022 A 
BRANCH  91  94
ATOM     94  S   UNL A   1      44.002  39.165  29.003  1.00  0.00     0.127 S 
ATOM     95  O   UNL A   1      44.741  38.515  27.922  1.00  0.00    -0.237 OA
ATOM     96  O   UNL A   1      42.620  39.516  28.674  1.00  0.00    -0.237 OA
ATOM     97  O   UNL A   1      44.730  40.200  29.726  1.00  0.00    -0.744 OA
ENDBRANCH  91  94
ENDBRANCH  64  87
ENDBRANCH  38  39
ENDBRANCH  30  33
ENDBRANCH  28  29
ENDBRANCH   1  28
TORSDOF 16
ENDMDL
MODEL 2
REMARK VINA RESULT:      -9.7      3.741     10.728
REMARK SMILES CC1=[NH+]/C(=C/c2ccco2)C(=O)N1c1ccc(C(=O)NCCCCNC(=O)c2ccc(-c3c4nc(c(-c5cccc(S(=O)(=O)[O-])c5F)c5ccc([nH]5)c(-c5cccc(S(=O)(=O)[O-])c5F)c5nc(c(-c6cccc(S(=O)(=O)[O-])c6F)c6ccc3[nH]6)C=C5)C=C4)cc2)cc1
REMARK SMILES IDX 23 1 22 2 21 3 20 4 18 5 19 6 17 8 14 9 15 10 92 11 16 12
REMARK SMILES IDX 91 13 13 14 1 15 2 16 3 17 4 18 11 20 5 21 12 22 6 23 7 24
REMARK SMILES IDX 10 25 8 26 9 27 24 28 25 29 26 30 27 32 28 33 29 34 90 35
REMARK SMILES IDX 30 36 89 37 31 38 32 39 33 40 83 41 34 42 88 43 82 44 84 45
REMARK SMILES IDX 35 46 87 47 81 48 80 49 36 51 68 52 48 53 67 54 49 55 52 56
REMARK SMILES IDX 66 57 85 58 50 59 51 60 65 62 86 63 53 64 37 65 38 66 46 67
REMARK SMILES IDX 39 68 41 69 47 70 40 71 42 72 43 73 44 74 45 75 69 76 70 77
REMARK SMILES IDX 78 78 71 79 73 80 79 81 72 82 74 83 75 84 76 85 77 86 54 87
REMARK SMILES IDX 55 88 63 89 56 90 58 91 64 92 57 93 59 94 60 95 61 96 62 97
REMARK H PARENT 20 7 3 19 25 31 84 50 52 61
REMARK Flexibility Score: inf
ROOT
ATOM      1  C   UNL A   1      34.765  33.446  30.851  1.00  0.00     0.023 C 
ENDROOT
BRANCH   1   2
ATOM      2  C   UNL A   1      35.065  32.372  31.901  1.00  0.00     0.023 C 
BRANCH   2   3
ATOM      3  C   UNL A   1      36.538  32.303  32.315  1.00  0.00     0.116 C 
BRANCH   3   4
ATOM      4  N   UNL A   1      36.883  33.439  33.145  1.00  0.00    -0.352 N 
ATOM      5  C   UNL A   1      37.931  34.320  33.114  1.00  0.00     0.251 C 
ATOM      6  O   UNL A   1      37.953  35.211  33.965  1.00  0.00    -0.269 OA
ATOM      7  H   UNL A   1      36.241  33.609  33.872  1.00  0.00     0.163 HD
BRANCH   5   8
ATOM      8  C   UNL A   1      39.010  34.289  32.083  1.00  0.00     0.040 A 
ATOM      9  C   UNL A   1      41.180  34.299  30.285  1.00  0.00     0.136 A 
ATOM     10  C   UNL A   1      41.405  34.429  31.655  1.00  0.00     0.053 A 
ATOM     11  C   UNL A   1      39.878  34.112  29.818  1.00  0.00     0.053 A 
ATOM     12  C   UNL A   1      40.326  34.455  32.542  1.00  0.00     0.018 A 
ATOM     13  C   UNL A   1      38.811  34.062  30.719  1.00  0.00     0.018 A 
BRANCH   9  14
ATOM     14  N   UNL A   1      42.254  34.228  29.390  1.00  0.00    -0.158 N 
ATOM     15  C   UNL A   1      42.152  36.560  28.509  1.00  0.00     0.146 C 
ATOM     16  C   UNL A   1      42.678  35.157  28.504  1.00  0.00     0.259 C 
ATOM     17  N   UNL A   1      43.610  34.768  27.681  1.00  0.00    -0.237 N 
ATOM     18  C   UNL A   1      43.817  33.441  28.008  1.00  0.00     0.219 C 
ATOM     19  H   UNL A   1      44.062  35.298  26.985  1.00  0.00     0.312 HD
ATOM     20  C   UNL A   1      42.986  33.084  29.203  1.00  0.00     0.385 C 
ATOM     21  C   UNL A   1      44.587  32.608  27.297  1.00  0.00     0.107 C 
ATOM     22  O   UNL A   1      42.946  32.033  29.808  1.00  0.00    -0.236 OA
BRANCH  21  23
ATOM     23  C   UNL A   1      44.630  31.214  27.547  1.00  0.00     0.131 A 
ATOM     24  C   UNL A   1      43.833  30.206  27.012  1.00  0.00     0.050 A 
ATOM     25  O   UNL A   1      45.528  30.625  28.404  1.00  0.00    -0.465 OA
ATOM     26  C   UNL A   1      44.217  28.987  27.614  1.00  0.00     0.042 A 
ATOM     27  C   UNL A   1      45.249  29.299  28.460  1.00  0.00     0.195 A 
ENDBRANCH  21  23
ENDBRANCH   9  14
ENDBRANCH   5   8
ENDBRANCH   3   4
ENDBRANCH   2   3
ENDBRANCH   1   2
BRANCH   1  28
ATOM     28  C   UNL A   1      35.330  33.157  29.464  1.00  0.00     0.116 C 
BRANCH  28  29
ATOM     29  N   UNL A   1      34.438  32.354  28.640  1.00  0.00    -0.352 N 
ATOM     30  C   UNL A   1      34.665  31.104  28.117  1.00  0.00     0.251 C 
ATOM     31  H   UNL A   1      33.565  32.758  28.430  1.00  0.00     0.163 HD
ATOM     32  O   UNL A   1      33.854  30.598  27.347  1.00  0.00    -0.269 OA
BRANCH  30  33
ATOM     33  C   UNL A   1      35.915  30.399  28.464  1.00  0.00     0.039 A 
ATOM     34  C   UNL A   1      37.033  30.569  27.647  1.00  0.00     0.014 A 
ATOM     35  C   UNL A   1      35.990  29.618  29.620  1.00  0.00     0.014 A 
ATOM     36  C   UNL A   1      38.252  30.004  28.024  1.00  0.00     0.010 A 
ATOM     37  C   UNL A   1      37.220  29.114  30.028  1.00  0.00     0.010 A 
ATOM     38  C   UNL A   1      38.362  29.301  29.234  1.00  0.00    -0.014 A 
BRANCH  38  39
ATOM     39  C   UNL A   1      39.666  28.766  29.698  1.00  0.00     0.031 A 
ATOM     40  C   UNL A   1      40.412  29.452  30.808  1.00  0.00     0.074 A 
ATOM     41  C   UNL A   1      40.220  27.719  29.055  1.00  0.00     0.049 A 
ATOM     42  N   UNL A   1      41.584  29.166  31.312  1.00  0.00    -0.248 NA
ATOM     43  C   UNL A   1      39.772  30.632  31.412  1.00  0.00     0.031 C 
ATOM     44  C   UNL A   1      39.633  27.025  27.906  1.00  0.00     0.029 A 
ATOM     45  N   UNL A   1      41.414  27.075  29.256  1.00  0.00    -0.354 N 
ATOM     46  C   UNL A   1      41.838  30.146  32.263  1.00  0.00     0.074 A 
ATOM     47  C   UNL A   1      40.714  31.055  32.244  1.00  0.00     0.031 C 
ATOM     48  C   UNL A   1      40.466  26.051  27.508  1.00  0.00     0.029 A 
ATOM     49  C   UNL A   1      41.655  26.064  28.354  1.00  0.00     0.049 A 
ATOM     50  H   UNL A   1      42.039  27.313  29.979  1.00  0.00     0.167 HD
ATOM     51  C   UNL A   1      42.895  30.259  33.102  1.00  0.00     0.034 A 
ATOM     52  C   UNL A   1      42.716  25.244  28.224  1.00  0.00     0.034 A 
ATOM     53  C   UNL A   1      43.985  29.324  33.154  1.00  0.00     0.049 A 
ATOM     54  C   UNL A   1      43.853  25.360  29.202  1.00  0.00     0.074 A 
ATOM     55  C   UNL A   1      45.053  29.294  34.032  1.00  0.00     0.029 A 
ATOM     56  N   UNL A   1      44.150  28.255  32.286  1.00  0.00    -0.354 N 
ATOM     57  N   UNL A   1      43.993  26.186  30.210  1.00  0.00    -0.248 NA
ATOM     58  C   UNL A   1      44.961  24.407  29.049  1.00  0.00     0.031 C 
ATOM     59  C   UNL A   1      45.873  28.215  33.687  1.00  0.00     0.029 A 
ATOM     60  C   UNL A   1      45.306  27.563  32.603  1.00  0.00     0.049 A 
ATOM     61  H   UNL A   1      43.536  28.022  31.553  1.00  0.00     0.167 HD
ATOM     62  C   UNL A   1      45.186  25.834  30.830  1.00  0.00     0.074 A 
ATOM     63  C   UNL A   1      45.717  24.703  30.098  1.00  0.00     0.031 C 
ATOM     64  C   UNL A   1      45.795  26.406  31.898  1.00  0.00     0.034 A 
BRANCH  51  65
ATOM     65  C   UNL A   1      42.889  31.404  34.080  1.00  0.00     0.023 A 
ATOM     66  C   UNL A   1      43.578  32.591  33.760  1.00  0.00     0.012 A 
ATOM     67  C   UNL A   1      42.164  31.330  35.286  1.00  0.00     0.148 A 
ATOM     68  C   UNL A   1      43.578  33.674  34.638  1.00  0.00     0.002 A 
ATOM     69  C   UNL A   1      42.132  32.430  36.137  1.00  0.00     0.091 A 
ATOM     70  F   UNL A   1      41.533  30.186  35.584  1.00  0.00    -0.205 F 
ATOM     71  C   UNL A   1      42.846  33.597  35.820  1.00  0.00     0.022 A 
BRANCH  69  72
ATOM     72  S   UNL A   1      41.159  32.457  37.646  1.00  0.00     0.127 S 
ATOM     73  O   UNL A   1      41.953  31.598  38.523  1.00  0.00    -0.237 OA
ATOM     74  O   UNL A   1      41.180  33.877  38.001  1.00  0.00    -0.237 OA
ATOM     75  O   UNL A   1      39.846  31.943  37.285  1.00  0.00    -0.744 OA
ENDBRANCH  69  72
ENDBRANCH  51  65
BRANCH  52  76
ATOM     76  C   UNL A   1      42.713  24.188  27.172  1.00  0.00     0.023 A 
ATOM     77  C   UNL A   1      43.387  24.426  25.957  1.00  0.00     0.012 A 
ATOM     78  C   UNL A   1      42.083  22.946  27.376  1.00  0.00     0.148 A 
ATOM     79  C   UNL A   1      43.406  23.458  24.953  1.00  0.00     0.002 A 
ATOM     80  C   UNL A   1      42.151  21.966  26.392  1.00  0.00     0.091 A 
ATOM     81  F   UNL A   1      41.437  22.743  28.533  1.00  0.00    -0.205 F 
ATOM     82  C   UNL A   1      42.798  22.226  25.173  1.00  0.00     0.022 A 
BRANCH  80  83
ATOM     83  S   UNL A   1      41.512  20.307  26.642  1.00  0.00     0.127 S 
ATOM     84  O   UNL A   1      42.219  19.893  27.851  1.00  0.00    -0.237 OA
ATOM     85  O   UNL A   1      40.080  20.556  26.820  1.00  0.00    -0.237 OA
ATOM     86  O   UNL A   1      41.844  19.573  25.428  1.00  0.00    -0.744 OA
ENDBRANCH  80  83
ENDBRANCH  52  76
BRANCH  64  87
ATOM     87  C   UNL A   1      47.097  25.806  32.362  1.00  0.00     0.023 A 
ATOM     88  C   UNL A   1      48.306  26.227  31.775  1.00  0.00     0.012 A 
ATOM     89  C   UNL A   1      47.127  24.890  33.432  1.00  0.00     0.148 A 
ATOM     90  C   UNL A   1      49.525  25.722  32.225  1.00  0.00     0.002 A 
ATOM     91  C   UNL A   1      48.349  24.427  33.906  1.00  0.00     0.091 A 
ATOM     92  F   UNL A   1      45.964  24.488  33.965  1.00  0.00    -0.205 F 
ATOM     93  C   UNL A   1      49.547  24.833  33.297  1.00  0.00     0.022 A 
BRANCH  91  94
ATOM     94  S   UNL A   1      48.478  23.355  35.343  1.00  0.00     0.127 S 
ATOM     95  O   UNL A   1      48.105  22.058  34.781  1.00  0.00    -0.237 OA
ATOM     96  O   UNL A   1      49.892  23.482  35.701  1.00  0.00    -0.237 OA
ATOM     97  O   UNL A   1      47.557  23.899  36.331  1.00  0.00    -0.744 OA
ENDBRANCH  91  94
ENDBRANCH  64  87
ENDBRANCH  38  39
ENDBRANCH  30  33
ENDBRANCH  28  29
ENDBRANCH   1  28
TORSDOF 16
ENDMDL
MODEL 3
REMARK VINA RESULT:      -9.7      5.486     11.963
REMARK SMILES CC1=[NH+]/C(=C/c2ccco2)C(=O)N1c1ccc(C(=O)NCCCCNC(=O)c2ccc(-c3c4nc(c(-c5cccc(S(=O)(=O)[O-])c5F)c5ccc([nH]5)c(-c5cccc(S(=O)(=O)[O-])c5F)c5nc(c(-c6cccc(S(=O)(=O)[O-])c6F)c6ccc3[nH]6)C=C5)C=C4)cc2)cc1
REMARK SMILES IDX 23 1 22 2 21 3 20 4 18 5 19 6 17 8 14 9 15 10 92 11 16 12
REMARK SMILES IDX 91 13 13 14 1 15 2 16 3 17 4 18 11 20 5 21 12 22 6 23 7 24
REMARK SMILES IDX 10 25 8 26 9 27 24 28 25 29 26 30 27 32 28 33 29 34 90 35
REMARK SMILES IDX 30 36 89 37 31 38 32 39 33 40 83 41 34 42 88 43 82 44 84 45
REMARK SMILES IDX 35 46 87 47 81 48 80 49 36 51 68 52 48 53 67 54 49 55 52 56
REMARK SMILES IDX 66 57 85 58 50 59 51 60 65 62 86 63 53 64 37 65 38 66 46 67
REMARK SMILES IDX 39 68 41 69 47 70 40 71 42 72 43 73 44 74 45 75 69 76 70 77
REMARK SMILES IDX 78 78 71 79 73 80 79 81 72 82 74 83 75 84 76 85 77 86 54 87
REMARK SMILES IDX 55 88 63 89 56 90 58 91 64 92 57 93 59 94 60 95 61 96 62 97
REMARK H PARENT 20 7 3 19 25 31 84 50 52 61
REMARK Flexibility Score: inf
ROOT
ATOM      1  C   UNL A   1      31.328  30.355  25.536  1.00  0.00     0.023 C 
ENDROOT
BRANCH   1   2
ATOM      2  C   UNL A   1      31.648  29.046  24.808  1.00  0.00     0.023 C 
BRANCH   2   3
ATOM      3  C   UNL A   1      31.009  28.934  23.422  1.00  0.00     0.116 C 
BRANCH   3   4
ATOM      4  N   UNL A   1      29.741  28.239  23.505  1.00  0.00    -0.352 N 
ATOM      5  C   UNL A   1      29.416  26.943  23.807  1.00  0.00     0.251 C 
ATOM      6  O   UNL A   1      28.222  26.639  23.807  1.00  0.00    -0.269 OA
ATOM      7  H   UNL A   1      28.962  28.808  23.304  1.00  0.00     0.163 HD
BRANCH   5   8
ATOM      8  C   UNL A   1      30.419  25.904  24.182  1.00  0.00     0.040 A 
ATOM      9  C   UNL A   1      32.320  23.886  24.687  1.00  0.00     0.136 A 
ATOM     10  C   UNL A   1      32.046  24.277  23.377  1.00  0.00     0.053 A 
ATOM     11  C   UNL A   1      31.684  24.536  25.746  1.00  0.00     0.053 A 
ATOM     12  C   UNL A   1      31.081  25.256  23.127  1.00  0.00     0.018 A 
ATOM     13  C   UNL A   1      30.778  25.569  25.490  1.00  0.00     0.018 A 
BRANCH   9  14
ATOM     14  N   UNL A   1      33.314  22.937  24.953  1.00  0.00    -0.158 N 
ATOM     15  C   UNL A   1      35.260  24.487  25.144  1.00  0.00     0.146 C 
ATOM     16  C   UNL A   1      34.649  23.121  25.070  1.00  0.00     0.259 C 
ATOM     17  N   UNL A   1      35.363  22.035  25.166  1.00  0.00    -0.237 N 
ATOM     18  C   UNL A   1      34.437  21.013  25.068  1.00  0.00     0.219 C 
ATOM     19  H   UNL A   1      36.337  21.961  25.280  1.00  0.00     0.312 HD
ATOM     20  C   UNL A   1      33.055  21.592  25.014  1.00  0.00     0.385 C 
ATOM     21  C   UNL A   1      34.762  19.719  24.959  1.00  0.00     0.107 C 
ATOM     22  O   UNL A   1      31.992  21.007  24.983  1.00  0.00    -0.236 OA
BRANCH  21  23
ATOM     23  C   UNL A   1      33.803  18.717  24.673  1.00  0.00     0.131 A 
ATOM     24  C   UNL A   1      33.124  17.880  25.553  1.00  0.00     0.050 A 
ATOM     25  O   UNL A   1      33.379  18.416  23.401  1.00  0.00    -0.465 OA
ATOM     26  C   UNL A   1      32.320  17.008  24.787  1.00  0.00     0.042 A 
ATOM     27  C   UNL A   1      32.517  17.371  23.481  1.00  0.00     0.195 A 
ENDBRANCH  21  23
ENDBRANCH   9  14
ENDBRANCH   5   8
ENDBRANCH   3   4
ENDBRANCH   2   3
ENDBRANCH   1   2
BRANCH   1  28
ATOM     28  C   UNL A   1      32.384  30.799  26.543  1.00  0.00     0.116 C 
BRANCH  28  29
ATOM     29  N   UNL A   1      32.341  32.226  26.825  1.00  0.00    -0.352 N 
ATOM     30  C   UNL A   1      33.244  32.976  27.539  1.00  0.00     0.251 C 
ATOM     31  H   UNL A   1      31.568  32.715  26.460  1.00  0.00     0.163 HD
ATOM     32  O   UNL A   1      33.014  34.157  27.783  1.00  0.00    -0.269 OA
BRANCH  30  33
ATOM     33  C   UNL A   1      34.475  32.330  28.038  1.00  0.00     0.039 A 
ATOM     34  C   UNL A   1      35.657  33.071  28.073  1.00  0.00     0.014 A 
ATOM     35  C   UNL A   1      34.442  31.018  28.517  1.00  0.00     0.014 A 
ATOM     36  C   UNL A   1      36.799  32.514  28.649  1.00  0.00     0.010 A 
ATOM     37  C   UNL A   1      35.562  30.491  29.151  1.00  0.00     0.010 A 
ATOM     38  C   UNL A   1      36.751  31.233  29.222  1.00  0.00    -0.014 A 
BRANCH  38  39
ATOM     39  C   UNL A   1      37.928  30.655  29.917  1.00  0.00     0.031 A 
ATOM     40  C   UNL A   1      38.270  31.091  31.315  1.00  0.00     0.074 A 
ATOM     41  C   UNL A   1      38.741  29.810  29.253  1.00  0.00     0.049 A 
ATOM     42  N   UNL A   1      39.284  30.741  32.061  1.00  0.00    -0.248 NA
ATOM     43  C   UNL A   1      37.372  32.072  31.946  1.00  0.00     0.031 C 
ATOM     44  C   UNL A   1      38.563  29.382  27.863  1.00  0.00     0.029 A 
ATOM     45  N   UNL A   1      39.896  29.183  29.647  1.00  0.00    -0.354 N 
ATOM     46  C   UNL A   1      39.168  31.480  33.231  1.00  0.00     0.074 A 
ATOM     47  C   UNL A   1      38.003  32.325  33.083  1.00  0.00     0.031 C 
ATOM     48  C   UNL A   1      39.569  28.560  27.524  1.00  0.00     0.029 A 
ATOM     49  C   UNL A   1      40.475  28.421  28.659  1.00  0.00     0.049 A 
ATOM     50  H   UNL A   1      40.272  29.269  30.553  1.00  0.00     0.167 HD
ATOM     51  C   UNL A   1      39.939  31.435  34.343  1.00  0.00     0.034 A 
ATOM     52  C   UNL A   1      41.611  27.696  28.669  1.00  0.00     0.034 A 
ATOM     53  C   UNL A   1      41.065  30.557  34.506  1.00  0.00     0.049 A 
ATOM     54  C   UNL A   1      42.421  27.624  29.933  1.00  0.00     0.074 A 
ATOM     55  C   UNL A   1      41.851  30.363  35.627  1.00  0.00     0.029 A 
ATOM     56  N   UNL A   1      41.569  29.728  33.516  1.00  0.00    -0.354 N 
ATOM     57  N   UNL A   1      42.196  28.196  31.091  1.00  0.00    -0.248 NA
ATOM     58  C   UNL A   1      43.622  26.776  29.907  1.00  0.00     0.031 C 
ATOM     59  C   UNL A   1      42.841  29.428  35.311  1.00  0.00     0.029 A 
ATOM     60  C   UNL A   1      42.661  29.026  33.997  1.00  0.00     0.049 A 
ATOM     61  H   UNL A   1      41.205  29.649  32.605  1.00  0.00     0.167 HD
ATOM     62  C   UNL A   1      43.206  27.755  31.938  1.00  0.00     0.074 A 
ATOM     63  C   UNL A   1      44.030  26.848  31.167  1.00  0.00     0.031 C 
ATOM     64  C   UNL A   1      43.439  28.085  33.233  1.00  0.00     0.034 A 
BRANCH  51  65
ATOM     65  C   UNL A   1      39.549  32.320  35.498  1.00  0.00     0.023 A 
ATOM     66  C   UNL A   1      38.740  31.797  36.527  1.00  0.00     0.012 A 
ATOM     67  C   UNL A   1      40.020  33.644  35.595  1.00  0.00     0.148 A 
ATOM     68  C   UNL A   1      38.375  32.586  37.617  1.00  0.00     0.002 A 
ATOM     69  C   UNL A   1      39.688  34.411  36.706  1.00  0.00     0.091 A 
ATOM     70  F   UNL A   1      40.769  34.132  34.596  1.00  0.00    -0.205 F 
ATOM     71  C   UNL A   1      38.858  33.888  37.711  1.00  0.00     0.022 A 
BRANCH  69  72
ATOM     72  S   UNL A   1      40.319  36.074  36.957  1.00  0.00     0.127 S 
ATOM     73  O   UNL A   1      39.783  36.772  35.790  1.00  0.00    -0.237 OA
ATOM     74  O   UNL A   1      39.700  36.450  38.229  1.00  0.00    -0.237 OA
ATOM     75  O   UNL A   1      41.769  35.949  37.003  1.00  0.00    -0.744 OA
ENDBRANCH  69  72
ENDBRANCH  51  65
BRANCH  52  76
ATOM     76  C   UNL A   1      42.003  26.915  27.461  1.00  0.00     0.023 A 
ATOM     77  C   UNL A   1      42.605  27.584  26.376  1.00  0.00     0.012 A 
ATOM     78  C   UNL A   1      41.816  25.522  27.391  1.00  0.00     0.148 A 
ATOM     79  C   UNL A   1      42.987  26.883  25.232  1.00  0.00     0.002 A 
ATOM     80  C   UNL A   1      42.247  24.822  26.269  1.00  0.00     0.091 A 
ATOM     81  F   UNL A   1      41.230  24.906  28.427  1.00  0.00    -0.205 F 
ATOM     82  C   UNL A   1      42.817  25.503  25.182  1.00  0.00     0.022 A 
BRANCH  80  83
ATOM     83  S   UNL A   1      42.190  23.029  26.175  1.00  0.00     0.127 S 
ATOM     84  O   UNL A   1      42.776  22.780  24.861  1.00  0.00    -0.237 OA
ATOM     85  O   UNL A   1      43.029  22.638  27.310  1.00  0.00    -0.237 OA
ATOM     86  O   UNL A   1      40.784  22.676  26.322  1.00  0.00    -0.744 OA
ENDBRANCH  80  83
ENDBRANCH  52  76
BRANCH  64  87
ATOM     87  C   UNL A   1      44.621  27.444  33.914  1.00  0.00     0.023 A 
ATOM     88  C   UNL A   1      45.893  28.036  33.803  1.00  0.00     0.012 A 
ATOM     89  C   UNL A   1      44.454  26.305  34.726  1.00  0.00     0.148 A 
ATOM     90  C   UNL A   1      46.990  27.488  34.467  1.00  0.00     0.002 A 
ATOM     91  C   UNL A   1      45.542  25.792  35.423  1.00  0.00     0.091 A 
ATOM     92  F   UNL A   1      43.238  25.746  34.804  1.00  0.00    -0.205 F 
ATOM     93  C   UNL A   1      46.812  26.375  35.285  1.00  0.00     0.022 A 
BRANCH  91  94
ATOM     94  S   UNL A   1      45.386  24.421  36.573  1.00  0.00     0.127 S 
ATOM     95  O   UNL A   1      45.470  23.269  35.677  1.00  0.00    -0.237 OA
ATOM     96  O   UNL A   1      46.551  24.607  37.440  1.00  0.00    -0.237 OA
ATOM     97  O   UNL A   1      44.104  24.603  37.241  1.00  0.00    -0.744 OA
ENDBRANCH  91  94
ENDBRANCH  64  87
ENDBRANCH  38  39
ENDBRANCH  30  33
ENDBRANCH  28  29
ENDBRANCH   1  28
TORSDOF 16
ENDMDL
