MODEL 1
REMARK VINA RESULT:     -12.2      0.000      0.000
REMARK SMILES CCC(=O)N1CCC[C@](C[C@H]2CC(c3ccc(C)cc3)=NO2)(C(=O)NCCCCNC(=O)c2ccc(-c3c4nc(c(-c5cccc(S(=O)(=O)[O-])c5F)c5ccc([nH]5)c(-c5cccc(S(=O)(=O)[O-])c5F)c5nc(c(-c6cccc(S(=O)(=O)[O-])c6F)c6ccc3[nH]6)C=C5)C=C4)cc2)C1
REMARK SMILES IDX 27 1 26 2 25 3 23 4 24 5 9 7 5 8 6 9 96 10 7 11 8 12 3 13
REMARK SMILES IDX 4 14 2 15 1 16 10 17 11 18 12 19 22 20 13 21 21 22 14 23
REMARK SMILES IDX 15 24 20 25 16 26 19 27 17 28 18 29 28 30 29 31 30 32 31 33
REMARK SMILES IDX 32 35 33 36 34 37 95 38 35 39 94 40 36 41 37 42 38 43 88 44
REMARK SMILES IDX 39 45 93 46 87 47 89 48 40 49 92 50 86 51 85 52 41 54 73 55
REMARK SMILES IDX 53 56 72 57 54 58 57 59 71 60 90 61 55 62 56 63 70 65 91 66
REMARK SMILES IDX 58 67 42 68 43 69 51 70 44 71 46 72 52 73 45 74 47 75 48 76
REMARK SMILES IDX 49 77 50 78 74 79 75 80 83 81 76 82 78 83 84 84 77 85 79 86
REMARK SMILES IDX 80 87 81 88 82 89 59 90 60 91 68 92 61 93 63 94 69 95 62 96
REMARK SMILES IDX 64 97 65 98 66 99 67 100
REMARK H PARENT 25 6 30 34 89 53 57 64
REMARK Flexibility Score: inf
ROOT
ATOM      1  C   UNL A   1      34.557  28.692  26.337  1.00  0.00     0.023 C 
ENDROOT
BRANCH   1   2
ATOM      2  C   UNL A   1      33.551  28.087  25.345  1.00  0.00     0.116 C 
BRANCH   2   3
ATOM      3  N   UNL A   1      32.274  27.718  25.930  1.00  0.00    -0.356 N 
ATOM      4  C   UNL A   1      31.269  26.876  25.566  1.00  0.00     0.228 C 
ATOM      5  O   UNL A   1      30.424  26.695  26.458  1.00  0.00    -0.274 OA
ATOM      6  H   UNL A   1      32.096  28.180  26.781  1.00  0.00     0.163 HD
BRANCH   4   7
ATOM      7  C   UNL A   1      30.977  26.318  24.133  1.00  0.00     0.070 C 
ATOM      8  N   UNL A   1      29.927  28.419  23.234  1.00  0.00    -0.342 N 
ATOM      9  C   UNL A   1      28.624  27.797  23.053  1.00  0.00     0.119 C 
ATOM     10  C   UNL A   1      31.093  27.534  23.150  1.00  0.00     0.136 C 
ATOM     11  C   UNL A   1      28.437  26.631  24.008  1.00  0.00     0.023 C 
ATOM     12  C   UNL A   1      29.613  25.666  23.875  1.00  0.00     0.021 C 
BRANCH   8  13
ATOM     13  C   UNL A   1      29.968  29.686  23.788  1.00  0.00     0.222 C 
ATOM     14  O   UNL A   1      30.844  29.999  24.596  1.00  0.00    -0.275 OA
BRANCH  13  15
ATOM     15  C   UNL A   1      28.742  30.566  23.587  1.00  0.00     0.097 C 
ATOM     16  C   UNL A   1      28.965  32.018  23.228  1.00  0.00     0.014 C 
ENDBRANCH  13  15
ENDBRANCH   8  13
BRANCH   7  17
ATOM     17  C   UNL A   1      32.164  25.313  23.902  1.00  0.00     0.067 C 
BRANCH  17  18
ATOM     18  C   UNL A   1      32.611  24.290  24.962  1.00  0.00     0.211 C 
ATOM     19  C   UNL A   1      32.118  22.873  24.779  1.00  0.00     0.108 C 
ATOM     20  O   UNL A   1      34.031  24.230  25.108  1.00  0.00    -0.392 OA
ATOM     21  C   UNL A   1      33.424  22.176  24.682  1.00  0.00     0.091 C 
ATOM     22  N   UNL A   1      34.469  22.901  24.909  1.00  0.00    -0.090 NA
BRANCH  21  23
ATOM     23  C   UNL A   1      33.486  20.740  24.388  1.00  0.00    -0.001 A 
ATOM     24  C   UNL A   1      32.459  20.122  23.671  1.00  0.00     0.010 A 
ATOM     25  C   UNL A   1      34.585  20.007  24.834  1.00  0.00     0.010 A 
ATOM     26  C   UNL A   1      32.529  18.752  23.412  1.00  0.00     0.004 A 
ATOM     27  C   UNL A   1      34.639  18.634  24.590  1.00  0.00     0.004 A 
ATOM     28  C   UNL A   1      33.613  17.996  23.878  1.00  0.00    -0.051 A 
ATOM     29  C   UNL A   1      33.682  16.518  23.632  1.00  0.00     0.044 C 
ENDBRANCH  21  23
ENDBRANCH  17  18
ENDBRANCH   7  17
ENDBRANCH   4   7
ENDBRANCH   2   3
ENDBRANCH   1   2
BRANCH   1  30
ATOM     30  C   UNL A   1      34.081  29.840  27.241  1.00  0.00     0.023 C 
BRANCH  30  31
ATOM     31  C   UNL A   1      35.208  30.732  27.710  1.00  0.00     0.116 C 
BRANCH  31  32
ATOM     32  N   UNL A   1      34.781  32.065  28.091  1.00  0.00    -0.352 N 
ATOM     33  C   UNL A   1      35.244  32.888  29.095  1.00  0.00     0.251 C 
ATOM     34  H   UNL A   1      34.047  32.438  27.551  1.00  0.00     0.163 HD
ATOM     35  O   UNL A   1      34.458  33.744  29.516  1.00  0.00    -0.269 OA
BRANCH  33  36
ATOM     36  C   UNL A   1      36.651  32.852  29.566  1.00  0.00     0.039 A 
ATOM     37  C   UNL A   1      37.120  31.736  30.280  1.00  0.00     0.014 A 
ATOM     38  C   UNL A   1      37.438  33.995  29.528  1.00  0.00     0.014 A 
ATOM     39  C   UNL A   1      38.213  31.870  31.136  1.00  0.00     0.010 A 
ATOM     40  C   UNL A   1      38.553  34.108  30.289  1.00  0.00     0.010 A 
ATOM     41  C   UNL A   1      38.822  33.110  31.209  1.00  0.00    -0.014 A 
BRANCH  41  42
ATOM     42  C   UNL A   1      39.739  33.590  32.212  1.00  0.00     0.031 A 
ATOM     43  C   UNL A   1      39.173  34.079  33.461  1.00  0.00     0.074 A 
ATOM     44  C   UNL A   1      40.985  33.080  32.078  1.00  0.00     0.049 A 
ATOM     45  N   UNL A   1      39.858  34.621  34.397  1.00  0.00    -0.248 NA
ATOM     46  C   UNL A   1      37.745  33.997  33.747  1.00  0.00     0.031 C 
ATOM     47  C   UNL A   1      41.962  32.709  33.090  1.00  0.00     0.029 A 
ATOM     48  N   UNL A   1      41.628  32.764  30.876  1.00  0.00    -0.354 N 
ATOM     49  C   UNL A   1      39.049  34.643  35.512  1.00  0.00     0.074 A 
ATOM     50  C   UNL A   1      37.716  34.408  35.016  1.00  0.00     0.031 C 
ATOM     51  C   UNL A   1      43.151  32.501  32.490  1.00  0.00     0.029 A 
ATOM     52  C   UNL A   1      43.005  32.904  31.099  1.00  0.00     0.049 A 
ATOM     53  H   UNL A   1      41.195  32.494  30.035  1.00  0.00     0.167 HD
ATOM     54  C   UNL A   1      39.650  34.659  36.733  1.00  0.00     0.034 A 
ATOM     55  C   UNL A   1      43.632  33.971  30.507  1.00  0.00     0.034 A 
ATOM     56  C   UNL A   1      41.117  34.673  36.557  1.00  0.00     0.049 A 
ATOM     57  C   UNL A   1      44.041  35.022  31.528  1.00  0.00     0.074 A 
ATOM     58  C   UNL A   1      42.075  33.672  36.588  1.00  0.00     0.029 A 
ATOM     59  N   UNL A   1      41.714  35.759  35.925  1.00  0.00    -0.354 N 
ATOM     60  N   UNL A   1      43.642  35.028  32.772  1.00  0.00    -0.248 NA
ATOM     61  C   UNL A   1      44.964  36.117  31.249  1.00  0.00     0.031 C 
ATOM     62  C   UNL A   1      43.220  34.137  35.873  1.00  0.00     0.029 A 
ATOM     63  C   UNL A   1      42.971  35.427  35.435  1.00  0.00     0.049 A 
ATOM     64  H   UNL A   1      41.300  36.648  35.837  1.00  0.00     0.167 HD
ATOM     65  C   UNL A   1      44.138  36.114  33.432  1.00  0.00     0.074 A 
ATOM     66  C   UNL A   1      45.015  36.732  32.447  1.00  0.00     0.031 C 
ATOM     67  C   UNL A   1      43.755  36.427  34.710  1.00  0.00     0.034 A 
BRANCH  54  68
ATOM     68  C   UNL A   1      38.983  34.367  38.069  1.00  0.00     0.023 A 
ATOM     69  C   UNL A   1      39.194  35.312  39.098  1.00  0.00     0.012 A 
ATOM     70  C   UNL A   1      38.189  33.247  38.421  1.00  0.00     0.148 A 
ATOM     71  C   UNL A   1      38.712  35.135  40.400  1.00  0.00     0.002 A 
ATOM     72  C   UNL A   1      37.731  33.051  39.729  1.00  0.00     0.091 A 
ATOM     73  F   UNL A   1      37.801  32.378  37.490  1.00  0.00    -0.205 F 
ATOM     74  C   UNL A   1      37.995  33.994  40.723  1.00  0.00     0.022 A 
BRANCH  72  75
ATOM     75  S   UNL A   1      36.801  31.586  40.231  1.00  0.00     0.127 S 
ATOM     76  O   UNL A   1      37.866  30.687  40.685  1.00  0.00    -0.237 OA
ATOM     77  O   UNL A   1      35.951  32.106  41.301  1.00  0.00    -0.237 OA
ATOM     78  O   UNL A   1      36.091  31.118  39.047  1.00  0.00    -0.744 OA
ENDBRANCH  72  75
ENDBRANCH  54  68
BRANCH  55  79
ATOM     79  C   UNL A   1      43.066  34.222  29.128  1.00  0.00     0.023 A 
ATOM     80  C   UNL A   1      42.317  35.423  28.977  1.00  0.00     0.012 A 
ATOM     81  C   UNL A   1      43.643  33.651  27.980  1.00  0.00     0.148 A 
ATOM     82  C   UNL A   1      42.362  36.152  27.784  1.00  0.00     0.002 A 
ATOM     83  C   UNL A   1      43.646  34.367  26.779  1.00  0.00     0.091 A 
ATOM     84  F   UNL A   1      44.230  32.452  28.083  1.00  0.00    -0.205 F 
ATOM     85  C   UNL A   1      43.070  35.646  26.700  1.00  0.00     0.022 A 
BRANCH  83  86
ATOM     86  S   UNL A   1      44.453  33.706  25.313  1.00  0.00     0.127 S 
ATOM     87  O   UNL A   1      44.520  32.281  25.633  1.00  0.00    -0.237 OA
ATOM     88  O   UNL A   1      43.524  34.035  24.233  1.00  0.00    -0.237 OA
ATOM     89  O   UNL A   1      45.726  34.409  25.238  1.00  0.00    -0.744 OA
ENDBRANCH  83  86
ENDBRANCH  55  79
BRANCH  67  90
ATOM     90  C   UNL A   1      44.058  37.735  35.419  1.00  0.00     0.023 A 
ATOM     91  C   UNL A   1      44.776  37.792  36.625  1.00  0.00     0.012 A 
ATOM     92  C   UNL A   1      43.774  38.977  34.787  1.00  0.00     0.148 A 
ATOM     93  C   UNL A   1      45.147  39.009  37.205  1.00  0.00     0.002 A 
ATOM     94  C   UNL A   1      44.275  40.170  35.291  1.00  0.00     0.091 A 
ATOM     95  F   UNL A   1      42.998  39.016  33.694  1.00  0.00    -0.205 F 
ATOM     96  C   UNL A   1      44.927  40.196  36.523  1.00  0.00     0.022 A 
BRANCH  94  97
ATOM     97  S   UNL A   1      44.268  41.670  34.299  1.00  0.00     0.127 S 
ATOM     98  O   UNL A   1      43.021  42.305  34.719  1.00  0.00    -0.237 OA
ATOM     99  O   UNL A   1      45.482  42.349  34.755  1.00  0.00    -0.237 OA
ATOM    100  O   UNL A   1      44.324  41.217  32.915  1.00  0.00    -0.744 OA
ENDBRANCH  94  97
ENDBRANCH  67  90
ENDBRANCH  41  42
ENDBRANCH  33  36
ENDBRANCH  31  32
ENDBRANCH  30  31
ENDBRANCH   1  30
TORSDOF 19
ENDMDL
MODEL 2
REMARK VINA RESULT:     -12.1      5.178      9.398
REMARK SMILES CCC(=O)N1CCC[C@](C[C@H]2CC(c3ccc(C)cc3)=NO2)(C(=O)NCCCCNC(=O)c2ccc(-c3c4nc(c(-c5cccc(S(=O)(=O)[O-])c5F)c5ccc([nH]5)c(-c5cccc(S(=O)(=O)[O-])c5F)c5nc(c(-c6cccc(S(=O)(=O)[O-])c6F)c6ccc3[nH]6)C=C5)C=C4)cc2)C1
REMARK SMILES IDX 27 1 26 2 25 3 23 4 24 5 9 7 5 8 6 9 96 10 7 11 8 12 3 13
REMARK SMILES IDX 4 14 2 15 1 16 10 17 11 18 12 19 22 20 13 21 21 22 14 23
REMARK SMILES IDX 15 24 20 25 16 26 19 27 17 28 18 29 28 30 29 31 30 32 31 33
REMARK SMILES IDX 32 35 33 36 34 37 95 38 35 39 94 40 36 41 37 42 38 43 88 44
REMARK SMILES IDX 39 45 93 46 87 47 89 48 40 49 92 50 86 51 85 52 41 54 73 55
REMARK SMILES IDX 53 56 72 57 54 58 57 59 71 60 90 61 55 62 56 63 70 65 91 66
REMARK SMILES IDX 58 67 42 68 43 69 51 70 44 71 46 72 52 73 45 74 47 75 48 76
REMARK SMILES IDX 49 77 50 78 74 79 75 80 83 81 76 82 78 83 84 84 77 85 79 86
REMARK SMILES IDX 80 87 81 88 82 89 59 90 60 91 68 92 61 93 63 94 69 95 62 96
REMARK SMILES IDX 64 97 65 98 66 99 67 100
REMARK H PARENT 25 6 30 34 89 53 57 64
REMARK Flexibility Score: inf
ROOT
ATOM      1  C   UNL A   1      33.877  29.704  27.362  1.00  0.00     0.023 C 
ENDROOT
BRANCH   1   2
ATOM      2  C   UNL A   1      34.148  28.457  26.505  1.00  0.00     0.116 C 
BRANCH   2   3
ATOM      3  N   UNL A   1      34.207  28.707  25.076  1.00  0.00    -0.356 N 
ATOM      4  C   UNL A   1      33.559  28.197  23.994  1.00  0.00     0.228 C 
ATOM      5  O   UNL A   1      33.762  28.835  22.947  1.00  0.00    -0.274 OA
ATOM      6  H   UNL A   1      34.862  29.402  24.837  1.00  0.00     0.163 HD
BRANCH   4   7
ATOM      7  C   UNL A   1      32.800  26.832  23.904  1.00  0.00     0.070 C 
ATOM      8  N   UNL A   1      30.487  27.815  23.787  1.00  0.00    -0.342 N 
ATOM      9  C   UNL A   1      30.080  27.237  25.059  1.00  0.00     0.119 C 
ATOM     10  C   UNL A   1      31.519  27.091  23.038  1.00  0.00     0.136 C 
ATOM     11  C   UNL A   1      31.279  26.997  25.960  1.00  0.00     0.023 C 
ATOM     12  C   UNL A   1      32.328  26.179  25.210  1.00  0.00     0.021 C 
BRANCH   8  13
ATOM     13  C   UNL A   1      30.143  29.131  23.536  1.00  0.00     0.222 C 
ATOM     14  O   UNL A   1      30.477  30.034  24.304  1.00  0.00    -0.275 OA
BRANCH  13  15
ATOM     15  C   UNL A   1      29.108  29.377  22.446  1.00  0.00     0.097 C 
ATOM     16  C   UNL A   1      27.688  29.670  22.872  1.00  0.00     0.014 C 
ENDBRANCH  13  15
ENDBRANCH   8  13
BRANCH   7  17
ATOM     17  C   UNL A   1      33.814  25.919  23.122  1.00  0.00     0.067 C 
BRANCH  17  18
ATOM     18  C   UNL A   1      33.381  24.658  22.354  1.00  0.00     0.211 C 
ATOM     19  C   UNL A   1      33.961  23.346  22.834  1.00  0.00     0.108 C 
ATOM     20  O   UNL A   1      31.961  24.501  22.303  1.00  0.00    -0.392 OA
ATOM     21  C   UNL A   1      32.701  22.634  23.161  1.00  0.00     0.091 C 
ATOM     22  N   UNL A   1      31.609  23.238  22.829  1.00  0.00    -0.090 NA
BRANCH  21  23
ATOM     23  C   UNL A   1      32.733  21.305  23.783  1.00  0.00    -0.001 A 
ATOM     24  C   UNL A   1      32.370  20.174  23.048  1.00  0.00     0.010 A 
ATOM     25  C   UNL A   1      33.131  21.192  25.114  1.00  0.00     0.010 A 
ATOM     26  C   UNL A   1      32.394  18.920  23.660  1.00  0.00     0.004 A 
ATOM     27  C   UNL A   1      33.133  19.939  25.727  1.00  0.00     0.004 A 
ATOM     28  C   UNL A   1      32.765  18.793  25.005  1.00  0.00    -0.051 A 
ATOM     29  C   UNL A   1      32.764  17.454  25.681  1.00  0.00     0.044 C 
ENDBRANCH  21  23
ENDBRANCH  17  18
ENDBRANCH   7  17
ENDBRANCH   4   7
ENDBRANCH   2   3
ENDBRANCH   1   2
BRANCH   1  30
ATOM     30  C   UNL A   1      35.066  30.363  28.076  1.00  0.00     0.023 C 
BRANCH  30  31
ATOM     31  C   UNL A   1      35.294  31.796  27.649  1.00  0.00     0.116 C 
BRANCH  31  32
ATOM     32  N   UNL A   1      34.657  32.773  28.512  1.00  0.00    -0.352 N 
ATOM     33  C   UNL A   1      34.911  33.087  29.830  1.00  0.00     0.251 C 
ATOM     34  H   UNL A   1      33.931  33.289  28.092  1.00  0.00     0.163 HD
ATOM     35  O   UNL A   1      33.981  33.594  30.467  1.00  0.00    -0.269 OA
BRANCH  33  36
ATOM     36  C   UNL A   1      36.261  32.955  30.432  1.00  0.00     0.039 A 
ATOM     37  C   UNL A   1      37.391  33.386  29.715  1.00  0.00     0.014 A 
ATOM     38  C   UNL A   1      36.451  32.199  31.580  1.00  0.00     0.014 A 
ATOM     39  C   UNL A   1      38.643  32.845  30.005  1.00  0.00     0.010 A 
ATOM     40  C   UNL A   1      37.678  31.737  31.924  1.00  0.00     0.010 A 
ATOM     41  C   UNL A   1      38.721  31.924  31.034  1.00  0.00    -0.014 A 
BRANCH  41  42
ATOM     42  C   UNL A   1      39.795  31.008  31.326  1.00  0.00     0.031 A 
ATOM     43  C   UNL A   1      39.835  29.759  30.577  1.00  0.00     0.074 A 
ATOM     44  C   UNL A   1      40.875  31.614  31.872  1.00  0.00     0.049 A 
ATOM     45  N   UNL A   1      40.671  28.816  30.798  1.00  0.00    -0.248 NA
ATOM     46  C   UNL A   1      38.896  29.475  29.498  1.00  0.00     0.031 C 
ATOM     47  C   UNL A   1      42.293  31.332  31.708  1.00  0.00     0.029 A 
ATOM     48  N   UNL A   1      40.860  32.710  32.740  1.00  0.00    -0.354 N 
ATOM     49  C   UNL A   1      40.611  27.976  29.706  1.00  0.00     0.074 A 
ATOM     50  C   UNL A   1      39.392  28.331  29.024  1.00  0.00     0.031 C 
ATOM     51  C   UNL A   1      42.981  32.013  32.646  1.00  0.00     0.029 A 
ATOM     52  C   UNL A   1      42.004  32.611  33.544  1.00  0.00     0.049 A 
ATOM     53  H   UNL A   1      40.176  33.417  32.778  1.00  0.00     0.167 HD
ATOM     54  C   UNL A   1      41.711  27.228  29.420  1.00  0.00     0.034 A 
ATOM     55  C   UNL A   1      41.819  32.275  34.862  1.00  0.00     0.034 A 
ATOM     56  C   UNL A   1      42.762  27.495  30.424  1.00  0.00     0.049 A 
ATOM     57  C   UNL A   1      42.309  30.865  35.157  1.00  0.00     0.074 A 
ATOM     58  C   UNL A   1      43.871  28.327  30.424  1.00  0.00     0.029 A 
ATOM     59  N   UNL A   1      42.526  27.167  31.756  1.00  0.00    -0.354 N 
ATOM     60  N   UNL A   1      42.643  29.999  34.239  1.00  0.00    -0.248 NA
ATOM     61  C   UNL A   1      42.509  30.334  36.501  1.00  0.00     0.031 C 
ATOM     62  C   UNL A   1      44.234  28.576  31.781  1.00  0.00     0.029 A 
ATOM     63  C   UNL A   1      43.367  27.876  32.604  1.00  0.00     0.049 A 
ATOM     64  H   UNL A   1      41.851  26.517  32.057  1.00  0.00     0.167 HD
ATOM     65  C   UNL A   1      43.001  28.810  34.804  1.00  0.00     0.074 A 
ATOM     66  C   UNL A   1      42.961  29.094  36.232  1.00  0.00     0.031 C 
ATOM     67  C   UNL A   1      43.260  27.694  34.052  1.00  0.00     0.034 A 
BRANCH  54  68
ATOM     68  C   UNL A   1      41.986  26.493  28.115  1.00  0.00     0.023 A 
ATOM     69  C   UNL A   1      41.862  27.250  26.929  1.00  0.00     0.012 A 
ATOM     70  C   UNL A   1      42.332  25.131  27.939  1.00  0.00     0.148 A 
ATOM     71  C   UNL A   1      42.003  26.689  25.654  1.00  0.00     0.002 A 
ATOM     72  C   UNL A   1      42.444  24.559  26.666  1.00  0.00     0.091 A 
ATOM     73  F   UNL A   1      42.624  24.369  28.990  1.00  0.00    -0.205 F 
ATOM     74  C   UNL A   1      42.277  25.337  25.520  1.00  0.00     0.022 A 
BRANCH  72  75
ATOM     75  S   UNL A   1      42.786  22.805  26.408  1.00  0.00     0.127 S 
ATOM     76  O   UNL A   1      44.120  22.662  26.996  1.00  0.00    -0.237 OA
ATOM     77  O   UNL A   1      41.717  22.161  27.169  1.00  0.00    -0.237 OA
ATOM     78  O   UNL A   1      42.743  22.580  24.968  1.00  0.00    -0.744 OA
ENDBRANCH  72  75
ENDBRANCH  54  68
BRANCH  55  79
ATOM     79  C   UNL A   1      40.573  32.932  35.408  1.00  0.00     0.023 A 
ATOM     80  C   UNL A   1      39.439  32.083  35.552  1.00  0.00     0.012 A 
ATOM     81  C   UNL A   1      40.639  34.091  36.202  1.00  0.00     0.148 A 
ATOM     82  C   UNL A   1      38.548  32.250  36.616  1.00  0.00     0.002 A 
ATOM     83  C   UNL A   1      39.718  34.272  37.238  1.00  0.00     0.091 A 
ATOM     84  F   UNL A   1      41.627  34.968  35.980  1.00  0.00    -0.205 F 
ATOM     85  C   UNL A   1      38.719  33.317  37.490  1.00  0.00     0.022 A 
BRANCH  83  86
ATOM     86  S   UNL A   1      39.827  35.698  38.330  1.00  0.00     0.127 S 
ATOM     87  O   UNL A   1      41.185  35.563  38.854  1.00  0.00    -0.237 OA
ATOM     88  O   UNL A   1      39.641  36.834  37.428  1.00  0.00    -0.237 OA
ATOM     89  O   UNL A   1      38.747  35.518  39.290  1.00  0.00    -0.744 OA
ENDBRANCH  83  86
ENDBRANCH  55  79
BRANCH  67  90
ATOM     90  C   UNL A   1      43.415  26.286  34.599  1.00  0.00     0.023 A 
ATOM     91  C   UNL A   1      42.316  25.448  34.852  1.00  0.00     0.012 A 
ATOM     92  C   UNL A   1      44.704  25.696  34.708  1.00  0.00     0.148 A 
ATOM     93  C   UNL A   1      42.479  24.116  35.245  1.00  0.00     0.002 A 
ATOM     94  C   UNL A   1      44.854  24.338  34.952  1.00  0.00     0.091 A 
ATOM     95  F   UNL A   1      45.805  26.455  34.593  1.00  0.00    -0.205 F 
ATOM     96  C   UNL A   1      43.746  23.551  35.262  1.00  0.00     0.022 A 
BRANCH  94  97
ATOM     97  S   UNL A   1      46.434  23.519  34.692  1.00  0.00     0.127 S 
ATOM     98  O   UNL A   1      47.054  23.633  36.011  1.00  0.00    -0.237 OA
ATOM     99  O   UNL A   1      46.024  22.162  34.327  1.00  0.00    -0.237 OA
ATOM    100  O   UNL A   1      47.078  24.257  33.614  1.00  0.00    -0.744 OA
ENDBRANCH  94  97
ENDBRANCH  67  90
ENDBRANCH  41  42
ENDBRANCH  33  36
ENDBRANCH  31  32
ENDBRANCH  30  31
ENDBRANCH   1  30
TORSDOF 19
ENDMDL
MODEL 3
REMARK VINA RESULT:     -11.4      8.996     14.810
REMARK SMILES CCC(=O)N1CCC[C@](C[C@H]2CC(c3ccc(C)cc3)=NO2)(C(=O)NCCCCNC(=O)c2ccc(-c3c4nc(c(-c5cccc(S(=O)(=O)[O-])c5F)c5ccc([nH]5)c(-c5cccc(S(=O)(=O)[O-])c5F)c5nc(c(-c6cccc(S(=O)(=O)[O-])c6F)c6ccc3[nH]6)C=C5)C=C4)cc2)C1
REMARK SMILES IDX 27 1 26 2 25 3 23 4 24 5 9 7 5 8 6 9 96 10 7 11 8 12 3 13
REMARK SMILES IDX 4 14 2 15 1 16 10 17 11 18 12 19 22 20 13 21 21 22 14 23
REMARK SMILES IDX 15 24 20 25 16 26 19 27 17 28 18 29 28 30 29 31 30 32 31 33
REMARK SMILES IDX 32 35 33 36 34 37 95 38 35 39 94 40 36 41 37 42 38 43 88 44
REMARK SMILES IDX 39 45 93 46 87 47 89 48 40 49 92 50 86 51 85 52 41 54 73 55
REMARK SMILES IDX 53 56 72 57 54 58 57 59 71 60 90 61 55 62 56 63 70 65 91 66
REMARK SMILES IDX 58 67 42 68 43 69 51 70 44 71 46 72 52 73 45 74 47 75 48 76
REMARK SMILES IDX 49 77 50 78 74 79 75 80 83 81 76 82 78 83 84 84 77 85 79 86
REMARK SMILES IDX 80 87 81 88 82 89 59 90 60 91 68 92 61 93 63 94 69 95 62 96
REMARK SMILES IDX 64 97 65 98 66 99 67 100
REMARK H PARENT 25 6 30 34 89 53 57 64
REMARK Flexibility Score: inf
ROOT
ATOM      1  C   UNL A   1      39.861  25.685  27.611  1.00  0.00     0.023 C 
ENDROOT
BRANCH   1   2
ATOM      2  C   UNL A   1      38.744  26.227  28.517  1.00  0.00     0.116 C 
BRANCH   2   3
ATOM      3  N   UNL A   1      39.210  26.843  29.747  1.00  0.00    -0.356 N 
ATOM      4  C   UNL A   1      39.487  28.120  30.126  1.00  0.00     0.228 C 
ATOM      5  O   UNL A   1      39.673  28.247  31.347  1.00  0.00    -0.274 OA
ATOM      6  H   UNL A   1      39.357  26.190  30.469  1.00  0.00     0.163 HD
BRANCH   4   7
ATOM      7  C   UNL A   1      39.792  29.337  29.190  1.00  0.00     0.070 C 
ATOM      8  N   UNL A   1      37.943  30.810  30.052  1.00  0.00    -0.342 N 
ATOM      9  C   UNL A   1      37.237  30.819  28.780  1.00  0.00     0.119 C 
ATOM     10  C   UNL A   1      39.397  30.625  29.992  1.00  0.00     0.136 C 
ATOM     11  C   UNL A   1      37.550  29.573  27.970  1.00  0.00     0.023 C 
ATOM     12  C   UNL A   1      39.064  29.414  27.842  1.00  0.00     0.021 C 
BRANCH   8  13
ATOM     13  C   UNL A   1      37.198  30.639  31.205  1.00  0.00     0.222 C 
ATOM     14  O   UNL A   1      36.618  29.578  31.436  1.00  0.00    -0.275 OA
BRANCH  13  15
ATOM     15  C   UNL A   1      36.892  31.889  32.019  1.00  0.00     0.097 C 
ATOM     16  C   UNL A   1      35.445  32.302  32.164  1.00  0.00     0.014 C 
ENDBRANCH  13  15
ENDBRANCH   8  13
BRANCH   7  17
ATOM     17  C   UNL A   1      41.352  29.260  29.014  1.00  0.00     0.067 C 
BRANCH  17  18
ATOM     18  C   UNL A   1      42.090  29.889  27.818  1.00  0.00     0.211 C 
ATOM     19  C   UNL A   1      43.487  30.400  28.084  1.00  0.00     0.108 C 
ATOM     20  O   UNL A   1      42.165  29.013  26.692  1.00  0.00    -0.392 OA
ATOM     21  C   UNL A   1      44.236  29.569  27.110  1.00  0.00     0.091 C 
ATOM     22  N   UNL A   1      43.517  28.847  26.315  1.00  0.00    -0.090 NA
BRANCH  21  23
ATOM     23  C   UNL A   1      45.701  29.621  27.051  1.00  0.00    -0.001 A 
ATOM     24  C   UNL A   1      46.382  30.774  27.446  1.00  0.00     0.010 A 
ATOM     25  C   UNL A   1      46.398  28.502  26.596  1.00  0.00     0.010 A 
ATOM     26  C   UNL A   1      47.775  30.810  27.371  1.00  0.00     0.004 A 
ATOM     27  C   UNL A   1      47.790  28.552  26.503  1.00  0.00     0.004 A 
ATOM     28  C   UNL A   1      48.488  29.705  26.890  1.00  0.00    -0.051 A 
ATOM     29  C   UNL A   1      49.984  29.745  26.775  1.00  0.00     0.044 C 
ENDBRANCH  21  23
ENDBRANCH  17  18
ENDBRANCH   7  17
ENDBRANCH   4   7
ENDBRANCH   2   3
ENDBRANCH   1   2
BRANCH   1  30
ATOM     30  C   UNL A   1      39.483  24.661  26.530  1.00  0.00     0.023 C 
BRANCH  30  31
ATOM     31  C   UNL A   1      39.755  23.233  26.946  1.00  0.00     0.116 C 
BRANCH  31  32
ATOM     32  N   UNL A   1      40.814  22.594  26.187  1.00  0.00    -0.352 N 
ATOM     33  C   UNL A   1      42.123  22.982  25.997  1.00  0.00     0.251 C 
ATOM     34  H   UNL A   1      40.558  21.755  25.739  1.00  0.00     0.163 HD
ATOM     35  O   UNL A   1      42.685  22.555  24.982  1.00  0.00    -0.269 OA
BRANCH  33  36
ATOM     36  C   UNL A   1      42.877  23.760  27.012  1.00  0.00     0.039 A 
ATOM     37  C   UNL A   1      43.090  25.136  26.819  1.00  0.00     0.014 A 
ATOM     38  C   UNL A   1      43.579  23.114  28.019  1.00  0.00     0.014 A 
ATOM     39  C   UNL A   1      44.165  25.765  27.446  1.00  0.00     0.010 A 
ATOM     40  C   UNL A   1      44.570  23.739  28.700  1.00  0.00     0.010 A 
ATOM     41  C   UNL A   1      44.960  24.998  28.279  1.00  0.00    -0.014 A 
BRANCH  41  42
ATOM     42  C   UNL A   1      46.272  25.310  28.786  1.00  0.00     0.031 A 
ATOM     43  C   UNL A   1      47.414  24.981  27.944  1.00  0.00     0.074 A 
ATOM     44  C   UNL A   1      46.261  26.289  29.721  1.00  0.00     0.049 A 
ATOM     45  N   UNL A   1      48.635  25.112  28.304  1.00  0.00    -0.248 NA
ATOM     46  C   UNL A   1      47.251  24.454  26.593  1.00  0.00     0.031 C 
ATOM     47  C   UNL A   1      47.228  27.342  29.989  1.00  0.00     0.029 A 
ATOM     48  N   UNL A   1      45.256  26.522  30.665  1.00  0.00    -0.354 N 
ATOM     49  C   UNL A   1      49.394  25.020  27.157  1.00  0.00     0.074 A 
ATOM     50  C   UNL A   1      48.515  24.449  26.168  1.00  0.00     0.031 C 
ATOM     51  C   UNL A   1      46.931  27.911  31.175  1.00  0.00     0.029 A 
ATOM     52  C   UNL A   1      45.869  27.118  31.776  1.00  0.00     0.049 A 
ATOM     53  H   UNL A   1      44.301  26.309  30.567  1.00  0.00     0.167 HD
ATOM     54  C   UNL A   1      50.610  25.631  27.151  1.00  0.00     0.034 A 
ATOM     55  C   UNL A   1      45.987  26.357  32.913  1.00  0.00     0.034 A 
ATOM     56  C   UNL A   1      50.849  26.264  28.465  1.00  0.00     0.049 A 
ATOM     57  C   UNL A   1      47.430  25.956  33.175  1.00  0.00     0.074 A 
ATOM     58  C   UNL A   1      50.690  27.563  28.923  1.00  0.00     0.029 A 
ATOM     59  N   UNL A   1      50.932  25.462  29.599  1.00  0.00    -0.354 N 
ATOM     60  N   UNL A   1      48.401  26.108  32.314  1.00  0.00    -0.248 NA
ATOM     61  C   UNL A   1      47.907  25.399  34.436  1.00  0.00     0.031 C 
ATOM     62  C   UNL A   1      50.576  27.517  30.345  1.00  0.00     0.029 A 
ATOM     63  C   UNL A   1      50.694  26.198  30.753  1.00  0.00     0.049 A 
ATOM     64  H   UNL A   1      51.134  24.499  29.586  1.00  0.00     0.167 HD
ATOM     65  C   UNL A   1      49.571  25.618  32.814  1.00  0.00     0.074 A 
ATOM     66  C   UNL A   1      49.220  25.243  34.177  1.00  0.00     0.031 C 
ATOM     67  C   UNL A   1      50.709  25.531  32.055  1.00  0.00     0.034 A 
BRANCH  54  68
ATOM     68  C   UNL A   1      51.460  25.932  25.925  1.00  0.00     0.023 A 
ATOM     69  C   UNL A   1      52.753  25.361  25.900  1.00  0.00     0.012 A 
ATOM     70  C   UNL A   1      51.125  26.735  24.807  1.00  0.00     0.148 A 
ATOM     71  C   UNL A   1      53.674  25.617  24.878  1.00  0.00     0.002 A 
ATOM     72  C   UNL A   1      52.053  27.018  23.799  1.00  0.00     0.091 A 
ATOM     73  F   UNL A   1      49.884  27.193  24.655  1.00  0.00    -0.205 F 
ATOM     74  C   UNL A   1      53.332  26.461  23.835  1.00  0.00     0.022 A 
BRANCH  72  75
ATOM     75  S   UNL A   1      51.689  28.117  22.413  1.00  0.00     0.127 S 
ATOM     76  O   UNL A   1      51.272  29.345  23.096  1.00  0.00    -0.237 OA
ATOM     77  O   UNL A   1      52.982  28.210  21.738  1.00  0.00    -0.237 OA
ATOM     78  O   UNL A   1      50.631  27.477  21.642  1.00  0.00    -0.744 OA
ENDBRANCH  72  75
ENDBRANCH  54  68
BRANCH  55  79
ATOM     79  C   UNL A   1      44.760  25.496  33.105  1.00  0.00     0.023 A 
ATOM     80  C   UNL A   1      44.931  24.108  32.841  1.00  0.00     0.012 A 
ATOM     81  C   UNL A   1      43.714  25.885  33.962  1.00  0.00     0.148 A 
ATOM     82  C   UNL A   1      44.257  23.145  33.599  1.00  0.00     0.002 A 
ATOM     83  C   UNL A   1      43.015  24.913  34.684  1.00  0.00     0.091 A 
ATOM     84  F   UNL A   1      43.454  27.191  34.109  1.00  0.00    -0.205 F 
ATOM     85  C   UNL A   1      43.335  23.551  34.557  1.00  0.00     0.022 A 
BRANCH  83  86
ATOM     86  S   UNL A   1      41.732  25.380  35.856  1.00  0.00     0.127 S 
ATOM     87  O   UNL A   1      41.164  24.079  36.202  1.00  0.00    -0.237 OA
ATOM     88  O   UNL A   1      42.477  26.018  36.941  1.00  0.00    -0.237 OA
ATOM     89  O   UNL A   1      40.863  26.286  35.118  1.00  0.00    -0.744 OA
ENDBRANCH  83  86
ENDBRANCH  55  79
BRANCH  67  90
ATOM     90  C   UNL A   1      51.967  24.777  32.447  1.00  0.00     0.023 A 
ATOM     91  C   UNL A   1      53.209  25.414  32.609  1.00  0.00     0.012 A 
ATOM     92  C   UNL A   1      51.894  23.413  32.841  1.00  0.00     0.148 A 
ATOM     93  C   UNL A   1      54.332  24.729  33.083  1.00  0.00     0.002 A 
ATOM     94  C   UNL A   1      52.972  22.783  33.448  1.00  0.00     0.091 A 
ATOM     95  F   UNL A   1      50.778  22.704  32.614  1.00  0.00    -0.205 F 
ATOM     96  C   UNL A   1      54.207  23.423  33.534  1.00  0.00     0.022 A 
BRANCH  94  97
ATOM     97  S   UNL A   1      52.765  21.214  34.305  1.00  0.00     0.127 S 
ATOM     98  O   UNL A   1      51.856  21.580  35.389  1.00  0.00    -0.237 OA
ATOM     99  O   UNL A   1      52.169  20.371  33.267  1.00  0.00    -0.237 OA
ATOM    100  O   UNL A   1      54.108  20.813  34.701  1.00  0.00    -0.744 OA
ENDBRANCH  94  97
ENDBRANCH  67  90
ENDBRANCH  41  42
ENDBRANCH  33  36
ENDBRANCH  31  32
ENDBRANCH  30  31
ENDBRANCH   1  30
TORSDOF 19
ENDMDL
