MODEL 1
REMARK VINA RESULT:     -11.4      0.000      0.000
REMARK SMILES Cc1nc(C[N@@H+]2CCC[C@H]2C(=O)NCCCCNC(=O)c2ccc(-c3c4nc(c(-c5cccc(S(=O)(=O)[O-])c5F)c5ccc([nH]5)c(-c5cccc(S(=O)(=O)[O-])c5F)c5nc(c(-c6cccc(S(=O)(=O)[O-])c6F)c6ccc3[nH]6)C=C5)C=C4)cc2)cs1
REMARK SMILES IDX 16 1 15 2 14 3 13 4 11 5 12 6 10 8 6 9 7 10 8 12 9 13 5 14
REMARK SMILES IDX 4 15 1 16 2 17 3 18 85 19 84 20 17 21 18 22 19 23 20 25
REMARK SMILES IDX 21 26 22 27 83 28 23 29 82 30 24 31 25 32 26 33 76 34 27 35
REMARK SMILES IDX 81 36 75 37 77 38 28 39 80 40 74 41 73 42 29 44 61 45 41 46
REMARK SMILES IDX 60 47 42 48 45 49 59 50 78 51 43 52 44 53 58 55 79 56 46 57
REMARK SMILES IDX 30 58 31 59 39 60 32 61 34 62 40 63 33 64 35 65 36 66 37 67
REMARK SMILES IDX 38 68 62 69 63 70 71 71 64 72 66 73 72 74 65 75 67 76 68 77
REMARK SMILES IDX 69 78 70 79 47 80 48 81 56 82 49 83 51 84 57 85 50 86 52 87
REMARK SMILES IDX 53 88 54 89 55 90
REMARK H PARENT 13 7 6 11 18 24 77 43 45 54
REMARK Flexibility Score: inf
ROOT
ATOM      1  C   UNL A   1      31.555  28.953  25.685  1.00  0.00     0.023 C 
ENDROOT
BRANCH   1   2
ATOM      2  C   UNL A   1      31.458  27.711  26.571  1.00  0.00     0.023 C 
BRANCH   2   3
ATOM      3  C   UNL A   1      31.631  26.388  25.834  1.00  0.00     0.116 C 
BRANCH   3   4
ATOM      4  N   UNL A   1      30.930  25.302  26.492  1.00  0.00    -0.351 N 
ATOM      5  C   UNL A   1      31.206  23.981  26.664  1.00  0.00     0.278 C 
ATOM      6  O   UNL A   1      30.353  23.342  27.295  1.00  0.00    -0.268 OA
ATOM      7  H   UNL A   1      30.078  25.579  26.900  1.00  0.00     0.163 HD
BRANCH   5   8
ATOM      8  C   UNL A   1      32.435  23.243  26.076  1.00  0.00     0.274 C 
ATOM      9  N   UNL A   1      32.464  21.803  26.366  1.00  0.00    -0.320 N 
ATOM     10  C   UNL A   1      31.934  21.088  25.219  1.00  0.00     0.263 C 
ATOM     11  H   UNL A   1      31.841  21.597  27.147  1.00  0.00     0.349 HD
ATOM     12  C   UNL A   1      32.305  21.924  24.014  1.00  0.00     0.068 C 
ATOM     13  C   UNL A   1      32.411  23.347  24.542  1.00  0.00     0.081 C 
BRANCH   9  14
ATOM     14  C   UNL A   1      33.713  21.316  26.952  1.00  0.00     0.321 C 
BRANCH  14  15
ATOM     15  C   UNL A   1      34.958  21.669  26.193  1.00  0.00     0.106 A 
ATOM     16  C   UNL A   1      37.710  24.056  25.895  1.00  0.00     0.079 C 
ATOM     17  C   UNL A   1      36.732  22.941  25.787  1.00  0.00     0.090 A 
ATOM     18  N   UNL A   1      35.645  22.833  26.520  1.00  0.00    -0.241 NA
ATOM     19  S   UNL A   1      36.982  21.680  24.648  1.00  0.00    -0.127 S 
ATOM     20  C   UNL A   1      35.561  20.910  25.207  1.00  0.00     0.096 A 
ENDBRANCH  14  15
ENDBRANCH   9  14
ENDBRANCH   5   8
ENDBRANCH   3   4
ENDBRANCH   2   3
ENDBRANCH   1   2
BRANCH   1  21
ATOM     21  C   UNL A   1      32.820  29.786  25.861  1.00  0.00     0.116 C 
BRANCH  21  22
ATOM     22  N   UNL A   1      32.559  31.143  26.321  1.00  0.00    -0.352 N 
ATOM     23  C   UNL A   1      33.275  31.903  27.219  1.00  0.00     0.251 C 
ATOM     24  H   UNL A   1      31.762  31.575  25.938  1.00  0.00     0.163 HD
ATOM     25  O   UNL A   1      32.854  32.994  27.577  1.00  0.00    -0.269 OA
BRANCH  23  26
ATOM     26  C   UNL A   1      34.541  31.371  27.768  1.00  0.00     0.039 A 
ATOM     27  C   UNL A   1      35.615  32.244  27.954  1.00  0.00     0.014 A 
ATOM     28  C   UNL A   1      34.649  30.027  28.134  1.00  0.00     0.014 A 
ATOM     29  C   UNL A   1      36.778  31.782  28.575  1.00  0.00     0.010 A 
ATOM     30  C   UNL A   1      35.777  29.590  28.820  1.00  0.00     0.010 A 
ATOM     31  C   UNL A   1      36.853  30.460  29.046  1.00  0.00    -0.014 A 
BRANCH  31  32
ATOM     32  C   UNL A   1      38.039  29.972  29.794  1.00  0.00     0.031 A 
ATOM     33  C   UNL A   1      38.308  30.461  31.191  1.00  0.00     0.074 A 
ATOM     34  C   UNL A   1      38.928  29.166  29.180  1.00  0.00     0.049 A 
ATOM     35  N   UNL A   1      39.315  30.190  31.980  1.00  0.00    -0.248 NA
ATOM     36  C   UNL A   1      37.331  31.401  31.765  1.00  0.00     0.031 C 
ATOM     37  C   UNL A   1      38.824  28.689  27.799  1.00  0.00     0.029 A 
ATOM     38  N   UNL A   1      40.107  28.626  29.631  1.00  0.00    -0.354 N 
ATOM     39  C   UNL A   1      39.116  30.954  33.123  1.00  0.00     0.074 A 
ATOM     40  C   UNL A   1      37.912  31.727  32.910  1.00  0.00     0.031 C 
ATOM     41  C   UNL A   1      39.887  27.917  27.521  1.00  0.00     0.029 A 
ATOM     42  C   UNL A   1      40.761  27.866  28.689  1.00  0.00     0.049 A 
ATOM     43  H   UNL A   1      40.452  28.770  30.541  1.00  0.00     0.167 HD
ATOM     44  C   UNL A   1      39.848  30.986  34.263  1.00  0.00     0.034 A 
ATOM     45  C   UNL A   1      41.931  27.202  28.759  1.00  0.00     0.034 A 
ATOM     46  C   UNL A   1      41.018  30.182  34.489  1.00  0.00     0.049 A 
ATOM     47  C   UNL A   1      42.706  27.219  30.048  1.00  0.00     0.074 A 
ATOM     48  C   UNL A   1      41.774  30.065  35.642  1.00  0.00     0.029 A 
ATOM     49  N   UNL A   1      41.609  29.362  33.539  1.00  0.00    -0.354 N 
ATOM     50  N   UNL A   1      42.414  27.815  31.179  1.00  0.00    -0.248 NA
ATOM     51  C   UNL A   1      43.955  26.446  30.082  1.00  0.00     0.031 C 
ATOM     52  C   UNL A   1      42.834  29.189  35.382  1.00  0.00     0.029 A 
ATOM     53  C   UNL A   1      42.726  28.744  34.074  1.00  0.00     0.049 A 
ATOM     54  H   UNL A   1      41.282  29.237  32.619  1.00  0.00     0.167 HD
ATOM     55  C   UNL A   1      43.420  27.460  32.069  1.00  0.00     0.074 A 
ATOM     56  C   UNL A   1      44.322  26.583  31.350  1.00  0.00     0.031 C 
ATOM     57  C   UNL A   1      43.589  27.834  33.362  1.00  0.00     0.034 A 
BRANCH  44  58
ATOM     58  C   UNL A   1      39.364  31.886  35.370  1.00  0.00     0.023 A 
ATOM     59  C   UNL A   1      38.406  31.405  36.288  1.00  0.00     0.012 A 
ATOM     60  C   UNL A   1      39.866  33.192  35.521  1.00  0.00     0.148 A 
ATOM     61  C   UNL A   1      37.919  32.225  37.305  1.00  0.00     0.002 A 
ATOM     62  C   UNL A   1      39.410  33.989  36.567  1.00  0.00     0.091 A 
ATOM     63  F   UNL A   1      40.757  33.646  34.628  1.00  0.00    -0.205 F 
ATOM     64  C   UNL A   1      38.427  33.512  37.450  1.00  0.00     0.022 A 
BRANCH  62  65
ATOM     65  S   UNL A   1      40.065  35.632  36.880  1.00  0.00     0.127 S 
ATOM     66  O   UNL A   1      39.610  36.361  35.697  1.00  0.00    -0.237 OA
ATOM     67  O   UNL A   1      39.387  36.006  38.123  1.00  0.00    -0.237 OA
ATOM     68  O   UNL A   1      41.505  35.466  37.007  1.00  0.00    -0.744 OA
ENDBRANCH  62  65
ENDBRANCH  44  58
BRANCH  45  69
ATOM     69  C   UNL A   1      42.385  26.383  27.599  1.00  0.00     0.023 A 
ATOM     70  C   UNL A   1      43.231  26.968  26.639  1.00  0.00     0.012 A 
ATOM     71  C   UNL A   1      42.031  25.026  27.469  1.00  0.00     0.148 A 
ATOM     72  C   UNL A   1      43.702  26.225  25.557  1.00  0.00     0.002 A 
ATOM     73  C   UNL A   1      42.544  24.277  26.416  1.00  0.00     0.091 A 
ATOM     74  F   UNL A   1      41.219  24.490  28.392  1.00  0.00    -0.205 F 
ATOM     75  C   UNL A   1      43.368  24.878  25.451  1.00  0.00     0.022 A 
BRANCH  73  76
ATOM     76  S   UNL A   1      42.274  22.508  26.262  1.00  0.00     0.127 S 
ATOM     77  O   UNL A   1      40.819  22.436  26.150  1.00  0.00    -0.237 OA
ATOM     78  O   UNL A   1      43.003  22.200  25.031  1.00  0.00    -0.237 OA
ATOM     79  O   UNL A   1      42.843  21.914  27.464  1.00  0.00    -0.744 OA
ENDBRANCH  73  76
ENDBRANCH  45  69
BRANCH  57  80
ATOM     80  C   UNL A   1      44.777  27.278  34.102  1.00  0.00     0.023 A 
ATOM     81  C   UNL A   1      45.996  27.983  34.099  1.00  0.00     0.012 A 
ATOM     82  C   UNL A   1      44.663  26.097  34.863  1.00  0.00     0.148 A 
ATOM     83  C   UNL A   1      47.092  27.507  34.818  1.00  0.00     0.002 A 
ATOM     84  C   UNL A   1      45.744  25.654  35.615  1.00  0.00     0.091 A 
ATOM     85  F   UNL A   1      43.500  25.428  34.837  1.00  0.00    -0.205 F 
ATOM     86  C   UNL A   1      46.963  26.351  35.586  1.00  0.00     0.022 A 
BRANCH  84  87
ATOM     87  S   UNL A   1      45.638  24.231  36.707  1.00  0.00     0.127 S 
ATOM     88  O   UNL A   1      47.002  24.153  37.228  1.00  0.00    -0.237 OA
ATOM     89  O   UNL A   1      44.636  24.662  37.683  1.00  0.00    -0.237 OA
ATOM     90  O   UNL A   1      45.221  23.115  35.870  1.00  0.00    -0.744 OA
ENDBRANCH  84  87
ENDBRANCH  57  80
ENDBRANCH  31  32
ENDBRANCH  23  26
ENDBRANCH  21  22
ENDBRANCH   1  21
TORSDOF 16
ENDMDL
MODEL 2
REMARK VINA RESULT:     -11.4      1.185      1.761
REMARK SMILES Cc1nc(C[N@@H+]2CCC[C@H]2C(=O)NCCCCNC(=O)c2ccc(-c3c4nc(c(-c5cccc(S(=O)(=O)[O-])c5F)c5ccc([nH]5)c(-c5cccc(S(=O)(=O)[O-])c5F)c5nc(c(-c6cccc(S(=O)(=O)[O-])c6F)c6ccc3[nH]6)C=C5)C=C4)cc2)cs1
REMARK SMILES IDX 16 1 15 2 14 3 13 4 11 5 12 6 10 8 6 9 7 10 8 12 9 13 5 14
REMARK SMILES IDX 4 15 1 16 2 17 3 18 85 19 84 20 17 21 18 22 19 23 20 25
REMARK SMILES IDX 21 26 22 27 83 28 23 29 82 30 24 31 25 32 26 33 76 34 27 35
REMARK SMILES IDX 81 36 75 37 77 38 28 39 80 40 74 41 73 42 29 44 61 45 41 46
REMARK SMILES IDX 60 47 42 48 45 49 59 50 78 51 43 52 44 53 58 55 79 56 46 57
REMARK SMILES IDX 30 58 31 59 39 60 32 61 34 62 40 63 33 64 35 65 36 66 37 67
REMARK SMILES IDX 38 68 62 69 63 70 71 71 64 72 66 73 72 74 65 75 67 76 68 77
REMARK SMILES IDX 69 78 70 79 47 80 48 81 56 82 49 83 51 84 57 85 50 86 52 87
REMARK SMILES IDX 53 88 54 89 55 90
REMARK H PARENT 13 7 6 11 18 24 77 43 45 54
REMARK Flexibility Score: inf
ROOT
ATOM      1  C   UNL A   1      31.770  28.924  26.047  1.00  0.00     0.023 C 
ENDROOT
BRANCH   1   2
ATOM      2  C   UNL A   1      32.292  27.503  26.260  1.00  0.00     0.023 C 
BRANCH   2   3
ATOM      3  C   UNL A   1      31.377  26.403  25.732  1.00  0.00     0.116 C 
BRANCH   3   4
ATOM      4  N   UNL A   1      31.249  25.304  26.670  1.00  0.00    -0.351 N 
ATOM      5  C   UNL A   1      31.535  23.977  26.596  1.00  0.00     0.278 C 
ATOM      6  O   UNL A   1      31.286  23.326  27.621  1.00  0.00    -0.268 OA
ATOM      7  H   UNL A   1      30.879  25.576  27.541  1.00  0.00     0.163 HD
BRANCH   5   8
ATOM      8  C   UNL A   1      32.060  23.246  25.334  1.00  0.00     0.274 C 
ATOM      9  N   UNL A   1      33.508  22.998  25.344  1.00  0.00    -0.320 N 
ATOM     10  C   UNL A   1      33.742  21.638  25.792  1.00  0.00     0.263 C 
ATOM     11  H   UNL A   1      33.956  23.609  26.027  1.00  0.00     0.349 HD
ATOM     12  C   UNL A   1      32.544  20.844  25.322  1.00  0.00     0.068 C 
ATOM     13  C   UNL A   1      31.411  21.855  25.240  1.00  0.00     0.081 C 
BRANCH   9  14
ATOM     14  C   UNL A   1      34.220  23.451  24.148  1.00  0.00     0.321 C 
BRANCH  14  15
ATOM     15  C   UNL A   1      33.552  24.556  23.383  1.00  0.00     0.106 A 
ATOM     16  C   UNL A   1      33.628  28.123  22.591  1.00  0.00     0.079 C 
ATOM     17  C   UNL A   1      33.358  26.666  22.723  1.00  0.00     0.090 A 
ATOM     18  N   UNL A   1      34.034  25.854  23.506  1.00  0.00    -0.241 NA
ATOM     19  S   UNL A   1      32.094  25.937  21.818  1.00  0.00    -0.127 S 
ATOM     20  C   UNL A   1      32.510  24.418  22.486  1.00  0.00     0.096 A 
ENDBRANCH  14  15
ENDBRANCH   9  14
ENDBRANCH   5   8
ENDBRANCH   3   4
ENDBRANCH   2   3
ENDBRANCH   1   2
BRANCH   1  21
ATOM     21  C   UNL A   1      32.832  29.969  25.718  1.00  0.00     0.116 C 
BRANCH  21  22
ATOM     22  N   UNL A   1      32.528  31.289  26.252  1.00  0.00    -0.352 N 
ATOM     23  C   UNL A   1      33.201  32.007  27.215  1.00  0.00     0.251 C 
ATOM     24  H   UNL A   1      31.733  31.728  25.873  1.00  0.00     0.163 HD
ATOM     25  O   UNL A   1      32.746  33.065  27.627  1.00  0.00    -0.269 OA
BRANCH  23  26
ATOM     26  C   UNL A   1      34.462  31.467  27.769  1.00  0.00     0.039 A 
ATOM     27  C   UNL A   1      35.526  32.342  28.001  1.00  0.00     0.014 A 
ATOM     28  C   UNL A   1      34.576  30.114  28.093  1.00  0.00     0.014 A 
ATOM     29  C   UNL A   1      36.683  31.870  28.626  1.00  0.00     0.010 A 
ATOM     30  C   UNL A   1      35.696  29.663  28.782  1.00  0.00     0.010 A 
ATOM     31  C   UNL A   1      36.762  30.534  29.055  1.00  0.00    -0.014 A 
BRANCH  31  32
ATOM     32  C   UNL A   1      37.939  30.032  29.807  1.00  0.00     0.031 A 
ATOM     33  C   UNL A   1      38.205  30.511  31.207  1.00  0.00     0.074 A 
ATOM     34  C   UNL A   1      38.824  29.221  29.194  1.00  0.00     0.049 A 
ATOM     35  N   UNL A   1      39.205  30.228  32.000  1.00  0.00    -0.248 NA
ATOM     36  C   UNL A   1      37.233  31.457  31.781  1.00  0.00     0.031 C 
ATOM     37  C   UNL A   1      38.723  28.752  27.810  1.00  0.00     0.029 A 
ATOM     38  N   UNL A   1      39.996  28.668  29.647  1.00  0.00    -0.354 N 
ATOM     39  C   UNL A   1      39.007  30.987  33.147  1.00  0.00     0.074 A 
ATOM     40  C   UNL A   1      37.811  31.772  32.931  1.00  0.00     0.031 C 
ATOM     41  C   UNL A   1      39.780  27.972  27.532  1.00  0.00     0.029 A 
ATOM     42  C   UNL A   1      40.648  27.907  28.705  1.00  0.00     0.049 A 
ATOM     43  H   UNL A   1      40.336  28.804  30.560  1.00  0.00     0.167 HD
ATOM     44  C   UNL A   1      39.734  31.007  34.290  1.00  0.00     0.034 A 
ATOM     45  C   UNL A   1      41.811  27.232  28.778  1.00  0.00     0.034 A 
ATOM     46  C   UNL A   1      40.895  30.191  34.518  1.00  0.00     0.049 A 
ATOM     47  C   UNL A   1      42.580  27.236  30.071  1.00  0.00     0.074 A 
ATOM     48  C   UNL A   1      41.643  30.061  35.674  1.00  0.00     0.029 A 
ATOM     49  N   UNL A   1      41.483  29.371  33.567  1.00  0.00    -0.354 N 
ATOM     50  N   UNL A   1      42.287  27.828  31.203  1.00  0.00    -0.248 NA
ATOM     51  C   UNL A   1      43.821  26.451  30.107  1.00  0.00     0.031 C 
ATOM     52  C   UNL A   1      42.697  29.177  35.415  1.00  0.00     0.029 A 
ATOM     53  C   UNL A   1      42.592  28.740  34.105  1.00  0.00     0.049 A 
ATOM     54  H   UNL A   1      41.160  29.253  32.645  1.00  0.00     0.167 HD
ATOM     55  C   UNL A   1      43.285  27.460  32.097  1.00  0.00     0.074 A 
ATOM     56  C   UNL A   1      44.182  26.578  31.378  1.00  0.00     0.031 C 
ATOM     57  C   UNL A   1      43.450  27.826  33.392  1.00  0.00     0.034 A 
BRANCH  44  58
ATOM     58  C   UNL A   1      39.251  31.905  35.399  1.00  0.00     0.023 A 
ATOM     59  C   UNL A   1      38.278  31.432  36.304  1.00  0.00     0.012 A 
ATOM     60  C   UNL A   1      39.770  33.204  35.565  1.00  0.00     0.148 A 
ATOM     61  C   UNL A   1      37.793  32.250  37.323  1.00  0.00     0.002 A 
ATOM     62  C   UNL A   1      39.316  33.999  36.612  1.00  0.00     0.091 A 
ATOM     63  F   UNL A   1      40.676  33.651  34.683  1.00  0.00    -0.205 F 
ATOM     64  C   UNL A   1      38.317  33.529  37.482  1.00  0.00     0.022 A 
BRANCH  62  65
ATOM     65  S   UNL A   1      39.990  35.630  36.943  1.00  0.00     0.127 S 
ATOM     66  O   UNL A   1      39.309  35.986  38.187  1.00  0.00    -0.237 OA
ATOM     67  O   UNL A   1      41.420  35.352  37.090  1.00  0.00    -0.237 OA
ATOM     68  O   UNL A   1      39.652  36.441  35.782  1.00  0.00    -0.744 OA
ENDBRANCH  62  65
ENDBRANCH  44  58
BRANCH  45  69
ATOM     69  C   UNL A   1      42.264  26.415  27.616  1.00  0.00     0.023 A 
ATOM     70  C   UNL A   1      43.125  26.996  26.667  1.00  0.00     0.012 A 
ATOM     71  C   UNL A   1      41.894  25.063  27.475  1.00  0.00     0.148 A 
ATOM     72  C   UNL A   1      43.595  26.254  25.583  1.00  0.00     0.002 A 
ATOM     73  C   UNL A   1      42.406  24.315  26.421  1.00  0.00     0.091 A 
ATOM     74  F   UNL A   1      41.068  24.532  28.388  1.00  0.00    -0.205 F 
ATOM     75  C   UNL A   1      43.245  24.912  25.466  1.00  0.00     0.022 A 
BRANCH  73  76
ATOM     76  S   UNL A   1      42.115  22.550  26.253  1.00  0.00     0.127 S 
ATOM     77  O   UNL A   1      40.660  22.497  26.129  1.00  0.00    -0.237 OA
ATOM     78  O   UNL A   1      42.850  22.241  25.026  1.00  0.00    -0.237 OA
ATOM     79  O   UNL A   1      42.667  21.942  27.455  1.00  0.00    -0.744 OA
ENDBRANCH  73  76
ENDBRANCH  45  69
BRANCH  57  80
ATOM     80  C   UNL A   1      44.630  27.255  34.136  1.00  0.00     0.023 A 
ATOM     81  C   UNL A   1      45.850  27.958  34.158  1.00  0.00     0.012 A 
ATOM     82  C   UNL A   1      44.505  26.062  34.876  1.00  0.00     0.148 A 
ATOM     83  C   UNL A   1      46.937  27.468  34.881  1.00  0.00     0.002 A 
ATOM     84  C   UNL A   1      45.578  25.605  35.632  1.00  0.00     0.091 A 
ATOM     85  F   UNL A   1      43.342  25.396  34.826  1.00  0.00    -0.205 F 
ATOM     86  C   UNL A   1      46.798  26.300  35.627  1.00  0.00     0.022 A 
BRANCH  84  87
ATOM     87  S   UNL A   1      45.457  24.165  36.699  1.00  0.00     0.127 S 
ATOM     88  O   UNL A   1      45.104  23.115  35.744  1.00  0.00    -0.237 OA
ATOM     89  O   UNL A   1      46.812  24.064  37.242  1.00  0.00    -0.237 OA
ATOM     90  O   UNL A   1      44.435  24.483  37.687  1.00  0.00    -0.744 OA
ENDBRANCH  84  87
ENDBRANCH  57  80
ENDBRANCH  31  32
ENDBRANCH  23  26
ENDBRANCH  21  22
ENDBRANCH   1  21
TORSDOF 16
ENDMDL
MODEL 3
REMARK VINA RESULT:     -11.3      5.261     10.456
REMARK SMILES Cc1nc(C[N@@H+]2CCC[C@H]2C(=O)NCCCCNC(=O)c2ccc(-c3c4nc(c(-c5cccc(S(=O)(=O)[O-])c5F)c5ccc([nH]5)c(-c5cccc(S(=O)(=O)[O-])c5F)c5nc(c(-c6cccc(S(=O)(=O)[O-])c6F)c6ccc3[nH]6)C=C5)C=C4)cc2)cs1
REMARK SMILES IDX 16 1 15 2 14 3 13 4 11 5 12 6 10 8 6 9 7 10 8 12 9 13 5 14
REMARK SMILES IDX 4 15 1 16 2 17 3 18 85 19 84 20 17 21 18 22 19 23 20 25
REMARK SMILES IDX 21 26 22 27 83 28 23 29 82 30 24 31 25 32 26 33 76 34 27 35
REMARK SMILES IDX 81 36 75 37 77 38 28 39 80 40 74 41 73 42 29 44 61 45 41 46
REMARK SMILES IDX 60 47 42 48 45 49 59 50 78 51 43 52 44 53 58 55 79 56 46 57
REMARK SMILES IDX 30 58 31 59 39 60 32 61 34 62 40 63 33 64 35 65 36 66 37 67
REMARK SMILES IDX 38 68 62 69 63 70 71 71 64 72 66 73 72 74 65 75 67 76 68 77
REMARK SMILES IDX 69 78 70 79 47 80 48 81 56 82 49 83 51 84 57 85 50 86 52 87
REMARK SMILES IDX 53 88 54 89 55 90
REMARK H PARENT 13 7 6 11 18 24 77 43 45 54
REMARK Flexibility Score: inf
ROOT
ATOM      1  C   UNL A   1      35.563  21.031  25.388  1.00  0.00     0.023 C 
ENDROOT
BRANCH   1   2
ATOM      2  C   UNL A   1      34.475  21.904  26.012  1.00  0.00     0.023 C 
BRANCH   2   3
ATOM      3  C   UNL A   1      33.050  21.503  25.644  1.00  0.00     0.116 C 
BRANCH   3   4
ATOM      4  N   UNL A   1      32.063  22.208  26.441  1.00  0.00    -0.351 N 
ATOM      5  C   UNL A   1      31.543  23.463  26.386  1.00  0.00     0.278 C 
ATOM      6  O   UNL A   1      30.698  23.723  27.254  1.00  0.00    -0.268 OA
ATOM      7  H   UNL A   1      31.692  21.664  27.173  1.00  0.00     0.163 HD
BRANCH   5   8
ATOM      8  C   UNL A   1      31.980  24.568  25.391  1.00  0.00     0.274 C 
ATOM      9  N   UNL A   1      30.916  25.519  25.046  1.00  0.00    -0.320 N 
ATOM     10  C   UNL A   1      31.068  26.703  25.872  1.00  0.00     0.263 C 
ATOM     11  H   UNL A   1      30.007  25.119  25.280  1.00  0.00     0.349 HD
ATOM     12  C   UNL A   1      32.554  26.835  26.123  1.00  0.00     0.068 C 
ATOM     13  C   UNL A   1      33.095  25.417  26.023  1.00  0.00     0.081 C 
BRANCH   9  14
ATOM     14  C   UNL A   1      30.703  25.715  23.611  1.00  0.00     0.321 C 
BRANCH  14  15
ATOM     15  C   UNL A   1      30.196  27.071  23.217  1.00  0.00     0.106 A 
ATOM     16  C   UNL A   1      27.277  29.269  23.123  1.00  0.00     0.079 C 
ATOM     17  C   UNL A   1      28.610  28.614  23.040  1.00  0.00     0.090 A 
ATOM     18  N   UNL A   1      28.850  27.369  23.391  1.00  0.00    -0.241 NA
ATOM     19  S   UNL A   1      29.967  29.491  22.458  1.00  0.00    -0.127 S 
ATOM     20  C   UNL A   1      30.955  28.123  22.738  1.00  0.00     0.096 A 
ENDBRANCH  14  15
ENDBRANCH   9  14
ENDBRANCH   5   8
ENDBRANCH   3   4
ENDBRANCH   2   3
ENDBRANCH   1   2
BRANCH   1  21
ATOM     21  C   UNL A   1      36.973  21.613  25.429  1.00  0.00     0.116 C 
BRANCH  21  22
ATOM     22  N   UNL A   1      38.006  20.609  25.642  1.00  0.00    -0.352 N 
ATOM     23  C   UNL A   1      39.288  20.777  26.117  1.00  0.00     0.251 C 
ATOM     24  H   UNL A   1      37.754  19.685  25.415  1.00  0.00     0.163 HD
ATOM     25  O   UNL A   1      40.068  19.835  26.134  1.00  0.00    -0.269 OA
BRANCH  23  26
ATOM     26  C   UNL A   1      39.719  22.116  26.575  1.00  0.00     0.039 A 
ATOM     27  C   UNL A   1      40.731  22.207  27.534  1.00  0.00     0.014 A 
ATOM     28  C   UNL A   1      39.154  23.271  26.031  1.00  0.00     0.014 A 
ATOM     29  C   UNL A   1      41.226  23.463  27.895  1.00  0.00     0.010 A 
ATOM     30  C   UNL A   1      39.700  24.513  26.334  1.00  0.00     0.010 A 
ATOM     31  C   UNL A   1      40.740  24.623  27.270  1.00  0.00    -0.014 A 
BRANCH  31  32
ATOM     32  C   UNL A   1      41.316  25.959  27.565  1.00  0.00     0.031 A 
ATOM     33  C   UNL A   1      42.715  26.295  27.127  1.00  0.00     0.074 A 
ATOM     34  C   UNL A   1      40.617  26.835  28.314  1.00  0.00     0.049 A 
ATOM     35  N   UNL A   1      43.406  27.385  27.337  1.00  0.00    -0.248 NA
ATOM     36  C   UNL A   1      43.444  25.256  26.379  1.00  0.00     0.031 C 
ATOM     37  C   UNL A   1      39.283  26.596  28.870  1.00  0.00     0.029 A 
ATOM     38  N   UNL A   1      40.942  28.093  28.757  1.00  0.00    -0.354 N 
ATOM     39  C   UNL A   1      44.660  27.150  26.785  1.00  0.00     0.074 A 
ATOM     40  C   UNL A   1      44.646  25.800  26.265  1.00  0.00     0.031 C 
ATOM     41  C   UNL A   1      38.898  27.677  29.567  1.00  0.00     0.029 A 
ATOM     42  C   UNL A   1      39.966  28.673  29.533  1.00  0.00     0.049 A 
ATOM     43  H   UNL A   1      41.793  28.537  28.539  1.00  0.00     0.167 HD
ATOM     44  C   UNL A   1      45.718  27.992  26.689  1.00  0.00     0.034 A 
ATOM     45  C   UNL A   1      39.933  29.872  30.147  1.00  0.00     0.034 A 
ATOM     46  C   UNL A   1      45.711  29.348  27.167  1.00  0.00     0.049 A 
ATOM     47  C   UNL A   1      41.103  30.805  29.992  1.00  0.00     0.074 A 
ATOM     48  C   UNL A   1      46.692  30.313  27.031  1.00  0.00     0.029 A 
ATOM     49  N   UNL A   1      44.674  29.929  27.881  1.00  0.00    -0.354 N 
ATOM     50  N   UNL A   1      42.216  30.629  29.323  1.00  0.00    -0.248 NA
ATOM     51  C   UNL A   1      40.997  32.115  30.649  1.00  0.00     0.031 C 
ATOM     52  C   UNL A   1      46.256  31.473  27.682  1.00  0.00     0.029 A 
ATOM     53  C   UNL A   1      44.994  31.237  28.203  1.00  0.00     0.049 A 
ATOM     54  H   UNL A   1      43.833  29.479  28.123  1.00  0.00     0.167 HD
ATOM     55  C   UNL A   1      42.928  31.817  29.446  1.00  0.00     0.074 A 
ATOM     56  C   UNL A   1      42.111  32.711  30.241  1.00  0.00     0.031 C 
ATOM     57  C   UNL A   1      44.151  32.134  28.954  1.00  0.00     0.034 A 
BRANCH  44  58
ATOM     58  C   UNL A   1      46.949  27.476  25.991  1.00  0.00     0.023 A 
ATOM     59  C   UNL A   1      47.875  26.688  26.707  1.00  0.00     0.012 A 
ATOM     60  C   UNL A   1      47.184  27.746  24.630  1.00  0.00     0.148 A 
ATOM     61  C   UNL A   1      49.037  26.220  26.094  1.00  0.00     0.002 A 
ATOM     62  C   UNL A   1      48.322  27.237  24.012  1.00  0.00     0.091 A 
ATOM     63  F   UNL A   1      46.309  28.517  23.967  1.00  0.00    -0.205 F 
ATOM     64  C   UNL A   1      49.255  26.487  24.746  1.00  0.00     0.022 A 
BRANCH  62  65
ATOM     65  S   UNL A   1      48.647  27.463  22.260  1.00  0.00     0.127 S 
ATOM     66  O   UNL A   1      47.535  28.323  21.861  1.00  0.00    -0.237 OA
ATOM     67  O   UNL A   1      49.954  28.123  22.269  1.00  0.00    -0.237 OA
ATOM     68  O   UNL A   1      48.653  26.126  21.684  1.00  0.00    -0.744 OA
ENDBRANCH  62  65
ENDBRANCH  44  58
BRANCH  45  69
ATOM     69  C   UNL A   1      38.704  30.293  30.879  1.00  0.00     0.023 A 
ATOM     70  C   UNL A   1      38.578  29.969  32.243  1.00  0.00     0.012 A 
ATOM     71  C   UNL A   1      37.694  31.050  30.255  1.00  0.00     0.148 A 
ATOM     72  C   UNL A   1      37.459  30.372  32.970  1.00  0.00     0.002 A 
ATOM     73  C   UNL A   1      36.605  31.491  30.997  1.00  0.00     0.091 A 
ATOM     74  F   UNL A   1      37.832  31.341  28.953  1.00  0.00    -0.205 F 
ATOM     75  C   UNL A   1      36.478  31.142  32.351  1.00  0.00     0.022 A 
BRANCH  73  76
ATOM     76  S   UNL A   1      35.354  32.590  30.323  1.00  0.00     0.127 S 
ATOM     77  O   UNL A   1      36.146  33.766  29.971  1.00  0.00    -0.237 OA
ATOM     78  O   UNL A   1      34.857  31.817  29.185  1.00  0.00    -0.237 OA
ATOM     79  O   UNL A   1      34.382  32.784  31.390  1.00  0.00    -0.744 OA
ENDBRANCH  73  76
ENDBRANCH  45  69
BRANCH  57  80
ATOM     80  C   UNL A   1      44.680  33.517  29.233  1.00  0.00     0.023 A 
ATOM     81  C   UNL A   1      45.319  33.789  30.458  1.00  0.00     0.012 A 
ATOM     82  C   UNL A   1      44.612  34.525  28.250  1.00  0.00     0.148 A 
ATOM     83  C   UNL A   1      45.856  35.050  30.713  1.00  0.00     0.002 A 
ATOM     84  C   UNL A   1      45.191  35.765  28.492  1.00  0.00     0.091 A 
ATOM     85  F   UNL A   1      43.982  34.254  27.097  1.00  0.00    -0.205 F 
ATOM     86  C   UNL A   1      45.804  36.033  29.727  1.00  0.00     0.022 A 
BRANCH  84  87
ATOM     87  S   UNL A   1      45.257  37.055  27.245  1.00  0.00     0.127 S 
ATOM     88  O   UNL A   1      43.838  37.274  26.967  1.00  0.00    -0.237 OA
ATOM     89  O   UNL A   1      45.912  38.149  27.962  1.00  0.00    -0.237 OA
ATOM     90  O   UNL A   1      46.035  36.507  26.142  1.00  0.00    -0.744 OA
ENDBRANCH  84  87
ENDBRANCH  57  80
ENDBRANCH  31  32
ENDBRANCH  23  26
ENDBRANCH  21  22
ENDBRANCH   1  21
TORSDOF 16
ENDMDL
