MODEL 1
REMARK VINA RESULT:     -12.6      0.000      0.000
REMARK SMILES O=C(NCCCCNC(=O)[C@H]1CCC(=O)N(C2CCCCC2)[C@H]1c1ccccc1)c1ccc(-c2c3nc(c(-c4cccc(S(=O)(=O)[O-])c4F)c4ccc([nH]4)c(-c4cccc(S(=O)(=O)[O-])c4F)c4nc(c(-c5cccc(S(=O)(=O)[O-])c5F)c5ccc2[nH]5)C=C4)C=C3)cc1
REMARK SMILES IDX 4 1 3 2 1 3 2 4 30 6 31 7 92 8 32 9 91 10 33 11 34 12 35 13
REMARK SMILES IDX 85 14 36 15 90 16 84 17 86 18 37 19 89 20 83 21 82 22 38 24
REMARK SMILES IDX 70 25 50 26 69 27 51 28 54 29 68 30 87 31 52 32 53 33 67 35
REMARK SMILES IDX 88 36 55 37 39 38 40 39 48 40 41 41 43 42 49 43 42 44 44 45
REMARK SMILES IDX 45 46 46 47 47 48 71 49 72 50 80 51 73 52 75 53 81 54 74 55
REMARK SMILES IDX 76 56 77 57 78 58 79 59 56 60 57 61 65 62 58 63 60 64 66 65
REMARK SMILES IDX 59 66 61 67 62 68 63 69 64 70 5 71 6 72 7 73 8 74 9 75 10 77
REMARK SMILES IDX 11 78 12 79 23 80 13 81 16 82 14 83 15 84 24 85 25 86 29 87
REMARK SMILES IDX 26 88 28 89 27 90 17 91 18 92 22 93 19 94 21 95 20 96
REMARK H PARENT 3 5 86 23 54 34 8 76
REMARK Flexibility Score: inf
ROOT
ATOM      1  C   UNL A   1      32.533  31.537  26.418  1.00  0.00     0.116 C 
ENDROOT
BRANCH   1   2
ATOM      2  N   UNL A   1      32.316  32.852  27.009  1.00  0.00    -0.352 N 
ATOM      3  O   UNL A   1      32.815  34.607  28.351  1.00  0.00    -0.269 OA
ATOM      4  C   UNL A   1      33.141  33.526  27.888  1.00  0.00     0.251 C 
ATOM      5  H   UNL A   1      31.485  33.313  26.752  1.00  0.00     0.163 HD
BRANCH   4   6
ATOM      6  C   UNL A   1      34.400  32.862  28.289  1.00  0.00     0.039 A 
ATOM      7  C   UNL A   1      34.369  31.524  28.683  1.00  0.00     0.014 A 
ATOM      8  C   UNL A   1      35.560  33.623  28.430  1.00  0.00     0.014 A 
ATOM      9  C   UNL A   1      35.421  31.016  29.427  1.00  0.00     0.010 A 
ATOM     10  C   UNL A   1      36.673  33.059  29.057  1.00  0.00     0.010 A 
ATOM     11  C   UNL A   1      36.592  31.771  29.607  1.00  0.00    -0.014 A 
BRANCH  11  12
ATOM     12  C   UNL A   1      37.740  31.150  30.311  1.00  0.00     0.031 A 
ATOM     13  C   UNL A   1      38.018  31.426  31.763  1.00  0.00     0.074 A 
ATOM     14  C   UNL A   1      38.528  30.312  29.610  1.00  0.00     0.049 A 
ATOM     15  N   UNL A   1      38.998  30.980  32.506  1.00  0.00    -0.248 NA
ATOM     16  C   UNL A   1      37.091  32.323  32.474  1.00  0.00     0.031 C 
ATOM     17  C   UNL A   1      38.361  30.001  28.187  1.00  0.00     0.029 A 
ATOM     18  N   UNL A   1      39.613  29.567  29.985  1.00  0.00    -0.354 N 
ATOM     19  C   UNL A   1      38.845  31.584  33.747  1.00  0.00     0.074 A 
ATOM     20  C   UNL A   1      37.667  32.423  33.665  1.00  0.00     0.031 C 
ATOM     21  C   UNL A   1      39.277  29.097  27.821  1.00  0.00     0.029 A 
ATOM     22  C   UNL A   1      40.147  28.828  28.957  1.00  0.00     0.049 A 
ATOM     23  H   UNL A   1      39.974  29.560  30.901  1.00  0.00     0.167 HD
ATOM     24  C   UNL A   1      39.612  31.443  34.855  1.00  0.00     0.034 A 
ATOM     25  C   UNL A   1      41.237  28.040  28.917  1.00  0.00     0.034 A 
ATOM     26  C   UNL A   1      40.748  30.561  34.936  1.00  0.00     0.049 A 
ATOM     27  C   UNL A   1      42.040  27.870  30.169  1.00  0.00     0.074 A 
ATOM     28  C   UNL A   1      41.561  30.303  36.026  1.00  0.00     0.029 A 
ATOM     29  N   UNL A   1      41.231  29.792  33.888  1.00  0.00    -0.354 N 
ATOM     30  N   UNL A   1      41.826  28.381  31.357  1.00  0.00    -0.248 NA
ATOM     31  C   UNL A   1      43.222  27.005  30.084  1.00  0.00     0.031 C 
ATOM     32  C   UNL A   1      42.539  29.383  35.634  1.00  0.00     0.029 A 
ATOM     33  C   UNL A   1      42.330  29.060  34.303  1.00  0.00     0.049 A 
ATOM     34  H   UNL A   1      40.848  29.770  32.982  1.00  0.00     0.167 HD
ATOM     35  C   UNL A   1      42.839  27.893  32.168  1.00  0.00     0.074 A 
ATOM     36  C   UNL A   1      43.648  27.018  31.341  1.00  0.00     0.031 C 
ATOM     37  C   UNL A   1      43.092  28.161  33.472  1.00  0.00     0.034 A 
BRANCH  24  38
ATOM     38  C   UNL A   1      39.233  32.229  36.083  1.00  0.00     0.023 A 
ATOM     39  C   UNL A   1      39.784  33.509  36.288  1.00  0.00     0.012 A 
ATOM     40  C   UNL A   1      38.281  31.733  36.997  1.00  0.00     0.148 A 
ATOM     41  C   UNL A   1      39.414  34.274  37.394  1.00  0.00     0.002 A 
ATOM     42  C   UNL A   1      37.891  32.516  38.080  1.00  0.00     0.091 A 
ATOM     43  F   UNL A   1      37.785  30.503  36.803  1.00  0.00    -0.205 F 
ATOM     44  C   UNL A   1      38.461  33.783  38.283  1.00  0.00     0.022 A 
BRANCH  42  45
ATOM     45  S   UNL A   1      36.620  31.989  39.235  1.00  0.00     0.127 S 
ATOM     46  O   UNL A   1      37.215  32.358  40.518  1.00  0.00    -0.237 OA
ATOM     47  O   UNL A   1      35.473  32.809  38.838  1.00  0.00    -0.237 OA
ATOM     48  O   UNL A   1      36.445  30.562  39.004  1.00  0.00    -0.744 OA
ENDBRANCH  42  45
ENDBRANCH  24  38
BRANCH  25  49
ATOM     49  C   UNL A   1      41.578  27.338  27.650  1.00  0.00     0.023 A 
ATOM     50  C   UNL A   1      42.134  28.069  26.585  1.00  0.00     0.012 A 
ATOM     51  C   UNL A   1      41.460  25.938  27.538  1.00  0.00     0.148 A 
ATOM     52  C   UNL A   1      42.562  27.418  25.427  1.00  0.00     0.002 A 
ATOM     53  C   UNL A   1      41.949  25.290  26.411  1.00  0.00     0.091 A 
ATOM     54  F   UNL A   1      40.913  25.261  28.559  1.00  0.00    -0.205 F 
ATOM     55  C   UNL A   1      42.487  26.029  25.347  1.00  0.00     0.022 A 
BRANCH  53  56
ATOM     56  S   UNL A   1      42.045  23.499  26.314  1.00  0.00     0.127 S 
ATOM     57  O   UNL A   1      42.696  23.303  25.023  1.00  0.00    -0.237 OA
ATOM     58  O   UNL A   1      42.872  23.172  27.478  1.00  0.00    -0.237 OA
ATOM     59  O   UNL A   1      40.669  23.033  26.416  1.00  0.00    -0.744 OA
ENDBRANCH  53  56
ENDBRANCH  25  49
BRANCH  37  60
ATOM     60  C   UNL A   1      44.289  27.492  34.086  1.00  0.00     0.023 A 
ATOM     61  C   UNL A   1      45.555  28.099  33.972  1.00  0.00     0.012 A 
ATOM     62  C   UNL A   1      44.151  26.302  34.824  1.00  0.00     0.148 A 
ATOM     63  C   UNL A   1      46.673  27.514  34.564  1.00  0.00     0.002 A 
ATOM     64  C   UNL A   1      45.264  25.747  35.445  1.00  0.00     0.091 A 
ATOM     65  F   UNL A   1      42.941  25.728  34.897  1.00  0.00    -0.205 F 
ATOM     66  C   UNL A   1      46.527  26.347  35.309  1.00  0.00     0.022 A 
BRANCH  64  67
ATOM     67  S   UNL A   1      45.143  24.291  36.490  1.00  0.00     0.127 S 
ATOM     68  O   UNL A   1      46.535  24.095  36.890  1.00  0.00    -0.237 OA
ATOM     69  O   UNL A   1      44.257  24.746  37.562  1.00  0.00    -0.237 OA
ATOM     70  O   UNL A   1      44.576  23.247  35.647  1.00  0.00    -0.744 OA
ENDBRANCH  64  67
ENDBRANCH  37  60
ENDBRANCH  11  12
ENDBRANCH   4   6
ENDBRANCH   1   2
BRANCH   1  71
ATOM     71  C   UNL A   1      31.492  30.504  26.777  1.00  0.00     0.023 C 
BRANCH  71  72
ATOM     72  C   UNL A   1      31.865  29.084  26.419  1.00  0.00     0.023 C 
BRANCH  72  73
ATOM     73  C   UNL A   1      33.236  28.857  25.766  1.00  0.00     0.116 C 
BRANCH  73  74
ATOM     74  N   UNL A   1      33.837  27.581  26.136  1.00  0.00    -0.356 N 
ATOM     75  C   UNL A   1      33.958  26.413  25.430  1.00  0.00     0.225 C 
ATOM     76  H   UNL A   1      34.220  27.555  27.042  1.00  0.00     0.163 HD
ATOM     77  O   UNL A   1      34.603  25.498  25.945  1.00  0.00    -0.275 OA
BRANCH  75  78
ATOM     78  C   UNL A   1      33.335  26.268  24.042  1.00  0.00     0.106 C 
ATOM     79  C   UNL A   1      33.873  25.098  23.225  1.00  0.00     0.026 C 
ATOM     80  C   UNL A   1      31.812  26.138  24.020  1.00  0.00     0.128 C 
ATOM     81  C   UNL A   1      33.239  25.040  21.831  1.00  0.00     0.101 C 
ATOM     82  N   UNL A   1      31.332  26.417  22.660  1.00  0.00    -0.332 N 
ATOM     83  C   UNL A   1      31.966  25.853  21.571  1.00  0.00     0.223 C 
ATOM     84  O   UNL A   1      31.578  26.018  20.414  1.00  0.00    -0.275 OA
BRANCH  80  85
ATOM     85  C   UNL A   1      31.107  24.970  24.726  1.00  0.00    -0.025 A 
ATOM     86  C   UNL A   1      30.461  25.145  25.960  1.00  0.00     0.006 A 
ATOM     87  C   UNL A   1      31.277  23.641  24.287  1.00  0.00     0.006 A 
ATOM     88  C   UNL A   1      30.079  24.053  26.750  1.00  0.00     0.000 A 
ATOM     89  C   UNL A   1      30.893  22.547  25.072  1.00  0.00     0.000 A 
ATOM     90  C   UNL A   1      30.313  22.755  26.315  1.00  0.00     0.000 A 
ENDBRANCH  80  85
BRANCH  82  91
ATOM     91  C   UNL A   1      30.333  27.503  22.520  1.00  0.00     0.085 C 
ATOM     92  C   UNL A   1      29.130  27.297  23.453  1.00  0.00     0.025 C 
ATOM     93  C   UNL A   1      30.862  28.937  22.625  1.00  0.00     0.025 C 
ATOM     94  C   UNL A   1      28.009  28.280  23.116  1.00  0.00     0.002 C 
ATOM     95  C   UNL A   1      29.746  29.917  22.243  1.00  0.00     0.002 C 
ATOM     96  C   UNL A   1      28.500  29.726  23.108  1.00  0.00     0.000 C 
ENDBRANCH  82  91
ENDBRANCH  75  78
ENDBRANCH  73  74
ENDBRANCH  72  73
ENDBRANCH  71  72
ENDBRANCH   1  71
TORSDOF 16
ENDMDL
MODEL 2
REMARK VINA RESULT:     -12.6      2.638      8.433
REMARK SMILES O=C(NCCCCNC(=O)[C@H]1CCC(=O)N(C2CCCCC2)[C@H]1c1ccccc1)c1ccc(-c2c3nc(c(-c4cccc(S(=O)(=O)[O-])c4F)c4ccc([nH]4)c(-c4cccc(S(=O)(=O)[O-])c4F)c4nc(c(-c5cccc(S(=O)(=O)[O-])c5F)c5ccc2[nH]5)C=C4)C=C3)cc1
REMARK SMILES IDX 4 1 3 2 1 3 2 4 30 6 31 7 92 8 32 9 91 10 33 11 34 12 35 13
REMARK SMILES IDX 85 14 36 15 90 16 84 17 86 18 37 19 89 20 83 21 82 22 38 24
REMARK SMILES IDX 70 25 50 26 69 27 51 28 54 29 68 30 87 31 52 32 53 33 67 35
REMARK SMILES IDX 88 36 55 37 39 38 40 39 48 40 41 41 43 42 49 43 42 44 44 45
REMARK SMILES IDX 45 46 46 47 47 48 71 49 72 50 80 51 73 52 75 53 81 54 74 55
REMARK SMILES IDX 76 56 77 57 78 58 79 59 56 60 57 61 65 62 58 63 60 64 66 65
REMARK SMILES IDX 59 66 61 67 62 68 63 69 64 70 5 71 6 72 7 73 8 74 9 75 10 77
REMARK SMILES IDX 11 78 12 79 23 80 13 81 16 82 14 83 15 84 24 85 25 86 29 87
REMARK SMILES IDX 26 88 28 89 27 90 17 91 18 92 22 93 19 94 21 95 20 96
REMARK H PARENT 3 5 86 23 54 34 8 76
REMARK Flexibility Score: inf
ROOT
ATOM      1  C   UNL A   1      32.899  29.125  25.761  1.00  0.00     0.116 C 
ENDROOT
BRANCH   1   2
ATOM      2  N   UNL A   1      32.454  30.441  26.203  1.00  0.00    -0.352 N 
ATOM      3  O   UNL A   1      32.627  32.390  27.344  1.00  0.00    -0.269 OA
ATOM      4  C   UNL A   1      33.138  31.335  27.004  1.00  0.00     0.251 C 
ATOM      5  H   UNL A   1      31.564  30.727  25.895  1.00  0.00     0.163 HD
BRANCH   4   6
ATOM      6  C   UNL A   1      34.480  30.938  27.479  1.00  0.00     0.039 A 
ATOM      7  C   UNL A   1      34.687  29.634  27.927  1.00  0.00     0.014 A 
ATOM      8  C   UNL A   1      35.468  31.912  27.631  1.00  0.00     0.014 A 
ATOM      9  C   UNL A   1      35.782  29.362  28.730  1.00  0.00     0.010 A 
ATOM     10  C   UNL A   1      36.638  31.593  28.322  1.00  0.00     0.010 A 
ATOM     11  C   UNL A   1      36.780  30.332  28.922  1.00  0.00    -0.014 A 
BRANCH  11  12
ATOM     12  C   UNL A   1      37.992  29.967  29.694  1.00  0.00     0.031 A 
ATOM     13  C   UNL A   1      39.052  29.067  29.120  1.00  0.00     0.074 A 
ATOM     14  C   UNL A   1      38.125  30.479  30.932  1.00  0.00     0.049 A 
ATOM     15  N   UNL A   1      40.151  28.637  29.684  1.00  0.00    -0.248 NA
ATOM     16  C   UNL A   1      38.855  28.577  27.745  1.00  0.00     0.031 C 
ATOM     17  C   UNL A   1      37.137  31.338  31.593  1.00  0.00     0.029 A 
ATOM     18  N   UNL A   1      39.131  30.364  31.853  1.00  0.00    -0.354 N 
ATOM     19  C   UNL A   1      40.744  27.781  28.765  1.00  0.00     0.074 A 
ATOM     20  C   UNL A   1      39.891  27.760  27.596  1.00  0.00     0.031 C 
ATOM     21  C   UNL A   1      37.605  31.710  32.790  1.00  0.00     0.029 A 
ATOM     22  C   UNL A   1      38.883  31.051  33.018  1.00  0.00     0.049 A 
ATOM     23  H   UNL A   1      39.951  29.843  31.696  1.00  0.00     0.167 HD
ATOM     24  C   UNL A   1      41.901  27.086  28.885  1.00  0.00     0.034 A 
ATOM     25  C   UNL A   1      39.590  31.123  34.161  1.00  0.00     0.034 A 
ATOM     26  C   UNL A   1      42.767  27.161  30.033  1.00  0.00     0.049 A 
ATOM     27  C   UNL A   1      40.885  30.377  34.246  1.00  0.00     0.074 A 
ATOM     28  C   UNL A   1      43.987  26.540  30.233  1.00  0.00     0.029 A 
ATOM     29  N   UNL A   1      42.506  27.905  31.174  1.00  0.00    -0.354 N 
ATOM     30  N   UNL A   1      41.472  29.645  33.332  1.00  0.00    -0.248 NA
ATOM     31  C   UNL A   1      41.624  30.479  35.510  1.00  0.00     0.031 C 
ATOM     32  C   UNL A   1      44.461  26.903  31.499  1.00  0.00     0.029 A 
ATOM     33  C   UNL A   1      43.541  27.759  32.083  1.00  0.00     0.049 A 
ATOM     34  H   UNL A   1      41.703  28.456  31.317  1.00  0.00     0.167 HD
ATOM     35  C   UNL A   1      42.657  29.205  33.902  1.00  0.00     0.074 A 
ATOM     36  C   UNL A   1      42.718  29.781  35.232  1.00  0.00     0.031 C 
ATOM     37  C   UNL A   1      43.599  28.379  33.383  1.00  0.00     0.034 A 
BRANCH  24  38
ATOM     38  C   UNL A   1      42.321  26.209  27.734  1.00  0.00     0.023 A 
ATOM     39  C   UNL A   1      43.217  26.708  26.769  1.00  0.00     0.012 A 
ATOM     40  C   UNL A   1      41.885  24.871  27.644  1.00  0.00     0.148 A 
ATOM     41  C   UNL A   1      43.655  25.900  25.718  1.00  0.00     0.002 A 
ATOM     42  C   UNL A   1      42.352  24.061  26.613  1.00  0.00     0.091 A 
ATOM     43  F   UNL A   1      41.012  24.418  28.555  1.00  0.00    -0.205 F 
ATOM     44  C   UNL A   1      43.231  24.575  25.647  1.00  0.00     0.022 A 
BRANCH  42  45
ATOM     45  S   UNL A   1      41.911  22.323  26.485  1.00  0.00     0.127 S 
ATOM     46  O   UNL A   1      42.413  21.797  27.753  1.00  0.00    -0.237 OA
ATOM     47  O   UNL A   1      40.451  22.375  26.383  1.00  0.00    -0.237 OA
ATOM     48  O   UNL A   1      42.579  21.835  25.287  1.00  0.00    -0.744 OA
ENDBRANCH  42  45
ENDBRANCH  24  38
BRANCH  25  49
ATOM     49  C   UNL A   1      39.081  31.968  35.275  1.00  0.00     0.023 A 
ATOM     50  C   UNL A   1      38.216  31.404  36.230  1.00  0.00     0.012 A 
ATOM     51  C   UNL A   1      39.539  33.289  35.454  1.00  0.00     0.148 A 
ATOM     52  C   UNL A   1      37.812  32.142  37.342  1.00  0.00     0.002 A 
ATOM     53  C   UNL A   1      39.185  33.995  36.597  1.00  0.00     0.091 A 
ATOM     54  F   UNL A   1      40.350  33.814  34.524  1.00  0.00    -0.205 F 
ATOM     55  C   UNL A   1      38.309  33.430  37.535  1.00  0.00     0.022 A 
BRANCH  53  56
ATOM     56  S   UNL A   1      39.924  35.583  36.997  1.00  0.00     0.127 S 
ATOM     57  O   UNL A   1      39.261  35.913  38.255  1.00  0.00    -0.237 OA
ATOM     58  O   UNL A   1      41.342  35.240  37.118  1.00  0.00    -0.237 OA
ATOM     59  O   UNL A   1      39.618  36.446  35.865  1.00  0.00    -0.744 OA
ENDBRANCH  53  56
ENDBRANCH  25  49
BRANCH  37  60
ATOM     60  C   UNL A   1      44.780  28.060  34.254  1.00  0.00     0.023 A 
ATOM     61  C   UNL A   1      45.908  28.904  34.227  1.00  0.00     0.012 A 
ATOM     62  C   UNL A   1      44.750  26.967  35.140  1.00  0.00     0.148 A 
ATOM     63  C   UNL A   1      47.001  28.647  35.053  1.00  0.00     0.002 A 
ATOM     64  C   UNL A   1      45.826  26.742  35.989  1.00  0.00     0.091 A 
ATOM     65  F   UNL A   1      43.676  26.162  35.129  1.00  0.00    -0.205 F 
ATOM     66  C   UNL A   1      46.956  27.575  35.941  1.00  0.00     0.022 A 
BRANCH  64  67
ATOM     67  S   UNL A   1      45.811  25.432  37.218  1.00  0.00     0.127 S 
ATOM     68  O   UNL A   1      46.051  24.248  36.395  1.00  0.00    -0.237 OA
ATOM     69  O   UNL A   1      46.926  25.806  38.090  1.00  0.00    -0.237 OA
ATOM     70  O   UNL A   1      44.503  25.503  37.854  1.00  0.00    -0.744 OA
ENDBRANCH  64  67
ENDBRANCH  37  60
ENDBRANCH  11  12
ENDBRANCH   4   6
ENDBRANCH   1   2
BRANCH   1  71
ATOM     71  C   UNL A   1      31.928  28.003  26.046  1.00  0.00     0.023 C 
BRANCH  71  72
ATOM     72  C   UNL A   1      32.556  26.630  26.105  1.00  0.00     0.023 C 
BRANCH  72  73
ATOM     73  C   UNL A   1      31.616  25.418  26.028  1.00  0.00     0.116 C 
BRANCH  73  74
ATOM     74  N   UNL A   1      31.890  24.420  27.055  1.00  0.00    -0.356 N 
ATOM     75  C   UNL A   1      32.149  23.079  26.949  1.00  0.00     0.225 C 
ATOM     76  H   UNL A   1      31.888  24.767  27.976  1.00  0.00     0.163 HD
ATOM     77  O   UNL A   1      32.446  22.471  27.979  1.00  0.00    -0.275 OA
BRANCH  75  78
ATOM     78  C   UNL A   1      32.098  22.375  25.593  1.00  0.00     0.106 C 
ATOM     79  C   UNL A   1      31.928  23.310  24.401  1.00  0.00     0.026 C 
ATOM     80  C   UNL A   1      33.303  21.491  25.271  1.00  0.00     0.128 C 
ATOM     81  C   UNL A   1      31.840  22.537  23.081  1.00  0.00     0.101 C 
ATOM     82  N   UNL A   1      32.945  20.585  24.172  1.00  0.00    -0.332 N 
ATOM     83  C   UNL A   1      32.283  21.070  23.061  1.00  0.00     0.223 C 
ATOM     84  O   UNL A   1      31.999  20.363  22.093  1.00  0.00    -0.275 OA
BRANCH  80  85
ATOM     85  C   UNL A   1      34.719  22.080  25.186  1.00  0.00    -0.025 A 
ATOM     86  C   UNL A   1      35.291  22.764  26.270  1.00  0.00     0.006 A 
ATOM     87  C   UNL A   1      35.403  22.164  23.957  1.00  0.00     0.006 A 
ATOM     88  C   UNL A   1      36.437  23.554  26.117  1.00  0.00     0.000 A 
ATOM     89  C   UNL A   1      36.550  22.950  23.800  1.00  0.00     0.000 A 
ATOM     90  C   UNL A   1      37.056  23.662  24.877  1.00  0.00     0.000 A 
ENDBRANCH  80  85
BRANCH  82  91
ATOM     91  C   UNL A   1      33.096  19.134  24.432  1.00  0.00     0.085 C 
ATOM     92  C   UNL A   1      34.549  18.669  24.247  1.00  0.00     0.025 C 
ATOM     93  C   UNL A   1      32.523  18.612  25.754  1.00  0.00     0.025 C 
ATOM     94  C   UNL A   1      34.636  17.143  24.274  1.00  0.00     0.002 C 
ATOM     95  C   UNL A   1      32.573  17.080  25.756  1.00  0.00     0.002 C 
ATOM     96  C   UNL A   1      33.990  16.555  25.527  1.00  0.00     0.000 C 
ENDBRANCH  82  91
ENDBRANCH  75  78
ENDBRANCH  73  74
ENDBRANCH  72  73
ENDBRANCH  71  72
ENDBRANCH   1  71
TORSDOF 16
ENDMDL
MODEL 3
REMARK VINA RESULT:     -12.5      2.352      8.282
REMARK SMILES O=C(NCCCCNC(=O)[C@H]1CCC(=O)N(C2CCCCC2)[C@H]1c1ccccc1)c1ccc(-c2c3nc(c(-c4cccc(S(=O)(=O)[O-])c4F)c4ccc([nH]4)c(-c4cccc(S(=O)(=O)[O-])c4F)c4nc(c(-c5cccc(S(=O)(=O)[O-])c5F)c5ccc2[nH]5)C=C4)C=C3)cc1
REMARK SMILES IDX 4 1 3 2 1 3 2 4 30 6 31 7 92 8 32 9 91 10 33 11 34 12 35 13
REMARK SMILES IDX 85 14 36 15 90 16 84 17 86 18 37 19 89 20 83 21 82 22 38 24
REMARK SMILES IDX 70 25 50 26 69 27 51 28 54 29 68 30 87 31 52 32 53 33 67 35
REMARK SMILES IDX 88 36 55 37 39 38 40 39 48 40 41 41 43 42 49 43 42 44 44 45
REMARK SMILES IDX 45 46 46 47 47 48 71 49 72 50 80 51 73 52 75 53 81 54 74 55
REMARK SMILES IDX 76 56 77 57 78 58 79 59 56 60 57 61 65 62 58 63 60 64 66 65
REMARK SMILES IDX 59 66 61 67 62 68 63 69 64 70 5 71 6 72 7 73 8 74 9 75 10 77
REMARK SMILES IDX 11 78 12 79 23 80 13 81 16 82 14 83 15 84 24 85 25 86 29 87
REMARK SMILES IDX 26 88 28 89 27 90 17 91 18 92 22 93 19 94 21 95 20 96
REMARK H PARENT 3 5 86 23 54 34 8 76
REMARK Flexibility Score: inf
ROOT
ATOM      1  C   UNL A   1      33.380  29.359  25.075  1.00  0.00     0.116 C 
ENDROOT
BRANCH   1   2
ATOM      2  N   UNL A   1      32.711  30.406  25.839  1.00  0.00    -0.352 N 
ATOM      3  O   UNL A   1      32.510  31.910  27.521  1.00  0.00    -0.269 OA
ATOM      4  C   UNL A   1      33.198  31.087  26.938  1.00  0.00     0.251 C 
ATOM      5  H   UNL A   1      31.808  30.656  25.538  1.00  0.00     0.163 HD
BRANCH   4   6
ATOM      6  C   UNL A   1      34.553  30.737  27.413  1.00  0.00     0.039 A 
ATOM      7  C   UNL A   1      34.824  29.423  27.796  1.00  0.00     0.014 A 
ATOM      8  C   UNL A   1      35.485  31.752  27.630  1.00  0.00     0.014 A 
ATOM      9  C   UNL A   1      35.922  29.168  28.601  1.00  0.00     0.010 A 
ATOM     10  C   UNL A   1      36.662  31.460  28.323  1.00  0.00     0.010 A 
ATOM     11  C   UNL A   1      36.863  30.179  28.858  1.00  0.00    -0.014 A 
BRANCH  11  12
ATOM     12  C   UNL A   1      38.084  29.838  29.629  1.00  0.00     0.031 A 
ATOM     13  C   UNL A   1      39.159  28.958  29.055  1.00  0.00     0.074 A 
ATOM     14  C   UNL A   1      38.208  30.355  30.867  1.00  0.00     0.049 A 
ATOM     15  N   UNL A   1      40.267  28.550  29.619  1.00  0.00    -0.248 NA
ATOM     16  C   UNL A   1      38.970  28.461  27.682  1.00  0.00     0.031 C 
ATOM     17  C   UNL A   1      37.206  31.196  31.527  1.00  0.00     0.029 A 
ATOM     18  N   UNL A   1      39.218  30.262  31.786  1.00  0.00    -0.354 N 
ATOM     19  C   UNL A   1      40.876  27.704  28.700  1.00  0.00     0.074 A 
ATOM     20  C   UNL A   1      40.021  27.664  27.533  1.00  0.00     0.031 C 
ATOM     21  C   UNL A   1      37.668  31.579  32.723  1.00  0.00     0.029 A 
ATOM     22  C   UNL A   1      38.959  30.945  32.950  1.00  0.00     0.049 A 
ATOM     23  H   UNL A   1      40.047  29.755  31.629  1.00  0.00     0.167 HD
ATOM     24  C   UNL A   1      42.046  27.031  28.820  1.00  0.00     0.034 A 
ATOM     25  C   UNL A   1      39.665  31.033  34.092  1.00  0.00     0.034 A 
ATOM     26  C   UNL A   1      42.912  27.125  29.967  1.00  0.00     0.049 A 
ATOM     27  C   UNL A   1      40.975  30.313  34.177  1.00  0.00     0.074 A 
ATOM     28  C   UNL A   1      44.144  26.527  30.166  1.00  0.00     0.029 A 
ATOM     29  N   UNL A   1      42.638  27.866  31.107  1.00  0.00    -0.354 N 
ATOM     30  N   UNL A   1      41.574  29.590  33.263  1.00  0.00    -0.248 NA
ATOM     31  C   UNL A   1      41.713  30.431  35.439  1.00  0.00     0.031 C 
ATOM     32  C   UNL A   1      44.612  26.902  31.431  1.00  0.00     0.029 A 
ATOM     33  C   UNL A   1      43.677  27.741  32.015  1.00  0.00     0.049 A 
ATOM     34  H   UNL A   1      41.825  28.402  31.250  1.00  0.00     0.167 HD
ATOM     35  C   UNL A   1      42.768  29.173  33.832  1.00  0.00     0.074 A 
ATOM     36  C   UNL A   1      42.820  29.754  35.161  1.00  0.00     0.031 C 
ATOM     37  C   UNL A   1      43.725  28.365  33.313  1.00  0.00     0.034 A 
BRANCH  24  38
ATOM     38  C   UNL A   1      42.481  26.159  27.670  1.00  0.00     0.023 A 
ATOM     39  C   UNL A   1      43.339  26.684  26.685  1.00  0.00     0.012 A 
ATOM     40  C   UNL A   1      42.098  24.804  27.601  1.00  0.00     0.148 A 
ATOM     41  C   UNL A   1      43.790  25.884  25.635  1.00  0.00     0.002 A 
ATOM     42  C   UNL A   1      42.580  24.003  26.570  1.00  0.00     0.091 A 
ATOM     43  F   UNL A   1      41.260  24.326  28.532  1.00  0.00    -0.205 F 
ATOM     44  C   UNL A   1      43.420  24.543  25.583  1.00  0.00     0.022 A 
BRANCH  42  45
ATOM     45  S   UNL A   1      42.207  22.248  26.466  1.00  0.00     0.127 S 
ATOM     46  O   UNL A   1      40.756  22.264  26.290  1.00  0.00    -0.237 OA
ATOM     47  O   UNL A   1      42.959  21.836  25.279  1.00  0.00    -0.237 OA
ATOM     48  O   UNL A   1      42.688  21.669  27.712  1.00  0.00    -0.744 OA
ENDBRANCH  42  45
ENDBRANCH  24  38
BRANCH  25  49
ATOM     49  C   UNL A   1      39.142  31.871  35.205  1.00  0.00     0.023 A 
ATOM     50  C   UNL A   1      38.298  31.289  36.168  1.00  0.00     0.012 A 
ATOM     51  C   UNL A   1      39.567  33.203  35.375  1.00  0.00     0.148 A 
ATOM     52  C   UNL A   1      37.881  32.023  37.280  1.00  0.00     0.002 A 
ATOM     53  C   UNL A   1      39.202  33.906  36.516  1.00  0.00     0.091 A 
ATOM     54  F   UNL A   1      40.359  33.745  34.437  1.00  0.00    -0.205 F 
ATOM     55  C   UNL A   1      38.347  33.323  37.463  1.00  0.00     0.022 A 
BRANCH  53  56
ATOM     56  S   UNL A   1      39.903  35.514  36.905  1.00  0.00     0.127 S 
ATOM     57  O   UNL A   1      39.259  35.822  38.178  1.00  0.00    -0.237 OA
ATOM     58  O   UNL A   1      41.333  35.213  36.993  1.00  0.00    -0.237 OA
ATOM     59  O   UNL A   1      39.547  36.370  35.782  1.00  0.00    -0.744 OA
ENDBRANCH  53  56
ENDBRANCH  25  49
BRANCH  37  60
ATOM     60  C   UNL A   1      44.914  28.070  34.184  1.00  0.00     0.023 A 
ATOM     61  C   UNL A   1      46.029  28.929  34.144  1.00  0.00     0.012 A 
ATOM     62  C   UNL A   1      44.901  26.985  35.079  1.00  0.00     0.148 A 
ATOM     63  C   UNL A   1      47.129  28.695  34.969  1.00  0.00     0.002 A 
ATOM     64  C   UNL A   1      45.983  26.783  35.927  1.00  0.00     0.091 A 
ATOM     65  F   UNL A   1      43.839  26.166  35.080  1.00  0.00    -0.205 F 
ATOM     66  C   UNL A   1      47.101  27.631  35.867  1.00  0.00     0.022 A 
BRANCH  64  67
ATOM     67  S   UNL A   1      45.990  25.484  37.168  1.00  0.00     0.127 S 
ATOM     68  O   UNL A   1      47.238  25.757  37.878  1.00  0.00    -0.237 OA
ATOM     69  O   UNL A   1      44.776  25.774  37.933  1.00  0.00    -0.237 OA
ATOM     70  O   UNL A   1      45.947  24.230  36.428  1.00  0.00    -0.744 OA
ENDBRANCH  64  67
ENDBRANCH  37  60
ENDBRANCH  11  12
ENDBRANCH   4   6
ENDBRANCH   1   2
BRANCH   1  71
ATOM     71  C   UNL A   1      32.619  28.058  24.989  1.00  0.00     0.023 C 
BRANCH  71  72
ATOM     72  C   UNL A   1      32.379  27.563  23.581  1.00  0.00     0.023 C 
BRANCH  72  73
ATOM     73  C   UNL A   1      32.852  26.143  23.240  1.00  0.00     0.116 C 
BRANCH  73  74
ATOM     74  N   UNL A   1      31.764  25.264  22.828  1.00  0.00    -0.356 N 
ATOM     75  C   UNL A   1      31.160  24.224  23.484  1.00  0.00     0.225 C 
ATOM     76  H   UNL A   1      31.405  25.449  21.930  1.00  0.00     0.163 HD
ATOM     77  O   UNL A   1      30.185  23.698  22.944  1.00  0.00    -0.275 OA
BRANCH  75  78
ATOM     78  C   UNL A   1      31.665  23.759  24.848  1.00  0.00     0.106 C 
ATOM     79  C   UNL A   1      30.571  23.304  25.807  1.00  0.00     0.026 C 
ATOM     80  C   UNL A   1      32.696  22.630  24.813  1.00  0.00     0.128 C 
ATOM     81  C   UNL A   1      31.143  22.895  27.169  1.00  0.00     0.101 C 
ATOM     82  N   UNL A   1      33.379  22.571  26.112  1.00  0.00    -0.332 N 
ATOM     83  C   UNL A   1      32.649  22.638  27.283  1.00  0.00     0.223 C 
ATOM     84  O   UNL A   1      33.168  22.548  28.396  1.00  0.00    -0.275 OA
BRANCH  80  85
ATOM     85  C   UNL A   1      32.353  21.263  24.202  1.00  0.00    -0.025 A 
ATOM     86  C   UNL A   1      32.412  20.086  24.966  1.00  0.00     0.006 A 
ATOM     87  C   UNL A   1      32.195  21.102  22.811  1.00  0.00     0.006 A 
ATOM     88  C   UNL A   1      32.397  18.821  24.367  1.00  0.00     0.000 A 
ATOM     89  C   UNL A   1      32.175  19.839  22.208  1.00  0.00     0.000 A 
ATOM     90  C   UNL A   1      32.298  18.698  22.986  1.00  0.00     0.000 A 
ENDBRANCH  80  85
BRANCH  82  91
ATOM     91  C   UNL A   1      34.855  22.694  26.091  1.00  0.00     0.085 C 
ATOM     92  C   UNL A   1      35.518  21.506  25.378  1.00  0.00     0.025 C 
ATOM     93  C   UNL A   1      35.424  24.021  25.576  1.00  0.00     0.025 C 
ATOM     94  C   UNL A   1      37.033  21.526  25.585  1.00  0.00     0.002 C 
ATOM     95  C   UNL A   1      36.936  24.054  25.827  1.00  0.00     0.002 C 
ATOM     96  C   UNL A   1      37.647  22.865  25.181  1.00  0.00     0.000 C 
ENDBRANCH  82  91
ENDBRANCH  75  78
ENDBRANCH  73  74
ENDBRANCH  72  73
ENDBRANCH  71  72
ENDBRANCH   1  71
TORSDOF 16
ENDMDL
