MODEL 1
REMARK VINA RESULT:     -12.2      0.000      0.000
REMARK SMILES O=C(NCCCCNC(=O)c1cncc(Oc2cc(F)ccc2F)n1)c1ccc(-c2c3nc(c(-c4cccc(S(=O)(=O)[O-])c4F)c4ccc([nH]4)c(-c4cccc(S(=O)(=O)[O-])c4F)c4nc(c(-c5cccc(S(=O)(=O)[O-])c5F)c5ccc2[nH]5)C=C4)C=C3)cc1
REMARK SMILES IDX 5 1 4 2 3 3 1 4 2 5 26 7 27 8 88 9 28 10 87 11 29 12 30 13
REMARK SMILES IDX 31 14 81 15 32 16 86 17 80 18 82 19 33 20 85 21 79 22 78 23
REMARK SMILES IDX 34 25 66 26 46 27 65 28 47 29 50 30 64 31 83 32 48 33 49 34
REMARK SMILES IDX 63 36 84 37 51 38 35 39 36 40 44 41 37 42 39 43 45 44 38 45
REMARK SMILES IDX 40 46 41 47 42 48 43 49 67 50 68 51 76 52 69 53 71 54 77 55
REMARK SMILES IDX 70 56 72 57 73 58 74 59 75 60 52 61 53 62 61 63 54 64 56 65
REMARK SMILES IDX 62 66 55 67 57 68 58 69 59 70 60 71 6 72 7 73 8 74 9 75
REMARK SMILES IDX 10 77 11 78 12 79 25 80 13 81 15 82 14 83 16 84 17 85 18 86
REMARK SMILES IDX 23 87 19 88 22 89 24 90 20 91 21 92
REMARK H PARENT 3 6 82 24 50 35 8 76
REMARK Flexibility Score: inf
ROOT
ATOM      1  C   UNL A   1      38.122  19.410  25.012  1.00  0.00     0.023 C 
ENDROOT
BRANCH   1   2
ATOM      2  C   UNL A   1      39.211  20.084  25.838  1.00  0.00     0.116 C 
BRANCH   2   3
ATOM      3  N   UNL A   1      40.354  19.220  26.081  1.00  0.00    -0.352 N 
ATOM      4  O   UNL A   1      42.520  18.704  26.418  1.00  0.00    -0.269 OA
ATOM      5  C   UNL A   1      41.647  19.567  26.393  1.00  0.00     0.251 C 
ATOM      6  H   UNL A   1      40.178  18.253  26.013  1.00  0.00     0.163 HD
BRANCH   5   7
ATOM      7  C   UNL A   1      41.982  20.983  26.666  1.00  0.00     0.039 A 
ATOM      8  C   UNL A   1      42.260  21.410  27.968  1.00  0.00     0.014 A 
ATOM      9  C   UNL A   1      42.026  21.893  25.606  1.00  0.00     0.014 A 
ATOM     10  C   UNL A   1      42.456  22.762  28.226  1.00  0.00     0.010 A 
ATOM     11  C   UNL A   1      42.302  23.240  25.858  1.00  0.00     0.010 A 
ATOM     12  C   UNL A   1      42.497  23.690  27.172  1.00  0.00    -0.014 A 
BRANCH  12  13
ATOM     13  C   UNL A   1      42.864  25.099  27.461  1.00  0.00     0.031 A 
ATOM     14  C   UNL A   1      41.893  26.055  28.097  1.00  0.00     0.074 A 
ATOM     15  C   UNL A   1      44.100  25.515  27.120  1.00  0.00     0.049 A 
ATOM     16  N   UNL A   1      42.079  27.306  28.432  1.00  0.00    -0.248 NA
ATOM     17  C   UNL A   1      40.540  25.553  28.388  1.00  0.00     0.031 C 
ATOM     18  C   UNL A   1      45.104  24.691  26.441  1.00  0.00     0.029 A 
ATOM     19  N   UNL A   1      44.721  26.726  27.283  1.00  0.00    -0.354 N 
ATOM     20  C   UNL A   1      40.865  27.754  28.935  1.00  0.00     0.074 A 
ATOM     21  C   UNL A   1      39.943  26.640  28.866  1.00  0.00     0.031 C 
ATOM     22  C   UNL A   1      46.218  25.413  26.258  1.00  0.00     0.029 A 
ATOM     23  C   UNL A   1      45.994  26.763  26.762  1.00  0.00     0.049 A 
ATOM     24  H   UNL A   1      44.298  27.495  27.729  1.00  0.00     0.167 HD
ATOM     25  C   UNL A   1      40.555  28.980  29.423  1.00  0.00     0.034 A 
ATOM     26  C   UNL A   1      46.879  27.774  26.679  1.00  0.00     0.034 A 
ATOM     27  C   UNL A   1      41.490  30.069  29.532  1.00  0.00     0.049 A 
ATOM     28  C   UNL A   1      46.511  29.108  27.258  1.00  0.00     0.074 A 
ATOM     29  C   UNL A   1      41.296  31.313  30.110  1.00  0.00     0.029 A 
ATOM     30  N   UNL A   1      42.786  30.055  29.042  1.00  0.00    -0.354 N 
ATOM     31  N   UNL A   1      45.416  29.459  27.887  1.00  0.00    -0.248 NA
ATOM     32  C   UNL A   1      47.508  30.180  27.139  1.00  0.00     0.031 C 
ATOM     33  C   UNL A   1      42.469  32.058  29.950  1.00  0.00     0.029 A 
ATOM     34  C   UNL A   1      43.396  31.274  29.283  1.00  0.00     0.049 A 
ATOM     35  H   UNL A   1      43.210  29.291  28.589  1.00  0.00     0.167 HD
ATOM     36  C   UNL A   1      45.596  30.786  28.250  1.00  0.00     0.074 A 
ATOM     37  C   UNL A   1      46.922  31.166  27.806  1.00  0.00     0.031 C 
ATOM     38  C   UNL A   1      44.731  31.625  28.870  1.00  0.00     0.034 A 
BRANCH  25  39
ATOM     39  C   UNL A   1      39.156  29.216  29.931  1.00  0.00     0.023 A 
ATOM     40  C   UNL A   1      38.816  28.812  31.236  1.00  0.00     0.012 A 
ATOM     41  C   UNL A   1      38.224  29.946  29.166  1.00  0.00     0.148 A 
ATOM     42  C   UNL A   1      37.565  29.120  31.770  1.00  0.00     0.002 A 
ATOM     43  C   UNL A   1      36.992  30.279  29.717  1.00  0.00     0.091 A 
ATOM     44  F   UNL A   1      38.563  30.308  27.920  1.00  0.00    -0.205 F 
ATOM     45  C   UNL A   1      36.659  29.863  31.017  1.00  0.00     0.022 A 
BRANCH  43  46
ATOM     46  S   UNL A   1      35.782  31.291  28.857  1.00  0.00     0.127 S 
ATOM     47  O   UNL A   1      35.220  30.334  27.905  1.00  0.00    -0.237 OA
ATOM     48  O   UNL A   1      34.876  31.675  29.940  1.00  0.00    -0.237 OA
ATOM     49  O   UNL A   1      36.526  32.394  28.265  1.00  0.00    -0.744 OA
ENDBRANCH  43  46
ENDBRANCH  25  39
BRANCH  26  50
ATOM     50  C   UNL A   1      48.207  27.544  26.046  1.00  0.00     0.023 A 
ATOM     51  C   UNL A   1      49.305  27.177  26.847  1.00  0.00     0.012 A 
ATOM     52  C   UNL A   1      48.377  27.640  24.651  1.00  0.00     0.148 A 
ATOM     53  C   UNL A   1      50.553  26.936  26.273  1.00  0.00     0.002 A 
ATOM     54  C   UNL A   1      49.607  27.338  24.080  1.00  0.00     0.091 A 
ATOM     55  F   UNL A   1      47.328  28.013  23.903  1.00  0.00    -0.205 F 
ATOM     56  C   UNL A   1      50.702  27.003  24.890  1.00  0.00     0.022 A 
BRANCH  54  57
ATOM     57  S   UNL A   1      49.815  27.254  22.298  1.00  0.00     0.127 S 
ATOM     58  O   UNL A   1      48.815  26.259  21.924  1.00  0.00    -0.237 OA
ATOM     59  O   UNL A   1      49.507  28.624  21.881  1.00  0.00    -0.237 OA
ATOM     60  O   UNL A   1      51.208  26.877  22.100  1.00  0.00    -0.744 OA
ENDBRANCH  54  57
ENDBRANCH  26  50
BRANCH  38  61
ATOM     61  C   UNL A   1      45.190  33.039  29.102  1.00  0.00     0.023 A 
ATOM     62  C   UNL A   1      45.767  33.382  30.341  1.00  0.00     0.012 A 
ATOM     63  C   UNL A   1      45.104  34.008  28.085  1.00  0.00     0.148 A 
ATOM     64  C   UNL A   1      46.224  34.678  30.575  1.00  0.00     0.002 A 
ATOM     65  C   UNL A   1      45.602  35.287  28.311  1.00  0.00     0.091 A 
ATOM     66  F   UNL A   1      44.533  33.668  26.921  1.00  0.00    -0.205 F 
ATOM     67  C   UNL A   1      46.152  35.625  29.558  1.00  0.00     0.022 A 
BRANCH  65  68
ATOM     68  S   UNL A   1      45.626  36.545  27.030  1.00  0.00     0.127 S 
ATOM     69  O   UNL A   1      44.222  36.948  26.980  1.00  0.00    -0.237 OA
ATOM     70  O   UNL A   1      46.530  37.549  27.594  1.00  0.00    -0.237 OA
ATOM     71  O   UNL A   1      46.134  35.885  25.834  1.00  0.00    -0.744 OA
ENDBRANCH  65  68
ENDBRANCH  38  61
ENDBRANCH  12  13
ENDBRANCH   5   7
ENDBRANCH   2   3
ENDBRANCH   1   2
BRANCH   1  72
ATOM     72  C   UNL A   1      36.938  20.300  24.635  1.00  0.00     0.023 C 
BRANCH  72  73
ATOM     73  C   UNL A   1      37.111  21.783  24.952  1.00  0.00     0.116 C 
BRANCH  73  74
ATOM     74  N   UNL A   1      36.641  22.643  23.878  1.00  0.00    -0.351 N 
ATOM     75  C   UNL A   1      35.358  23.064  23.610  1.00  0.00     0.271 C 
ATOM     76  H   UNL A   1      37.335  22.970  23.260  1.00  0.00     0.163 HD
ATOM     77  O   UNL A   1      35.124  23.756  22.624  1.00  0.00    -0.267 OA
BRANCH  75  78
ATOM     78  C   UNL A   1      34.267  22.696  24.535  1.00  0.00     0.150 A 
ATOM     79  C   UNL A   1      34.023  23.480  25.656  1.00  0.00     0.145 A 
ATOM     80  N   UNL A   1      33.575  21.560  24.261  1.00  0.00    -0.205 NA
ATOM     81  N   UNL A   1      33.093  23.143  26.584  1.00  0.00    -0.257 NA
ATOM     82  C   UNL A   1      32.628  21.241  25.171  1.00  0.00     0.238 A 
ATOM     83  C   UNL A   1      32.406  22.005  26.313  1.00  0.00     0.179 A 
BRANCH  82  84
ATOM     84  O   UNL A   1      31.864  20.090  25.024  1.00  0.00    -0.434 OA
BRANCH  84  85
ATOM     85  C   UNL A   1      32.527  18.972  24.585  1.00  0.00     0.168 A 
ATOM     86  C   UNL A   1      33.126  18.086  25.480  1.00  0.00     0.089 A 
ATOM     87  C   UNL A   1      32.506  18.676  23.221  1.00  0.00     0.166 A 
ATOM     88  C   UNL A   1      33.728  16.933  24.988  1.00  0.00     0.127 A 
ATOM     89  C   UNL A   1      33.107  17.518  22.733  1.00  0.00     0.046 A 
ATOM     90  F   UNL A   1      31.894  19.504  22.362  1.00  0.00    -0.203 F 
ATOM     91  F   UNL A   1      34.312  16.079  25.839  1.00  0.00    -0.207 F 
ATOM     92  C   UNL A   1      33.726  16.641  23.625  1.00  0.00     0.042 A 
ENDBRANCH  84  85
ENDBRANCH  82  84
ENDBRANCH  75  78
ENDBRANCH  73  74
ENDBRANCH  72  73
ENDBRANCH   1  72
TORSDOF 16
ENDMDL
MODEL 2
REMARK VINA RESULT:     -12.0      6.605     11.656
REMARK SMILES O=C(NCCCCNC(=O)c1cncc(Oc2cc(F)ccc2F)n1)c1ccc(-c2c3nc(c(-c4cccc(S(=O)(=O)[O-])c4F)c4ccc([nH]4)c(-c4cccc(S(=O)(=O)[O-])c4F)c4nc(c(-c5cccc(S(=O)(=O)[O-])c5F)c5ccc2[nH]5)C=C4)C=C3)cc1
REMARK SMILES IDX 5 1 4 2 3 3 1 4 2 5 26 7 27 8 88 9 28 10 87 11 29 12 30 13
REMARK SMILES IDX 31 14 81 15 32 16 86 17 80 18 82 19 33 20 85 21 79 22 78 23
REMARK SMILES IDX 34 25 66 26 46 27 65 28 47 29 50 30 64 31 83 32 48 33 49 34
REMARK SMILES IDX 63 36 84 37 51 38 35 39 36 40 44 41 37 42 39 43 45 44 38 45
REMARK SMILES IDX 40 46 41 47 42 48 43 49 67 50 68 51 76 52 69 53 71 54 77 55
REMARK SMILES IDX 70 56 72 57 73 58 74 59 75 60 52 61 53 62 61 63 54 64 56 65
REMARK SMILES IDX 62 66 55 67 57 68 58 69 59 70 60 71 6 72 7 73 8 74 9 75
REMARK SMILES IDX 10 77 11 78 12 79 25 80 13 81 15 82 14 83 16 84 17 85 18 86
REMARK SMILES IDX 23 87 19 88 22 89 24 90 20 91 21 92
REMARK H PARENT 3 6 82 24 50 35 8 76
REMARK Flexibility Score: inf
ROOT
ATOM      1  C   UNL A   1      34.183  34.177  28.191  1.00  0.00     0.023 C 
ENDROOT
BRANCH   1   2
ATOM      2  C   UNL A   1      34.539  32.789  28.708  1.00  0.00     0.116 C 
BRANCH   2   3
ATOM      3  N   UNL A   1      33.879  31.724  27.972  1.00  0.00    -0.352 N 
ATOM      4  O   UNL A   1      33.719  29.772  26.861  1.00  0.00    -0.269 OA
ATOM      5  C   UNL A   1      34.370  30.490  27.615  1.00  0.00     0.251 C 
ATOM      6  H   UNL A   1      32.954  31.912  27.688  1.00  0.00     0.163 HD
BRANCH   5   7
ATOM      7  C   UNL A   1      35.691  30.051  28.118  1.00  0.00     0.039 A 
ATOM      8  C   UNL A   1      35.815  29.484  29.390  1.00  0.00     0.014 A 
ATOM      9  C   UNL A   1      36.817  30.201  27.305  1.00  0.00     0.014 A 
ATOM     10  C   UNL A   1      37.075  29.187  29.895  1.00  0.00     0.010 A 
ATOM     11  C   UNL A   1      38.076  29.827  27.786  1.00  0.00     0.010 A 
ATOM     12  C   UNL A   1      38.218  29.338  29.092  1.00  0.00    -0.014 A 
BRANCH  12  13
ATOM     13  C   UNL A   1      39.530  28.864  29.602  1.00  0.00     0.031 A 
ATOM     14  C   UNL A   1      40.226  29.546  30.748  1.00  0.00     0.074 A 
ATOM     15  C   UNL A   1      40.100  27.804  28.997  1.00  0.00     0.049 A 
ATOM     16  N   UNL A   1      41.361  29.230  31.317  1.00  0.00    -0.248 NA
ATOM     17  C   UNL A   1      39.578  30.734  31.324  1.00  0.00     0.031 C 
ATOM     18  C   UNL A   1      39.544  27.101  27.836  1.00  0.00     0.029 A 
ATOM     19  N   UNL A   1      41.269  27.136  29.257  1.00  0.00    -0.354 N 
ATOM     20  C   UNL A   1      41.585  30.197  32.289  1.00  0.00     0.074 A 
ATOM     21  C   UNL A   1      40.465  31.113  32.237  1.00  0.00     0.031 C 
ATOM     22  C   UNL A   1      40.362  26.097  27.494  1.00  0.00     0.029 A 
ATOM     23  C   UNL A   1      41.522  26.110  28.377  1.00  0.00     0.049 A 
ATOM     24  H   UNL A   1      41.870  27.370  30.002  1.00  0.00     0.167 HD
ATOM     25  C   UNL A   1      42.623  30.299  33.154  1.00  0.00     0.034 A 
ATOM     26  C   UNL A   1      42.578  25.281  28.275  1.00  0.00     0.034 A 
ATOM     27  C   UNL A   1      43.710  29.356  33.231  1.00  0.00     0.049 A 
ATOM     28  C   UNL A   1      43.694  25.404  29.270  1.00  0.00     0.074 A 
ATOM     29  C   UNL A   1      44.751  29.319  34.144  1.00  0.00     0.029 A 
ATOM     30  N   UNL A   1      43.907  28.299  32.357  1.00  0.00    -0.354 N 
ATOM     31  N   UNL A   1      43.800  26.219  30.292  1.00  0.00    -0.248 NA
ATOM     32  C   UNL A   1      44.825  24.481  29.115  1.00  0.00     0.031 C 
ATOM     33  C   UNL A   1      45.588  28.251  33.808  1.00  0.00     0.029 A 
ATOM     34  C   UNL A   1      45.063  27.617  32.695  1.00  0.00     0.049 A 
ATOM     35  H   UNL A   1      43.312  28.068  31.608  1.00  0.00     0.167 HD
ATOM     36  C   UNL A   1      45.001  25.899  30.909  1.00  0.00     0.074 A 
ATOM     37  C   UNL A   1      45.568  24.789  30.170  1.00  0.00     0.031 C 
ATOM     38  C   UNL A   1      45.596  26.488  31.974  1.00  0.00     0.034 A 
BRANCH  25  39
ATOM     39  C   UNL A   1      42.629  31.443  34.135  1.00  0.00     0.023 A 
ATOM     40  C   UNL A   1      43.280  32.643  33.793  1.00  0.00     0.012 A 
ATOM     41  C   UNL A   1      41.889  31.371  35.332  1.00  0.00     0.148 A 
ATOM     42  C   UNL A   1      43.204  33.755  34.632  1.00  0.00     0.002 A 
ATOM     43  C   UNL A   1      41.790  32.493  36.148  1.00  0.00     0.091 A 
ATOM     44  F   UNL A   1      41.291  30.213  35.646  1.00  0.00    -0.205 F 
ATOM     45  C   UNL A   1      42.450  33.684  35.801  1.00  0.00     0.022 A 
BRANCH  43  46
ATOM     46  S   UNL A   1      40.789  32.528  37.639  1.00  0.00     0.127 S 
ATOM     47  O   UNL A   1      41.623  31.771  38.572  1.00  0.00    -0.237 OA
ATOM     48  O   UNL A   1      40.707  33.961  37.921  1.00  0.00    -0.237 OA
ATOM     49  O   UNL A   1      39.521  31.902  37.289  1.00  0.00    -0.744 OA
ENDBRANCH  43  46
ENDBRANCH  25  39
BRANCH  26  50
ATOM     50  C   UNL A   1      42.605  24.246  27.205  1.00  0.00     0.023 A 
ATOM     51  C   UNL A   1      43.306  24.498  26.011  1.00  0.00     0.012 A 
ATOM     52  C   UNL A   1      41.981  22.996  27.384  1.00  0.00     0.148 A 
ATOM     53  C   UNL A   1      43.363  23.534  25.005  1.00  0.00     0.002 A 
ATOM     54  C   UNL A   1      42.093  22.018  26.403  1.00  0.00     0.091 A 
ATOM     55  F   UNL A   1      41.296  22.779  28.517  1.00  0.00    -0.205 F 
ATOM     56  C   UNL A   1      42.769  22.290  25.205  1.00  0.00     0.022 A 
BRANCH  54  57
ATOM     57  S   UNL A   1      41.485  20.350  26.673  1.00  0.00     0.127 S 
ATOM     58  O   UNL A   1      42.230  19.946  27.861  1.00  0.00    -0.237 OA
ATOM     59  O   UNL A   1      40.053  20.568  26.889  1.00  0.00    -0.237 OA
ATOM     60  O   UNL A   1      41.793  19.634  25.441  1.00  0.00    -0.744 OA
ENDBRANCH  54  57
ENDBRANCH  26  50
BRANCH  38  61
ATOM     61  C   UNL A   1      46.932  25.947  32.404  1.00  0.00     0.023 A 
ATOM     62  C   UNL A   1      48.104  26.456  31.811  1.00  0.00     0.012 A 
ATOM     63  C   UNL A   1      47.033  24.983  33.424  1.00  0.00     0.148 A 
ATOM     64  C   UNL A   1      49.357  25.991  32.207  1.00  0.00     0.002 A 
ATOM     65  C   UNL A   1      48.288  24.556  33.844  1.00  0.00     0.091 A 
ATOM     66  F   UNL A   1      45.905  24.495  33.960  1.00  0.00    -0.205 F 
ATOM     67  C   UNL A   1      49.449  25.051  33.230  1.00  0.00     0.022 A 
BRANCH  65  68
ATOM     68  S   UNL A   1      48.502  23.411  35.211  1.00  0.00     0.127 S 
ATOM     69  O   UNL A   1      47.767  24.082  36.281  1.00  0.00    -0.237 OA
ATOM     70  O   UNL A   1      47.865  22.195  34.703  1.00  0.00    -0.237 OA
ATOM     71  O   UNL A   1      49.940  23.296  35.412  1.00  0.00    -0.744 OA
ENDBRANCH  65  68
ENDBRANCH  38  61
ENDBRANCH  12  13
ENDBRANCH   5   7
ENDBRANCH   2   3
ENDBRANCH   1   2
BRANCH   1  72
ATOM     72  C   UNL A   1      33.333  35.031  29.131  1.00  0.00     0.023 C 
BRANCH  72  73
ATOM     73  C   UNL A   1      33.977  36.336  29.588  1.00  0.00     0.116 C 
BRANCH  73  74
ATOM     74  N   UNL A   1      33.205  37.012  30.618  1.00  0.00    -0.351 N 
ATOM     75  C   UNL A   1      33.065  36.681  31.947  1.00  0.00     0.271 C 
ATOM     76  H   UNL A   1      32.715  37.815  30.325  1.00  0.00     0.163 HD
ATOM     77  O   UNL A   1      32.327  37.336  32.676  1.00  0.00    -0.267 OA
BRANCH  75  78
ATOM     78  C   UNL A   1      33.831  35.543  32.494  1.00  0.00     0.150 A 
ATOM     79  C   UNL A   1      33.219  34.303  32.626  1.00  0.00     0.145 A 
ATOM     80  N   UNL A   1      35.107  35.785  32.889  1.00  0.00    -0.205 NA
ATOM     81  N   UNL A   1      33.845  33.246  33.200  1.00  0.00    -0.257 NA
ATOM     82  C   UNL A   1      35.741  34.722  33.435  1.00  0.00     0.238 A 
ATOM     83  C   UNL A   1      35.118  33.489  33.602  1.00  0.00     0.179 A 
BRANCH  82  84
ATOM     84  O   UNL A   1      37.042  34.839  33.906  1.00  0.00    -0.434 OA
BRANCH  84  85
ATOM     85  C   UNL A   1      38.043  34.641  32.987  1.00  0.00     0.168 A 
ATOM     86  C   UNL A   1      37.764  34.529  31.625  1.00  0.00     0.089 A 
ATOM     87  C   UNL A   1      39.367  34.655  33.429  1.00  0.00     0.166 A 
ATOM     88  C   UNL A   1      38.820  34.394  30.730  1.00  0.00     0.127 A 
ATOM     89  C   UNL A   1      40.420  34.525  32.527  1.00  0.00     0.046 A 
ATOM     90  F   UNL A   1      39.640  34.806  34.733  1.00  0.00    -0.203 F 
ATOM     91  F   UNL A   1      38.562  34.279  29.420  1.00  0.00    -0.207 F 
ATOM     92  C   UNL A   1      40.143  34.390  31.167  1.00  0.00     0.042 A 
ENDBRANCH  84  85
ENDBRANCH  82  84
ENDBRANCH  75  78
ENDBRANCH  73  74
ENDBRANCH  72  73
ENDBRANCH   1  72
TORSDOF 16
ENDMDL
MODEL 3
REMARK VINA RESULT:     -12.0      6.784     11.960
REMARK SMILES O=C(NCCCCNC(=O)c1cncc(Oc2cc(F)ccc2F)n1)c1ccc(-c2c3nc(c(-c4cccc(S(=O)(=O)[O-])c4F)c4ccc([nH]4)c(-c4cccc(S(=O)(=O)[O-])c4F)c4nc(c(-c5cccc(S(=O)(=O)[O-])c5F)c5ccc2[nH]5)C=C4)C=C3)cc1
REMARK SMILES IDX 5 1 4 2 3 3 1 4 2 5 26 7 27 8 88 9 28 10 87 11 29 12 30 13
REMARK SMILES IDX 31 14 81 15 32 16 86 17 80 18 82 19 33 20 85 21 79 22 78 23
REMARK SMILES IDX 34 25 66 26 46 27 65 28 47 29 50 30 64 31 83 32 48 33 49 34
REMARK SMILES IDX 63 36 84 37 51 38 35 39 36 40 44 41 37 42 39 43 45 44 38 45
REMARK SMILES IDX 40 46 41 47 42 48 43 49 67 50 68 51 76 52 69 53 71 54 77 55
REMARK SMILES IDX 70 56 72 57 73 58 74 59 75 60 52 61 53 62 61 63 54 64 56 65
REMARK SMILES IDX 62 66 55 67 57 68 58 69 59 70 60 71 6 72 7 73 8 74 9 75
REMARK SMILES IDX 10 77 11 78 12 79 25 80 13 81 15 82 14 83 16 84 17 85 18 86
REMARK SMILES IDX 23 87 19 88 22 89 24 90 20 91 21 92
REMARK H PARENT 3 6 82 24 50 35 8 76
REMARK Flexibility Score: inf
ROOT
ATOM      1  C   UNL A   1      31.317  32.312  26.392  1.00  0.00     0.023 C 
ENDROOT
BRANCH   1   2
ATOM      2  C   UNL A   1      32.586  32.727  27.126  1.00  0.00     0.116 C 
BRANCH   2   3
ATOM      3  N   UNL A   1      32.529  34.089  27.629  1.00  0.00    -0.352 N 
ATOM      4  O   UNL A   1      33.004  35.803  29.011  1.00  0.00    -0.269 OA
ATOM      5  C   UNL A   1      33.292  34.678  28.610  1.00  0.00     0.251 C 
ATOM      6  H   UNL A   1      31.851  34.669  27.212  1.00  0.00     0.163 HD
BRANCH   5   7
ATOM      7  C   UNL A   1      34.435  33.942  29.194  1.00  0.00     0.039 A 
ATOM      8  C   UNL A   1      34.221  32.907  30.109  1.00  0.00     0.014 A 
ATOM      9  C   UNL A   1      35.736  34.286  28.817  1.00  0.00     0.014 A 
ATOM     10  C   UNL A   1      35.305  32.305  30.739  1.00  0.00     0.010 A 
ATOM     11  C   UNL A   1      36.825  33.624  29.393  1.00  0.00     0.010 A 
ATOM     12  C   UNL A   1      36.619  32.644  30.375  1.00  0.00    -0.014 A 
BRANCH  12  13
ATOM     13  C   UNL A   1      37.752  31.875  30.949  1.00  0.00     0.031 A 
ATOM     14  C   UNL A   1      38.467  30.813  30.160  1.00  0.00     0.074 A 
ATOM     15  C   UNL A   1      38.121  32.141  32.218  1.00  0.00     0.049 A 
ATOM     16  N   UNL A   1      39.488  30.078  30.519  1.00  0.00    -0.248 NA
ATOM     17  C   UNL A   1      37.975  30.531  28.802  1.00  0.00     0.031 C 
ATOM     18  C   UNL A   1      37.458  33.108  33.098  1.00  0.00     0.029 A 
ATOM     19  N   UNL A   1      39.126  31.624  32.993  1.00  0.00    -0.354 N 
ATOM     20  C   UNL A   1      39.738  29.221  29.455  1.00  0.00     0.074 A 
ATOM     21  C   UNL A   1      38.763  29.527  28.430  1.00  0.00     0.031 C 
ATOM     22  C   UNL A   1      38.081  33.124  34.284  1.00  0.00     0.029 A 
ATOM     23  C   UNL A   1      39.156  32.139  34.268  1.00  0.00     0.049 A 
ATOM     24  H   UNL A   1      39.765  30.949  32.668  1.00  0.00     0.167 HD
ATOM     25  C   UNL A   1      40.703  28.276  29.341  1.00  0.00     0.034 A 
ATOM     26  C   UNL A   1      39.944  31.840  35.317  1.00  0.00     0.034 A 
ATOM     27  C   UNL A   1      41.699  28.010  30.347  1.00  0.00     0.049 A 
ATOM     28  C   UNL A   1      41.022  30.811  35.143  1.00  0.00     0.074 A 
ATOM     29  C   UNL A   1      42.780  27.146  30.277  1.00  0.00     0.029 A 
ATOM     30  N   UNL A   1      41.729  28.587  31.606  1.00  0.00    -0.354 N 
ATOM     31  N   UNL A   1      41.351  30.136  34.068  1.00  0.00    -0.248 NA
ATOM     32  C   UNL A   1      41.854  30.517  36.317  1.00  0.00     0.031 C 
ATOM     33  C   UNL A   1      43.451  27.186  31.504  1.00  0.00     0.029 A 
ATOM     34  C   UNL A   1      42.796  28.082  32.332  1.00  0.00     0.049 A 
ATOM     35  H   UNL A   1      41.088  29.256  31.936  1.00  0.00     0.167 HD
ATOM     36  C   UNL A   1      42.434  29.348  34.431  1.00  0.00     0.074 A 
ATOM     37  C   UNL A   1      42.731  29.658  35.815  1.00  0.00     0.031 C 
ATOM     38  C   UNL A   1      43.105  28.430  33.695  1.00  0.00     0.034 A 
BRANCH  25  39
ATOM     39  C   UNL A   1      40.778  27.478  28.065  1.00  0.00     0.023 A 
ATOM     40  C   UNL A   1      41.372  28.051  26.925  1.00  0.00     0.012 A 
ATOM     41  C   UNL A   1      40.376  26.128  28.034  1.00  0.00     0.148 A 
ATOM     42  C   UNL A   1      41.557  27.296  25.767  1.00  0.00     0.002 A 
ATOM     43  C   UNL A   1      40.593  25.372  26.888  1.00  0.00     0.091 A 
ATOM     44  F   UNL A   1      39.797  25.607  29.126  1.00  0.00    -0.205 F 
ATOM     45  C   UNL A   1      41.180  25.956  25.752  1.00  0.00     0.022 A 
BRANCH  43  46
ATOM     46  S   UNL A   1      40.208  23.620  26.788  1.00  0.00     0.127 S 
ATOM     47  O   UNL A   1      38.811  23.650  26.356  1.00  0.00    -0.237 OA
ATOM     48  O   UNL A   1      41.150  23.154  25.770  1.00  0.00    -0.237 OA
ATOM     49  O   UNL A   1      40.435  23.080  28.122  1.00  0.00    -0.744 OA
ENDBRANCH  43  46
ENDBRANCH  25  39
BRANCH  26  50
ATOM     50  C   UNL A   1      39.755  32.553  36.611  1.00  0.00     0.023 A 
ATOM     51  C   UNL A   1      40.566  33.662  36.919  1.00  0.00     0.012 A 
ATOM     52  C   UNL A   1      38.747  32.167  37.515  1.00  0.00     0.148 A 
ATOM     53  C   UNL A   1      40.391  34.357  38.116  1.00  0.00     0.002 A 
ATOM     54  C   UNL A   1      38.539  32.901  38.676  1.00  0.00     0.091 A 
ATOM     55  F   UNL A   1      37.998  31.094  37.219  1.00  0.00    -0.205 F 
ATOM     56  C   UNL A   1      39.371  33.986  38.988  1.00  0.00     0.022 A 
BRANCH  54  57
ATOM     57  S   UNL A   1      37.142  32.568  39.755  1.00  0.00     0.127 S 
ATOM     58  O   UNL A   1      36.014  32.704  38.839  1.00  0.00    -0.237 OA
ATOM     59  O   UNL A   1      37.411  31.200  40.203  1.00  0.00    -0.237 OA
ATOM     60  O   UNL A   1      37.240  33.564  40.814  1.00  0.00    -0.744 OA
ENDBRANCH  54  57
ENDBRANCH  26  50
BRANCH  38  61
ATOM     61  C   UNL A   1      44.226  27.690  34.372  1.00  0.00     0.023 A 
ATOM     62  C   UNL A   1      45.520  28.245  34.367  1.00  0.00     0.012 A 
ATOM     63  C   UNL A   1      43.991  26.483  35.058  1.00  0.00     0.148 A 
ATOM     64  C   UNL A   1      46.573  27.594  35.008  1.00  0.00     0.002 A 
ATOM     65  C   UNL A   1      45.037  25.861  35.732  1.00  0.00     0.091 A 
ATOM     66  F   UNL A   1      42.757  25.960  35.033  1.00  0.00    -0.205 F 
ATOM     67  C   UNL A   1      46.329  26.410  35.699  1.00  0.00     0.022 A 
BRANCH  65  68
ATOM     68  S   UNL A   1      44.795  24.379  36.716  1.00  0.00     0.127 S 
ATOM     69  O   UNL A   1      46.151  24.110  37.190  1.00  0.00    -0.237 OA
ATOM     70  O   UNL A   1      43.867  24.838  37.750  1.00  0.00    -0.237 OA
ATOM     71  O   UNL A   1      44.238  23.385  35.808  1.00  0.00    -0.744 OA
ENDBRANCH  65  68
ENDBRANCH  38  61
ENDBRANCH  12  13
ENDBRANCH   5   7
ENDBRANCH   2   3
ENDBRANCH   1   2
BRANCH   1  72
ATOM     72  C   UNL A   1      31.146  30.809  26.174  1.00  0.00     0.023 C 
BRANCH  72  73
ATOM     73  C   UNL A   1      32.364  29.957  26.522  1.00  0.00     0.116 C 
BRANCH  73  74
ATOM     74  N   UNL A   1      32.003  28.681  27.118  1.00  0.00    -0.351 N 
ATOM     75  C   UNL A   1      31.749  27.481  26.495  1.00  0.00     0.271 C 
ATOM     76  H   UNL A   1      31.931  28.675  28.100  1.00  0.00     0.163 HD
ATOM     77  O   UNL A   1      31.404  26.501  27.149  1.00  0.00    -0.267 OA
BRANCH  75  78
ATOM     78  C   UNL A   1      31.917  27.374  25.031  1.00  0.00     0.150 A 
ATOM     79  C   UNL A   1      33.133  26.950  24.510  1.00  0.00     0.145 A 
ATOM     80  N   UNL A   1      30.868  27.749  24.255  1.00  0.00    -0.205 NA
ATOM     81  N   UNL A   1      33.374  26.915  23.176  1.00  0.00    -0.257 NA
ATOM     82  C   UNL A   1      31.099  27.685  22.924  1.00  0.00     0.238 A 
ATOM     83  C   UNL A   1      32.327  27.296  22.400  1.00  0.00     0.179 A 
BRANCH  82  84
ATOM     84  O   UNL A   1      30.118  28.066  22.017  1.00  0.00    -0.434 OA
BRANCH  84  85
ATOM     85  C   UNL A   1      29.340  29.138  22.375  1.00  0.00     0.168 A 
ATOM     86  C   UNL A   1      29.684  30.438  22.006  1.00  0.00     0.089 A 
ATOM     87  C   UNL A   1      28.133  28.896  23.034  1.00  0.00     0.166 A 
ATOM     88  C   UNL A   1      28.827  31.482  22.338  1.00  0.00     0.127 A 
ATOM     89  C   UNL A   1      27.277  29.945  23.360  1.00  0.00     0.046 A 
ATOM     90  F   UNL A   1      27.779  27.642  23.352  1.00  0.00    -0.203 F 
ATOM     91  F   UNL A   1      29.151  32.735  21.994  1.00  0.00    -0.207 F 
ATOM     92  C   UNL A   1      27.629  31.249  23.011  1.00  0.00     0.042 A 
ENDBRANCH  84  85
ENDBRANCH  82  84
ENDBRANCH  75  78
ENDBRANCH  73  74
ENDBRANCH  72  73
ENDBRANCH   1  72
TORSDOF 16
ENDMDL
