MODEL 1
REMARK VINA RESULT:     -12.1      0.000      0.000
REMARK SMILES O=C(NCCCCNC(=O)[C@H]1CCc2[nH]nc(C(F)(F)F)c2C1)c1ccc(-c2c3nc(c(-c4cccc(S(=O)(=O)[O-])c4F)c4ccc([nH]4)c(-c4cccc(S(=O)(=O)[O-])c4F)c4nc(c(-c5cccc(S(=O)(=O)[O-])c5F)c5ccc2[nH]5)C=C4)C=C3)cc1
REMARK SMILES IDX 4 1 3 2 1 3 2 4 24 6 25 7 86 8 26 9 85 10 27 11 28 12 29 13
REMARK SMILES IDX 79 14 30 15 84 16 78 17 80 18 31 19 83 20 77 21 76 22 32 24
REMARK SMILES IDX 64 25 44 26 63 27 45 28 48 29 62 30 81 31 46 32 47 33 61 35
REMARK SMILES IDX 82 36 49 37 33 38 34 39 42 40 35 41 37 42 43 43 36 44 38 45
REMARK SMILES IDX 39 46 40 47 41 48 65 49 66 50 74 51 67 52 69 53 75 54 68 55
REMARK SMILES IDX 70 56 71 57 72 58 73 59 50 60 51 61 59 62 52 63 54 64 60 65
REMARK SMILES IDX 53 66 55 67 56 68 57 69 58 70 5 71 6 72 7 73 8 74 9 75 10 77
REMARK SMILES IDX 11 78 12 79 23 80 13 81 22 82 14 83 17 84 15 85 16 86 18 88
REMARK SMILES IDX 19 89 20 90 21 91
REMARK H PARENT 3 5 80 23 48 34 8 76 15 87
REMARK Flexibility Score: inf
ROOT
ATOM      1  C   UNL A   1      32.796  29.584  25.738  1.00  0.00     0.116 C 
ENDROOT
BRANCH   1   2
ATOM      2  N   UNL A   1      32.477  30.923  26.215  1.00  0.00    -0.352 N 
ATOM      3  O   UNL A   1      32.598  32.759  27.508  1.00  0.00    -0.269 OA
ATOM      4  C   UNL A   1      33.134  31.722  27.123  1.00  0.00     0.251 C 
ATOM      5  H   UNL A   1      31.664  31.318  25.827  1.00  0.00     0.163 HD
BRANCH   4   6
ATOM      6  C   UNL A   1      34.454  31.323  27.662  1.00  0.00     0.039 A 
ATOM      7  C   UNL A   1      34.733  29.988  27.959  1.00  0.00     0.014 A 
ATOM      8  C   UNL A   1      35.431  32.299  27.876  1.00  0.00     0.014 A 
ATOM      9  C   UNL A   1      35.899  29.662  28.646  1.00  0.00     0.010 A 
ATOM     10  C   UNL A   1      36.646  31.952  28.480  1.00  0.00     0.010 A 
ATOM     11  C   UNL A   1      36.867  30.641  28.925  1.00  0.00    -0.014 A 
BRANCH  11  12
ATOM     12  C   UNL A   1      38.099  30.255  29.667  1.00  0.00     0.031 A 
ATOM     13  C   UNL A   1      38.329  30.700  31.089  1.00  0.00     0.074 A 
ATOM     14  C   UNL A   1      39.005  29.459  29.063  1.00  0.00     0.049 A 
ATOM     15  N   UNL A   1      39.303  30.380  31.903  1.00  0.00    -0.248 NA
ATOM     16  C   UNL A   1      37.350  31.630  31.673  1.00  0.00     0.031 C 
ATOM     17  C   UNL A   1      38.925  29.000  27.674  1.00  0.00     0.029 A 
ATOM     18  N   UNL A   1      40.156  28.883  29.537  1.00  0.00    -0.354 N 
ATOM     19  C   UNL A   1      39.084  31.101  33.071  1.00  0.00     0.074 A 
ATOM     20  C   UNL A   1      37.885  31.883  32.862  1.00  0.00     0.031 C 
ATOM     21  C   UNL A   1      39.953  28.178  27.423  1.00  0.00     0.029 A 
ATOM     22  C   UNL A   1      40.789  28.081  28.616  1.00  0.00     0.049 A 
ATOM     23  H   UNL A   1      40.496  29.028  30.449  1.00  0.00     0.167 HD
ATOM     24  C   UNL A   1      39.801  31.099  34.221  1.00  0.00     0.034 A 
ATOM     25  C   UNL A   1      41.913  27.344  28.716  1.00  0.00     0.034 A 
ATOM     26  C   UNL A   1      40.957  30.274  34.454  1.00  0.00     0.049 A 
ATOM     27  C   UNL A   1      42.649  27.309  30.025  1.00  0.00     0.074 A 
ATOM     28  C   UNL A   1      41.704  30.145  35.612  1.00  0.00     0.029 A 
ATOM     29  N   UNL A   1      41.533  29.434  33.514  1.00  0.00    -0.354 N 
ATOM     30  N   UNL A   1      42.343  27.892  31.159  1.00  0.00    -0.248 NA
ATOM     31  C   UNL A   1      43.867  26.491  30.078  1.00  0.00     0.031 C 
ATOM     32  C   UNL A   1      42.738  29.234  35.370  1.00  0.00     0.029 A 
ATOM     33  C   UNL A   1      42.628  28.788  34.064  1.00  0.00     0.049 A 
ATOM     34  H   UNL A   1      41.212  29.315  32.591  1.00  0.00     0.167 HD
ATOM     35  C   UNL A   1      43.315  27.491  32.067  1.00  0.00     0.074 A 
ATOM     36  C   UNL A   1      44.204  26.593  31.357  1.00  0.00     0.031 C 
ATOM     37  C   UNL A   1      43.471  27.852  33.365  1.00  0.00     0.034 A 
BRANCH  24  38
ATOM     38  C   UNL A   1      39.329  31.980  35.348  1.00  0.00     0.023 A 
ATOM     39  C   UNL A   1      38.433  31.464  36.305  1.00  0.00     0.012 A 
ATOM     40  C   UNL A   1      39.826  33.290  35.502  1.00  0.00     0.148 A 
ATOM     41  C   UNL A   1      38.019  32.244  37.385  1.00  0.00     0.002 A 
ATOM     42  C   UNL A   1      39.437  34.050  36.601  1.00  0.00     0.091 A 
ATOM     43  F   UNL A   1      40.658  33.774  34.569  1.00  0.00    -0.205 F 
ATOM     44  C   UNL A   1      38.528  33.532  37.539  1.00  0.00     0.022 A 
BRANCH  42  45
ATOM     45  S   UNL A   1      40.099  35.690  36.919  1.00  0.00     0.127 S 
ATOM     46  O   UNL A   1      39.445  36.033  38.180  1.00  0.00    -0.237 OA
ATOM     47  O   UNL A   1      41.536  35.432  37.030  1.00  0.00    -0.237 OA
ATOM     48  O   UNL A   1      39.720  36.498  35.769  1.00  0.00    -0.744 OA
ENDBRANCH  42  45
ENDBRANCH  24  38
BRANCH  25  49
ATOM     49  C   UNL A   1      42.357  26.518  27.559  1.00  0.00     0.023 A 
ATOM     50  C   UNL A   1      43.250  27.070  26.620  1.00  0.00     0.012 A 
ATOM     51  C   UNL A   1      41.951  25.177  27.415  1.00  0.00     0.148 A 
ATOM     52  C   UNL A   1      43.714  26.308  25.548  1.00  0.00     0.002 A 
ATOM     53  C   UNL A   1      42.464  24.407  26.379  1.00  0.00     0.091 A 
ATOM     54  F   UNL A   1      41.084  24.675  28.306  1.00  0.00    -0.205 F 
ATOM     55  C   UNL A   1      43.332  24.973  25.434  1.00  0.00     0.022 A 
BRANCH  53  56
ATOM     56  S   UNL A   1      42.139  22.644  26.258  1.00  0.00     0.127 S 
ATOM     57  O   UNL A   1      42.796  22.133  27.457  1.00  0.00    -0.237 OA
ATOM     58  O   UNL A   1      40.676  22.597  26.289  1.00  0.00    -0.237 OA
ATOM     59  O   UNL A   1      42.718  22.234  24.985  1.00  0.00    -0.744 OA
ENDBRANCH  53  56
ENDBRANCH  25  49
BRANCH  37  60
ATOM     60  C   UNL A   1      44.634  27.260  34.113  1.00  0.00     0.023 A 
ATOM     61  C   UNL A   1      45.871  27.934  34.121  1.00  0.00     0.012 A 
ATOM     62  C   UNL A   1      44.488  26.072  34.856  1.00  0.00     0.148 A 
ATOM     63  C   UNL A   1      46.954  27.420  34.831  1.00  0.00     0.002 A 
ATOM     64  C   UNL A   1      45.561  25.587  35.596  1.00  0.00     0.091 A 
ATOM     65  F   UNL A   1      43.311  25.430  34.818  1.00  0.00    -0.205 F 
ATOM     66  C   UNL A   1      46.796  26.253  35.577  1.00  0.00     0.022 A 
BRANCH  64  67
ATOM     67  S   UNL A   1      45.407  24.140  36.650  1.00  0.00     0.127 S 
ATOM     68  O   UNL A   1      46.791  23.925  37.068  1.00  0.00    -0.237 OA
ATOM     69  O   UNL A   1      44.517  24.615  37.712  1.00  0.00    -0.237 OA
ATOM     70  O   UNL A   1      44.830  23.102  35.807  1.00  0.00    -0.744 OA
ENDBRANCH  64  67
ENDBRANCH  37  60
ENDBRANCH  11  12
ENDBRANCH   4   6
ENDBRANCH   1   2
BRANCH   1  71
ATOM     71  C   UNL A   1      31.581  28.664  25.707  1.00  0.00     0.023 C 
BRANCH  71  72
ATOM     72  C   UNL A   1      31.064  28.299  24.314  1.00  0.00     0.023 C 
BRANCH  72  73
ATOM     73  C   UNL A   1      30.866  26.808  24.041  1.00  0.00     0.116 C 
BRANCH  73  74
ATOM     74  N   UNL A   1      31.919  26.231  23.233  1.00  0.00    -0.356 N 
ATOM     75  C   UNL A   1      33.098  25.659  23.588  1.00  0.00     0.223 C 
ATOM     76  H   UNL A   1      31.752  26.259  22.264  1.00  0.00     0.163 HD
ATOM     77  O   UNL A   1      33.800  25.246  22.662  1.00  0.00    -0.275 OA
BRANCH  75  78
ATOM     78  C   UNL A   1      33.570  25.615  25.048  1.00  0.00     0.083 C 
ATOM     79  C   UNL A   1      32.575  24.987  26.060  1.00  0.00     0.020 C 
ATOM     80  C   UNL A   1      34.917  24.828  25.116  1.00  0.00     0.053 C 
ATOM     81  C   UNL A   1      32.206  23.530  25.723  1.00  0.00     0.057 C 
ATOM     82  C   UNL A   1      34.659  23.357  25.025  1.00  0.00     0.006 A 
ATOM     83  C   UNL A   1      33.432  22.806  25.317  1.00  0.00     0.039 A 
ATOM     84  C   UNL A   1      35.468  22.261  24.612  1.00  0.00     0.169 A 
ATOM     85  N   UNL A   1      33.532  21.475  25.069  1.00  0.00    -0.282 N 
ATOM     86  N   UNL A   1      34.765  21.107  24.684  1.00  0.00    -0.171 NA
ATOM     87  H   UNL A   1      32.781  20.846  25.163  1.00  0.00     0.190 HD
BRANCH  84  88
ATOM     88  C   UNL A   1      36.900  22.299  24.144  1.00  0.00     0.435 C 
ATOM     89  F   UNL A   1      37.435  21.054  24.007  1.00  0.00    -0.164 F 
ATOM     90  F   UNL A   1      37.045  22.922  22.943  1.00  0.00    -0.164 F 
ATOM     91  F   UNL A   1      37.716  22.957  25.019  1.00  0.00    -0.164 F 
ENDBRANCH  84  88
ENDBRANCH  75  78
ENDBRANCH  73  74
ENDBRANCH  72  73
ENDBRANCH  71  72
ENDBRANCH   1  71
TORSDOF 15
ENDMDL
MODEL 2
REMARK VINA RESULT:     -12.0      1.773      2.233
REMARK SMILES O=C(NCCCCNC(=O)[C@H]1CCc2[nH]nc(C(F)(F)F)c2C1)c1ccc(-c2c3nc(c(-c4cccc(S(=O)(=O)[O-])c4F)c4ccc([nH]4)c(-c4cccc(S(=O)(=O)[O-])c4F)c4nc(c(-c5cccc(S(=O)(=O)[O-])c5F)c5ccc2[nH]5)C=C4)C=C3)cc1
REMARK SMILES IDX 4 1 3 2 1 3 2 4 24 6 25 7 86 8 26 9 85 10 27 11 28 12 29 13
REMARK SMILES IDX 79 14 30 15 84 16 78 17 80 18 31 19 83 20 77 21 76 22 32 24
REMARK SMILES IDX 64 25 44 26 63 27 45 28 48 29 62 30 81 31 46 32 47 33 61 35
REMARK SMILES IDX 82 36 49 37 33 38 34 39 42 40 35 41 37 42 43 43 36 44 38 45
REMARK SMILES IDX 39 46 40 47 41 48 65 49 66 50 74 51 67 52 69 53 75 54 68 55
REMARK SMILES IDX 70 56 71 57 72 58 73 59 50 60 51 61 59 62 52 63 54 64 60 65
REMARK SMILES IDX 53 66 55 67 56 68 57 69 58 70 5 71 6 72 7 73 8 74 9 75 10 77
REMARK SMILES IDX 11 78 12 79 23 80 13 81 22 82 14 83 17 84 15 85 16 86 18 88
REMARK SMILES IDX 19 89 20 90 21 91
REMARK H PARENT 3 5 80 23 48 34 8 76 15 87
REMARK Flexibility Score: inf
ROOT
ATOM      1  C   UNL A   1      32.817  29.684  26.002  1.00  0.00     0.116 C 
ENDROOT
BRANCH   1   2
ATOM      2  N   UNL A   1      32.594  31.054  26.439  1.00  0.00    -0.352 N 
ATOM      3  O   UNL A   1      32.870  32.926  27.655  1.00  0.00    -0.269 OA
ATOM      4  C   UNL A   1      33.331  31.847  27.289  1.00  0.00     0.251 C 
ATOM      5  H   UNL A   1      31.789  31.481  26.068  1.00  0.00     0.163 HD
BRANCH   4   6
ATOM      6  C   UNL A   1      34.649  31.392  27.791  1.00  0.00     0.039 A 
ATOM      7  C   UNL A   1      34.843  30.072  28.201  1.00  0.00     0.014 A 
ATOM      8  C   UNL A   1      35.709  32.301  27.855  1.00  0.00     0.014 A 
ATOM      9  C   UNL A   1      36.021  29.717  28.851  1.00  0.00     0.010 A 
ATOM     10  C   UNL A   1      36.929  31.912  28.422  1.00  0.00     0.010 A 
ATOM     11  C   UNL A   1      37.077  30.634  28.980  1.00  0.00    -0.014 A 
BRANCH  11  12
ATOM     12  C   UNL A   1      38.319  30.218  29.686  1.00  0.00     0.031 A 
ATOM     13  C   UNL A   1      38.603  30.662  31.099  1.00  0.00     0.074 A 
ATOM     14  C   UNL A   1      39.186  29.396  29.059  1.00  0.00     0.049 A 
ATOM     15  N   UNL A   1      39.592  30.319  31.886  1.00  0.00    -0.248 NA
ATOM     16  C   UNL A   1      37.666  31.619  31.708  1.00  0.00     0.031 C 
ATOM     17  C   UNL A   1      39.053  28.936  27.675  1.00  0.00     0.029 A 
ATOM     18  N   UNL A   1      40.335  28.793  29.501  1.00  0.00    -0.354 N 
ATOM     19  C   UNL A   1      39.426  31.050  33.056  1.00  0.00     0.074 A 
ATOM     20  C   UNL A   1      38.243  31.862  32.879  1.00  0.00     0.031 C 
ATOM     21  C   UNL A   1      40.052  28.086  27.397  1.00  0.00     0.029 A 
ATOM     22  C   UNL A   1      40.920  27.971  28.565  1.00  0.00     0.049 A 
ATOM     23  H   UNL A   1      40.705  28.932  30.402  1.00  0.00     0.167 HD
ATOM     24  C   UNL A   1      40.177  31.032  34.185  1.00  0.00     0.034 A 
ATOM     25  C   UNL A   1      42.026  27.206  28.635  1.00  0.00     0.034 A 
ATOM     26  C   UNL A   1      41.317  30.178  34.386  1.00  0.00     0.049 A 
ATOM     27  C   UNL A   1      42.800  27.155  29.922  1.00  0.00     0.074 A 
ATOM     28  C   UNL A   1      42.094  30.034  35.523  1.00  0.00     0.029 A 
ATOM     29  N   UNL A   1      41.844  29.320  33.433  1.00  0.00    -0.354 N 
ATOM     30  N   UNL A   1      42.542  27.750  31.062  1.00  0.00    -0.248 NA
ATOM     31  C   UNL A   1      43.998  26.305  29.942  1.00  0.00     0.031 C 
ATOM     32  C   UNL A   1      43.097  29.095  35.254  1.00  0.00     0.029 A 
ATOM     33  C   UNL A   1      42.937  28.647  33.953  1.00  0.00     0.049 A 
ATOM     34  H   UNL A   1      41.492  29.207  32.521  1.00  0.00     0.167 HD
ATOM     35  C   UNL A   1      43.530  27.327  31.942  1.00  0.00     0.074 A 
ATOM     36  C   UNL A   1      44.374  26.403  31.211  1.00  0.00     0.031 C 
ATOM     37  C   UNL A   1      43.734  27.687  33.233  1.00  0.00     0.034 A 
BRANCH  24  38
ATOM     38  C   UNL A   1      39.762  31.929  35.321  1.00  0.00     0.023 A 
ATOM     39  C   UNL A   1      40.172  33.277  35.328  1.00  0.00     0.012 A 
ATOM     40  C   UNL A   1      38.908  31.462  36.340  1.00  0.00     0.148 A 
ATOM     41  C   UNL A   1      39.761  34.141  36.343  1.00  0.00     0.002 A 
ATOM     42  C   UNL A   1      38.472  32.338  37.330  1.00  0.00     0.091 A 
ATOM     43  F   UNL A   1      38.547  30.171  36.333  1.00  0.00    -0.205 F 
ATOM     44  C   UNL A   1      38.904  33.675  37.337  1.00  0.00     0.022 A 
BRANCH  42  45
ATOM     45  S   UNL A   1      37.309  31.844  38.608  1.00  0.00     0.127 S 
ATOM     46  O   UNL A   1      38.100  32.044  39.820  1.00  0.00    -0.237 OA
ATOM     47  O   UNL A   1      36.218  32.805  38.427  1.00  0.00    -0.237 OA
ATOM     48  O   UNL A   1      36.952  30.465  38.305  1.00  0.00    -0.744 OA
ENDBRANCH  42  45
ENDBRANCH  24  38
BRANCH  25  49
ATOM     49  C   UNL A   1      42.414  26.364  27.469  1.00  0.00     0.023 A 
ATOM     50  C   UNL A   1      43.259  26.904  26.479  1.00  0.00     0.012 A 
ATOM     51  C   UNL A   1      42.004  25.021  27.363  1.00  0.00     0.148 A 
ATOM     52  C   UNL A   1      43.671  26.128  25.396  1.00  0.00     0.002 A 
ATOM     53  C   UNL A   1      42.466  24.237  26.313  1.00  0.00     0.091 A 
ATOM     54  F   UNL A   1      41.183  24.530  28.303  1.00  0.00    -0.205 F 
ATOM     55  C   UNL A   1      43.286  24.792  25.320  1.00  0.00     0.022 A 
BRANCH  53  56
ATOM     56  S   UNL A   1      42.139  22.473  26.232  1.00  0.00     0.127 S 
ATOM     57  O   UNL A   1      42.777  22.106  24.971  1.00  0.00    -0.237 OA
ATOM     58  O   UNL A   1      42.815  21.977  27.432  1.00  0.00    -0.237 OA
ATOM     59  O   UNL A   1      40.688  22.350  26.275  1.00  0.00    -0.744 OA
ENDBRANCH  53  56
ENDBRANCH  25  49
BRANCH  37  60
ATOM     60  C   UNL A   1      44.903  27.068  33.950  1.00  0.00     0.023 A 
ATOM     61  C   UNL A   1      46.171  27.673  33.863  1.00  0.00     0.012 A 
ATOM     62  C   UNL A   1      44.736  25.925  34.755  1.00  0.00     0.148 A 
ATOM     63  C   UNL A   1      47.263  27.134  34.541  1.00  0.00     0.002 A 
ATOM     64  C   UNL A   1      45.820  25.416  35.462  1.00  0.00     0.091 A 
ATOM     65  F   UNL A   1      43.527  25.346  34.806  1.00  0.00    -0.205 F 
ATOM     66  C   UNL A   1      47.085  26.012  35.349  1.00  0.00     0.022 A 
BRANCH  64  67
ATOM     67  S   UNL A   1      45.647  24.028  36.590  1.00  0.00     0.127 S 
ATOM     68  O   UNL A   1      45.211  22.962  35.691  1.00  0.00    -0.237 OA
ATOM     69  O   UNL A   1      47.008  23.870  37.108  1.00  0.00    -0.237 OA
ATOM     70  O   UNL A   1      44.675  24.455  37.588  1.00  0.00    -0.744 OA
ENDBRANCH  64  67
ENDBRANCH  37  60
ENDBRANCH  11  12
ENDBRANCH   4   6
ENDBRANCH   1   2
BRANCH   1  71
ATOM     71  C   UNL A   1      31.565  28.820  26.102  1.00  0.00     0.023 C 
BRANCH  71  72
ATOM     72  C   UNL A   1      31.743  27.476  26.811  1.00  0.00     0.023 C 
BRANCH  72  73
ATOM     73  C   UNL A   1      30.990  26.293  26.205  1.00  0.00     0.116 C 
BRANCH  73  74
ATOM     74  N   UNL A   1      31.408  25.015  26.739  1.00  0.00    -0.356 N 
ATOM     75  C   UNL A   1      32.106  24.000  26.168  1.00  0.00     0.223 C 
ATOM     76  H   UNL A   1      31.141  24.854  27.672  1.00  0.00     0.163 HD
ATOM     77  O   UNL A   1      32.320  23.020  26.884  1.00  0.00    -0.275 OA
BRANCH  75  78
ATOM     78  C   UNL A   1      32.522  24.034  24.690  1.00  0.00     0.083 C 
ATOM     79  C   UNL A   1      33.779  24.882  24.363  1.00  0.00     0.020 C 
ATOM     80  C   UNL A   1      32.765  22.569  24.205  1.00  0.00     0.053 C 
ATOM     81  C   UNL A   1      35.039  24.414  25.114  1.00  0.00     0.057 C 
ATOM     82  C   UNL A   1      34.091  22.078  24.695  1.00  0.00     0.006 A 
ATOM     83  C   UNL A   1      35.095  22.935  25.085  1.00  0.00     0.039 A 
ATOM     84  C   UNL A   1      34.608  20.773  24.928  1.00  0.00     0.169 A 
ATOM     85  N   UNL A   1      36.119  22.162  25.528  1.00  0.00    -0.282 N 
ATOM     86  N   UNL A   1      35.872  20.847  25.405  1.00  0.00    -0.171 NA
ATOM     87  H   UNL A   1      36.954  22.526  25.900  1.00  0.00     0.190 HD
BRANCH  84  88
ATOM     88  C   UNL A   1      33.911  19.454  24.709  1.00  0.00     0.435 C 
ATOM     89  F   UNL A   1      33.026  19.499  23.674  1.00  0.00    -0.164 F 
ATOM     90  F   UNL A   1      34.777  18.440  24.440  1.00  0.00    -0.164 F 
ATOM     91  F   UNL A   1      33.187  19.062  25.797  1.00  0.00    -0.164 F 
ENDBRANCH  84  88
ENDBRANCH  75  78
ENDBRANCH  73  74
ENDBRANCH  72  73
ENDBRANCH  71  72
ENDBRANCH   1  71
TORSDOF 15
ENDMDL
MODEL 3
REMARK VINA RESULT:     -12.0      1.567      2.223
REMARK SMILES O=C(NCCCCNC(=O)[C@H]1CCc2[nH]nc(C(F)(F)F)c2C1)c1ccc(-c2c3nc(c(-c4cccc(S(=O)(=O)[O-])c4F)c4ccc([nH]4)c(-c4cccc(S(=O)(=O)[O-])c4F)c4nc(c(-c5cccc(S(=O)(=O)[O-])c5F)c5ccc2[nH]5)C=C4)C=C3)cc1
REMARK SMILES IDX 4 1 3 2 1 3 2 4 24 6 25 7 86 8 26 9 85 10 27 11 28 12 29 13
REMARK SMILES IDX 79 14 30 15 84 16 78 17 80 18 31 19 83 20 77 21 76 22 32 24
REMARK SMILES IDX 64 25 44 26 63 27 45 28 48 29 62 30 81 31 46 32 47 33 61 35
REMARK SMILES IDX 82 36 49 37 33 38 34 39 42 40 35 41 37 42 43 43 36 44 38 45
REMARK SMILES IDX 39 46 40 47 41 48 65 49 66 50 74 51 67 52 69 53 75 54 68 55
REMARK SMILES IDX 70 56 71 57 72 58 73 59 50 60 51 61 59 62 52 63 54 64 60 65
REMARK SMILES IDX 53 66 55 67 56 68 57 69 58 70 5 71 6 72 7 73 8 74 9 75 10 77
REMARK SMILES IDX 11 78 12 79 23 80 13 81 22 82 14 83 17 84 15 85 16 86 18 88
REMARK SMILES IDX 19 89 20 90 21 91
REMARK H PARENT 3 5 80 23 48 34 8 76 15 87
REMARK Flexibility Score: inf
ROOT
ATOM      1  C   UNL A   1      32.658  29.883  25.762  1.00  0.00     0.116 C 
ENDROOT
BRANCH   1   2
ATOM      2  N   UNL A   1      32.371  31.220  26.263  1.00  0.00    -0.352 N 
ATOM      3  O   UNL A   1      32.539  33.031  27.586  1.00  0.00    -0.269 OA
ATOM      4  C   UNL A   1      33.050  31.989  27.180  1.00  0.00     0.251 C 
ATOM      5  H   UNL A   1      31.565  31.639  25.886  1.00  0.00     0.163 HD
BRANCH   4   6
ATOM      6  C   UNL A   1      34.364  31.551  27.706  1.00  0.00     0.039 A 
ATOM      7  C   UNL A   1      34.591  30.218  28.050  1.00  0.00     0.014 A 
ATOM      8  C   UNL A   1      35.388  32.491  27.858  1.00  0.00     0.014 A 
ATOM      9  C   UNL A   1      35.757  29.867  28.723  1.00  0.00     0.010 A 
ATOM     10  C   UNL A   1      36.600  32.112  28.448  1.00  0.00     0.010 A 
ATOM     11  C   UNL A   1      36.774  30.811  28.941  1.00  0.00    -0.014 A 
BRANCH  11  12
ATOM     12  C   UNL A   1      38.005  30.399  29.670  1.00  0.00     0.031 A 
ATOM     13  C   UNL A   1      38.250  30.823  31.096  1.00  0.00     0.074 A 
ATOM     14  C   UNL A   1      38.896  29.598  29.050  1.00  0.00     0.049 A 
ATOM     15  N   UNL A   1      39.225  30.480  31.900  1.00  0.00    -0.248 NA
ATOM     16  C   UNL A   1      37.287  31.759  31.698  1.00  0.00     0.031 C 
ATOM     17  C   UNL A   1      38.802  29.159  27.656  1.00  0.00     0.029 A 
ATOM     18  N   UNL A   1      40.043  29.001  29.509  1.00  0.00    -0.354 N 
ATOM     19  C   UNL A   1      39.023  31.189  33.078  1.00  0.00     0.074 A 
ATOM     20  C   UNL A   1      37.833  31.989  32.886  1.00  0.00     0.031 C 
ATOM     21  C   UNL A   1      39.817  28.326  27.388  1.00  0.00     0.029 A 
ATOM     22  C   UNL A   1      40.659  28.203  28.574  1.00  0.00     0.049 A 
ATOM     23  H   UNL A   1      40.390  29.131  30.421  1.00  0.00     0.167 HD
ATOM     24  C   UNL A   1      39.747  31.162  34.223  1.00  0.00     0.034 A 
ATOM     25  C   UNL A   1      41.773  27.449  28.658  1.00  0.00     0.034 A 
ATOM     26  C   UNL A   1      40.893  30.319  34.438  1.00  0.00     0.049 A 
ATOM     27  C   UNL A   1      42.517  27.387  29.961  1.00  0.00     0.074 A 
ATOM     28  C   UNL A   1      41.645  30.165  35.590  1.00  0.00     0.029 A 
ATOM     29  N   UNL A   1      41.452  29.483  33.484  1.00  0.00    -0.354 N 
ATOM     30  N   UNL A   1      42.226  27.960  31.104  1.00  0.00    -0.248 NA
ATOM     31  C   UNL A   1      43.724  26.552  29.996  1.00  0.00     0.031 C 
ATOM     32  C   UNL A   1      42.666  29.243  35.330  1.00  0.00     0.029 A 
ATOM     33  C   UNL A   1      42.541  28.815  34.018  1.00  0.00     0.049 A 
ATOM     34  H   UNL A   1      41.124  29.380  32.562  1.00  0.00     0.167 HD
ATOM     35  C   UNL A   1      43.198  27.535  32.001  1.00  0.00     0.074 A 
ATOM     36  C   UNL A   1      44.070  26.634  31.275  1.00  0.00     0.031 C 
ATOM     37  C   UNL A   1      43.367  27.877  33.302  1.00  0.00     0.034 A 
BRANCH  24  38
ATOM     38  C   UNL A   1      39.294  32.035  35.364  1.00  0.00     0.023 A 
ATOM     39  C   UNL A   1      38.416  31.511  36.334  1.00  0.00     0.012 A 
ATOM     40  C   UNL A   1      39.791  33.344  35.518  1.00  0.00     0.148 A 
ATOM     41  C   UNL A   1      38.020  32.284  37.426  1.00  0.00     0.002 A 
ATOM     42  C   UNL A   1      39.422  34.097  36.628  1.00  0.00     0.091 A 
ATOM     43  F   UNL A   1      40.606  33.836  34.573  1.00  0.00    -0.205 F 
ATOM     44  C   UNL A   1      38.531  33.571  37.579  1.00  0.00     0.022 A 
BRANCH  42  45
ATOM     45  S   UNL A   1      40.087  35.736  36.945  1.00  0.00     0.127 S 
ATOM     46  O   UNL A   1      39.614  36.477  35.778  1.00  0.00    -0.237 OA
ATOM     47  O   UNL A   1      39.434  36.102  38.203  1.00  0.00    -0.237 OA
ATOM     48  O   UNL A   1      41.529  35.564  37.044  1.00  0.00    -0.744 OA
ENDBRANCH  42  45
ENDBRANCH  24  38
BRANCH  25  49
ATOM     49  C   UNL A   1      42.199  26.632  27.488  1.00  0.00     0.023 A 
ATOM     50  C   UNL A   1      43.002  27.220  26.491  1.00  0.00     0.012 A 
ATOM     51  C   UNL A   1      41.865  25.268  27.384  1.00  0.00     0.148 A 
ATOM     52  C   UNL A   1      43.449  26.469  25.404  1.00  0.00     0.002 A 
ATOM     53  C   UNL A   1      42.363  24.512  26.330  1.00  0.00     0.091 A 
ATOM     54  F   UNL A   1      41.082  24.730  28.330  1.00  0.00    -0.205 F 
ATOM     55  C   UNL A   1      43.141  25.113  25.330  1.00  0.00     0.022 A 
BRANCH  53  56
ATOM     56  S   UNL A   1      42.136  22.731  26.250  1.00  0.00     0.127 S 
ATOM     57  O   UNL A   1      40.682  22.611  26.281  1.00  0.00    -0.237 OA
ATOM     58  O   UNL A   1      42.755  22.399  24.966  1.00  0.00    -0.237 OA
ATOM     59  O   UNL A   1      42.848  22.202  27.406  1.00  0.00    -0.744 OA
ENDBRANCH  53  56
ENDBRANCH  25  49
BRANCH  37  60
ATOM     60  C   UNL A   1      44.527  27.260  34.036  1.00  0.00     0.023 A 
ATOM     61  C   UNL A   1      45.777  27.907  34.027  1.00  0.00     0.012 A 
ATOM     62  C   UNL A   1      44.365  26.075  34.780  1.00  0.00     0.148 A 
ATOM     63  C   UNL A   1      46.859  27.369  34.724  1.00  0.00     0.002 A 
ATOM     64  C   UNL A   1      45.437  25.567  35.506  1.00  0.00     0.091 A 
ATOM     65  F   UNL A   1      43.174  25.459  34.757  1.00  0.00    -0.205 F 
ATOM     66  C   UNL A   1      46.685  26.206  35.471  1.00  0.00     0.022 A 
BRANCH  64  67
ATOM     67  S   UNL A   1      45.265  24.123  36.562  1.00  0.00     0.127 S 
ATOM     68  O   UNL A   1      46.653  23.857  36.933  1.00  0.00    -0.237 OA
ATOM     69  O   UNL A   1      44.428  24.626  37.653  1.00  0.00    -0.237 OA
ATOM     70  O   UNL A   1      44.623  23.109  35.736  1.00  0.00    -0.744 OA
ENDBRANCH  64  67
ENDBRANCH  37  60
ENDBRANCH  11  12
ENDBRANCH   4   6
ENDBRANCH   1   2
BRANCH   1  71
ATOM     71  C   UNL A   1      31.772  28.814  26.392  1.00  0.00     0.023 C 
BRANCH  71  72
ATOM     72  C   UNL A   1      31.697  27.487  25.634  1.00  0.00     0.023 C 
BRANCH  72  73
ATOM     73  C   UNL A   1      31.686  26.223  26.493  1.00  0.00     0.116 C 
BRANCH  73  74
ATOM     74  N   UNL A   1      31.057  25.095  25.842  1.00  0.00    -0.356 N 
ATOM     75  C   UNL A   1      31.595  23.994  25.256  1.00  0.00     0.223 C 
ATOM     76  H   UNL A   1      30.074  25.132  25.819  1.00  0.00     0.163 HD
ATOM     77  O   UNL A   1      30.793  23.187  24.780  1.00  0.00    -0.275 OA
BRANCH  75  78
ATOM     78  C   UNL A   1      33.113  23.813  25.113  1.00  0.00     0.083 C 
ATOM     79  C   UNL A   1      33.569  22.618  24.235  1.00  0.00     0.020 C 
ATOM     80  C   UNL A   1      33.720  25.127  24.525  1.00  0.00     0.053 C 
ATOM     81  C   UNL A   1      33.044  22.692  22.789  1.00  0.00     0.057 C 
ATOM     82  C   UNL A   1      33.464  25.199  23.053  1.00  0.00     0.006 A 
ATOM     83  C   UNL A   1      33.175  24.083  22.301  1.00  0.00     0.039 A 
ATOM     84  C   UNL A   1      33.393  26.288  22.140  1.00  0.00     0.169 A 
ATOM     85  N   UNL A   1      32.938  24.515  21.036  1.00  0.00    -0.282 N 
ATOM     86  N   UNL A   1      33.106  25.840  20.896  1.00  0.00    -0.171 NA
ATOM     87  H   UNL A   1      32.672  23.919  20.298  1.00  0.00     0.190 HD
BRANCH  84  88
ATOM     88  C   UNL A   1      33.590  27.753  22.438  1.00  0.00     0.435 C 
ATOM     89  F   UNL A   1      34.273  27.961  23.598  1.00  0.00    -0.164 F 
ATOM     90  F   UNL A   1      34.276  28.402  21.458  1.00  0.00    -0.164 F 
ATOM     91  F   UNL A   1      32.407  28.417  22.583  1.00  0.00    -0.164 F 
ENDBRANCH  84  88
ENDBRANCH  75  78
ENDBRANCH  73  74
ENDBRANCH  72  73
ENDBRANCH  71  72
ENDBRANCH   1  71
TORSDOF 15
ENDMDL
