MODEL 1
REMARK VINA RESULT:     -12.7      0.000      0.000
REMARK SMILES C[C@H](Oc1ccc(/C=C2/SC(=S)N(c3ccc(F)c(Cl)c3)C2=O)cc1)C(=O)NCCCCNC(=O)c1ccc(-c2c3nc(c(-c4cccc(S(=O)(=O)[O-])c4F)c4ccc([nH]4)c(-c4cccc(S(=O)(=O)[O-])c4F)c4nc(c(-c5cccc(S(=O)(=O)[O-])c5F)c5ccc2[nH]5)C=C4)C=C3)cc1
REMARK SMILES IDX 30 1 29 2 28 3 26 4 27 5 2 7 1 8 3 9 4 10 5 11 25 12 6 13
REMARK SMILES IDX 24 14 7 15 8 16 9 17 10 18 22 19 11 20 13 21 23 22 12 23
REMARK SMILES IDX 14 24 15 25 21 26 16 27 19 28 17 29 20 30 18 31 31 32 32 33
REMARK SMILES IDX 33 34 34 35 35 37 36 38 37 39 98 40 38 41 97 42 39 43 40 44
REMARK SMILES IDX 41 45 91 46 42 47 96 48 90 49 92 50 43 51 95 52 89 53 88 54
REMARK SMILES IDX 44 56 76 57 56 58 75 59 57 60 60 61 74 62 93 63 58 64 59 65
REMARK SMILES IDX 73 67 94 68 61 69 45 70 46 71 54 72 47 73 49 74 55 75 48 76
REMARK SMILES IDX 50 77 51 78 52 79 53 80 77 81 78 82 86 83 79 84 81 85 87 86
REMARK SMILES IDX 80 87 82 88 83 89 84 90 85 91 62 92 63 93 71 94 64 95 66 96
REMARK SMILES IDX 72 97 65 98 67 99 68 100 69 101 70 102
REMARK H PARENT 28 6 33 36 92 55 60 66
REMARK Flexibility Score: inf
ROOT
ATOM      1  C   UNL A   1      37.133  21.117  25.117  1.00  0.00     0.023 C 
ENDROOT
BRANCH   1   2
ATOM      2  C   UNL A   1      35.808  20.429  25.429  1.00  0.00     0.116 C 
BRANCH   2   3
ATOM      3  N   UNL A   1      35.650  19.160  24.736  1.00  0.00    -0.353 N 
ATOM      4  C   UNL A   1      34.496  18.487  24.424  1.00  0.00     0.260 C 
ATOM      5  O   UNL A   1      34.580  17.443  23.773  1.00  0.00    -0.271 OA
ATOM      6  H   UNL A   1      36.487  18.726  24.452  1.00  0.00     0.163 HD
BRANCH   4   7
ATOM      7  C   UNL A   1      33.129  19.054  24.845  1.00  0.00     0.258 C 
ATOM      8  C   UNL A   1      32.113  17.908  24.882  1.00  0.00     0.064 C 
BRANCH   7   9
ATOM      9  O   UNL A   1      32.919  20.147  23.949  1.00  0.00    -0.481 OA
BRANCH   9  10
ATOM     10  C   UNL A   1      33.030  21.449  24.312  1.00  0.00     0.120 A 
ATOM     11  C   UNL A   1      33.678  22.461  23.618  1.00  0.00     0.047 A 
ATOM     12  C   UNL A   1      32.429  21.737  25.539  1.00  0.00     0.047 A 
ATOM     13  C   UNL A   1      33.851  23.717  24.215  1.00  0.00     0.012 A 
ATOM     14  C   UNL A   1      32.566  22.996  26.119  1.00  0.00     0.012 A 
ATOM     15  C   UNL A   1      33.340  23.975  25.492  1.00  0.00    -0.024 A 
BRANCH  15  16
ATOM     16  C   UNL A   1      33.598  25.265  26.143  1.00  0.00     0.029 C 
ATOM     17  C   UNL A   1      32.928  26.408  25.925  1.00  0.00     0.081 C 
ATOM     18  S   UNL A   1      33.395  27.897  26.652  1.00  0.00    -0.054 SA
ATOM     19  C   UNL A   1      31.752  26.633  25.024  1.00  0.00     0.270 C 
ATOM     20  C   UNL A   1      32.250  28.841  25.697  1.00  0.00     0.152 C 
ATOM     21  N   UNL A   1      31.526  28.003  24.862  1.00  0.00    -0.261 N 
ATOM     22  O   UNL A   1      31.120  25.725  24.511  1.00  0.00    -0.268 OA
ATOM     23  S   UNL A   1      32.102  30.489  25.957  1.00  0.00    -0.051 S 
BRANCH  21  24
ATOM     24  C   UNL A   1      30.596  28.449  23.866  1.00  0.00     0.052 A 
ATOM     25  C   UNL A   1      31.024  29.208  22.763  1.00  0.00     0.030 A 
ATOM     26  C   UNL A   1      29.219  28.210  24.013  1.00  0.00     0.050 A 
ATOM     27  C   UNL A   1      30.109  29.698  21.824  1.00  0.00     0.043 A 
ATOM     28  C   UNL A   1      28.305  28.708  23.079  1.00  0.00     0.078 A 
ATOM     29  C   UNL A   1      28.753  29.445  21.988  1.00  0.00     0.141 A 
ATOM     30  Cl  UNL A   1      26.623  28.420  23.314  1.00  0.00    -0.081 Cl
ATOM     31  F   UNL A   1      27.889  29.930  21.087  1.00  0.00    -0.205 F 
ENDBRANCH  21  24
ENDBRANCH  15  16
ENDBRANCH   9  10
ENDBRANCH   7   9
ENDBRANCH   4   7
ENDBRANCH   2   3
ENDBRANCH   1   2
BRANCH   1  32
ATOM     32  C   UNL A   1      38.331  20.178  24.972  1.00  0.00     0.023 C 
BRANCH  32  33
ATOM     33  C   UNL A   1      39.442  20.362  26.003  1.00  0.00     0.116 C 
BRANCH  33  34
ATOM     34  N   UNL A   1      40.401  19.265  26.018  1.00  0.00    -0.352 N 
ATOM     35  C   UNL A   1      41.767  19.313  26.168  1.00  0.00     0.251 C 
ATOM     36  H   UNL A   1      40.018  18.366  25.906  1.00  0.00     0.163 HD
ATOM     37  O   UNL A   1      42.433  18.289  26.041  1.00  0.00    -0.269 OA
BRANCH  35  38
ATOM     38  C   UNL A   1      42.433  20.604  26.453  1.00  0.00     0.039 A 
ATOM     39  C   UNL A   1      42.916  21.366  25.384  1.00  0.00     0.014 A 
ATOM     40  C   UNL A   1      42.561  21.072  27.762  1.00  0.00     0.014 A 
ATOM     41  C   UNL A   1      43.458  22.632  25.626  1.00  0.00     0.010 A 
ATOM     42  C   UNL A   1      43.040  22.360  27.995  1.00  0.00     0.010 A 
ATOM     43  C   UNL A   1      43.490  23.156  26.929  1.00  0.00    -0.014 A 
BRANCH  43  44
ATOM     44  C   UNL A   1      43.964  24.538  27.199  1.00  0.00     0.031 A 
ATOM     45  C   UNL A   1      43.010  25.587  27.700  1.00  0.00     0.074 A 
ATOM     46  C   UNL A   1      45.234  24.876  26.894  1.00  0.00     0.049 A 
ATOM     47  N   UNL A   1      43.224  26.859  27.921  1.00  0.00    -0.248 NA
ATOM     48  C   UNL A   1      41.626  25.159  27.960  1.00  0.00     0.031 C 
ATOM     49  C   UNL A   1      46.236  23.975  26.319  1.00  0.00     0.029 A 
ATOM     50  N   UNL A   1      45.890  26.078  26.995  1.00  0.00    -0.354 N 
ATOM     51  C   UNL A   1      41.999  27.389  28.310  1.00  0.00     0.074 A 
ATOM     52  C   UNL A   1      41.040  26.307  28.264  1.00  0.00     0.031 C 
ATOM     53  C   UNL A   1      47.375  24.656  26.115  1.00  0.00     0.029 A 
ATOM     54  C   UNL A   1      47.181  26.045  26.522  1.00  0.00     0.049 A 
ATOM     55  H   UNL A   1      45.475  26.889  27.371  1.00  0.00     0.167 HD
ATOM     56  C   UNL A   1      41.706  28.652  28.702  1.00  0.00     0.034 A 
ATOM     57  C   UNL A   1      48.105  27.021  26.421  1.00  0.00     0.034 A 
ATOM     58  C   UNL A   1      42.672  29.713  28.797  1.00  0.00     0.049 A 
ATOM     59  C   UNL A   1      47.770  28.402  26.918  1.00  0.00     0.074 A 
ATOM     60  C   UNL A   1      42.491  31.001  29.270  1.00  0.00     0.029 A 
ATOM     61  N   UNL A   1      44.000  29.612  28.411  1.00  0.00    -0.354 N 
ATOM     62  N   UNL A   1      46.652  28.840  27.441  1.00  0.00    -0.248 NA
ATOM     63  C   UNL A   1      48.838  29.411  26.849  1.00  0.00     0.031 C 
ATOM     64  C   UNL A   1      43.709  31.682  29.162  1.00  0.00     0.029 A 
ATOM     65  C   UNL A   1      44.650  30.814  28.633  1.00  0.00     0.049 A 
ATOM     66  H   UNL A   1      44.418  28.804  28.035  1.00  0.00     0.167 HD
ATOM     67  C   UNL A   1      46.888  30.165  27.792  1.00  0.00     0.074 A 
ATOM     68  C   UNL A   1      48.265  30.450  27.443  1.00  0.00     0.031 C 
ATOM     69  C   UNL A   1      46.036  31.069  28.337  1.00  0.00     0.034 A 
BRANCH  56  70
ATOM     70  C   UNL A   1      40.290  28.936  29.128  1.00  0.00     0.023 A 
ATOM     71  C   UNL A   1      39.323  29.233  28.146  1.00  0.00     0.012 A 
ATOM     72  C   UNL A   1      39.901  28.859  30.480  1.00  0.00     0.148 A 
ATOM     73  C   UNL A   1      37.999  29.484  28.505  1.00  0.00     0.002 A 
ATOM     74  C   UNL A   1      38.571  29.069  30.825  1.00  0.00     0.091 A 
ATOM     75  F   UNL A   1      40.838  28.598  31.403  1.00  0.00    -0.205 F 
ATOM     76  C   UNL A   1      37.621  29.392  29.841  1.00  0.00     0.022 A 
BRANCH  74  77
ATOM     77  S   UNL A   1      37.972  28.900  32.511  1.00  0.00     0.127 S 
ATOM     78  O   UNL A   1      38.879  29.789  33.236  1.00  0.00    -0.237 OA
ATOM     79  O   UNL A   1      36.597  29.389  32.403  1.00  0.00    -0.237 OA
ATOM     80  O   UNL A   1      38.086  27.485  32.833  1.00  0.00    -0.744 OA
ENDBRANCH  74  77
ENDBRANCH  56  70
BRANCH  57  81
ATOM     81  C   UNL A   1      49.463  26.704  25.896  1.00  0.00     0.023 A 
ATOM     82  C   UNL A   1      50.346  25.942  26.686  1.00  0.00     0.012 A 
ATOM     83  C   UNL A   1      49.870  27.114  24.612  1.00  0.00     0.148 A 
ATOM     84  C   UNL A   1      51.620  25.618  26.218  1.00  0.00     0.002 A 
ATOM     85  C   UNL A   1      51.120  26.742  24.131  1.00  0.00     0.091 A 
ATOM     86  F   UNL A   1      49.021  27.850  23.881  1.00  0.00    -0.205 F 
ATOM     87  C   UNL A   1      52.003  26.007  24.937  1.00  0.00     0.022 A 
BRANCH  85  88
ATOM     88  S   UNL A   1      51.642  27.087  22.446  1.00  0.00     0.127 S 
ATOM     89  O   UNL A   1      50.457  26.709  21.682  1.00  0.00    -0.237 OA
ATOM     90  O   UNL A   1      51.908  28.526  22.499  1.00  0.00    -0.237 OA
ATOM     91  O   UNL A   1      52.827  26.269  22.231  1.00  0.00    -0.744 OA
ENDBRANCH  85  88
ENDBRANCH  57  81
BRANCH  69  92
ATOM     92  C   UNL A   1      46.568  32.449  28.620  1.00  0.00     0.023 A 
ATOM     93  C   UNL A   1      47.150  32.727  29.873  1.00  0.00     0.012 A 
ATOM     94  C   UNL A   1      46.563  33.443  27.623  1.00  0.00     0.148 A 
ATOM     95  C   UNL A   1      47.696  33.982  30.137  1.00  0.00     0.002 A 
ATOM     96  C   UNL A   1      47.149  34.679  27.879  1.00  0.00     0.091 A 
ATOM     97  F   UNL A   1      45.986  33.167  26.445  1.00  0.00    -0.205 F 
ATOM     98  C   UNL A   1      47.707  34.952  29.138  1.00  0.00     0.022 A 
BRANCH  96  99
ATOM     99  S   UNL A   1      47.289  35.953  26.620  1.00  0.00     0.127 S 
ATOM    100  O   UNL A   1      45.886  36.264  26.354  1.00  0.00    -0.237 OA
ATOM    101  O   UNL A   1      48.025  37.005  27.321  1.00  0.00    -0.237 OA
ATOM    102  O   UNL A   1      48.018  35.344  25.516  1.00  0.00    -0.744 OA
ENDBRANCH  96  99
ENDBRANCH  69  92
ENDBRANCH  43  44
ENDBRANCH  35  38
ENDBRANCH  33  34
ENDBRANCH  32  33
ENDBRANCH   1  32
TORSDOF 18
ENDMDL
MODEL 2
REMARK VINA RESULT:     -12.0      1.623      2.021
REMARK SMILES C[C@H](Oc1ccc(/C=C2/SC(=S)N(c3ccc(F)c(Cl)c3)C2=O)cc1)C(=O)NCCCCNC(=O)c1ccc(-c2c3nc(c(-c4cccc(S(=O)(=O)[O-])c4F)c4ccc([nH]4)c(-c4cccc(S(=O)(=O)[O-])c4F)c4nc(c(-c5cccc(S(=O)(=O)[O-])c5F)c5ccc2[nH]5)C=C4)C=C3)cc1
REMARK SMILES IDX 30 1 29 2 28 3 26 4 27 5 2 7 1 8 3 9 4 10 5 11 25 12 6 13
REMARK SMILES IDX 24 14 7 15 8 16 9 17 10 18 22 19 11 20 13 21 23 22 12 23
REMARK SMILES IDX 14 24 15 25 21 26 16 27 19 28 17 29 20 30 18 31 31 32 32 33
REMARK SMILES IDX 33 34 34 35 35 37 36 38 37 39 98 40 38 41 97 42 39 43 40 44
REMARK SMILES IDX 41 45 91 46 42 47 96 48 90 49 92 50 43 51 95 52 89 53 88 54
REMARK SMILES IDX 44 56 76 57 56 58 75 59 57 60 60 61 74 62 93 63 58 64 59 65
REMARK SMILES IDX 73 67 94 68 61 69 45 70 46 71 54 72 47 73 49 74 55 75 48 76
REMARK SMILES IDX 50 77 51 78 52 79 53 80 77 81 78 82 86 83 79 84 81 85 87 86
REMARK SMILES IDX 80 87 82 88 83 89 84 90 85 91 62 92 63 93 71 94 64 95 66 96
REMARK SMILES IDX 72 97 65 98 67 99 68 100 69 101 70 102
REMARK H PARENT 28 6 33 36 92 55 60 66
REMARK Flexibility Score: inf
ROOT
ATOM      1  C   UNL A   1      37.197  19.008  24.628  1.00  0.00     0.023 C 
ENDROOT
BRANCH   1   2
ATOM      2  C   UNL A   1      35.768  18.623  25.000  1.00  0.00     0.116 C 
BRANCH   2   3
ATOM      3  N   UNL A   1      35.182  17.662  24.080  1.00  0.00    -0.353 N 
ATOM      4  C   UNL A   1      33.914  17.138  24.073  1.00  0.00     0.260 C 
ATOM      5  O   UNL A   1      33.596  16.374  23.159  1.00  0.00    -0.271 OA
ATOM      6  H   UNL A   1      35.778  17.344  23.363  1.00  0.00     0.163 HD
BRANCH   4   7
ATOM      7  C   UNL A   1      32.904  17.538  25.163  1.00  0.00     0.258 C 
ATOM      8  C   UNL A   1      32.184  16.277  25.651  1.00  0.00     0.064 C 
BRANCH   7   9
ATOM      9  O   UNL A   1      32.145  18.588  24.560  1.00  0.00    -0.481 OA
BRANCH   9  10
ATOM     10  C   UNL A   1      32.492  19.898  24.622  1.00  0.00     0.120 A 
ATOM     11  C   UNL A   1      32.650  20.775  23.558  1.00  0.00     0.047 A 
ATOM     12  C   UNL A   1      32.729  20.350  25.922  1.00  0.00     0.047 A 
ATOM     13  C   UNL A   1      33.182  22.053  23.780  1.00  0.00     0.012 A 
ATOM     14  C   UNL A   1      33.222  21.632  26.150  1.00  0.00     0.012 A 
ATOM     15  C   UNL A   1      33.520  22.469  25.073  1.00  0.00    -0.024 A 
BRANCH  15  16
ATOM     16  C   UNL A   1      34.153  23.775  25.284  1.00  0.00     0.029 C 
ATOM     17  C   UNL A   1      33.539  24.968  25.237  1.00  0.00     0.081 C 
ATOM     18  S   UNL A   1      34.404  26.451  25.376  1.00  0.00    -0.054 SA
ATOM     19  C   UNL A   1      32.085  25.252  25.008  1.00  0.00     0.270 C 
ATOM     20  C   UNL A   1      32.994  27.431  24.967  1.00  0.00     0.152 C 
ATOM     21  N   UNL A   1      31.895  26.612  24.752  1.00  0.00    -0.261 N 
ATOM     22  O   UNL A   1      31.225  24.388  25.035  1.00  0.00    -0.268 OA
ATOM     23  S   UNL A   1      33.104  29.102  24.985  1.00  0.00    -0.051 S 
BRANCH  21  24
ATOM     24  C   UNL A   1      30.618  27.068  24.284  1.00  0.00     0.052 A 
ATOM     25  C   UNL A   1      29.457  26.301  24.484  1.00  0.00     0.030 A 
ATOM     26  C   UNL A   1      30.511  28.254  23.539  1.00  0.00     0.050 A 
ATOM     27  C   UNL A   1      28.222  26.714  23.974  1.00  0.00     0.043 A 
ATOM     28  C   UNL A   1      29.277  28.661  23.021  1.00  0.00     0.078 A 
ATOM     29  C   UNL A   1      28.138  27.893  23.243  1.00  0.00     0.141 A 
ATOM     30  Cl  UNL A   1      29.193  30.104  22.085  1.00  0.00    -0.081 Cl
ATOM     31  F   UNL A   1      26.951  28.269  22.751  1.00  0.00    -0.205 F 
ENDBRANCH  21  24
ENDBRANCH  15  16
ENDBRANCH   9  10
ENDBRANCH   7   9
ENDBRANCH   4   7
ENDBRANCH   2   3
ENDBRANCH   1   2
BRANCH   1  32
ATOM     32  C   UNL A   1      37.569  20.464  24.909  1.00  0.00     0.023 C 
BRANCH  32  33
ATOM     33  C   UNL A   1      38.670  20.675  25.946  1.00  0.00     0.116 C 
BRANCH  33  34
ATOM     34  N   UNL A   1      39.641  19.590  25.984  1.00  0.00    -0.352 N 
ATOM     35  C   UNL A   1      41.004  19.654  26.154  1.00  0.00     0.251 C 
ATOM     36  H   UNL A   1      39.270  18.685  25.874  1.00  0.00     0.163 HD
ATOM     37  O   UNL A   1      41.684  18.637  26.045  1.00  0.00    -0.269 OA
BRANCH  35  38
ATOM     38  C   UNL A   1      41.651  20.955  26.437  1.00  0.00     0.039 A 
ATOM     39  C   UNL A   1      41.902  21.831  25.376  1.00  0.00     0.014 A 
ATOM     40  C   UNL A   1      41.988  21.321  27.742  1.00  0.00     0.014 A 
ATOM     41  C   UNL A   1      42.421  23.103  25.636  1.00  0.00     0.010 A 
ATOM     42  C   UNL A   1      42.441  22.612  28.006  1.00  0.00     0.010 A 
ATOM     43  C   UNL A   1      42.660  23.518  26.957  1.00  0.00    -0.014 A 
BRANCH  43  44
ATOM     44  C   UNL A   1      43.111  24.900  27.267  1.00  0.00     0.031 A 
ATOM     45  C   UNL A   1      42.175  25.879  27.920  1.00  0.00     0.074 A 
ATOM     46  C   UNL A   1      44.334  25.305  26.866  1.00  0.00     0.049 A 
ATOM     47  N   UNL A   1      42.367  27.143  28.199  1.00  0.00    -0.248 NA
ATOM     48  C   UNL A   1      40.837  25.383  28.281  1.00  0.00     0.031 C 
ATOM     49  C   UNL A   1      45.305  24.479  26.144  1.00  0.00     0.029 A 
ATOM     50  N   UNL A   1      44.956  26.523  26.980  1.00  0.00    -0.354 N 
ATOM     51  C   UNL A   1      41.168  27.601  28.733  1.00  0.00     0.074 A 
ATOM     52  C   UNL A   1      40.245  26.487  28.710  1.00  0.00     0.031 C 
ATOM     53  C   UNL A   1      46.396  25.214  25.877  1.00  0.00     0.029 A 
ATOM     54  C   UNL A   1      46.197  26.569  26.387  1.00  0.00     0.049 A 
ATOM     55  H   UNL A   1      44.553  27.293  27.443  1.00  0.00     0.167 HD
ATOM     56  C   UNL A   1      40.873  28.826  29.230  1.00  0.00     0.034 A 
ATOM     57  C   UNL A   1      47.073  27.584  26.261  1.00  0.00     0.034 A 
ATOM     58  C   UNL A   1      41.807  29.916  29.300  1.00  0.00     0.049 A 
ATOM     59  C   UNL A   1      46.742  28.919  26.873  1.00  0.00     0.074 A 
ATOM     60  C   UNL A   1      41.630  31.166  29.867  1.00  0.00     0.029 A 
ATOM     61  N   UNL A   1      43.094  29.891  28.786  1.00  0.00    -0.354 N 
ATOM     62  N   UNL A   1      45.665  29.282  27.525  1.00  0.00    -0.248 NA
ATOM     63  C   UNL A   1      47.764  29.971  26.768  1.00  0.00     0.031 C 
ATOM     64  C   UNL A   1      42.809  31.899  29.688  1.00  0.00     0.029 A 
ATOM     65  C   UNL A   1      43.722  31.101  29.020  1.00  0.00     0.049 A 
ATOM     66  H   UNL A   1      43.501  29.124  28.322  1.00  0.00     0.167 HD
ATOM     67  C   UNL A   1      45.890  30.591  27.934  1.00  0.00     0.074 A 
ATOM     68  C   UNL A   1      47.217  30.951  27.477  1.00  0.00     0.031 C 
ATOM     69  C   UNL A   1      45.065  31.427  28.612  1.00  0.00     0.034 A 
BRANCH  56  70
ATOM     70  C   UNL A   1      39.495  29.030  29.803  1.00  0.00     0.023 A 
ATOM     71  C   UNL A   1      39.240  28.641  31.135  1.00  0.00     0.012 A 
ATOM     72  C   UNL A   1      38.474  29.648  29.056  1.00  0.00     0.148 A 
ATOM     73  C   UNL A   1      37.981  28.833  31.703  1.00  0.00     0.002 A 
ATOM     74  C   UNL A   1      37.234  29.873  29.643  1.00  0.00     0.091 A 
ATOM     75  F   UNL A   1      38.726  29.990  27.785  1.00  0.00    -0.205 F 
ATOM     76  C   UNL A   1      36.982  29.457  30.961  1.00  0.00     0.022 A 
BRANCH  74  77
ATOM     77  S   UNL A   1      35.906  30.737  28.794  1.00  0.00     0.127 S 
ATOM     78  O   UNL A   1      36.654  31.640  27.920  1.00  0.00    -0.237 OA
ATOM     79  O   UNL A   1      35.220  29.647  28.099  1.00  0.00    -0.237 OA
ATOM     80  O   UNL A   1      35.118  31.379  29.836  1.00  0.00    -0.744 OA
ENDBRANCH  74  77
ENDBRANCH  56  70
BRANCH  57  81
ATOM     81  C   UNL A   1      48.384  27.352  25.592  1.00  0.00     0.023 A 
ATOM     82  C   UNL A   1      49.477  26.898  26.358  1.00  0.00     0.012 A 
ATOM     83  C   UNL A   1      48.547  27.536  24.206  1.00  0.00     0.148 A 
ATOM     84  C   UNL A   1      50.714  26.660  25.759  1.00  0.00     0.002 A 
ATOM     85  C   UNL A   1      49.767  27.246  23.607  1.00  0.00     0.091 A 
ATOM     86  F   UNL A   1      47.499  27.981  23.497  1.00  0.00    -0.205 F 
ATOM     87  C   UNL A   1      50.857  26.822  24.384  1.00  0.00     0.022 A 
BRANCH  85  88
ATOM     88  S   UNL A   1      50.000  27.300  21.827  1.00  0.00     0.127 S 
ATOM     89  O   UNL A   1      49.701  28.697  21.528  1.00  0.00    -0.237 OA
ATOM     90  O   UNL A   1      51.410  26.929  21.693  1.00  0.00    -0.237 OA
ATOM     91  O   UNL A   1      49.071  26.318  21.283  1.00  0.00    -0.744 OA
ENDBRANCH  85  88
ENDBRANCH  57  81
BRANCH  69  92
ATOM     92  C   UNL A   1      45.575  32.808  28.930  1.00  0.00     0.023 A 
ATOM     93  C   UNL A   1      46.303  33.025  30.116  1.00  0.00     0.012 A 
ATOM     94  C   UNL A   1      45.402  33.869  28.019  1.00  0.00     0.148 A 
ATOM     95  C   UNL A   1      46.830  34.283  30.404  1.00  0.00     0.002 A 
ATOM     96  C   UNL A   1      45.968  35.110  28.293  1.00  0.00     0.091 A 
ATOM     97  F   UNL A   1      44.688  33.649  26.906  1.00  0.00    -0.205 F 
ATOM     98  C   UNL A   1      46.673  35.321  29.489  1.00  0.00     0.022 A 
BRANCH  96  99
ATOM     99  S   UNL A   1      45.895  36.475  27.127  1.00  0.00     0.127 S 
ATOM    100  O   UNL A   1      46.693  37.493  27.809  1.00  0.00    -0.237 OA
ATOM    101  O   UNL A   1      46.524  35.904  25.936  1.00  0.00    -0.237 OA
ATOM    102  O   UNL A   1      44.481  36.789  26.969  1.00  0.00    -0.744 OA
ENDBRANCH  96  99
ENDBRANCH  69  92
ENDBRANCH  43  44
ENDBRANCH  35  38
ENDBRANCH  33  34
ENDBRANCH  32  33
ENDBRANCH   1  32
TORSDOF 18
ENDMDL
MODEL 3
REMARK VINA RESULT:     -11.6     10.506     16.943
REMARK SMILES C[C@H](Oc1ccc(/C=C2/SC(=S)N(c3ccc(F)c(Cl)c3)C2=O)cc1)C(=O)NCCCCNC(=O)c1ccc(-c2c3nc(c(-c4cccc(S(=O)(=O)[O-])c4F)c4ccc([nH]4)c(-c4cccc(S(=O)(=O)[O-])c4F)c4nc(c(-c5cccc(S(=O)(=O)[O-])c5F)c5ccc2[nH]5)C=C4)C=C3)cc1
REMARK SMILES IDX 30 1 29 2 28 3 26 4 27 5 2 7 1 8 3 9 4 10 5 11 25 12 6 13
REMARK SMILES IDX 24 14 7 15 8 16 9 17 10 18 22 19 11 20 13 21 23 22 12 23
REMARK SMILES IDX 14 24 15 25 21 26 16 27 19 28 17 29 20 30 18 31 31 32 32 33
REMARK SMILES IDX 33 34 34 35 35 37 36 38 37 39 98 40 38 41 97 42 39 43 40 44
REMARK SMILES IDX 41 45 91 46 42 47 96 48 90 49 92 50 43 51 95 52 89 53 88 54
REMARK SMILES IDX 44 56 76 57 56 58 75 59 57 60 60 61 74 62 93 63 58 64 59 65
REMARK SMILES IDX 73 67 94 68 61 69 45 70 46 71 54 72 47 73 49 74 55 75 48 76
REMARK SMILES IDX 50 77 51 78 52 79 53 80 77 81 78 82 86 83 79 84 81 85 87 86
REMARK SMILES IDX 80 87 82 88 83 89 84 90 85 91 62 92 63 93 71 94 64 95 66 96
REMARK SMILES IDX 72 97 65 98 67 99 68 100 69 101 70 102
REMARK H PARENT 28 6 33 36 92 55 60 66
REMARK Flexibility Score: inf
ROOT
ATOM      1  C   UNL A   1      45.736  24.058  39.432  1.00  0.00     0.023 C 
ENDROOT
BRANCH   1   2
ATOM      2  C   UNL A   1      46.391  22.687  39.308  1.00  0.00     0.116 C 
BRANCH   2   3
ATOM      3  N   UNL A   1      45.870  21.907  38.197  1.00  0.00    -0.353 N 
ATOM      4  C   UNL A   1      46.327  20.715  37.691  1.00  0.00     0.260 C 
ATOM      5  O   UNL A   1      45.698  20.185  36.773  1.00  0.00    -0.271 OA
ATOM      6  H   UNL A   1      45.082  22.286  37.746  1.00  0.00     0.163 HD
BRANCH   4   7
ATOM      7  C   UNL A   1      47.571  20.042  38.296  1.00  0.00     0.258 C 
ATOM      8  C   UNL A   1      48.631  19.897  37.200  1.00  0.00     0.064 C 
BRANCH   7   9
ATOM      9  O   UNL A   1      47.055  18.870  38.930  1.00  0.00    -0.481 OA
BRANCH   9  10
ATOM     10  C   UNL A   1      47.135  18.639  40.264  1.00  0.00     0.120 A 
ATOM     11  C   UNL A   1      48.143  17.965  40.940  1.00  0.00     0.047 A 
ATOM     12  C   UNL A   1      46.043  19.133  40.980  1.00  0.00     0.047 A 
ATOM     13  C   UNL A   1      47.989  17.661  42.299  1.00  0.00     0.012 A 
ATOM     14  C   UNL A   1      45.904  18.864  42.340  1.00  0.00     0.012 A 
ATOM     15  C   UNL A   1      46.843  18.064  42.995  1.00  0.00    -0.024 A 
BRANCH  15  16
ATOM     16  C   UNL A   1      46.653  17.667  44.394  1.00  0.00     0.029 C 
ATOM     17  C   UNL A   1      45.921  16.629  44.829  1.00  0.00     0.081 C 
ATOM     18  S   UNL A   1      45.662  16.327  46.504  1.00  0.00    -0.054 SA
ATOM     19  C   UNL A   1      45.173  15.619  44.012  1.00  0.00     0.270 C 
ATOM     20  C   UNL A   1      44.476  15.058  46.198  1.00  0.00     0.152 C 
ATOM     21  N   UNL A   1      44.316  14.879  44.831  1.00  0.00    -0.261 N 
ATOM     22  O   UNL A   1      45.310  15.502  42.806  1.00  0.00    -0.268 OA
ATOM     23  S   UNL A   1      43.809  14.209  47.478  1.00  0.00    -0.051 S 
BRANCH  21  24
ATOM     24  C   UNL A   1      43.343  14.013  44.230  1.00  0.00     0.052 A 
ATOM     25  C   UNL A   1      42.095  14.506  43.809  1.00  0.00     0.030 A 
ATOM     26  C   UNL A   1      43.581  12.633  44.126  1.00  0.00     0.050 A 
ATOM     27  C   UNL A   1      41.122  13.651  43.281  1.00  0.00     0.043 A 
ATOM     28  C   UNL A   1      42.603  11.777  43.606  1.00  0.00     0.078 A 
ATOM     29  C   UNL A   1      41.381  12.290  43.183  1.00  0.00     0.141 A 
ATOM     30  Cl  UNL A   1      42.922  10.087  43.525  1.00  0.00    -0.081 Cl
ATOM     31  F   UNL A   1      40.435  11.483  42.686  1.00  0.00    -0.205 F 
ENDBRANCH  21  24
ENDBRANCH  15  16
ENDBRANCH   9  10
ENDBRANCH   7   9
ENDBRANCH   4   7
ENDBRANCH   2   3
ENDBRANCH   1   2
BRANCH   1  32
ATOM     32  C   UNL A   1      46.707  25.228  39.589  1.00  0.00     0.023 C 
BRANCH  32  33
ATOM     33  C   UNL A   1      46.894  26.101  38.350  1.00  0.00     0.116 C 
BRANCH  33  34
ATOM     34  N   UNL A   1      47.665  25.451  37.298  1.00  0.00    -0.352 N 
ATOM     35  C   UNL A   1      47.384  25.352  35.956  1.00  0.00     0.251 C 
ATOM     36  H   UNL A   1      48.502  25.024  37.588  1.00  0.00     0.163 HD
ATOM     37  O   UNL A   1      48.096  24.663  35.230  1.00  0.00    -0.269 OA
BRANCH  35  38
ATOM     38  C   UNL A   1      46.206  26.051  35.395  1.00  0.00     0.039 A 
ATOM     39  C   UNL A   1      46.384  27.299  34.790  1.00  0.00     0.014 A 
ATOM     40  C   UNL A   1      44.936  25.471  35.444  1.00  0.00     0.014 A 
ATOM     41  C   UNL A   1      45.301  27.929  34.169  1.00  0.00     0.010 A 
ATOM     42  C   UNL A   1      43.875  26.067  34.766  1.00  0.00     0.010 A 
ATOM     43  C   UNL A   1      44.046  27.301  34.118  1.00  0.00    -0.014 A 
BRANCH  43  44
ATOM     44  C   UNL A   1      42.907  27.900  33.375  1.00  0.00     0.031 A 
ATOM     45  C   UNL A   1      42.713  27.606  31.913  1.00  0.00     0.074 A 
ATOM     46  C   UNL A   1      42.106  28.792  33.992  1.00  0.00     0.049 A 
ATOM     47  N   UNL A   1      41.824  28.092  31.085  1.00  0.00    -0.248 NA
ATOM     48  C   UNL A   1      43.658  26.663  31.291  1.00  0.00     0.031 C 
ATOM     49  C   UNL A   1      42.241  29.231  35.383  1.00  0.00     0.029 A 
ATOM     50  N   UNL A   1      41.038  29.515  33.520  1.00  0.00    -0.354 N 
ATOM     51  C   UNL A   1      42.123  27.546  29.842  1.00  0.00     0.074 A 
ATOM     52  C   UNL A   1      43.295  26.716  30.018  1.00  0.00     0.031 C 
ATOM     53  C   UNL A   1      41.298  30.148  35.649  1.00  0.00     0.029 A 
ATOM     54  C   UNL A   1      40.504  30.380  34.445  1.00  0.00     0.049 A 
ATOM     55  H   UNL A   1      40.688  29.422  32.604  1.00  0.00     0.167 HD
ATOM     56  C   UNL A   1      41.464  27.693  28.668  1.00  0.00     0.034 A 
ATOM     57  C   UNL A   1      39.494  31.266  34.339  1.00  0.00     0.034 A 
ATOM     58  C   UNL A   1      40.269  28.477  28.505  1.00  0.00     0.049 A 
ATOM     59  C   UNL A   1      38.741  31.367  33.039  1.00  0.00     0.074 A 
ATOM     60  C   UNL A   1      39.478  28.615  27.379  1.00  0.00     0.029 A 
ATOM     61  N   UNL A   1      39.693  29.257  29.496  1.00  0.00    -0.354 N 
ATOM     62  N   UNL A   1      38.938  30.714  31.920  1.00  0.00    -0.248 NA
ATOM     63  C   UNL A   1      37.604  32.298  32.999  1.00  0.00     0.031 C 
ATOM     64  C   UNL A   1      38.426  29.486  27.687  1.00  0.00     0.029 A 
ATOM     65  C   UNL A   1      38.558  29.880  29.008  1.00  0.00     0.049 A 
ATOM     66  H   UNL A   1      40.040  29.352  30.412  1.00  0.00     0.167 HD
ATOM     67  C   UNL A   1      37.932  31.128  31.054  1.00  0.00     0.074 A 
ATOM     68  C   UNL A   1      37.114  32.074  31.786  1.00  0.00     0.031 C 
ATOM     69  C   UNL A   1      37.717  30.773  29.763  1.00  0.00     0.034 A 
BRANCH  56  70
ATOM     70  C   UNL A   1      41.984  26.931  27.477  1.00  0.00     0.023 A 
ATOM     71  C   UNL A   1      42.693  27.622  26.474  1.00  0.00     0.012 A 
ATOM     72  C   UNL A   1      41.824  25.536  27.374  1.00  0.00     0.148 A 
ATOM     73  C   UNL A   1      43.203  26.944  25.368  1.00  0.00     0.002 A 
ATOM     74  C   UNL A   1      42.371  24.860  26.289  1.00  0.00     0.091 A 
ATOM     75  F   UNL A   1      41.127  24.897  28.325  1.00  0.00    -0.205 F 
ATOM     76  C   UNL A   1      43.051  25.563  25.280  1.00  0.00     0.022 A 
BRANCH  74  77
ATOM     77  S   UNL A   1      42.293  23.073  26.124  1.00  0.00     0.127 S 
ATOM     78  O   UNL A   1      42.980  22.864  24.850  1.00  0.00    -0.237 OA
ATOM     79  O   UNL A   1      43.040  22.620  27.300  1.00  0.00    -0.237 OA
ATOM     80  O   UNL A   1      40.878  22.732  26.140  1.00  0.00    -0.744 OA
ENDBRANCH  74  77
ENDBRANCH  56  70
BRANCH  57  81
ATOM     81  C   UNL A   1      39.086  32.070  35.525  1.00  0.00     0.023 A 
ATOM     82  C   UNL A   1      38.191  31.513  36.460  1.00  0.00     0.012 A 
ATOM     83  C   UNL A   1      39.604  33.359  35.755  1.00  0.00     0.148 A 
ATOM     84  C   UNL A   1      37.799  32.235  37.587  1.00  0.00     0.002 A 
ATOM     85  C   UNL A   1      39.251  34.052  36.906  1.00  0.00     0.091 A 
ATOM     86  F   UNL A   1      40.442  33.877  34.846  1.00  0.00    -0.205 F 
ATOM     87  C   UNL A   1      38.337  33.499  37.817  1.00  0.00     0.022 A 
BRANCH  85  88
ATOM     88  S   UNL A   1      39.996  35.626  37.346  1.00  0.00     0.127 S 
ATOM     89  O   UNL A   1      39.649  36.454  36.195  1.00  0.00    -0.237 OA
ATOM     90  O   UNL A   1      39.289  35.962  38.583  1.00  0.00    -0.237 OA
ATOM     91  O   UNL A   1      41.414  35.348  37.527  1.00  0.00    -0.744 OA
ENDBRANCH  85  88
ENDBRANCH  57  81
BRANCH  69  92
ATOM     92  C   UNL A   1      36.535  31.383  29.057  1.00  0.00     0.023 A 
ATOM     93  C   UNL A   1      36.498  32.774  28.835  1.00  0.00     0.012 A 
ATOM     94  C   UNL A   1      35.503  30.572  28.546  1.00  0.00     0.148 A 
ATOM     95  C   UNL A   1      35.439  33.352  28.137  1.00  0.00     0.002 A 
ATOM     96  C   UNL A   1      34.472  31.151  27.812  1.00  0.00     0.091 A 
ATOM     97  F   UNL A   1      35.544  29.254  28.785  1.00  0.00    -0.205 F 
ATOM     98  C   UNL A   1      34.434  32.541  27.616  1.00  0.00     0.022 A 
BRANCH  96  99
ATOM     99  S   UNL A   1      33.187  30.171  27.026  1.00  0.00     0.127 S 
ATOM    100  O   UNL A   1      32.151  31.175  26.788  1.00  0.00    -0.237 OA
ATOM    101  O   UNL A   1      33.856  29.687  25.819  1.00  0.00    -0.237 OA
ATOM    102  O   UNL A   1      32.841  29.128  27.982  1.00  0.00    -0.744 OA
ENDBRANCH  96  99
ENDBRANCH  69  92
ENDBRANCH  43  44
ENDBRANCH  35  38
ENDBRANCH  33  34
ENDBRANCH  32  33
ENDBRANCH   1  32
TORSDOF 18
ENDMDL
