MODEL 1
REMARK VINA RESULT:     -12.6      0.000      0.000
REMARK SMILES O=C(NCCCCNC(=O)[C@H]1C[C@](O)(c2ccccc2Cl)[C@@H](c2ccccc2Cl)O1)c1ccc(-c2c3nc(c(-c4cccc(S(=O)(=O)[O-])c4F)c4ccc([nH]4)c(-c4cccc(S(=O)(=O)[O-])c4F)c4nc(c(-c5cccc(S(=O)(=O)[O-])c5F)c5ccc2[nH]5)C=C4)C=C3)cc1
REMARK SMILES IDX 4 1 3 2 1 3 2 4 31 6 32 7 93 8 33 9 92 10 34 11 35 12 36 13
REMARK SMILES IDX 86 14 37 15 91 16 85 17 87 18 38 19 90 20 84 21 83 22 39 24
REMARK SMILES IDX 71 25 51 26 70 27 52 28 55 29 69 30 88 31 53 32 54 33 68 35
REMARK SMILES IDX 89 36 56 37 40 38 41 39 49 40 42 41 44 42 50 43 43 44 45 45
REMARK SMILES IDX 46 46 47 47 48 48 72 49 73 50 81 51 74 52 76 53 82 54 75 55
REMARK SMILES IDX 77 56 78 57 79 58 80 59 57 60 58 61 66 62 59 63 61 64 67 65
REMARK SMILES IDX 60 66 62 67 63 68 64 69 65 70 5 71 6 72 7 73 8 74 9 75 10 77
REMARK SMILES IDX 11 78 12 79 30 80 13 81 22 82 15 83 16 84 20 85 17 86 19 87
REMARK SMILES IDX 21 88 18 89 14 90 23 92 24 93 28 94 25 95 27 96 29 97 26 98
REMARK H PARENT 3 5 87 23 55 34 8 76 14 91
REMARK Flexibility Score: inf
ROOT
ATOM      1  C   UNL A   1      32.482  32.074  26.888  1.00  0.00     0.116 C 
ENDROOT
BRANCH   1   2
ATOM      2  N   UNL A   1      32.506  33.480  27.269  1.00  0.00    -0.352 N 
ATOM      3  O   UNL A   1      33.178  35.301  28.424  1.00  0.00    -0.269 OA
ATOM      4  C   UNL A   1      33.378  34.141  28.109  1.00  0.00     0.251 C 
ATOM      5  H   UNL A   1      31.799  34.037  26.871  1.00  0.00     0.163 HD
BRANCH   4   6
ATOM      6  C   UNL A   1      34.545  33.400  28.639  1.00  0.00     0.039 A 
ATOM      7  C   UNL A   1      34.348  32.313  29.491  1.00  0.00     0.014 A 
ATOM      8  C   UNL A   1      35.835  33.831  28.321  1.00  0.00     0.014 A 
ATOM      9  C   UNL A   1      35.434  31.763  30.159  1.00  0.00     0.010 A 
ATOM     10  C   UNL A   1      36.934  33.211  28.924  1.00  0.00     0.010 A 
ATOM     11  C   UNL A   1      36.740  32.197  29.875  1.00  0.00    -0.014 A 
BRANCH  11  12
ATOM     12  C   UNL A   1      37.884  31.504  30.518  1.00  0.00     0.031 A 
ATOM     13  C   UNL A   1      38.683  30.456  29.795  1.00  0.00     0.074 A 
ATOM     14  C   UNL A   1      38.194  31.843  31.786  1.00  0.00     0.049 A 
ATOM     15  N   UNL A   1      39.721  29.782  30.221  1.00  0.00    -0.248 NA
ATOM     16  C   UNL A   1      38.269  30.110  28.425  1.00  0.00     0.031 C 
ATOM     17  C   UNL A   1      37.452  32.810  32.600  1.00  0.00     0.029 A 
ATOM     18  N   UNL A   1      39.200  31.418  32.613  1.00  0.00    -0.354 N 
ATOM     19  C   UNL A   1      40.057  28.904  29.197  1.00  0.00     0.074 A 
ATOM     20  C   UNL A   1      39.116  29.133  28.122  1.00  0.00     0.031 C 
ATOM     21  C   UNL A   1      38.040  32.922  33.798  1.00  0.00     0.029 A 
ATOM     22  C   UNL A   1      39.165  31.997  33.858  1.00  0.00     0.049 A 
ATOM     23  H   UNL A   1      39.882  30.762  32.340  1.00  0.00     0.167 HD
ATOM     24  C   UNL A   1      41.065  28.000  29.158  1.00  0.00     0.034 A 
ATOM     25  C   UNL A   1      39.937  31.793  34.943  1.00  0.00     0.034 A 
ATOM     26  C   UNL A   1      42.027  27.817  30.214  1.00  0.00     0.049 A 
ATOM     27  C   UNL A   1      41.067  30.813  34.849  1.00  0.00     0.074 A 
ATOM     28  C   UNL A   1      43.140  26.992  30.228  1.00  0.00     0.029 A 
ATOM     29  N   UNL A   1      41.990  28.457  31.442  1.00  0.00    -0.354 N 
ATOM     30  N   UNL A   1      41.457  30.102  33.819  1.00  0.00    -0.248 NA
ATOM     31  C   UNL A   1      41.879  30.620  36.058  1.00  0.00     0.031 C 
ATOM     32  C   UNL A   1      43.764  27.121  31.473  1.00  0.00     0.029 A 
ATOM     33  C   UNL A   1      43.049  28.034  32.229  1.00  0.00     0.049 A 
ATOM     34  H   UNL A   1      41.312  29.116  31.715  1.00  0.00     0.167 HD
ATOM     35  C   UNL A   1      42.565  29.387  34.250  1.00  0.00     0.074 A 
ATOM     36  C   UNL A   1      42.809  29.780  35.623  1.00  0.00     0.031 C 
ATOM     37  C   UNL A   1      43.301  28.468  33.579  1.00  0.00     0.034 A 
BRANCH  24  38
ATOM     38  C   UNL A   1      41.227  27.160  27.918  1.00  0.00     0.023 A 
ATOM     39  C   UNL A   1      41.879  27.702  26.793  1.00  0.00     0.012 A 
ATOM     40  C   UNL A   1      40.846  25.802  27.910  1.00  0.00     0.148 A 
ATOM     41  C   UNL A   1      42.141  26.910  25.675  1.00  0.00     0.002 A 
ATOM     42  C   UNL A   1      41.139  25.012  26.804  1.00  0.00     0.091 A 
ATOM     43  F   UNL A   1      40.212  25.311  28.984  1.00  0.00    -0.205 F 
ATOM     44  C   UNL A   1      41.782  25.565  25.685  1.00  0.00     0.022 A 
BRANCH  42  45
ATOM     45  S   UNL A   1      40.783  23.250  26.746  1.00  0.00     0.127 S 
ATOM     46  O   UNL A   1      41.669  22.808  25.670  1.00  0.00    -0.237 OA
ATOM     47  O   UNL A   1      41.183  22.811  28.083  1.00  0.00    -0.237 OA
ATOM     48  O   UNL A   1      39.359  23.136  26.467  1.00  0.00    -0.744 OA
ENDBRANCH  42  45
ENDBRANCH  24  38
BRANCH  25  49
ATOM     49  C   UNL A   1      39.674  32.564  36.188  1.00  0.00     0.023 A 
ATOM     50  C   UNL A   1      40.320  33.797  36.392  1.00  0.00     0.012 A 
ATOM     51  C   UNL A   1      38.743  32.110  37.143  1.00  0.00     0.148 A 
ATOM     52  C   UNL A   1      40.059  34.555  37.534  1.00  0.00     0.002 A 
ATOM     53  C   UNL A   1      38.441  32.899  38.246  1.00  0.00     0.091 A 
ATOM     54  F   UNL A   1      38.152  30.922  36.947  1.00  0.00    -0.205 F 
ATOM     55  C   UNL A   1      39.110  34.114  38.454  1.00  0.00     0.022 A 
BRANCH  53  56
ATOM     56  S   UNL A   1      37.111  32.459  39.371  1.00  0.00     0.127 S 
ATOM     57  O   UNL A   1      37.279  33.443  40.436  1.00  0.00    -0.237 OA
ATOM     58  O   UNL A   1      35.921  32.649  38.540  1.00  0.00    -0.237 OA
ATOM     59  O   UNL A   1      37.367  31.070  39.728  1.00  0.00    -0.744 OA
ENDBRANCH  53  56
ENDBRANCH  25  49
BRANCH  37  60
ATOM     60  C   UNL A   1      44.438  27.823  34.323  1.00  0.00     0.023 A 
ATOM     61  C   UNL A   1      45.714  28.418  34.278  1.00  0.00     0.012 A 
ATOM     62  C   UNL A   1      44.236  26.668  35.101  1.00  0.00     0.148 A 
ATOM     63  C   UNL A   1      46.782  27.853  34.974  1.00  0.00     0.002 A 
ATOM     64  C   UNL A   1      45.295  26.136  35.826  1.00  0.00     0.091 A 
ATOM     65  F   UNL A   1      43.019  26.106  35.111  1.00  0.00    -0.205 F 
ATOM     66  C   UNL A   1      46.570  26.720  35.756  1.00  0.00     0.022 A 
BRANCH  64  67
ATOM     67  S   UNL A   1      45.089  24.730  36.924  1.00  0.00     0.127 S 
ATOM     68  O   UNL A   1      46.413  24.628  37.532  1.00  0.00    -0.237 OA
ATOM     69  O   UNL A   1      44.035  25.189  37.830  1.00  0.00    -0.237 OA
ATOM     70  O   UNL A   1      44.701  23.615  36.070  1.00  0.00    -0.744 OA
ENDBRANCH  64  67
ENDBRANCH  37  60
ENDBRANCH  11  12
ENDBRANCH   4   6
ENDBRANCH   1   2
BRANCH   1  71
ATOM     71  C   UNL A   1      31.095  31.579  26.493  1.00  0.00     0.023 C 
BRANCH  71  72
ATOM     72  C   UNL A   1      31.062  30.631  25.302  1.00  0.00     0.023 C 
BRANCH  72  73
ATOM     73  C   UNL A   1      32.071  29.490  25.353  1.00  0.00     0.116 C 
BRANCH  73  74
ATOM     74  N   UNL A   1      33.148  29.612  24.398  1.00  0.00    -0.354 N 
ATOM     75  C   UNL A   1      33.646  28.735  23.490  1.00  0.00     0.249 C 
ATOM     76  H   UNL A   1      33.601  30.485  24.409  1.00  0.00     0.163 HD
ATOM     77  O   UNL A   1      34.526  29.190  22.745  1.00  0.00    -0.272 OA
BRANCH  75  78
ATOM     78  C   UNL A   1      33.178  27.265  23.280  1.00  0.00     0.211 C 
ATOM     79  C   UNL A   1      32.777  26.379  24.428  1.00  0.00     0.085 C 
ATOM     80  O   UNL A   1      32.177  27.087  22.285  1.00  0.00    -0.357 OA
ATOM     81  C   UNL A   1      31.238  26.255  24.370  1.00  0.00     0.124 C 
ATOM     82  C   UNL A   1      30.913  26.749  22.908  1.00  0.00     0.187 C 
BRANCH  81  83
ATOM     83  C   UNL A   1      30.927  24.874  24.979  1.00  0.00     0.005 A 
ATOM     84  C   UNL A   1      30.211  24.909  26.216  1.00  0.00     0.008 A 
ATOM     85  C   UNL A   1      31.319  23.605  24.533  1.00  0.00     0.047 A 
ATOM     86  C   UNL A   1      29.910  23.769  26.959  1.00  0.00     0.001 A 
ATOM     87  C   UNL A   1      30.995  22.452  25.279  1.00  0.00     0.021 A 
ATOM     88  Cl  UNL A   1      32.243  23.300  23.115  1.00  0.00    -0.084 Cl
ATOM     89  C   UNL A   1      30.302  22.531  26.486  1.00  0.00     0.002 A 
ENDBRANCH  81  83
BRANCH  81  90
ATOM     90  O   UNL A   1      30.651  27.176  25.310  1.00  0.00    -0.382 OA
ATOM     91  H   UNL A   1      29.760  26.875  25.545  1.00  0.00     0.212 HD
ENDBRANCH  81  90
BRANCH  82  92
ATOM     92  C   UNL A   1      29.969  27.950  22.741  1.00  0.00     0.003 A 
ATOM     93  C   UNL A   1      30.412  29.140  22.119  1.00  0.00     0.008 A 
ATOM     94  C   UNL A   1      28.624  27.910  23.148  1.00  0.00     0.046 A 
ATOM     95  C   UNL A   1      29.577  30.247  21.959  1.00  0.00     0.000 A 
ATOM     96  C   UNL A   1      27.784  29.020  22.982  1.00  0.00     0.021 A 
ATOM     97  Cl  UNL A   1      27.934  26.502  23.872  1.00  0.00    -0.084 Cl
ATOM     98  C   UNL A   1      28.262  30.191  22.397  1.00  0.00     0.002 A 
ENDBRANCH  82  92
ENDBRANCH  75  78
ENDBRANCH  73  74
ENDBRANCH  72  73
ENDBRANCH  71  72
ENDBRANCH   1  71
TORSDOF 17
ENDMDL
MODEL 2
REMARK VINA RESULT:     -12.5      2.003      2.674
REMARK SMILES O=C(NCCCCNC(=O)[C@H]1C[C@](O)(c2ccccc2Cl)[C@@H](c2ccccc2Cl)O1)c1ccc(-c2c3nc(c(-c4cccc(S(=O)(=O)[O-])c4F)c4ccc([nH]4)c(-c4cccc(S(=O)(=O)[O-])c4F)c4nc(c(-c5cccc(S(=O)(=O)[O-])c5F)c5ccc2[nH]5)C=C4)C=C3)cc1
REMARK SMILES IDX 4 1 3 2 1 3 2 4 31 6 32 7 93 8 33 9 92 10 34 11 35 12 36 13
REMARK SMILES IDX 86 14 37 15 91 16 85 17 87 18 38 19 90 20 84 21 83 22 39 24
REMARK SMILES IDX 71 25 51 26 70 27 52 28 55 29 69 30 88 31 53 32 54 33 68 35
REMARK SMILES IDX 89 36 56 37 40 38 41 39 49 40 42 41 44 42 50 43 43 44 45 45
REMARK SMILES IDX 46 46 47 47 48 48 72 49 73 50 81 51 74 52 76 53 82 54 75 55
REMARK SMILES IDX 77 56 78 57 79 58 80 59 57 60 58 61 66 62 59 63 61 64 67 65
REMARK SMILES IDX 60 66 62 67 63 68 64 69 65 70 5 71 6 72 7 73 8 74 9 75 10 77
REMARK SMILES IDX 11 78 12 79 30 80 13 81 22 82 15 83 16 84 20 85 17 86 19 87
REMARK SMILES IDX 21 88 18 89 14 90 23 92 24 93 28 94 25 95 27 96 29 97 26 98
REMARK H PARENT 3 5 87 23 55 34 8 76 14 91
REMARK Flexibility Score: inf
ROOT
ATOM      1  C   UNL A   1      33.490  33.578  27.284  1.00  0.00     0.116 C 
ENDROOT
BRANCH   1   2
ATOM      2  N   UNL A   1      32.884  34.673  28.030  1.00  0.00    -0.352 N 
ATOM      3  O   UNL A   1      32.464  35.969  29.832  1.00  0.00    -0.269 OA
ATOM      4  C   UNL A   1      33.159  35.116  29.308  1.00  0.00     0.251 C 
ATOM      5  H   UNL A   1      32.178  35.168  27.555  1.00  0.00     0.163 HD
BRANCH   4   6
ATOM      6  C   UNL A   1      34.297  34.510  30.034  1.00  0.00     0.039 A 
ATOM      7  C   UNL A   1      35.598  34.692  29.561  1.00  0.00     0.014 A 
ATOM      8  C   UNL A   1      34.053  33.719  31.159  1.00  0.00     0.014 A 
ATOM      9  C   UNL A   1      36.634  33.947  30.109  1.00  0.00     0.010 A 
ATOM     10  C   UNL A   1      35.115  33.043  31.767  1.00  0.00     0.010 A 
ATOM     11  C   UNL A   1      36.407  33.123  31.225  1.00  0.00    -0.014 A 
BRANCH  11  12
ATOM     12  C   UNL A   1      37.561  32.437  31.857  1.00  0.00     0.031 A 
ATOM     13  C   UNL A   1      38.297  31.324  31.164  1.00  0.00     0.074 A 
ATOM     14  C   UNL A   1      37.939  32.842  33.086  1.00  0.00     0.049 A 
ATOM     15  N   UNL A   1      39.335  30.646  31.584  1.00  0.00    -0.248 NA
ATOM     16  C   UNL A   1      37.810  30.908  29.838  1.00  0.00     0.031 C 
ATOM     17  C   UNL A   1      37.262  33.877  33.872  1.00  0.00     0.029 A 
ATOM     18  N   UNL A   1      38.971  32.438  33.891  1.00  0.00    -0.354 N 
ATOM     19  C   UNL A   1      39.599  29.698  30.601  1.00  0.00     0.074 A 
ATOM     20  C   UNL A   1      38.615  29.890  29.558  1.00  0.00     0.031 C 
ATOM     21  C   UNL A   1      37.909  34.044  35.033  1.00  0.00     0.029 A 
ATOM     22  C   UNL A   1      39.010  33.091  35.099  1.00  0.00     0.049 A 
ATOM     23  H   UNL A   1      39.622  31.746  33.629  1.00  0.00     0.167 HD
ATOM     24  C   UNL A   1      40.580  28.764  30.572  1.00  0.00     0.034 A 
ATOM     25  C   UNL A   1      39.826  32.930  36.158  1.00  0.00     0.034 A 
ATOM     26  C   UNL A   1      41.586  28.617  31.593  1.00  0.00     0.049 A 
ATOM     27  C   UNL A   1      40.924  31.913  36.074  1.00  0.00     0.074 A 
ATOM     28  C   UNL A   1      42.675  27.762  31.608  1.00  0.00     0.029 A 
ATOM     29  N   UNL A   1      41.623  29.330  32.780  1.00  0.00    -0.354 N 
ATOM     30  N   UNL A   1      41.246  31.131  35.073  1.00  0.00    -0.248 NA
ATOM     31  C   UNL A   1      41.786  31.770  37.254  1.00  0.00     0.031 C 
ATOM     32  C   UNL A   1      43.360  27.947  32.813  1.00  0.00     0.029 A 
ATOM     33  C   UNL A   1      42.706  28.925  33.543  1.00  0.00     0.049 A 
ATOM     34  H   UNL A   1      40.976  30.024  33.042  1.00  0.00     0.167 HD
ATOM     35  C   UNL A   1      42.354  30.411  35.496  1.00  0.00     0.074 A 
ATOM     36  C   UNL A   1      42.672  30.878  36.830  1.00  0.00     0.031 C 
ATOM     37  C   UNL A   1      43.032  29.431  34.851  1.00  0.00     0.034 A 
BRANCH  24  38
ATOM     38  C   UNL A   1      40.662  27.847  29.381  1.00  0.00     0.023 A 
ATOM     39  C   UNL A   1      39.783  26.750  29.289  1.00  0.00     0.012 A 
ATOM     40  C   UNL A   1      41.519  28.140  28.301  1.00  0.00     0.148 A 
ATOM     41  C   UNL A   1      39.762  25.951  28.145  1.00  0.00     0.002 A 
ATOM     42  C   UNL A   1      41.470  27.358  27.151  1.00  0.00     0.091 A 
ATOM     43  F   UNL A   1      42.359  29.178  28.416  1.00  0.00    -0.205 F 
ATOM     44  C   UNL A   1      40.595  26.262  27.073  1.00  0.00     0.022 A 
BRANCH  42  45
ATOM     45  S   UNL A   1      42.451  27.718  25.687  1.00  0.00     0.127 S 
ATOM     46  O   UNL A   1      43.799  27.791  26.249  1.00  0.00    -0.237 OA
ATOM     47  O   UNL A   1      42.201  26.542  24.853  1.00  0.00    -0.237 OA
ATOM     48  O   UNL A   1      41.930  28.967  25.151  1.00  0.00    -0.744 OA
ENDBRANCH  42  45
ENDBRANCH  24  38
BRANCH  25  49
ATOM     49  C   UNL A   1      39.642  33.782  37.364  1.00  0.00     0.023 A 
ATOM     50  C   UNL A   1      40.119  35.106  37.360  1.00  0.00     0.012 A 
ATOM     51  C   UNL A   1      38.946  33.307  38.493  1.00  0.00     0.148 A 
ATOM     52  C   UNL A   1      39.924  35.934  38.466  1.00  0.00     0.002 A 
ATOM     53  C   UNL A   1      38.701  34.156  39.565  1.00  0.00     0.091 A 
ATOM     54  F   UNL A   1      38.518  32.036  38.493  1.00  0.00    -0.205 F 
ATOM     55  C   UNL A   1      39.202  35.466  39.562  1.00  0.00     0.022 A 
BRANCH  53  56
ATOM     56  S   UNL A   1      37.638  33.658  40.925  1.00  0.00     0.127 S 
ATOM     57  O   UNL A   1      37.408  34.926  41.608  1.00  0.00    -0.237 OA
ATOM     58  O   UNL A   1      36.472  33.112  40.229  1.00  0.00    -0.237 OA
ATOM     59  O   UNL A   1      38.410  32.660  41.656  1.00  0.00    -0.744 OA
ENDBRANCH  53  56
ENDBRANCH  25  49
BRANCH  37  60
ATOM     60  C   UNL A   1      44.185  28.799  35.581  1.00  0.00     0.023 A 
ATOM     61  C   UNL A   1      45.488  29.288  35.363  1.00  0.00     0.012 A 
ATOM     62  C   UNL A   1      43.977  27.765  36.512  1.00  0.00     0.148 A 
ATOM     63  C   UNL A   1      46.574  28.734  36.041  1.00  0.00     0.002 A 
ATOM     64  C   UNL A   1      45.058  27.248  37.216  1.00  0.00     0.091 A 
ATOM     65  F   UNL A   1      42.732  27.300  36.686  1.00  0.00    -0.205 F 
ATOM     66  C   UNL A   1      46.357  27.723  36.974  1.00  0.00     0.022 A 
BRANCH  64  67
ATOM     67  S   UNL A   1      44.857  26.004  38.495  1.00  0.00     0.127 S 
ATOM     68  O   UNL A   1      44.232  24.911  37.754  1.00  0.00    -0.237 OA
ATOM     69  O   UNL A   1      46.239  25.749  38.906  1.00  0.00    -0.237 OA
ATOM     70  O   UNL A   1      44.030  26.622  39.523  1.00  0.00    -0.744 OA
ENDBRANCH  64  67
ENDBRANCH  37  60
ENDBRANCH  11  12
ENDBRANCH   4   6
ENDBRANCH   1   2
BRANCH   1  71
ATOM     71  C   UNL A   1      33.300  32.219  27.947  1.00  0.00     0.023 C 
BRANCH  71  72
ATOM     72  C   UNL A   1      34.555  31.361  28.035  1.00  0.00     0.023 C 
BRANCH  72  73
ATOM     73  C   UNL A   1      34.414  29.948  27.482  1.00  0.00     0.116 C 
BRANCH  73  74
ATOM     74  N   UNL A   1      33.146  29.322  27.779  1.00  0.00    -0.354 N 
ATOM     75  C   UNL A   1      32.629  28.122  27.411  1.00  0.00     0.249 C 
ATOM     76  H   UNL A   1      32.553  29.861  28.348  1.00  0.00     0.163 HD
ATOM     77  O   UNL A   1      31.535  27.841  27.921  1.00  0.00    -0.272 OA
BRANCH  75  78
ATOM     78  C   UNL A   1      33.304  27.081  26.471  1.00  0.00     0.211 C 
ATOM     79  C   UNL A   1      32.819  25.661  26.366  1.00  0.00     0.085 C 
ATOM     80  O   UNL A   1      33.507  27.521  25.132  1.00  0.00    -0.357 OA
ATOM     81  C   UNL A   1      32.095  25.542  25.006  1.00  0.00     0.124 C 
ATOM     82  C   UNL A   1      32.603  26.823  24.240  1.00  0.00     0.187 C 
BRANCH  81  83
ATOM     83  C   UNL A   1      32.275  24.071  24.587  1.00  0.00     0.005 A 
ATOM     84  C   UNL A   1      32.957  23.878  23.345  1.00  0.00     0.008 A 
ATOM     85  C   UNL A   1      31.792  22.911  25.208  1.00  0.00     0.047 A 
ATOM     86  C   UNL A   1      33.143  22.627  22.759  1.00  0.00     0.001 A 
ATOM     87  C   UNL A   1      31.998  21.645  24.620  1.00  0.00     0.021 A 
ATOM     88  Cl  UNL A   1      30.885  22.880  26.668  1.00  0.00    -0.084 Cl
ATOM     89  C   UNL A   1      32.662  21.502  23.403  1.00  0.00     0.002 A 
ENDBRANCH  81  83
BRANCH  81  90
ATOM     90  O   UNL A   1      30.674  25.661  25.213  1.00  0.00    -0.382 OA
ATOM     91  H   UNL A   1      30.354  26.476  24.797  1.00  0.00     0.212 HD
ENDBRANCH  81  90
BRANCH  82  92
ATOM     92  C   UNL A   1      31.558  27.834  23.742  1.00  0.00     0.003 A 
ATOM     93  C   UNL A   1      31.235  28.978  24.507  1.00  0.00     0.008 A 
ATOM     94  C   UNL A   1      30.917  27.700  22.499  1.00  0.00     0.046 A 
ATOM     95  C   UNL A   1      30.286  29.909  24.081  1.00  0.00     0.000 A 
ATOM     96  C   UNL A   1      29.968  28.639  22.068  1.00  0.00     0.021 A 
ATOM     97  Cl  UNL A   1      31.256  26.380  21.437  1.00  0.00    -0.084 Cl
ATOM     98  C   UNL A   1      29.646  29.737  22.863  1.00  0.00     0.002 A 
ENDBRANCH  82  92
ENDBRANCH  75  78
ENDBRANCH  73  74
ENDBRANCH  72  73
ENDBRANCH  71  72
ENDBRANCH   1  71
TORSDOF 17
ENDMDL
MODEL 3
REMARK VINA RESULT:     -12.1      2.562      7.855
REMARK SMILES O=C(NCCCCNC(=O)[C@H]1C[C@](O)(c2ccccc2Cl)[C@@H](c2ccccc2Cl)O1)c1ccc(-c2c3nc(c(-c4cccc(S(=O)(=O)[O-])c4F)c4ccc([nH]4)c(-c4cccc(S(=O)(=O)[O-])c4F)c4nc(c(-c5cccc(S(=O)(=O)[O-])c5F)c5ccc2[nH]5)C=C4)C=C3)cc1
REMARK SMILES IDX 4 1 3 2 1 3 2 4 31 6 32 7 93 8 33 9 92 10 34 11 35 12 36 13
REMARK SMILES IDX 86 14 37 15 91 16 85 17 87 18 38 19 90 20 84 21 83 22 39 24
REMARK SMILES IDX 71 25 51 26 70 27 52 28 55 29 69 30 88 31 53 32 54 33 68 35
REMARK SMILES IDX 89 36 56 37 40 38 41 39 49 40 42 41 44 42 50 43 43 44 45 45
REMARK SMILES IDX 46 46 47 47 48 48 72 49 73 50 81 51 74 52 76 53 82 54 75 55
REMARK SMILES IDX 77 56 78 57 79 58 80 59 57 60 58 61 66 62 59 63 61 64 67 65
REMARK SMILES IDX 60 66 62 67 63 68 64 69 65 70 5 71 6 72 7 73 8 74 9 75 10 77
REMARK SMILES IDX 11 78 12 79 30 80 13 81 22 82 15 83 16 84 20 85 17 86 19 87
REMARK SMILES IDX 21 88 18 89 14 90 23 92 24 93 28 94 25 95 27 96 29 97 26 98
REMARK H PARENT 3 5 87 23 55 34 8 76 14 91
REMARK Flexibility Score: inf
ROOT
ATOM      1  C   UNL A   1      34.099  34.168  28.011  1.00  0.00     0.116 C 
ENDROOT
BRANCH   1   2
ATOM      2  N   UNL A   1      33.285  34.838  29.016  1.00  0.00    -0.352 N 
ATOM      3  O   UNL A   1      32.564  35.343  31.096  1.00  0.00    -0.269 OA
ATOM      4  C   UNL A   1      33.415  34.832  30.390  1.00  0.00     0.251 C 
ATOM      5  H   UNL A   1      32.534  35.371  28.666  1.00  0.00     0.163 HD
BRANCH   4   6
ATOM      6  C   UNL A   1      34.595  34.164  30.983  1.00  0.00     0.039 A 
ATOM      7  C   UNL A   1      35.872  34.677  30.749  1.00  0.00     0.014 A 
ATOM      8  C   UNL A   1      34.422  32.997  31.730  1.00  0.00     0.014 A 
ATOM      9  C   UNL A   1      36.985  33.932  31.116  1.00  0.00     0.010 A 
ATOM     10  C   UNL A   1      35.546  32.297  32.180  1.00  0.00     0.010 A 
ATOM     11  C   UNL A   1      36.836  32.739  31.846  1.00  0.00    -0.014 A 
BRANCH  11  12
ATOM     12  C   UNL A   1      38.049  32.033  32.325  1.00  0.00     0.031 A 
ATOM     13  C   UNL A   1      38.689  32.364  33.645  1.00  0.00     0.074 A 
ATOM     14  C   UNL A   1      38.572  31.073  31.537  1.00  0.00     0.049 A 
ATOM     15  N   UNL A   1      39.738  31.817  34.204  1.00  0.00    -0.248 NA
ATOM     16  C   UNL A   1      38.086  33.447  34.441  1.00  0.00     0.031 C 
ATOM     17  C   UNL A   1      38.063  30.707  30.212  1.00  0.00     0.029 A 
ATOM     18  N   UNL A   1      39.640  30.235  31.723  1.00  0.00    -0.354 N 
ATOM     19  C   UNL A   1      39.950  32.513  35.389  1.00  0.00     0.074 A 
ATOM     20  C   UNL A   1      38.916  33.521  35.474  1.00  0.00     0.031 C 
ATOM     21  C   UNL A   1      38.801  29.706  29.716  1.00  0.00     0.029 A 
ATOM     22  C   UNL A   1      39.868  29.396  30.659  1.00  0.00     0.049 A 
ATOM     23  H   UNL A   1      40.191  30.235  32.540  1.00  0.00     0.167 HD
ATOM     24  C   UNL A   1      40.914  32.317  36.321  1.00  0.00     0.034 A 
ATOM     25  C   UNL A   1      40.842  28.489  30.450  1.00  0.00     0.034 A 
ATOM     26  C   UNL A   1      41.907  31.276  36.250  1.00  0.00     0.049 A 
ATOM     27  C   UNL A   1      41.868  28.273  31.522  1.00  0.00     0.074 A 
ATOM     28  C   UNL A   1      42.867  30.940  37.190  1.00  0.00     0.029 A 
ATOM     29  N   UNL A   1      42.077  30.412  35.181  1.00  0.00    -0.354 N 
ATOM     30  N   UNL A   1      41.960  28.841  32.699  1.00  0.00    -0.248 NA
ATOM     31  C   UNL A   1      42.912  27.278  31.247  1.00  0.00     0.031 C 
ATOM     32  C   UNL A   1      43.627  29.883  36.681  1.00  0.00     0.029 A 
ATOM     33  C   UNL A   1      43.135  29.554  35.429  1.00  0.00     0.049 A 
ATOM     34  H   UNL A   1      41.526  30.408  34.365  1.00  0.00     0.167 HD
ATOM     35  C   UNL A   1      43.063  28.264  33.312  1.00  0.00     0.074 A 
ATOM     36  C   UNL A   1      43.584  27.274  32.391  1.00  0.00     0.031 C 
ATOM     37  C   UNL A   1      43.614  28.546  34.518  1.00  0.00     0.034 A 
BRANCH  24  38
ATOM     38  C   UNL A   1      40.929  33.209  37.535  1.00  0.00     0.023 A 
ATOM     39  C   UNL A   1      40.137  32.875  38.651  1.00  0.00     0.012 A 
ATOM     40  C   UNL A   1      41.814  34.304  37.616  1.00  0.00     0.148 A 
ATOM     41  C   UNL A   1      40.218  33.621  39.827  1.00  0.00     0.002 A 
ATOM     42  C   UNL A   1      41.912  35.022  38.803  1.00  0.00     0.091 A 
ATOM     43  F   UNL A   1      42.546  34.614  36.537  1.00  0.00    -0.205 F 
ATOM     44  C   UNL A   1      41.112  34.685  39.907  1.00  0.00     0.022 A 
BRANCH  42  45
ATOM     45  S   UNL A   1      43.084  36.366  39.032  1.00  0.00     0.127 S 
ATOM     46  O   UNL A   1      42.639  37.320  38.018  1.00  0.00    -0.237 OA
ATOM     47  O   UNL A   1      42.818  36.775  40.412  1.00  0.00    -0.237 OA
ATOM     48  O   UNL A   1      44.403  35.792  38.811  1.00  0.00    -0.744 OA
ENDBRANCH  42  45
ENDBRANCH  24  38
BRANCH  25  49
ATOM     49  C   UNL A   1      40.857  27.704  29.186  1.00  0.00     0.023 A 
ATOM     50  C   UNL A   1      39.942  26.650  29.010  1.00  0.00     0.012 A 
ATOM     51  C   UNL A   1      41.732  28.036  28.134  1.00  0.00     0.148 A 
ATOM     52  C   UNL A   1      39.913  25.926  27.818  1.00  0.00     0.002 A 
ATOM     53  C   UNL A   1      41.656  27.352  26.926  1.00  0.00     0.091 A 
ATOM     54  F   UNL A   1      42.615  29.027  28.322  1.00  0.00    -0.205 F 
ATOM     55  C   UNL A   1      40.758  26.285  26.771  1.00  0.00     0.022 A 
BRANCH  53  56
ATOM     56  S   UNL A   1      42.602  27.880  25.493  1.00  0.00     0.127 S 
ATOM     57  O   UNL A   1      42.517  26.709  24.627  1.00  0.00    -0.237 OA
ATOM     58  O   UNL A   1      41.847  29.045  25.030  1.00  0.00    -0.237 OA
ATOM     59  O   UNL A   1      43.924  28.202  26.017  1.00  0.00    -0.744 OA
ENDBRANCH  53  56
ENDBRANCH  25  49
BRANCH  37  60
ATOM     60  C   UNL A   1      44.843  27.774  34.909  1.00  0.00     0.023 A 
ATOM     61  C   UNL A   1      46.114  28.317  34.634  1.00  0.00     0.012 A 
ATOM     62  C   UNL A   1      44.745  26.545  35.588  1.00  0.00     0.148 A 
ATOM     63  C   UNL A   1      47.271  27.632  35.003  1.00  0.00     0.002 A 
ATOM     64  C   UNL A   1      45.902  25.890  35.990  1.00  0.00     0.091 A 
ATOM     65  F   UNL A   1      43.527  26.036  35.819  1.00  0.00    -0.205 F 
ATOM     66  C   UNL A   1      47.165  26.425  35.690  1.00  0.00     0.022 A 
BRANCH  64  67
ATOM     67  S   UNL A   1      45.855  24.374  36.953  1.00  0.00     0.127 S 
ATOM     68  O   UNL A   1      47.276  24.102  37.153  1.00  0.00    -0.237 OA
ATOM     69  O   UNL A   1      45.138  24.790  38.160  1.00  0.00    -0.237 OA
ATOM     70  O   UNL A   1      45.138  23.406  36.134  1.00  0.00    -0.744 OA
ENDBRANCH  64  67
ENDBRANCH  37  60
ENDBRANCH  11  12
ENDBRANCH   4   6
ENDBRANCH   1   2
BRANCH   1  71
ATOM     71  C   UNL A   1      33.932  32.653  28.010  1.00  0.00     0.023 C 
BRANCH  71  72
ATOM     72  C   UNL A   1      35.228  31.860  28.113  1.00  0.00     0.023 C 
BRANCH  72  73
ATOM     73  C   UNL A   1      35.138  30.409  27.657  1.00  0.00     0.116 C 
BRANCH  73  74
ATOM     74  N   UNL A   1      33.820  29.831  27.785  1.00  0.00    -0.354 N 
ATOM     75  C   UNL A   1      33.268  28.722  27.230  1.00  0.00     0.249 C 
ATOM     76  H   UNL A   1      33.216  30.330  28.381  1.00  0.00     0.163 HD
ATOM     77  O   UNL A   1      32.126  28.448  27.625  1.00  0.00    -0.272 OA
BRANCH  75  78
ATOM     78  C   UNL A   1      33.952  27.770  26.207  1.00  0.00     0.211 C 
ATOM     79  C   UNL A   1      33.671  26.293  26.173  1.00  0.00     0.085 C 
ATOM     80  O   UNL A   1      33.903  28.205  24.852  1.00  0.00    -0.357 OA
ATOM     81  C   UNL A   1      32.794  26.040  24.927  1.00  0.00     0.124 C 
ATOM     82  C   UNL A   1      32.998  27.364  24.095  1.00  0.00     0.187 C 
BRANCH  81  83
ATOM     83  C   UNL A   1      33.128  24.601  24.489  1.00  0.00     0.005 A 
ATOM     84  C   UNL A   1      34.498  24.226  24.650  1.00  0.00     0.008 A 
ATOM     85  C   UNL A   1      32.298  23.648  23.883  1.00  0.00     0.047 A 
ATOM     86  C   UNL A   1      35.009  22.997  24.236  1.00  0.00     0.001 A 
ATOM     87  C   UNL A   1      32.816  22.399  23.482  1.00  0.00     0.021 A 
ATOM     88  Cl  UNL A   1      30.634  23.881  23.517  1.00  0.00    -0.084 Cl
ATOM     89  C   UNL A   1      34.162  22.076  23.650  1.00  0.00     0.002 A 
ENDBRANCH  81  83
BRANCH  81  90
ATOM     90  O   UNL A   1      31.412  25.956  25.328  1.00  0.00    -0.382 OA
ATOM     91  H   UNL A   1      31.347  26.070  26.289  1.00  0.00     0.212 HD
ENDBRANCH  81  90
BRANCH  82  92
ATOM     92  C   UNL A   1      31.758  28.201  23.745  1.00  0.00     0.003 A 
ATOM     93  C   UNL A   1      31.431  29.357  24.490  1.00  0.00     0.008 A 
ATOM     94  C   UNL A   1      30.927  27.892  22.655  1.00  0.00     0.046 A 
ATOM     95  C   UNL A   1      30.307  30.132  24.197  1.00  0.00     0.000 A 
ATOM     96  C   UNL A   1      29.802  28.675  22.356  1.00  0.00     0.021 A 
ATOM     97  Cl  UNL A   1      31.240  26.540  21.626  1.00  0.00    -0.084 Cl
ATOM     98  C   UNL A   1      29.487  29.788  23.133  1.00  0.00     0.002 A 
ENDBRANCH  82  92
ENDBRANCH  75  78
ENDBRANCH  73  74
ENDBRANCH  72  73
ENDBRANCH  71  72
ENDBRANCH   1  71
TORSDOF 17
ENDMDL
