MODEL 1
REMARK VINA RESULT:     -11.0      0.000      0.000
REMARK SMILES CCOc1cc(OCC)cc(-c2ccc([C@@H](C)C(=O)NCCCCNC(=O)c3ccc(-c4c5nc(c(-c6cccc(S(=O)(=O)[O-])c6F)c6ccc([nH]6)c(-c6cccc(S(=O)(=O)[O-])c6F)c6nc(c(-c7cccc(S(=O)(=O)[O-])c7F)c7ccc4[nH]7)C=C6)C=C5)cc3)cc2F)c1
REMARK SMILES IDX 22 1 21 2 20 3 18 4 19 5 16 7 17 8 15 9 12 10 13 11 92 12
REMARK SMILES IDX 14 13 91 14 93 15 11 16 4 17 5 18 94 19 6 20 10 21 3 22 2 23
REMARK SMILES IDX 1 24 7 25 8 26 9 27 23 28 24 29 25 30 26 31 27 33 28 34
REMARK SMILES IDX 29 35 90 36 30 37 89 38 31 39 32 40 33 41 83 42 34 43 88 44
REMARK SMILES IDX 82 45 84 46 35 47 87 48 81 49 80 50 36 52 68 53 48 54 67 55
REMARK SMILES IDX 49 56 52 57 66 58 85 59 50 60 51 61 65 63 86 64 53 65 37 66
REMARK SMILES IDX 38 67 46 68 39 69 41 70 47 71 40 72 42 73 43 74 44 75 45 76
REMARK SMILES IDX 69 77 70 78 78 79 71 80 73 81 79 82 72 83 74 84 75 85 76 86
REMARK SMILES IDX 77 87 54 88 55 89 63 90 56 91 58 92 64 93 57 94 59 95 60 96
REMARK SMILES IDX 61 97 62 98
REMARK H PARENT 20 6 25 32 84 51 52 62
REMARK Flexibility Score: inf
ROOT
ATOM      1  C   UNL A   1      36.633  20.144  24.989  1.00  0.00     0.023 C 
ENDROOT
BRANCH   1   2
ATOM      2  C   UNL A   1      35.155  20.523  24.880  1.00  0.00     0.116 C 
BRANCH   2   3
ATOM      3  N   UNL A   1      34.290  19.565  25.538  1.00  0.00    -0.356 N 
ATOM      4  C   UNL A   1      33.036  19.123  25.249  1.00  0.00     0.227 C 
ATOM      5  O   UNL A   1      32.534  18.319  26.044  1.00  0.00    -0.274 OA
ATOM      6  H   UNL A   1      34.683  19.157  26.344  1.00  0.00     0.163 HD
BRANCH   4   7
ATOM      7  C   UNL A   1      32.235  19.560  24.012  1.00  0.00     0.105 C 
ATOM      8  C   UNL A   1      32.731  18.960  22.696  1.00  0.00     0.023 C 
BRANCH   7   9
ATOM      9  C   UNL A   1      31.932  21.048  23.987  1.00  0.00    -0.033 A 
ATOM     10  C   UNL A   1      31.539  23.883  24.085  1.00  0.00     0.018 A 
ATOM     11  C   UNL A   1      32.034  23.237  22.938  1.00  0.00     0.012 A 
ATOM     12  C   UNL A   1      31.211  23.055  25.169  1.00  0.00     0.131 A 
ATOM     13  C   UNL A   1      32.184  21.848  22.873  1.00  0.00     0.005 A 
ATOM     14  C   UNL A   1      31.424  21.673  25.134  1.00  0.00     0.044 A 
ATOM     15  F   UNL A   1      30.677  23.569  26.288  1.00  0.00    -0.206 F 
BRANCH  10  16
ATOM     16  C   UNL A   1      31.415  25.360  24.114  1.00  0.00    -0.008 A 
ATOM     17  C   UNL A   1      32.342  27.580  24.507  1.00  0.00     0.123 A 
ATOM     18  C   UNL A   1      31.187  28.175  23.998  1.00  0.00     0.092 A 
ATOM     19  C   UNL A   1      32.448  26.190  24.573  1.00  0.00     0.055 A 
ATOM     20  C   UNL A   1      30.133  27.381  23.553  1.00  0.00     0.123 A 
ATOM     21  C   UNL A   1      30.250  25.992  23.634  1.00  0.00     0.055 A 
BRANCH  17  22
ATOM     22  O   UNL A   1      33.302  28.392  25.047  1.00  0.00    -0.494 OA
BRANCH  22  23
ATOM     23  C   UNL A   1      33.661  28.049  26.392  1.00  0.00     0.226 C 
ATOM     24  C   UNL A   1      32.548  28.370  27.379  1.00  0.00     0.049 C 
ENDBRANCH  22  23
ENDBRANCH  17  22
BRANCH  20  25
ATOM     25  O   UNL A   1      29.054  28.054  23.043  1.00  0.00    -0.494 OA
BRANCH  25  26
ATOM     26  C   UNL A   1      29.016  29.477  23.179  1.00  0.00     0.226 C 
ATOM     27  C   UNL A   1      27.721  30.065  22.637  1.00  0.00     0.049 C 
ENDBRANCH  25  26
ENDBRANCH  20  25
ENDBRANCH  10  16
ENDBRANCH   7   9
ENDBRANCH   4   7
ENDBRANCH   2   3
ENDBRANCH   1   2
BRANCH   1  28
ATOM     28  C   UNL A   1      37.619  21.288  24.757  1.00  0.00     0.023 C 
BRANCH  28  29
ATOM     29  C   UNL A   1      38.652  21.497  25.860  1.00  0.00     0.116 C 
BRANCH  29  30
ATOM     30  N   UNL A   1      39.609  20.409  25.992  1.00  0.00    -0.352 N 
ATOM     31  C   UNL A   1      40.930  20.476  26.387  1.00  0.00     0.251 C 
ATOM     32  H   UNL A   1      39.272  19.510  25.771  1.00  0.00     0.163 HD
ATOM     33  O   UNL A   1      41.628  19.479  26.376  1.00  0.00    -0.269 OA
BRANCH  31  34
ATOM     34  C   UNL A   1      41.493  21.789  26.780  1.00  0.00     0.039 A 
ATOM     35  C   UNL A   1      41.868  22.688  25.778  1.00  0.00     0.014 A 
ATOM     36  C   UNL A   1      41.595  22.148  28.126  1.00  0.00     0.014 A 
ATOM     37  C   UNL A   1      42.277  23.978  26.128  1.00  0.00     0.010 A 
ATOM     38  C   UNL A   1      41.925  23.455  28.467  1.00  0.00     0.010 A 
ATOM     39  C   UNL A   1      42.273  24.383  27.474  1.00  0.00    -0.014 A 
BRANCH  39  40
ATOM     40  C   UNL A   1      42.621  25.772  27.864  1.00  0.00     0.031 A 
ATOM     41  C   UNL A   1      44.051  26.238  27.806  1.00  0.00     0.074 A 
ATOM     42  C   UNL A   1      41.667  26.584  28.363  1.00  0.00     0.049 A 
ATOM     43  N   UNL A   1      44.555  27.393  28.151  1.00  0.00    -0.248 NA
ATOM     44  C   UNL A   1      45.050  25.265  27.331  1.00  0.00     0.031 C 
ATOM     45  C   UNL A   1      40.262  26.217  28.565  1.00  0.00     0.029 A 
ATOM     46  N   UNL A   1      41.739  27.878  28.816  1.00  0.00    -0.354 N 
ATOM     47  C   UNL A   1      45.929  27.276  27.973  1.00  0.00     0.074 A 
ATOM     48  C   UNL A   1      46.184  25.923  27.528  1.00  0.00     0.031 C 
ATOM     49  C   UNL A   1      39.606  27.264  29.092  1.00  0.00     0.029 A 
ATOM     50  C   UNL A   1      40.541  28.368  29.283  1.00  0.00     0.049 A 
ATOM     51  H   UNL A   1      42.570  28.406  28.807  1.00  0.00     0.167 HD
ATOM     52  C   UNL A   1      46.890  28.217  28.129  1.00  0.00     0.034 A 
ATOM     53  C   UNL A   1      40.231  29.574  29.799  1.00  0.00     0.034 A 
ATOM     54  C   UNL A   1      46.625  29.578  28.507  1.00  0.00     0.049 A 
ATOM     55  C   UNL A   1      41.302  30.628  29.884  1.00  0.00     0.074 A 
ATOM     56  C   UNL A   1      47.512  30.636  28.591  1.00  0.00     0.029 A 
ATOM     57  N   UNL A   1      45.379  30.072  28.862  1.00  0.00    -0.354 N 
ATOM     58  N   UNL A   1      42.565  30.549  29.541  1.00  0.00    -0.248 NA
ATOM     59  C   UNL A   1      40.897  31.949  30.386  1.00  0.00     0.031 C 
ATOM     60  C   UNL A   1      46.803  31.770  29.003  1.00  0.00     0.029 A 
ATOM     61  C   UNL A   1      45.472  31.419  29.165  1.00  0.00     0.049 A 
ATOM     62  H   UNL A   1      44.550  29.541  28.894  1.00  0.00     0.167 HD
ATOM     63  C   UNL A   1      43.097  31.816  29.752  1.00  0.00     0.074 A 
ATOM     64  C   UNL A   1      42.013  32.649  30.231  1.00  0.00     0.031 C 
ATOM     65  C   UNL A   1      44.371  32.248  29.582  1.00  0.00     0.034 A 
BRANCH  52  66
ATOM     66  C   UNL A   1      48.308  27.824  27.813  1.00  0.00     0.023 A 
ATOM     67  C   UNL A   1      49.130  27.322  28.844  1.00  0.00     0.012 A 
ATOM     68  C   UNL A   1      48.815  27.902  26.502  1.00  0.00     0.148 A 
ATOM     69  C   UNL A   1      50.445  26.939  28.582  1.00  0.00     0.002 A 
ATOM     70  C   UNL A   1      50.114  27.479  26.241  1.00  0.00     0.091 A 
ATOM     71  F   UNL A   1      48.028  28.404  25.539  1.00  0.00    -0.205 F 
ATOM     72  C   UNL A   1      50.932  27.009  27.281  1.00  0.00     0.022 A 
BRANCH  70  73
ATOM     73  S   UNL A   1      50.809  27.460  24.585  1.00  0.00     0.127 S 
ATOM     74  O   UNL A   1      50.920  28.890  24.295  1.00  0.00    -0.237 OA
ATOM     75  O   UNL A   1      52.088  26.780  24.793  1.00  0.00    -0.237 OA
ATOM     76  O   UNL A   1      49.861  26.725  23.762  1.00  0.00    -0.744 OA
ENDBRANCH  70  73
ENDBRANCH  52  66
BRANCH  53  77
ATOM     77  C   UNL A   1      38.824  29.878  30.184  1.00  0.00     0.023 A 
ATOM     78  C   UNL A   1      38.370  29.514  31.466  1.00  0.00     0.012 A 
ATOM     79  C   UNL A   1      37.948  30.551  29.311  1.00  0.00     0.148 A 
ATOM     80  C   UNL A   1      37.060  29.787  31.863  1.00  0.00     0.002 A 
ATOM     81  C   UNL A   1      36.659  30.866  29.731  1.00  0.00     0.091 A 
ATOM     82  F   UNL A   1      38.393  30.878  28.090  1.00  0.00    -0.205 F 
ATOM     83  C   UNL A   1      36.208  30.470  30.999  1.00  0.00     0.022 A 
BRANCH  81  84
ATOM     84  S   UNL A   1      35.541  31.857  28.734  1.00  0.00     0.127 S 
ATOM     85  O   UNL A   1      34.467  32.142  29.680  1.00  0.00    -0.237 OA
ATOM     86  O   UNL A   1      36.379  33.006  28.387  1.00  0.00    -0.237 OA
ATOM     87  O   UNL A   1      35.184  31.016  27.599  1.00  0.00    -0.744 OA
ENDBRANCH  81  84
ENDBRANCH  53  77
BRANCH  65  88
ATOM     88  C   UNL A   1      44.668  33.692  29.888  1.00  0.00     0.023 A 
ATOM     89  C   UNL A   1      44.960  34.077  31.211  1.00  0.00     0.012 A 
ATOM     90  C   UNL A   1      44.736  34.647  28.855  1.00  0.00     0.148 A 
ATOM     91  C   UNL A   1      45.291  35.399  31.506  1.00  0.00     0.002 A 
ATOM     92  C   UNL A   1      45.110  35.953  29.151  1.00  0.00     0.091 A 
ATOM     93  F   UNL A   1      44.432  34.266  27.606  1.00  0.00    -0.205 F 
ATOM     94  C   UNL A   1      45.378  36.333  30.476  1.00  0.00     0.022 A 
BRANCH  92  95
ATOM     95  S   UNL A   1      45.338  37.196  27.873  1.00  0.00     0.127 S 
ATOM     96  O   UNL A   1      46.358  36.576  27.031  1.00  0.00    -0.237 OA
ATOM     97  O   UNL A   1      44.008  37.269  27.266  1.00  0.00    -0.237 OA
ATOM     98  O   UNL A   1      45.746  38.409  28.569  1.00  0.00    -0.744 OA
ENDBRANCH  92  95
ENDBRANCH  65  88
ENDBRANCH  39  40
ENDBRANCH  31  34
ENDBRANCH  29  30
ENDBRANCH  28  29
ENDBRANCH   1  28
TORSDOF 20
ENDMDL
MODEL 2
REMARK VINA RESULT:     -10.9      4.724      8.183
REMARK SMILES CCOc1cc(OCC)cc(-c2ccc([C@@H](C)C(=O)NCCCCNC(=O)c3ccc(-c4c5nc(c(-c6cccc(S(=O)(=O)[O-])c6F)c6ccc([nH]6)c(-c6cccc(S(=O)(=O)[O-])c6F)c6nc(c(-c7cccc(S(=O)(=O)[O-])c7F)c7ccc4[nH]7)C=C6)C=C5)cc3)cc2F)c1
REMARK SMILES IDX 22 1 21 2 20 3 18 4 19 5 16 7 17 8 15 9 12 10 13 11 92 12
REMARK SMILES IDX 14 13 91 14 93 15 11 16 4 17 5 18 94 19 6 20 10 21 3 22 2 23
REMARK SMILES IDX 1 24 7 25 8 26 9 27 23 28 24 29 25 30 26 31 27 33 28 34
REMARK SMILES IDX 29 35 90 36 30 37 89 38 31 39 32 40 33 41 83 42 34 43 88 44
REMARK SMILES IDX 82 45 84 46 35 47 87 48 81 49 80 50 36 52 68 53 48 54 67 55
REMARK SMILES IDX 49 56 52 57 66 58 85 59 50 60 51 61 65 63 86 64 53 65 37 66
REMARK SMILES IDX 38 67 46 68 39 69 41 70 47 71 40 72 42 73 43 74 44 75 45 76
REMARK SMILES IDX 69 77 70 78 78 79 71 80 73 81 79 82 72 83 74 84 75 85 76 86
REMARK SMILES IDX 77 87 54 88 55 89 63 90 56 91 58 92 64 93 57 94 59 95 60 96
REMARK SMILES IDX 61 97 62 98
REMARK H PARENT 20 6 25 32 84 51 52 62
REMARK Flexibility Score: inf
ROOT
ATOM      1  C   UNL A   1      42.888  23.547  28.797  1.00  0.00     0.023 C 
ENDROOT
BRANCH   1   2
ATOM      2  C   UNL A   1      44.179  23.317  29.585  1.00  0.00     0.116 C 
BRANCH   2   3
ATOM      3  N   UNL A   1      44.072  23.760  30.961  1.00  0.00    -0.356 N 
ATOM      4  C   UNL A   1      44.306  24.964  31.549  1.00  0.00     0.227 C 
ATOM      5  O   UNL A   1      44.168  25.017  32.777  1.00  0.00    -0.274 OA
ATOM      6  H   UNL A   1      43.775  23.059  31.585  1.00  0.00     0.163 HD
BRANCH   4   7
ATOM      7  C   UNL A   1      44.718  26.230  30.781  1.00  0.00     0.105 C 
ATOM      8  C   UNL A   1      46.228  26.417  30.638  1.00  0.00     0.023 C 
BRANCH   7   9
ATOM      9  C   UNL A   1      43.936  27.465  31.194  1.00  0.00    -0.033 A 
ATOM     10  C   UNL A   1      42.399  29.678  32.165  1.00  0.00     0.018 A 
ATOM     11  C   UNL A   1      43.805  29.702  32.131  1.00  0.00     0.012 A 
ATOM     12  C   UNL A   1      41.788  28.521  31.660  1.00  0.00     0.131 A 
ATOM     13  C   UNL A   1      44.555  28.642  31.615  1.00  0.00     0.005 A 
ATOM     14  C   UNL A   1      42.535  27.428  31.207  1.00  0.00     0.044 A 
ATOM     15  F   UNL A   1      40.451  28.424  31.596  1.00  0.00    -0.206 F 
BRANCH  10  16
ATOM     16  C   UNL A   1      41.646  30.820  32.738  1.00  0.00    -0.008 A 
ATOM     17  C   UNL A   1      39.714  31.743  33.902  1.00  0.00     0.123 A 
ATOM     18  C   UNL A   1      40.323  32.996  33.962  1.00  0.00     0.092 A 
ATOM     19  C   UNL A   1      40.364  30.672  33.288  1.00  0.00     0.055 A 
ATOM     20  C   UNL A   1      41.587  33.184  33.408  1.00  0.00     0.123 A 
ATOM     21  C   UNL A   1      42.222  32.105  32.789  1.00  0.00     0.055 A 
BRANCH  17  22
ATOM     22  O   UNL A   1      38.425  31.630  34.347  1.00  0.00    -0.494 OA
BRANCH  22  23
ATOM     23  C   UNL A   1      38.285  31.786  35.765  1.00  0.00     0.226 C 
ATOM     24  C   UNL A   1      38.230  30.447  36.484  1.00  0.00     0.049 C 
ENDBRANCH  22  23
ENDBRANCH  17  22
BRANCH  20  25
ATOM     25  O   UNL A   1      42.117  34.440  33.542  1.00  0.00    -0.494 OA
BRANCH  25  26
ATOM     26  C   UNL A   1      41.776  35.199  34.705  1.00  0.00     0.226 C 
ATOM     27  C   UNL A   1      42.667  36.421  34.869  1.00  0.00     0.049 C 
ENDBRANCH  25  26
ENDBRANCH  20  25
ENDBRANCH  10  16
ENDBRANCH   7   9
ENDBRANCH   4   7
ENDBRANCH   2   3
ENDBRANCH   1   2
BRANCH   1  28
ATOM     28  C   UNL A   1      42.127  22.280  28.410  1.00  0.00     0.023 C 
BRANCH  28  29
ATOM     29  C   UNL A   1      41.918  22.073  26.913  1.00  0.00     0.116 C 
BRANCH  29  30
ATOM     30  N   UNL A   1      40.546  21.766  26.541  1.00  0.00    -0.352 N 
ATOM     31  C   UNL A   1      39.458  22.616  26.509  1.00  0.00     0.251 C 
ATOM     32  H   UNL A   1      40.369  20.833  26.278  1.00  0.00     0.163 HD
ATOM     33  O   UNL A   1      38.349  22.189  26.245  1.00  0.00    -0.269 OA
BRANCH  31  34
ATOM     34  C   UNL A   1      39.657  24.045  26.846  1.00  0.00     0.039 A 
ATOM     35  C   UNL A   1      39.384  24.475  28.147  1.00  0.00     0.014 A 
ATOM     36  C   UNL A   1      40.164  24.937  25.899  1.00  0.00     0.014 A 
ATOM     37  C   UNL A   1      39.690  25.787  28.517  1.00  0.00     0.010 A 
ATOM     38  C   UNL A   1      40.541  26.218  26.291  1.00  0.00     0.010 A 
ATOM     39  C   UNL A   1      40.306  26.658  27.602  1.00  0.00    -0.014 A 
BRANCH  39  40
ATOM     40  C   UNL A   1      40.719  28.028  27.996  1.00  0.00     0.031 A 
ATOM     41  C   UNL A   1      42.170  28.424  27.944  1.00  0.00     0.074 A 
ATOM     42  C   UNL A   1      39.804  28.885  28.491  1.00  0.00     0.049 A 
ATOM     43  N   UNL A   1      42.729  29.553  28.292  1.00  0.00    -0.248 NA
ATOM     44  C   UNL A   1      43.123  27.404  27.472  1.00  0.00     0.031 C 
ATOM     45  C   UNL A   1      38.382  28.587  28.686  1.00  0.00     0.029 A 
ATOM     46  N   UNL A   1      39.937  30.173  28.946  1.00  0.00    -0.354 N 
ATOM     47  C   UNL A   1      44.096  29.369  28.121  1.00  0.00     0.074 A 
ATOM     48  C   UNL A   1      44.286  28.006  27.675  1.00  0.00     0.031 C 
ATOM     49  C   UNL A   1      37.775  29.664  29.212  1.00  0.00     0.029 A 
ATOM     50  C   UNL A   1      38.761  30.721  29.408  1.00  0.00     0.049 A 
ATOM     51  H   UNL A   1      40.792  30.660  28.941  1.00  0.00     0.167 HD
ATOM     52  C   UNL A   1      45.100  30.263  28.281  1.00  0.00     0.034 A 
ATOM     53  C   UNL A   1      38.508  31.940  29.924  1.00  0.00     0.034 A 
ATOM     54  C   UNL A   1      44.901  31.635  28.660  1.00  0.00     0.049 A 
ATOM     55  C   UNL A   1      39.629  32.940  30.015  1.00  0.00     0.074 A 
ATOM     56  C   UNL A   1      45.838  32.648  28.748  1.00  0.00     0.029 A 
ATOM     57  N   UNL A   1      43.678  32.188  29.009  1.00  0.00    -0.354 N 
ATOM     58  N   UNL A   1      40.888  32.801  29.677  1.00  0.00    -0.248 NA
ATOM     59  C   UNL A   1      39.286  34.280  30.516  1.00  0.00     0.031 C 
ATOM     60  C   UNL A   1      45.183  33.815  29.158  1.00  0.00     0.029 A 
ATOM     61  C   UNL A   1      43.836  33.528  29.315  1.00  0.00     0.049 A 
ATOM     62  H   UNL A   1      42.824  31.698  29.037  1.00  0.00     0.167 HD
ATOM     63  C   UNL A   1      41.480  34.041  29.891  1.00  0.00     0.074 A 
ATOM     64  C   UNL A   1      40.435  34.925  30.367  1.00  0.00     0.031 C 
ATOM     65  C   UNL A   1      42.774  34.410  29.728  1.00  0.00     0.034 A 
BRANCH  52  66
ATOM     66  C   UNL A   1      46.499  29.801  27.971  1.00  0.00     0.023 A 
ATOM     67  C   UNL A   1      46.893  29.650  26.625  1.00  0.00     0.012 A 
ATOM     68  C   UNL A   1      47.435  29.562  28.995  1.00  0.00     0.148 A 
ATOM     69  C   UNL A   1      48.184  29.233  26.304  1.00  0.00     0.002 A 
ATOM     70  C   UNL A   1      48.733  29.187  28.666  1.00  0.00     0.091 A 
ATOM     71  F   UNL A   1      47.037  29.687  30.270  1.00  0.00    -0.205 F 
ATOM     72  C   UNL A   1      49.105  29.011  27.323  1.00  0.00     0.022 A 
BRANCH  70  73
ATOM     73  S   UNL A   1      50.014  28.949  29.904  1.00  0.00     0.127 S 
ATOM     74  O   UNL A   1      51.166  28.605  29.072  1.00  0.00    -0.237 OA
ATOM     75  O   UNL A   1      50.088  30.269  30.531  1.00  0.00    -0.237 OA
ATOM     76  O   UNL A   1      49.532  27.890  30.778  1.00  0.00    -0.744 OA
ENDBRANCH  70  73
ENDBRANCH  52  66
BRANCH  53  77
ATOM     77  C   UNL A   1      37.116  32.312  30.303  1.00  0.00     0.023 A 
ATOM     78  C   UNL A   1      36.671  32.057  31.614  1.00  0.00     0.012 A 
ATOM     79  C   UNL A   1      36.246  32.943  29.393  1.00  0.00     0.148 A 
ATOM     80  C   UNL A   1      35.374  32.395  32.006  1.00  0.00     0.002 A 
ATOM     81  C   UNL A   1      34.973  33.325  29.805  1.00  0.00     0.091 A 
ATOM     82  F   UNL A   1      36.682  33.167  28.146  1.00  0.00    -0.205 F 
ATOM     83  C   UNL A   1      34.529  33.037  31.105  1.00  0.00     0.022 A 
BRANCH  81  84
ATOM     84  S   UNL A   1      33.868  34.272  28.752  1.00  0.00     0.127 S 
ATOM     85  O   UNL A   1      33.443  33.267  27.782  1.00  0.00    -0.237 OA
ATOM     86  O   UNL A   1      32.834  34.695  29.696  1.00  0.00    -0.237 OA
ATOM     87  O   UNL A   1      34.677  35.364  28.225  1.00  0.00    -0.744 OA
ENDBRANCH  81  84
ENDBRANCH  53  77
BRANCH  65  88
ATOM     88  C   UNL A   1      43.139  35.838  30.036  1.00  0.00     0.023 A 
ATOM     89  C   UNL A   1      43.748  36.149  31.267  1.00  0.00     0.012 A 
ATOM     90  C   UNL A   1      42.954  36.852  29.076  1.00  0.00     0.148 A 
ATOM     91  C   UNL A   1      44.143  37.456  31.550  1.00  0.00     0.002 A 
ATOM     92  C   UNL A   1      43.391  38.143  29.348  1.00  0.00     0.091 A 
ATOM     93  F   UNL A   1      42.352  36.540  27.919  1.00  0.00    -0.205 F 
ATOM     94  C   UNL A   1      43.977  38.449  30.587  1.00  0.00     0.022 A 
BRANCH  92  95
ATOM     95  S   UNL A   1      43.300  39.460  28.129  1.00  0.00     0.127 S 
ATOM     96  O   UNL A   1      44.098  38.910  27.035  1.00  0.00    -0.237 OA
ATOM     97  O   UNL A   1      41.864  39.538  27.857  1.00  0.00    -0.237 OA
ATOM     98  O   UNL A   1      43.852  40.641  28.781  1.00  0.00    -0.744 OA
ENDBRANCH  92  95
ENDBRANCH  65  88
ENDBRANCH  39  40
ENDBRANCH  31  34
ENDBRANCH  29  30
ENDBRANCH  28  29
ENDBRANCH   1  28
TORSDOF 20
ENDMDL
MODEL 3
REMARK VINA RESULT:     -10.9      1.926      2.637
REMARK SMILES CCOc1cc(OCC)cc(-c2ccc([C@@H](C)C(=O)NCCCCNC(=O)c3ccc(-c4c5nc(c(-c6cccc(S(=O)(=O)[O-])c6F)c6ccc([nH]6)c(-c6cccc(S(=O)(=O)[O-])c6F)c6nc(c(-c7cccc(S(=O)(=O)[O-])c7F)c7ccc4[nH]7)C=C6)C=C5)cc3)cc2F)c1
REMARK SMILES IDX 22 1 21 2 20 3 18 4 19 5 16 7 17 8 15 9 12 10 13 11 92 12
REMARK SMILES IDX 14 13 91 14 93 15 11 16 4 17 5 18 94 19 6 20 10 21 3 22 2 23
REMARK SMILES IDX 1 24 7 25 8 26 9 27 23 28 24 29 25 30 26 31 27 33 28 34
REMARK SMILES IDX 29 35 90 36 30 37 89 38 31 39 32 40 33 41 83 42 34 43 88 44
REMARK SMILES IDX 82 45 84 46 35 47 87 48 81 49 80 50 36 52 68 53 48 54 67 55
REMARK SMILES IDX 49 56 52 57 66 58 85 59 50 60 51 61 65 63 86 64 53 65 37 66
REMARK SMILES IDX 38 67 46 68 39 69 41 70 47 71 40 72 42 73 43 74 44 75 45 76
REMARK SMILES IDX 69 77 70 78 78 79 71 80 73 81 79 82 72 83 74 84 75 85 76 86
REMARK SMILES IDX 77 87 54 88 55 89 63 90 56 91 58 92 64 93 57 94 59 95 60 96
REMARK SMILES IDX 61 97 62 98
REMARK H PARENT 20 6 25 32 84 51 52 62
REMARK Flexibility Score: inf
ROOT
ATOM      1  C   UNL A   1      35.551  21.536  26.094  1.00  0.00     0.023 C 
ENDROOT
BRANCH   1   2
ATOM      2  C   UNL A   1      34.080  21.432  26.500  1.00  0.00     0.116 C 
BRANCH   2   3
ATOM      3  N   UNL A   1      33.612  20.061  26.531  1.00  0.00    -0.356 N 
ATOM      4  C   UNL A   1      32.777  19.366  25.711  1.00  0.00     0.227 C 
ATOM      5  O   UNL A   1      32.528  18.198  26.034  1.00  0.00    -0.274 OA
ATOM      6  H   UNL A   1      33.964  19.535  27.286  1.00  0.00     0.163 HD
BRANCH   4   7
ATOM      7  C   UNL A   1      32.150  19.944  24.433  1.00  0.00     0.105 C 
ATOM      8  C   UNL A   1      32.706  19.357  23.136  1.00  0.00     0.023 C 
BRANCH   7   9
ATOM      9  C   UNL A   1      32.006  21.456  24.465  1.00  0.00    -0.033 A 
ATOM     10  C   UNL A   1      31.857  24.304  24.723  1.00  0.00     0.018 A 
ATOM     11  C   UNL A   1      32.642  23.683  23.734  1.00  0.00     0.012 A 
ATOM     12  C   UNL A   1      31.120  23.449  25.555  1.00  0.00     0.131 A 
ATOM     13  C   UNL A   1      32.680  22.295  23.578  1.00  0.00     0.005 A 
ATOM     14  C   UNL A   1      31.207  22.057  25.448  1.00  0.00     0.044 A 
ATOM     15  F   UNL A   1      30.297  23.945  26.491  1.00  0.00    -0.206 F 
BRANCH  10  16
ATOM     16  C   UNL A   1      31.863  25.781  24.863  1.00  0.00    -0.008 A 
ATOM     17  C   UNL A   1      32.986  27.877  25.397  1.00  0.00     0.123 A 
ATOM     18  C   UNL A   1      31.880  28.605  24.957  1.00  0.00     0.092 A 
ATOM     19  C   UNL A   1      32.971  26.482  25.359  1.00  0.00     0.055 A 
ATOM     20  C   UNL A   1      30.754  27.940  24.477  1.00  0.00     0.123 A 
ATOM     21  C   UNL A   1      30.751  26.544  24.454  1.00  0.00     0.055 A 
BRANCH  17  22
ATOM     22  O   UNL A   1      34.021  28.561  25.974  1.00  0.00    -0.494 OA
BRANCH  22  23
ATOM     23  C   UNL A   1      33.620  29.768  26.636  1.00  0.00     0.226 C 
ATOM     24  C   UNL A   1      34.710  30.306  27.551  1.00  0.00     0.049 C 
ENDBRANCH  22  23
ENDBRANCH  17  22
BRANCH  20  25
ATOM     25  O   UNL A   1      29.731  28.739  24.040  1.00  0.00    -0.494 OA
BRANCH  25  26
ATOM     26  C   UNL A   1      29.472  28.800  22.635  1.00  0.00     0.226 C 
ATOM     27  C   UNL A   1      30.547  29.578  21.890  1.00  0.00     0.049 C 
ENDBRANCH  25  26
ENDBRANCH  20  25
ENDBRANCH  10  16
ENDBRANCH   7   9
ENDBRANCH   4   7
ENDBRANCH   2   3
ENDBRANCH   1   2
BRANCH   1  28
ATOM     28  C   UNL A   1      35.877  22.653  25.104  1.00  0.00     0.023 C 
BRANCH  28  29
ATOM     29  C   UNL A   1      37.243  23.308  25.282  1.00  0.00     0.116 C 
BRANCH  29  30
ATOM     30  N   UNL A   1      38.286  22.396  25.727  1.00  0.00    -0.352 N 
ATOM     31  C   UNL A   1      39.415  22.685  26.466  1.00  0.00     0.251 C 
ATOM     32  H   UNL A   1      38.173  21.453  25.467  1.00  0.00     0.163 HD
ATOM     33  O   UNL A   1      40.239  21.818  26.699  1.00  0.00    -0.269 OA
BRANCH  31  34
ATOM     34  C   UNL A   1      39.629  24.075  26.933  1.00  0.00     0.039 A 
ATOM     35  C   UNL A   1      39.289  24.404  28.248  1.00  0.00     0.014 A 
ATOM     36  C   UNL A   1      40.212  25.027  26.095  1.00  0.00     0.014 A 
ATOM     37  C   UNL A   1      39.605  25.672  28.744  1.00  0.00     0.010 A 
ATOM     38  C   UNL A   1      40.597  26.259  26.614  1.00  0.00     0.010 A 
ATOM     39  C   UNL A   1      40.295  26.596  27.942  1.00  0.00    -0.014 A 
BRANCH  39  40
ATOM     40  C   UNL A   1      40.717  27.917  28.472  1.00  0.00     0.031 A 
ATOM     41  C   UNL A   1      42.179  28.230  28.644  1.00  0.00     0.074 A 
ATOM     42  C   UNL A   1      39.785  28.797  28.890  1.00  0.00     0.049 A 
ATOM     43  N   UNL A   1      42.739  29.304  29.134  1.00  0.00    -0.248 NA
ATOM     44  C   UNL A   1      43.136  27.184  28.244  1.00  0.00     0.031 C 
ATOM     45  C   UNL A   1      38.337  28.572  28.870  1.00  0.00     0.029 A 
ATOM     46  N   UNL A   1      39.918  30.049  29.437  1.00  0.00    -0.354 N 
ATOM     47  C   UNL A   1      44.106  29.050  29.140  1.00  0.00     0.074 A 
ATOM     48  C   UNL A   1      44.288  27.705  28.641  1.00  0.00     0.031 C 
ATOM     49  C   UNL A   1      37.717  29.652  29.374  1.00  0.00     0.029 A 
ATOM     50  C   UNL A   1      38.719  30.638  29.768  1.00  0.00     0.049 A 
ATOM     51  H   UNL A   1      40.789  30.485  29.580  1.00  0.00     0.167 HD
ATOM     52  C   UNL A   1      45.122  29.874  29.491  1.00  0.00     0.034 A 
ATOM     53  C   UNL A   1      38.457  31.840  30.319  1.00  0.00     0.034 A 
ATOM     54  C   UNL A   1      44.940  31.233  29.923  1.00  0.00     0.049 A 
ATOM     55  C   UNL A   1      39.603  32.767  30.624  1.00  0.00     0.074 A 
ATOM     56  C   UNL A   1      45.905  32.183  30.201  1.00  0.00     0.029 A 
ATOM     57  N   UNL A   1      43.710  31.836  30.136  1.00  0.00    -0.354 N 
ATOM     58  N   UNL A   1      40.888  32.574  30.453  1.00  0.00    -0.248 NA
ATOM     59  C   UNL A   1      39.261  34.095  31.156  1.00  0.00     0.031 C 
ATOM     60  C   UNL A   1      45.258  33.362  30.589  1.00  0.00     0.029 A 
ATOM     61  C   UNL A   1      43.890  33.147  30.542  1.00  0.00     0.049 A 
ATOM     62  H   UNL A   1      42.837  31.396  30.017  1.00  0.00     0.167 HD
ATOM     63  C   UNL A   1      41.506  33.763  30.823  1.00  0.00     0.074 A 
ATOM     64  C   UNL A   1      40.450  34.679  31.205  1.00  0.00     0.031 C 
ATOM     65  C   UNL A   1      42.827  34.065  30.860  1.00  0.00     0.034 A 
BRANCH  52  66
ATOM     66  C   UNL A   1      46.525  29.349  29.347  1.00  0.00     0.023 A 
ATOM     67  C   UNL A   1      47.123  28.674  30.432  1.00  0.00     0.012 A 
ATOM     68  C   UNL A   1      47.234  29.478  28.138  1.00  0.00     0.148 A 
ATOM     69  C   UNL A   1      48.418  28.167  30.327  1.00  0.00     0.002 A 
ATOM     70  C   UNL A   1      48.509  28.933  28.028  1.00  0.00     0.091 A 
ATOM     71  F   UNL A   1      46.660  30.144  27.125  1.00  0.00    -0.205 F 
ATOM     72  C   UNL A   1      49.105  28.289  29.124  1.00  0.00     0.022 A 
BRANCH  70  73
ATOM     73  S   UNL A   1      49.448  28.972  26.496  1.00  0.00     0.127 S 
ATOM     74  O   UNL A   1      49.819  30.385  26.414  1.00  0.00    -0.237 OA
ATOM     75  O   UNL A   1      50.559  28.067  26.790  1.00  0.00    -0.237 OA
ATOM     76  O   UNL A   1      48.541  28.501  25.460  1.00  0.00    -0.744 OA
ENDBRANCH  70  73
ENDBRANCH  52  66
BRANCH  53  77
ATOM     77  C   UNL A   1      37.045  32.271  30.527  1.00  0.00     0.023 A 
ATOM     78  C   UNL A   1      36.424  32.010  31.763  1.00  0.00     0.012 A 
ATOM     79  C   UNL A   1      36.330  32.963  29.531  1.00  0.00     0.148 A 
ATOM     80  C   UNL A   1      35.105  32.402  31.994  1.00  0.00     0.002 A 
ATOM     81  C   UNL A   1      35.033  33.398  29.786  1.00  0.00     0.091 A 
ATOM     82  F   UNL A   1      36.934  33.192  28.356  1.00  0.00    -0.205 F 
ATOM     83  C   UNL A   1      34.413  33.104  31.010  1.00  0.00     0.022 A 
BRANCH  81  84
ATOM     84  S   UNL A   1      34.118  34.420  28.627  1.00  0.00     0.127 S 
ATOM     85  O   UNL A   1      35.035  35.538  28.423  1.00  0.00    -0.237 OA
ATOM     86  O   UNL A   1      33.974  33.524  27.479  1.00  0.00    -0.237 OA
ATOM     87  O   UNL A   1      32.864  34.738  29.296  1.00  0.00    -0.744 OA
ENDBRANCH  81  84
ENDBRANCH  53  77
BRANCH  65  88
ATOM     88  C   UNL A   1      43.216  35.450  31.303  1.00  0.00     0.023 A 
ATOM     89  C   UNL A   1      43.426  35.709  32.672  1.00  0.00     0.012 A 
ATOM     90  C   UNL A   1      43.452  36.469  30.360  1.00  0.00     0.148 A 
ATOM     91  C   UNL A   1      43.840  36.971  33.097  1.00  0.00     0.002 A 
ATOM     92  C   UNL A   1      43.907  37.710  30.788  1.00  0.00     0.091 A 
ATOM     93  F   UNL A   1      43.224  36.209  29.064  1.00  0.00    -0.205 F 
ATOM     94  C   UNL A   1      44.092  37.966  32.156  1.00  0.00     0.022 A 
BRANCH  92  95
ATOM     95  S   UNL A   1      44.345  39.017  29.636  1.00  0.00     0.127 S 
ATOM     96  O   UNL A   1      43.044  39.369  29.072  1.00  0.00    -0.237 OA
ATOM     97  O   UNL A   1      44.922  40.033  30.518  1.00  0.00    -0.237 OA
ATOM     98  O   UNL A   1      45.297  38.422  28.705  1.00  0.00    -0.744 OA
ENDBRANCH  92  95
ENDBRANCH  65  88
ENDBRANCH  39  40
ENDBRANCH  31  34
ENDBRANCH  29  30
ENDBRANCH  28  29
ENDBRANCH   1  28
TORSDOF 20
ENDMDL
