MODEL 1
REMARK VINA RESULT:     -11.8      0.000      0.000
REMARK SMILES Cc1cc(N[C@@H]2C=C[C@@H](C(=O)NCCCCNC(=O)c3ccc(-c4c5nc(c(-c6cccc(S(=O)(=O)[O-])c6F)c6ccc([nH]6)c(-c6cccc(S(=O)(=O)[O-])c6F)c6nc(c(-c7cccc(S(=O)(=O)[O-])c7F)c7ccc4[nH]7)C=C6)C=C5)cc3)C2)nc(C)n1
REMARK SMILES IDX 15 1 14 2 13 3 12 4 10 5 11 6 9 8 6 9 7 10 83 11 8 12 5 13
REMARK SMILES IDX 4 15 1 16 2 17 3 18 87 19 85 20 84 21 86 22 16 23 17 24
REMARK SMILES IDX 18 25 19 27 20 28 21 29 82 30 22 31 81 32 23 33 24 34 25 35
REMARK SMILES IDX 75 36 26 37 80 38 74 39 76 40 27 41 79 42 73 43 72 44 28 46
REMARK SMILES IDX 60 47 40 48 59 49 41 50 44 51 58 52 77 53 42 54 43 55 57 57
REMARK SMILES IDX 78 58 45 59 29 60 30 61 38 62 31 63 33 64 39 65 32 66 34 67
REMARK SMILES IDX 35 68 36 69 37 70 61 71 62 72 70 73 63 74 65 75 71 76 64 77
REMARK SMILES IDX 66 78 67 79 68 80 69 81 46 82 47 83 55 84 48 85 50 86 56 87
REMARK SMILES IDX 49 88 51 89 52 90 53 91 54 92
REMARK H PARENT 12 7 5 14 17 26 76 45 44 56
REMARK Flexibility Score: inf
ROOT
ATOM      1  C   UNL A   1      31.454  31.464  26.381  1.00  0.00     0.023 C 
ENDROOT
BRANCH   1   2
ATOM      2  C   UNL A   1      31.409  30.091  25.711  1.00  0.00     0.023 C 
BRANCH   2   3
ATOM      3  C   UNL A   1      32.753  29.375  25.646  1.00  0.00     0.116 C 
BRANCH   3   4
ATOM      4  N   UNL A   1      33.320  29.424  24.315  1.00  0.00    -0.356 N 
ATOM      5  C   UNL A   1      33.423  28.467  23.360  1.00  0.00     0.227 C 
ATOM      6  O   UNL A   1      33.917  28.792  22.276  1.00  0.00    -0.274 OA
ATOM      7  H   UNL A   1      33.692  30.299  24.060  1.00  0.00     0.163 HD
BRANCH   5   8
ATOM      8  C   UNL A   1      32.942  27.036  23.573  1.00  0.00     0.103 C 
ATOM      9  C   UNL A   1      32.973  24.958  22.263  1.00  0.00     0.104 C 
ATOM     10  C   UNL A   1      34.023  24.963  23.326  1.00  0.00    -0.006 C 
ATOM     11  C   UNL A   1      32.317  26.344  22.351  1.00  0.00     0.046 C 
ATOM     12  C   UNL A   1      34.021  26.099  24.033  1.00  0.00    -0.016 C 
BRANCH   9  13
ATOM     13  N   UNL A   1      32.067  23.843  22.422  1.00  0.00    -0.364 N 
ATOM     14  H   UNL A   1      31.546  23.620  21.617  1.00  0.00     0.162 HD
BRANCH  13  15
ATOM     15  C   UNL A   1      31.811  23.049  23.505  1.00  0.00     0.130 A 
ATOM     16  C   UNL A   1      30.180  22.923  26.876  1.00  0.00     0.067 C 
ATOM     17  C   UNL A   1      30.956  22.543  25.651  1.00  0.00     0.043 A 
ATOM     18  C   UNL A   1      31.085  23.435  24.607  1.00  0.00     0.070 A 
ATOM     19  N   UNL A   1      31.484  21.309  25.604  1.00  0.00    -0.238 NA
ATOM     20  C   UNL A   1      32.154  20.996  24.482  1.00  0.00     0.127 A 
ATOM     21  N   UNL A   1      32.337  21.818  23.430  1.00  0.00    -0.216 NA
ATOM     22  C   UNL A   1      32.757  19.631  24.396  1.00  0.00     0.090 C 
ENDBRANCH  13  15
ENDBRANCH   9  13
ENDBRANCH   5   8
ENDBRANCH   3   4
ENDBRANCH   2   3
ENDBRANCH   1   2
BRANCH   1  23
ATOM     23  C   UNL A   1      32.807  31.844  26.972  1.00  0.00     0.116 C 
BRANCH  23  24
ATOM     24  N   UNL A   1      32.862  33.241  27.380  1.00  0.00    -0.352 N 
ATOM     25  C   UNL A   1      33.779  33.842  28.205  1.00  0.00     0.251 C 
ATOM     26  H   UNL A   1      32.155  33.824  27.020  1.00  0.00     0.163 HD
ATOM     27  O   UNL A   1      33.632  35.003  28.574  1.00  0.00    -0.269 OA
BRANCH  25  28
ATOM     28  C   UNL A   1      34.932  33.047  28.655  1.00  0.00     0.039 A 
ATOM     29  C   UNL A   1      36.218  33.458  28.301  1.00  0.00     0.014 A 
ATOM     30  C   UNL A   1      34.728  31.956  29.506  1.00  0.00     0.014 A 
ATOM     31  C   UNL A   1      37.316  32.800  28.852  1.00  0.00     0.010 A 
ATOM     32  C   UNL A   1      35.825  31.334  30.090  1.00  0.00     0.010 A 
ATOM     33  C   UNL A   1      37.125  31.751  29.767  1.00  0.00    -0.014 A 
BRANCH  33  34
ATOM     34  C   UNL A   1      38.280  31.066  30.387  1.00  0.00     0.031 A 
ATOM     35  C   UNL A   1      38.693  31.427  31.784  1.00  0.00     0.074 A 
ATOM     36  C   UNL A   1      38.989  30.170  29.674  1.00  0.00     0.049 A 
ATOM     37  N   UNL A   1      39.683  30.955  32.493  1.00  0.00    -0.248 NA
ATOM     38  C   UNL A   1      37.904  32.469  32.465  1.00  0.00     0.031 C 
ATOM     39  C   UNL A   1      38.721  29.790  28.285  1.00  0.00     0.029 A 
ATOM     40  N   UNL A   1      40.091  29.428  30.015  1.00  0.00    -0.354 N 
ATOM     41  C   UNL A   1      39.650  31.653  33.693  1.00  0.00     0.074 A 
ATOM     42  C   UNL A   1      38.563  32.603  33.607  1.00  0.00     0.031 C 
ATOM     43  C   UNL A   1      39.628  28.879  27.896  1.00  0.00     0.029 A 
ATOM     44  C   UNL A   1      40.546  28.617  29.002  1.00  0.00     0.049 A 
ATOM     45  H   UNL A   1      40.516  29.472  30.902  1.00  0.00     0.167 HD
ATOM     46  C   UNL A   1      40.431  31.489  34.783  1.00  0.00     0.034 A 
ATOM     47  C   UNL A   1      41.579  27.753  28.975  1.00  0.00     0.034 A 
ATOM     48  C   UNL A   1      41.468  30.505  34.890  1.00  0.00     0.049 A 
ATOM     49  C   UNL A   1      42.410  27.563  30.214  1.00  0.00     0.074 A 
ATOM     50  C   UNL A   1      42.254  30.202  35.987  1.00  0.00     0.029 A 
ATOM     51  N   UNL A   1      41.861  29.661  33.864  1.00  0.00    -0.354 N 
ATOM     52  N   UNL A   1      42.273  28.131  31.388  1.00  0.00    -0.248 NA
ATOM     53  C   UNL A   1      43.515  26.597  30.138  1.00  0.00     0.031 C 
ATOM     54  C   UNL A   1      43.122  29.167  35.624  1.00  0.00     0.029 A 
ATOM     55  C   UNL A   1      42.879  28.833  34.301  1.00  0.00     0.049 A 
ATOM     56  H   UNL A   1      41.473  29.650  32.959  1.00  0.00     0.167 HD
ATOM     57  C   UNL A   1      43.257  27.575  32.197  1.00  0.00     0.074 A 
ATOM     58  C   UNL A   1      43.977  26.617  31.383  1.00  0.00     0.031 C 
ATOM     59  C   UNL A   1      43.547  27.848  33.491  1.00  0.00     0.034 A 
BRANCH  46  60
ATOM     60  C   UNL A   1      40.131  32.338  35.985  1.00  0.00     0.023 A 
ATOM     61  C   UNL A   1      40.888  33.508  36.195  1.00  0.00     0.012 A 
ATOM     62  C   UNL A   1      39.078  32.019  36.861  1.00  0.00     0.148 A 
ATOM     63  C   UNL A   1      40.609  34.345  37.272  1.00  0.00     0.002 A 
ATOM     64  C   UNL A   1      38.790  32.874  37.919  1.00  0.00     0.091 A 
ATOM     65  F   UNL A   1      38.388  30.890  36.648  1.00  0.00    -0.205 F 
ATOM     66  C   UNL A   1      39.557  34.034  38.128  1.00  0.00     0.022 A 
BRANCH  64  67
ATOM     67  S   UNL A   1      37.431  32.589  39.059  1.00  0.00     0.127 S 
ATOM     68  O   UNL A   1      36.273  32.716  38.174  1.00  0.00    -0.237 OA
ATOM     69  O   UNL A   1      37.700  31.227  39.521  1.00  0.00    -0.237 OA
ATOM     70  O   UNL A   1      37.542  33.617  40.085  1.00  0.00    -0.744 OA
ENDBRANCH  64  67
ENDBRANCH  46  60
BRANCH  47  71
ATOM     71  C   UNL A   1      41.816  26.932  27.757  1.00  0.00     0.023 A 
ATOM     72  C   UNL A   1      42.424  27.536  26.639  1.00  0.00     0.012 A 
ATOM     73  C   UNL A   1      41.505  25.561  27.718  1.00  0.00     0.148 A 
ATOM     74  C   UNL A   1      42.709  26.789  25.497  1.00  0.00     0.002 A 
ATOM     75  C   UNL A   1      41.823  24.814  26.589  1.00  0.00     0.091 A 
ATOM     76  F   UNL A   1      40.925  25.012  28.795  1.00  0.00    -0.205 F 
ATOM     77  C   UNL A   1      42.416  25.428  25.474  1.00  0.00     0.022 A 
BRANCH  75  78
ATOM     78  S   UNL A   1      41.573  23.038  26.495  1.00  0.00     0.127 S 
ATOM     79  O   UNL A   1      42.277  22.702  25.260  1.00  0.00    -0.237 OA
ATOM     80  O   UNL A   1      42.227  22.580  27.721  1.00  0.00    -0.237 OA
ATOM     81  O   UNL A   1      40.131  22.840  26.468  1.00  0.00    -0.744 OA
ENDBRANCH  75  78
ENDBRANCH  47  71
BRANCH  59  82
ATOM     82  C   UNL A   1      44.687  27.110  34.133  1.00  0.00     0.023 A 
ATOM     83  C   UNL A   1      45.979  27.667  34.075  1.00  0.00     0.012 A 
ATOM     84  C   UNL A   1      44.455  25.960  34.912  1.00  0.00     0.148 A 
ATOM     85  C   UNL A   1      47.027  27.087  34.787  1.00  0.00     0.002 A 
ATOM     86  C   UNL A   1      45.498  25.407  35.643  1.00  0.00     0.091 A 
ATOM     87  F   UNL A   1      43.214  25.449  34.940  1.00  0.00    -0.205 F 
ATOM     88  C   UNL A   1      46.784  25.967  35.580  1.00  0.00     0.022 A 
BRANCH  86  89
ATOM     89  S   UNL A   1      45.270  24.014  36.754  1.00  0.00     0.127 S 
ATOM     90  O   UNL A   1      44.776  22.983  35.842  1.00  0.00    -0.237 OA
ATOM     91  O   UNL A   1      46.627  23.790  37.252  1.00  0.00    -0.237 OA
ATOM     92  O   UNL A   1      44.318  24.454  37.765  1.00  0.00    -0.744 OA
ENDBRANCH  86  89
ENDBRANCH  59  82
ENDBRANCH  33  34
ENDBRANCH  25  28
ENDBRANCH  23  24
ENDBRANCH   1  23
TORSDOF 16
ENDMDL
MODEL 2
REMARK VINA RESULT:     -11.6      1.429      2.019
REMARK SMILES Cc1cc(N[C@@H]2C=C[C@@H](C(=O)NCCCCNC(=O)c3ccc(-c4c5nc(c(-c6cccc(S(=O)(=O)[O-])c6F)c6ccc([nH]6)c(-c6cccc(S(=O)(=O)[O-])c6F)c6nc(c(-c7cccc(S(=O)(=O)[O-])c7F)c7ccc4[nH]7)C=C6)C=C5)cc3)C2)nc(C)n1
REMARK SMILES IDX 15 1 14 2 13 3 12 4 10 5 11 6 9 8 6 9 7 10 83 11 8 12 5 13
REMARK SMILES IDX 4 15 1 16 2 17 3 18 87 19 85 20 84 21 86 22 16 23 17 24
REMARK SMILES IDX 18 25 19 27 20 28 21 29 82 30 22 31 81 32 23 33 24 34 25 35
REMARK SMILES IDX 75 36 26 37 80 38 74 39 76 40 27 41 79 42 73 43 72 44 28 46
REMARK SMILES IDX 60 47 40 48 59 49 41 50 44 51 58 52 77 53 42 54 43 55 57 57
REMARK SMILES IDX 78 58 45 59 29 60 30 61 38 62 31 63 33 64 39 65 32 66 34 67
REMARK SMILES IDX 35 68 36 69 37 70 61 71 62 72 70 73 63 74 65 75 71 76 64 77
REMARK SMILES IDX 66 78 67 79 68 80 69 81 46 82 47 83 55 84 48 85 50 86 56 87
REMARK SMILES IDX 49 88 51 89 52 90 53 91 54 92
REMARK H PARENT 12 7 5 14 17 26 76 45 44 56
REMARK Flexibility Score: inf
ROOT
ATOM      1  C   UNL A   1      32.057  29.778  25.320  1.00  0.00     0.023 C 
ENDROOT
BRANCH   1   2
ATOM      2  C   UNL A   1      32.127  28.259  25.154  1.00  0.00     0.023 C 
BRANCH   2   3
ATOM      3  C   UNL A   1      33.523  27.719  24.864  1.00  0.00     0.116 C 
BRANCH   3   4
ATOM      4  N   UNL A   1      33.665  27.325  23.479  1.00  0.00    -0.356 N 
ATOM      5  C   UNL A   1      33.707  26.096  22.907  1.00  0.00     0.227 C 
ATOM      6  O   UNL A   1      33.789  26.042  21.676  1.00  0.00    -0.274 OA
ATOM      7  H   UNL A   1      33.744  28.074  22.846  1.00  0.00     0.163 HD
BRANCH   5   8
ATOM      8  C   UNL A   1      33.639  24.807  23.718  1.00  0.00     0.103 C 
ATOM      9  C   UNL A   1      33.722  24.226  26.104  1.00  0.00     0.104 C 
ATOM     10  C   UNL A   1      32.328  24.183  25.568  1.00  0.00    -0.006 C 
ATOM     11  C   UNL A   1      34.581  24.721  24.931  1.00  0.00     0.046 C 
ATOM     12  C   UNL A   1      32.275  24.514  24.272  1.00  0.00    -0.016 C 
BRANCH   9  13
ATOM     13  N   UNL A   1      34.116  22.947  26.651  1.00  0.00    -0.364 N 
ATOM     14  H   UNL A   1      34.071  22.889  27.632  1.00  0.00     0.162 HD
BRANCH  13  15
ATOM     15  C   UNL A   1      34.543  21.807  26.030  1.00  0.00     0.130 A 
ATOM     16  C   UNL A   1      37.558  19.942  24.818  1.00  0.00     0.067 C 
ATOM     17  C   UNL A   1      36.138  20.325  25.105  1.00  0.00     0.043 A 
ATOM     18  C   UNL A   1      35.860  21.488  25.793  1.00  0.00     0.070 A 
ATOM     19  N   UNL A   1      35.170  19.488  24.698  1.00  0.00    -0.238 NA
ATOM     20  C   UNL A   1      33.911  19.854  24.993  1.00  0.00     0.127 A 
ATOM     21  N   UNL A   1      33.560  20.980  25.644  1.00  0.00    -0.216 NA
ATOM     22  C   UNL A   1      32.808  18.946  24.553  1.00  0.00     0.090 C 
ENDBRANCH  13  15
ENDBRANCH   9  13
ENDBRANCH   5   8
ENDBRANCH   3   4
ENDBRANCH   2   3
ENDBRANCH   1   2
BRANCH   1  23
ATOM     23  C   UNL A   1      32.279  30.277  26.743  1.00  0.00     0.116 C 
BRANCH  23  24
ATOM     24  N   UNL A   1      32.209  31.728  26.839  1.00  0.00    -0.352 N 
ATOM     25  C   UNL A   1      33.111  32.578  27.427  1.00  0.00     0.251 C 
ATOM     26  H   UNL A   1      31.418  32.150  26.433  1.00  0.00     0.163 HD
ATOM     27  O   UNL A   1      32.864  33.773  27.555  1.00  0.00    -0.269 OA
BRANCH  25  28
ATOM     28  C   UNL A   1      34.375  32.011  27.924  1.00  0.00     0.039 A 
ATOM     29  C   UNL A   1      35.473  32.854  28.099  1.00  0.00     0.014 A 
ATOM     30  C   UNL A   1      34.426  30.665  28.302  1.00  0.00     0.014 A 
ATOM     31  C   UNL A   1      36.620  32.354  28.714  1.00  0.00     0.010 A 
ATOM     32  C   UNL A   1      35.553  30.184  28.957  1.00  0.00     0.010 A 
ATOM     33  C   UNL A   1      36.657  31.025  29.167  1.00  0.00    -0.014 A 
BRANCH  33  34
ATOM     34  C   UNL A   1      37.854  30.490  29.852  1.00  0.00     0.031 A 
ATOM     35  C   UNL A   1      38.151  30.911  31.262  1.00  0.00     0.074 A 
ATOM     36  C   UNL A   1      38.700  29.680  29.188  1.00  0.00     0.049 A 
ATOM     37  N   UNL A   1      39.153  30.569  32.025  1.00  0.00    -0.248 NA
ATOM     38  C   UNL A   1      37.209  31.856  31.889  1.00  0.00     0.031 C 
ATOM     39  C   UNL A   1      38.549  29.259  27.793  1.00  0.00     0.029 A 
ATOM     40  N   UNL A   1      39.865  29.080  29.592  1.00  0.00    -0.354 N 
ATOM     41  C   UNL A   1      38.977  31.269  33.211  1.00  0.00     0.074 A 
ATOM     42  C   UNL A   1      37.789  32.079  33.059  1.00  0.00     0.031 C 
ATOM     43  C   UNL A   1      39.578  28.460  27.462  1.00  0.00     0.029 A 
ATOM     44  C   UNL A   1      40.464  28.321  28.615  1.00  0.00     0.049 A 
ATOM     45  H   UNL A   1      40.237  29.183  30.498  1.00  0.00     0.167 HD
ATOM     46  C   UNL A   1      39.718  31.210  34.340  1.00  0.00     0.034 A 
ATOM     47  C   UNL A   1      41.594  27.588  28.650  1.00  0.00     0.034 A 
ATOM     48  C   UNL A   1      40.859  30.359  34.511  1.00  0.00     0.049 A 
ATOM     49  C   UNL A   1      42.379  27.512  29.930  1.00  0.00     0.074 A 
ATOM     50  C   UNL A   1      41.621  30.163  35.649  1.00  0.00     0.029 A 
ATOM     51  N   UNL A   1      41.401  29.560  33.519  1.00  0.00    -0.354 N 
ATOM     52  N   UNL A   1      42.116  28.069  31.088  1.00  0.00    -0.248 NA
ATOM     53  C   UNL A   1      43.595  26.685  29.922  1.00  0.00     0.031 C 
ATOM     54  C   UNL A   1      42.624  29.238  35.344  1.00  0.00     0.029 A 
ATOM     55  C   UNL A   1      42.488  28.866  34.016  1.00  0.00     0.049 A 
ATOM     56  H   UNL A   1      41.063  29.495  32.596  1.00  0.00     0.167 HD
ATOM     57  C   UNL A   1      43.119  27.644  31.951  1.00  0.00     0.074 A 
ATOM     58  C   UNL A   1      43.988  26.773  31.188  1.00  0.00     0.031 C 
ATOM     59  C   UNL A   1      43.310  27.962  33.254  1.00  0.00     0.034 A 
BRANCH  46  60
ATOM     60  C   UNL A   1      39.258  32.027  35.513  1.00  0.00     0.023 A 
ATOM     61  C   UNL A   1      39.583  33.397  35.554  1.00  0.00     0.012 A 
ATOM     62  C   UNL A   1      38.466  31.465  36.531  1.00  0.00     0.148 A 
ATOM     63  C   UNL A   1      39.136  34.198  36.602  1.00  0.00     0.002 A 
ATOM     64  C   UNL A   1      38.002  32.277  37.560  1.00  0.00     0.091 A 
ATOM     65  F   UNL A   1      38.189  30.155  36.477  1.00  0.00    -0.205 F 
ATOM     66  C   UNL A   1      38.340  33.641  37.599  1.00  0.00     0.022 A 
BRANCH  64  67
ATOM     67  S   UNL A   1      36.937  31.671  38.874  1.00  0.00     0.127 S 
ATOM     68  O   UNL A   1      37.831  31.738  40.030  1.00  0.00    -0.237 OA
ATOM     69  O   UNL A   1      35.861  32.662  38.876  1.00  0.00    -0.237 OA
ATOM     70  O   UNL A   1      36.534  30.329  38.480  1.00  0.00    -0.744 OA
ENDBRANCH  64  67
ENDBRANCH  46  60
BRANCH  47  71
ATOM     71  C   UNL A   1      41.988  26.791  27.457  1.00  0.00     0.023 A 
ATOM     72  C   UNL A   1      42.644  27.441  26.394  1.00  0.00     0.012 A 
ATOM     73  C   UNL A   1      41.777  25.402  27.395  1.00  0.00     0.148 A 
ATOM     74  C   UNL A   1      43.075  26.721  25.280  1.00  0.00     0.002 A 
ATOM     75  C   UNL A   1      42.239  24.685  26.296  1.00  0.00     0.091 A 
ATOM     76  F   UNL A   1      41.149  24.809  28.419  1.00  0.00    -0.205 F 
ATOM     77  C   UNL A   1      42.880  25.343  25.234  1.00  0.00     0.022 A 
BRANCH  75  78
ATOM     78  S   UNL A   1      42.122  22.895  26.184  1.00  0.00     0.127 S 
ATOM     79  O   UNL A   1      42.753  22.635  24.893  1.00  0.00    -0.237 OA
ATOM     80  O   UNL A   1      42.901  22.472  27.348  1.00  0.00    -0.237 OA
ATOM     81  O   UNL A   1      40.701  22.585  26.261  1.00  0.00    -0.744 OA
ENDBRANCH  75  78
ENDBRANCH  47  71
BRANCH  59  82
ATOM     82  C   UNL A   1      44.497  27.373  33.961  1.00  0.00     0.023 A 
ATOM     83  C   UNL A   1      45.729  28.051  33.906  1.00  0.00     0.012 A 
ATOM     84  C   UNL A   1      44.355  26.245  34.793  1.00  0.00     0.148 A 
ATOM     85  C   UNL A   1      46.808  27.614  34.672  1.00  0.00     0.002 A 
ATOM     86  C   UNL A   1      45.425  25.835  35.577  1.00  0.00     0.091 A 
ATOM     87  F   UNL A   1      43.171  25.616  34.818  1.00  0.00    -0.205 F 
ATOM     88  C   UNL A   1      46.652  26.516  35.516  1.00  0.00     0.022 A 
BRANCH  86  89
ATOM     89  S   UNL A   1      45.303  24.483  36.754  1.00  0.00     0.127 S 
ATOM     90  O   UNL A   1      45.086  23.338  35.869  1.00  0.00    -0.237 OA
ATOM     91  O   UNL A   1      46.614  24.515  37.401  1.00  0.00    -0.237 OA
ATOM     92  O   UNL A   1      44.185  24.809  37.629  1.00  0.00    -0.744 OA
ENDBRANCH  86  89
ENDBRANCH  59  82
ENDBRANCH  33  34
ENDBRANCH  25  28
ENDBRANCH  23  24
ENDBRANCH   1  23
TORSDOF 16
ENDMDL
MODEL 3
REMARK VINA RESULT:     -11.6      2.006      8.044
REMARK SMILES Cc1cc(N[C@@H]2C=C[C@@H](C(=O)NCCCCNC(=O)c3ccc(-c4c5nc(c(-c6cccc(S(=O)(=O)[O-])c6F)c6ccc([nH]6)c(-c6cccc(S(=O)(=O)[O-])c6F)c6nc(c(-c7cccc(S(=O)(=O)[O-])c7F)c7ccc4[nH]7)C=C6)C=C5)cc3)C2)nc(C)n1
REMARK SMILES IDX 15 1 14 2 13 3 12 4 10 5 11 6 9 8 6 9 7 10 83 11 8 12 5 13
REMARK SMILES IDX 4 15 1 16 2 17 3 18 87 19 85 20 84 21 86 22 16 23 17 24
REMARK SMILES IDX 18 25 19 27 20 28 21 29 82 30 22 31 81 32 23 33 24 34 25 35
REMARK SMILES IDX 75 36 26 37 80 38 74 39 76 40 27 41 79 42 73 43 72 44 28 46
REMARK SMILES IDX 60 47 40 48 59 49 41 50 44 51 58 52 77 53 42 54 43 55 57 57
REMARK SMILES IDX 78 58 45 59 29 60 30 61 38 62 31 63 33 64 39 65 32 66 34 67
REMARK SMILES IDX 35 68 36 69 37 70 61 71 62 72 70 73 63 74 65 75 71 76 64 77
REMARK SMILES IDX 66 78 67 79 68 80 69 81 46 82 47 83 55 84 48 85 50 86 56 87
REMARK SMILES IDX 49 88 51 89 52 90 53 91 54 92
REMARK H PARENT 12 7 5 14 17 26 76 45 44 56
REMARK Flexibility Score: inf
ROOT
ATOM      1  C   UNL A   1      31.900  31.670  26.929  1.00  0.00     0.023 C 
ENDROOT
BRANCH   1   2
ATOM      2  C   UNL A   1      32.201  30.175  26.834  1.00  0.00     0.023 C 
BRANCH   2   3
ATOM      3  C   UNL A   1      32.664  29.709  25.458  1.00  0.00     0.116 C 
BRANCH   3   4
ATOM      4  N   UNL A   1      31.575  29.702  24.504  1.00  0.00    -0.356 N 
ATOM      5  C   UNL A   1      31.197  28.766  23.599  1.00  0.00     0.227 C 
ATOM      6  O   UNL A   1      30.186  28.995  22.929  1.00  0.00    -0.274 OA
ATOM      7  H   UNL A   1      31.017  30.512  24.514  1.00  0.00     0.163 HD
BRANCH   5   8
ATOM      8  C   UNL A   1      31.954  27.458  23.402  1.00  0.00     0.103 C 
ATOM      9  C   UNL A   1      32.324  25.905  21.533  1.00  0.00     0.104 C 
ATOM     10  C   UNL A   1      33.513  26.775  21.778  1.00  0.00    -0.006 C 
ATOM     11  C   UNL A   1      31.261  26.400  22.526  1.00  0.00     0.046 C 
ATOM     12  C   UNL A   1      33.312  27.633  22.785  1.00  0.00    -0.016 C 
BRANCH   9  13
ATOM     13  N   UNL A   1      32.661  24.505  21.650  1.00  0.00    -0.364 N 
ATOM     14  H   UNL A   1      32.615  23.999  20.806  1.00  0.00     0.162 HD
BRANCH  13  15
ATOM     15  C   UNL A   1      33.031  23.765  22.738  1.00  0.00     0.130 A 
ATOM     16  C   UNL A   1      32.146  20.802  24.854  1.00  0.00     0.067 C 
ATOM     17  C   UNL A   1      32.833  22.027  24.330  1.00  0.00     0.043 A 
ATOM     18  C   UNL A   1      32.376  22.640  23.181  1.00  0.00     0.070 A 
ATOM     19  N   UNL A   1      33.908  22.474  24.998  1.00  0.00    -0.238 NA
ATOM     20  C   UNL A   1      34.512  23.560  24.486  1.00  0.00     0.127 A 
ATOM     21  N   UNL A   1      34.115  24.223  23.382  1.00  0.00    -0.216 NA
ATOM     22  C   UNL A   1      35.712  24.087  25.205  1.00  0.00     0.090 C 
ENDBRANCH  13  15
ENDBRANCH   9  13
ENDBRANCH   5   8
ENDBRANCH   3   4
ENDBRANCH   2   3
ENDBRANCH   1   2
BRANCH   1  23
ATOM     23  C   UNL A   1      33.074  32.532  27.377  1.00  0.00     0.116 C 
BRANCH  23  24
ATOM     24  N   UNL A   1      32.685  33.913  27.631  1.00  0.00    -0.352 N 
ATOM     25  C   UNL A   1      33.157  34.756  28.604  1.00  0.00     0.251 C 
ATOM     26  H   UNL A   1      31.999  34.285  27.031  1.00  0.00     0.163 HD
ATOM     27  O   UNL A   1      32.646  35.855  28.792  1.00  0.00    -0.269 OA
BRANCH  25  28
ATOM     28  C   UNL A   1      34.281  34.294  29.435  1.00  0.00     0.039 A 
ATOM     29  C   UNL A   1      34.012  33.546  30.582  1.00  0.00     0.014 A 
ATOM     30  C   UNL A   1      35.593  34.526  29.012  1.00  0.00     0.014 A 
ATOM     31  C   UNL A   1      35.073  32.976  31.285  1.00  0.00     0.010 A 
ATOM     32  C   UNL A   1      36.644  33.917  29.687  1.00  0.00     0.010 A 
ATOM     33  C   UNL A   1      36.391  33.139  30.827  1.00  0.00    -0.014 A 
BRANCH  33  34
ATOM     34  C   UNL A   1      37.524  32.512  31.541  1.00  0.00     0.031 A 
ATOM     35  C   UNL A   1      38.247  31.356  30.914  1.00  0.00     0.074 A 
ATOM     36  C   UNL A   1      37.859  32.939  32.773  1.00  0.00     0.049 A 
ATOM     37  N   UNL A   1      39.249  30.663  31.384  1.00  0.00    -0.248 NA
ATOM     38  C   UNL A   1      37.769  30.907  29.594  1.00  0.00     0.031 C 
ATOM     39  C   UNL A   1      37.182  34.010  33.511  1.00  0.00     0.029 A 
ATOM     40  N   UNL A   1      38.842  32.515  33.631  1.00  0.00    -0.354 N 
ATOM     41  C   UNL A   1      39.509  29.686  30.433  1.00  0.00     0.074 A 
ATOM     42  C   UNL A   1      38.541  29.854  29.371  1.00  0.00     0.031 C 
ATOM     43  C   UNL A   1      37.778  34.164  34.705  1.00  0.00     0.029 A 
ATOM     44  C   UNL A   1      38.869  33.199  34.823  1.00  0.00     0.049 A 
ATOM     45  H   UNL A   1      39.469  31.789  33.412  1.00  0.00     0.167 HD
ATOM     46  C   UNL A   1      40.491  28.758  30.426  1.00  0.00     0.034 A 
ATOM     47  C   UNL A   1      39.690  33.070  35.883  1.00  0.00     0.034 A 
ATOM     48  C   UNL A   1      41.488  28.633  31.450  1.00  0.00     0.049 A 
ATOM     49  C   UNL A   1      40.797  32.054  35.835  1.00  0.00     0.074 A 
ATOM     50  C   UNL A   1      42.577  27.783  31.488  1.00  0.00     0.029 A 
ATOM     51  N   UNL A   1      41.519  29.384  32.614  1.00  0.00    -0.354 N 
ATOM     52  N   UNL A   1      41.116  31.234  34.862  1.00  0.00    -0.248 NA
ATOM     53  C   UNL A   1      41.675  31.963  37.010  1.00  0.00     0.031 C 
ATOM     54  C   UNL A   1      43.273  28.023  32.677  1.00  0.00     0.029 A 
ATOM     55  C   UNL A   1      42.611  29.018  33.379  1.00  0.00     0.049 A 
ATOM     56  H   UNL A   1      40.863  30.075  32.860  1.00  0.00     0.167 HD
ATOM     57  C   UNL A   1      42.243  30.547  35.298  1.00  0.00     0.074 A 
ATOM     58  C   UNL A   1      42.560  31.054  36.617  1.00  0.00     0.031 C 
ATOM     59  C   UNL A   1      42.940  29.572  34.666  1.00  0.00     0.034 A 
BRANCH  46  60
ATOM     60  C   UNL A   1      40.589  27.861  29.227  1.00  0.00     0.023 A 
ATOM     61  C   UNL A   1      39.741  26.738  29.148  1.00  0.00     0.012 A 
ATOM     62  C   UNL A   1      41.462  28.153  28.163  1.00  0.00     0.148 A 
ATOM     63  C   UNL A   1      39.769  25.908  28.031  1.00  0.00     0.002 A 
ATOM     64  C   UNL A   1      41.466  27.334  27.040  1.00  0.00     0.091 A 
ATOM     65  F   UNL A   1      42.271  29.216  28.274  1.00  0.00    -0.205 F 
ATOM     66  C   UNL A   1      40.624  26.210  26.974  1.00  0.00     0.022 A 
BRANCH  64  67
ATOM     67  S   UNL A   1      42.499  27.653  25.605  1.00  0.00     0.127 S 
ATOM     68  O   UNL A   1      43.830  27.717  26.210  1.00  0.00    -0.237 OA
ATOM     69  O   UNL A   1      42.258  26.467  24.785  1.00  0.00    -0.237 OA
ATOM     70  O   UNL A   1      42.019  28.903  25.032  1.00  0.00    -0.744 OA
ENDBRANCH  64  67
ENDBRANCH  46  60
BRANCH  47  71
ATOM     71  C   UNL A   1      39.549  33.999  37.037  1.00  0.00     0.023 A 
ATOM     72  C   UNL A   1      39.924  35.346  36.873  1.00  0.00     0.012 A 
ATOM     73  C   UNL A   1      38.995  33.579  38.260  1.00  0.00     0.148 A 
ATOM     74  C   UNL A   1      39.761  36.260  37.914  1.00  0.00     0.002 A 
ATOM     75  C   UNL A   1      38.803  34.503  39.282  1.00  0.00     0.091 A 
ATOM     76  F   UNL A   1      38.648  32.291  38.389  1.00  0.00    -0.205 F 
ATOM     77  C   UNL A   1      39.194  35.841  39.114  1.00  0.00     0.022 A 
BRANCH  75  78
ATOM     78  S   UNL A   1      37.995  34.085  40.831  1.00  0.00     0.127 S 
ATOM     79  O   UNL A   1      36.798  33.389  40.366  1.00  0.00    -0.237 OA
ATOM     80  O   UNL A   1      38.997  33.231  41.469  1.00  0.00    -0.237 OA
ATOM     81  O   UNL A   1      37.759  35.352  41.510  1.00  0.00    -0.744 OA
ENDBRANCH  75  78
ENDBRANCH  47  71
BRANCH  59  82
ATOM     82  C   UNL A   1      44.123  28.976  35.374  1.00  0.00     0.023 A 
ATOM     83  C   UNL A   1      45.380  29.595  35.242  1.00  0.00     0.012 A 
ATOM     84  C   UNL A   1      43.960  27.908  36.278  1.00  0.00     0.148 A 
ATOM     85  C   UNL A   1      46.463  29.158  36.003  1.00  0.00     0.002 A 
ATOM     86  C   UNL A   1      45.036  27.499  37.055  1.00  0.00     0.091 A 
ATOM     87  F   UNL A   1      42.751  27.334  36.375  1.00  0.00    -0.205 F 
ATOM     88  C   UNL A   1      46.287  28.121  36.917  1.00  0.00     0.022 A 
BRANCH  86  89
ATOM     89  S   UNL A   1      44.893  26.228  38.316  1.00  0.00     0.127 S 
ATOM     90  O   UNL A   1      44.470  25.071  37.525  1.00  0.00    -0.237 OA
ATOM     91  O   UNL A   1      46.259  26.148  38.831  1.00  0.00    -0.237 OA
ATOM     92  O   UNL A   1      43.909  26.716  39.273  1.00  0.00    -0.744 OA
ENDBRANCH  86  89
ENDBRANCH  59  82
ENDBRANCH  33  34
ENDBRANCH  25  28
ENDBRANCH  23  24
ENDBRANCH   1  23
TORSDOF 16
ENDMDL
