MODEL 1
REMARK VINA RESULT:     -13.0      0.000      0.000
REMARK SMILES Cc1cc(NC(=O)c2ccc(Br)nc2)sc1C(=O)NCCCCNC(=O)c1ccc(-c2c3nc(c(-c4cccc(S(=O)(=O)[O-])c4F)c4ccc([nH]4)c(-c4cccc(S(=O)(=O)[O-])c4F)c4nc(c(-c5cccc(S(=O)(=O)[O-])c5F)c5ccc2[nH]5)C=C4)C=C3)cc1
REMARK SMILES IDX 22 1 21 2 20 3 19 4 17 5 18 6 16 8 1 9 2 10 3 11 4 12 15 13
REMARK SMILES IDX 5 14 6 15 7 17 8 18 9 19 14 20 10 21 13 22 11 23 12 24 23 25
REMARK SMILES IDX 24 26 25 27 26 29 27 30 28 31 89 32 29 33 88 34 30 35 31 36
REMARK SMILES IDX 32 37 82 38 33 39 87 40 81 41 83 42 34 43 86 44 80 45 79 46
REMARK SMILES IDX 35 48 67 49 47 50 66 51 48 52 51 53 65 54 84 55 49 56 50 57
REMARK SMILES IDX 64 59 85 60 52 61 36 62 37 63 45 64 38 65 40 66 46 67 39 68
REMARK SMILES IDX 41 69 42 70 43 71 44 72 68 73 69 74 77 75 70 76 72 77 78 78
REMARK SMILES IDX 71 79 73 80 74 81 75 82 76 83 53 84 54 85 62 86 55 87 57 88
REMARK SMILES IDX 63 89 56 90 58 91 59 92 60 93 61 94
REMARK H PARENT 19 7 5 16 24 28 83 47 51 58
REMARK Flexibility Score: inf
ROOT
ATOM      1  C   UNL A   1      35.905  21.232  25.552  1.00  0.00     0.023 C 
ENDROOT
BRANCH   1   2
ATOM      2  C   UNL A   1      35.069  22.133  26.455  1.00  0.00     0.023 C 
BRANCH   2   3
ATOM      3  C   UNL A   1      34.022  21.419  27.311  1.00  0.00     0.116 C 
BRANCH   3   4
ATOM      4  N   UNL A   1      33.239  20.489  26.537  1.00  0.00    -0.351 N 
ATOM      5  C   UNL A   1      32.494  20.580  25.391  1.00  0.00     0.261 C 
ATOM      6  O   UNL A   1      32.126  19.470  24.981  1.00  0.00    -0.268 OA
ATOM      7  H   UNL A   1      33.240  19.581  26.919  1.00  0.00     0.163 HD
BRANCH   5   8
ATOM      8  C   UNL A   1      32.128  21.823  24.692  1.00  0.00     0.097 A 
ATOM      9  C   UNL A   1      30.374  23.316  25.991  1.00  0.00     0.046 C 
ATOM     10  C   UNL A   1      31.243  22.893  24.861  1.00  0.00    -0.025 A 
ATOM     11  C   UNL A   1      31.157  23.681  23.666  1.00  0.00     0.042 A 
ATOM     12  C   UNL A   1      32.218  23.494  22.834  1.00  0.00     0.096 A 
ATOM     13  S   UNL A   1      33.018  22.059  23.183  1.00  0.00    -0.112 S 
BRANCH  12  14
ATOM     14  N   UNL A   1      32.716  24.242  21.794  1.00  0.00    -0.313 N 
ATOM     15  C   UNL A   1      32.918  25.610  21.800  1.00  0.00     0.257 C 
ATOM     16  H   UNL A   1      32.950  23.759  20.969  1.00  0.00     0.171 HD
ATOM     17  O   UNL A   1      33.180  26.228  20.772  1.00  0.00    -0.269 OA
BRANCH  15  18
ATOM     18  C   UNL A   1      32.883  26.357  23.073  1.00  0.00     0.058 A 
ATOM     19  C   UNL A   1      33.817  26.128  24.089  1.00  0.00     0.018 A 
ATOM     20  C   UNL A   1      31.828  27.220  23.324  1.00  0.00     0.126 A 
ATOM     21  C   UNL A   1      33.608  26.704  25.342  1.00  0.00     0.037 A 
ATOM     22  N   UNL A   1      31.608  27.795  24.532  1.00  0.00    -0.249 NA
ATOM     23  C   UNL A   1      32.491  27.511  25.519  1.00  0.00     0.106 A 
ATOM     24  Br  UNL A   1      32.137  28.210  27.246  1.00  0.00    -0.029 Br
ENDBRANCH  15  18
ENDBRANCH  12  14
ENDBRANCH   5   8
ENDBRANCH   3   4
ENDBRANCH   2   3
ENDBRANCH   1   2
BRANCH   1  25
ATOM     25  C   UNL A   1      37.317  21.738  25.284  1.00  0.00     0.116 C 
BRANCH  25  26
ATOM     26  N   UNL A   1      38.365  20.745  25.492  1.00  0.00    -0.352 N 
ATOM     27  C   UNL A   1      39.571  20.918  26.136  1.00  0.00     0.251 C 
ATOM     28  H   UNL A   1      38.189  19.846  25.131  1.00  0.00     0.163 HD
ATOM     29  O   UNL A   1      40.388  20.009  26.196  1.00  0.00    -0.269 OA
BRANCH  27  30
ATOM     30  C   UNL A   1      39.873  22.249  26.699  1.00  0.00     0.039 A 
ATOM     31  C   UNL A   1      40.857  22.356  27.685  1.00  0.00     0.014 A 
ATOM     32  C   UNL A   1      39.276  23.388  26.158  1.00  0.00     0.014 A 
ATOM     33  C   UNL A   1      41.308  23.621  28.064  1.00  0.00     0.010 A 
ATOM     34  C   UNL A   1      39.784  24.640  26.477  1.00  0.00     0.010 A 
ATOM     35  C   UNL A   1      40.809  24.768  27.427  1.00  0.00    -0.014 A 
BRANCH  35  36
ATOM     36  C   UNL A   1      41.360  26.116  27.710  1.00  0.00     0.031 A 
ATOM     37  C   UNL A   1      42.760  26.458  27.285  1.00  0.00     0.074 A 
ATOM     38  C   UNL A   1      40.644  26.985  28.452  1.00  0.00     0.049 A 
ATOM     39  N   UNL A   1      43.448  27.544  27.517  1.00  0.00    -0.248 NA
ATOM     40  C   UNL A   1      43.497  25.430  26.531  1.00  0.00     0.031 C 
ATOM     41  C   UNL A   1      39.312  26.731  29.009  1.00  0.00     0.029 A 
ATOM     42  N   UNL A   1      40.949  28.248  28.894  1.00  0.00    -0.354 N 
ATOM     43  C   UNL A   1      44.709  27.315  26.980  1.00  0.00     0.074 A 
ATOM     44  C   UNL A   1      44.703  25.973  26.441  1.00  0.00     0.031 C 
ATOM     45  C   UNL A   1      38.916  27.804  29.711  1.00  0.00     0.029 A 
ATOM     46  C   UNL A   1      39.968  28.813  29.676  1.00  0.00     0.049 A 
ATOM     47  H   UNL A   1      41.792  28.707  28.673  1.00  0.00     0.167 HD
ATOM     48  C   UNL A   1      45.765  28.158  26.908  1.00  0.00     0.034 A 
ATOM     49  C   UNL A   1      39.922  30.011  30.291  1.00  0.00     0.034 A 
ATOM     50  C   UNL A   1      45.743  29.513  27.382  1.00  0.00     0.049 A 
ATOM     51  C   UNL A   1      41.078  30.961  30.125  1.00  0.00     0.074 A 
ATOM     52  C   UNL A   1      46.723  30.482  27.264  1.00  0.00     0.029 A 
ATOM     53  N   UNL A   1      44.683  30.094  28.060  1.00  0.00    -0.354 N 
ATOM     54  N   UNL A   1      42.197  30.787  29.463  1.00  0.00    -0.248 NA
ATOM     55  C   UNL A   1      40.951  32.283  30.752  1.00  0.00     0.031 C 
ATOM     56  C   UNL A   1      46.255  31.651  27.875  1.00  0.00     0.029 A 
ATOM     57  C   UNL A   1      44.982  31.411  28.365  1.00  0.00     0.049 A 
ATOM     58  H   UNL A   1      43.841  29.639  28.291  1.00  0.00     0.167 HD
ATOM     59  C   UNL A   1      42.888  31.989  29.562  1.00  0.00     0.074 A 
ATOM     60  C   UNL A   1      42.055  32.888  30.333  1.00  0.00     0.031 C 
ATOM     61  C   UNL A   1      44.110  32.313  29.072  1.00  0.00     0.034 A 
BRANCH  48  62
ATOM     62  C   UNL A   1      47.008  27.659  26.221  1.00  0.00     0.023 A 
ATOM     63  C   UNL A   1      47.953  26.919  26.961  1.00  0.00     0.012 A 
ATOM     64  C   UNL A   1      47.220  27.876  24.847  1.00  0.00     0.148 A 
ATOM     65  C   UNL A   1      49.107  26.432  26.352  1.00  0.00     0.002 A 
ATOM     66  C   UNL A   1      48.354  27.351  24.237  1.00  0.00     0.091 A 
ATOM     67  F   UNL A   1      46.324  28.606  24.167  1.00  0.00    -0.205 F 
ATOM     68  C   UNL A   1      49.303  26.638  24.989  1.00  0.00     0.022 A 
BRANCH  66  69
ATOM     69  S   UNL A   1      48.657  27.502  22.473  1.00  0.00     0.127 S 
ATOM     70  O   UNL A   1      49.932  28.217  22.452  1.00  0.00    -0.237 OA
ATOM     71  O   UNL A   1      48.736  26.103  22.050  1.00  0.00    -0.237 OA
ATOM     72  O   UNL A   1      47.518  28.231  21.935  1.00  0.00    -0.744 OA
ENDBRANCH  66  69
ENDBRANCH  48  62
BRANCH  49  73
ATOM     73  C   UNL A   1      38.699  30.416  31.041  1.00  0.00     0.023 A 
ATOM     74  C   UNL A   1      38.609  30.123  32.415  1.00  0.00     0.012 A 
ATOM     75  C   UNL A   1      37.649  31.119  30.420  1.00  0.00     0.148 A 
ATOM     76  C   UNL A   1      37.484  30.494  33.152  1.00  0.00     0.002 A 
ATOM     77  C   UNL A   1      36.554  31.532  31.170  1.00  0.00     0.091 A 
ATOM     78  F   UNL A   1      37.747  31.379  29.108  1.00  0.00    -0.205 F 
ATOM     79  C   UNL A   1      36.462  31.207  32.532  1.00  0.00     0.022 A 
BRANCH  77  80
ATOM     80  S   UNL A   1      35.257  32.568  30.481  1.00  0.00     0.127 S 
ATOM     81  O   UNL A   1      34.327  32.669  31.601  1.00  0.00    -0.237 OA
ATOM     82  O   UNL A   1      35.983  33.800  30.168  1.00  0.00    -0.237 OA
ATOM     83  O   UNL A   1      34.772  31.850  29.310  1.00  0.00    -0.744 OA
ENDBRANCH  77  80
ENDBRANCH  49  73
BRANCH  61  84
ATOM     84  C   UNL A   1      44.616  33.708  29.318  1.00  0.00     0.023 A 
ATOM     85  C   UNL A   1      45.376  33.980  30.472  1.00  0.00     0.012 A 
ATOM     86  C   UNL A   1      44.421  34.722  28.360  1.00  0.00     0.148 A 
ATOM     87  C   UNL A   1      45.915  35.248  30.681  1.00  0.00     0.002 A 
ATOM     88  C   UNL A   1      44.998  35.971  28.553  1.00  0.00     0.091 A 
ATOM     89  F   UNL A   1      43.677  34.447  27.279  1.00  0.00    -0.205 F 
ATOM     90  C   UNL A   1      45.738  36.239  29.716  1.00  0.00     0.022 A 
BRANCH  88  91
ATOM     91  S   UNL A   1      44.899  37.272  27.319  1.00  0.00     0.127 S 
ATOM     92  O   UNL A   1      45.835  36.794  26.304  1.00  0.00    -0.237 OA
ATOM     93  O   UNL A   1      43.492  37.223  26.922  1.00  0.00    -0.237 OA
ATOM     94  O   UNL A   1      45.288  38.499  28.003  1.00  0.00    -0.744 OA
ENDBRANCH  88  91
ENDBRANCH  61  84
ENDBRANCH  35  36
ENDBRANCH  27  30
ENDBRANCH  25  26
ENDBRANCH   1  25
TORSDOF 16
ENDMDL
MODEL 2
REMARK VINA RESULT:     -12.7      5.806      9.066
REMARK SMILES Cc1cc(NC(=O)c2ccc(Br)nc2)sc1C(=O)NCCCCNC(=O)c1ccc(-c2c3nc(c(-c4cccc(S(=O)(=O)[O-])c4F)c4ccc([nH]4)c(-c4cccc(S(=O)(=O)[O-])c4F)c4nc(c(-c5cccc(S(=O)(=O)[O-])c5F)c5ccc2[nH]5)C=C4)C=C3)cc1
REMARK SMILES IDX 22 1 21 2 20 3 19 4 17 5 18 6 16 8 1 9 2 10 3 11 4 12 15 13
REMARK SMILES IDX 5 14 6 15 7 17 8 18 9 19 14 20 10 21 13 22 11 23 12 24 23 25
REMARK SMILES IDX 24 26 25 27 26 29 27 30 28 31 89 32 29 33 88 34 30 35 31 36
REMARK SMILES IDX 32 37 82 38 33 39 87 40 81 41 83 42 34 43 86 44 80 45 79 46
REMARK SMILES IDX 35 48 67 49 47 50 66 51 48 52 51 53 65 54 84 55 49 56 50 57
REMARK SMILES IDX 64 59 85 60 52 61 36 62 37 63 45 64 38 65 40 66 46 67 39 68
REMARK SMILES IDX 41 69 42 70 43 71 44 72 68 73 69 74 77 75 70 76 72 77 78 78
REMARK SMILES IDX 71 79 73 80 74 81 75 82 76 83 53 84 54 85 62 86 55 87 57 88
REMARK SMILES IDX 63 89 56 90 58 91 59 92 60 93 61 94
REMARK H PARENT 19 7 5 16 24 28 83 47 51 58
REMARK Flexibility Score: inf
ROOT
ATOM      1  C   UNL A   1      32.567  31.188  27.220  1.00  0.00     0.023 C 
ENDROOT
BRANCH   1   2
ATOM      2  C   UNL A   1      31.343  31.437  26.345  1.00  0.00     0.023 C 
BRANCH   2   3
ATOM      3  C   UNL A   1      31.152  30.461  25.184  1.00  0.00     0.116 C 
BRANCH   3   4
ATOM      4  N   UNL A   1      32.377  29.784  24.844  1.00  0.00    -0.351 N 
ATOM      5  C   UNL A   1      32.699  28.505  24.473  1.00  0.00     0.261 C 
ATOM      6  O   UNL A   1      33.877  28.406  24.101  1.00  0.00    -0.268 OA
ATOM      7  H   UNL A   1      33.164  30.376  24.888  1.00  0.00     0.163 HD
BRANCH   5   8
ATOM      8  C   UNL A   1      31.798  27.342  24.506  1.00  0.00     0.097 A 
ATOM      9  C   UNL A   1      31.410  26.209  22.148  1.00  0.00     0.046 C 
ATOM     10  C   UNL A   1      31.208  26.453  23.601  1.00  0.00    -0.025 A 
ATOM     11  C   UNL A   1      30.181  25.679  24.236  1.00  0.00     0.042 A 
ATOM     12  C   UNL A   1      30.299  25.659  25.592  1.00  0.00     0.096 A 
ATOM     13  S   UNL A   1      31.255  26.929  26.137  1.00  0.00    -0.112 S 
BRANCH  12  14
ATOM     14  N   UNL A   1      29.781  24.821  26.550  1.00  0.00    -0.313 N 
ATOM     15  C   UNL A   1      30.206  23.532  26.818  1.00  0.00     0.257 C 
ATOM     16  H   UNL A   1      29.040  25.170  27.096  1.00  0.00     0.171 HD
ATOM     17  O   UNL A   1      29.567  22.782  27.551  1.00  0.00    -0.269 OA
BRANCH  15  18
ATOM     18  C   UNL A   1      31.486  23.046  26.268  1.00  0.00     0.058 A 
ATOM     19  C   UNL A   1      31.536  22.165  25.182  1.00  0.00     0.018 A 
ATOM     20  C   UNL A   1      32.668  23.367  26.916  1.00  0.00     0.126 A 
ATOM     21  C   UNL A   1      32.753  21.575  24.844  1.00  0.00     0.037 A 
ATOM     22  N   UNL A   1      33.864  22.809  26.602  1.00  0.00    -0.249 NA
ATOM     23  C   UNL A   1      33.878  21.913  25.586  1.00  0.00     0.106 A 
ATOM     24  Br  UNL A   1      35.516  21.035  25.208  1.00  0.00    -0.029 Br
ENDBRANCH  15  18
ENDBRANCH  12  14
ENDBRANCH   5   8
ENDBRANCH   3   4
ENDBRANCH   2   3
ENDBRANCH   1   2
BRANCH   1  25
ATOM     25  C   UNL A   1      33.522  32.371  27.326  1.00  0.00     0.116 C 
BRANCH  25  26
ATOM     26  N   UNL A   1      32.873  33.647  27.610  1.00  0.00    -0.352 N 
ATOM     27  C   UNL A   1      33.197  34.553  28.597  1.00  0.00     0.251 C 
ATOM     28  H   UNL A   1      32.117  33.889  27.027  1.00  0.00     0.163 HD
ATOM     29  O   UNL A   1      32.534  35.568  28.760  1.00  0.00    -0.269 OA
BRANCH  27  30
ATOM     30  C   UNL A   1      34.328  34.232  29.490  1.00  0.00     0.039 A 
ATOM     31  C   UNL A   1      34.074  33.542  30.677  1.00  0.00     0.014 A 
ATOM     32  C   UNL A   1      35.636  34.502  29.086  1.00  0.00     0.014 A 
ATOM     33  C   UNL A   1      35.145  33.039  31.417  1.00  0.00     0.010 A 
ATOM     34  C   UNL A   1      36.695  33.931  29.778  1.00  0.00     0.010 A 
ATOM     35  C   UNL A   1      36.460  33.188  30.946  1.00  0.00    -0.014 A 
BRANCH  35  36
ATOM     36  C   UNL A   1      37.609  32.554  31.636  1.00  0.00     0.031 A 
ATOM     37  C   UNL A   1      38.334  31.408  30.987  1.00  0.00     0.074 A 
ATOM     38  C   UNL A   1      37.921  32.931  32.892  1.00  0.00     0.049 A 
ATOM     39  N   UNL A   1      39.299  30.669  31.465  1.00  0.00    -0.248 NA
ATOM     40  C   UNL A   1      37.890  31.018  29.638  1.00  0.00     0.031 C 
ATOM     41  C   UNL A   1      37.227  33.963  33.667  1.00  0.00     0.029 A 
ATOM     42  N   UNL A   1      38.885  32.467  33.753  1.00  0.00    -0.354 N 
ATOM     43  C   UNL A   1      39.548  29.702  30.499  1.00  0.00     0.074 A 
ATOM     44  C   UNL A   1      38.609  29.925  29.423  1.00  0.00     0.031 C 
ATOM     45  C   UNL A   1      37.790  34.056  34.882  1.00  0.00     0.029 A 
ATOM     46  C   UNL A   1      38.868  33.079  34.985  1.00  0.00     0.049 A 
ATOM     47  H   UNL A   1      39.528  31.761  33.512  1.00  0.00     0.167 HD
ATOM     48  C   UNL A   1      40.497  28.738  30.491  1.00  0.00     0.034 A 
ATOM     49  C   UNL A   1      39.638  32.877  36.072  1.00  0.00     0.034 A 
ATOM     50  C   UNL A   1      41.473  28.564  31.531  1.00  0.00     0.049 A 
ATOM     51  C   UNL A   1      40.740  31.854  36.005  1.00  0.00     0.074 A 
ATOM     52  C   UNL A   1      42.541  27.685  31.571  1.00  0.00     0.029 A 
ATOM     53  N   UNL A   1      41.503  29.288  32.712  1.00  0.00    -0.354 N 
ATOM     54  N   UNL A   1      41.070  31.064  35.011  1.00  0.00    -0.248 NA
ATOM     55  C   UNL A   1      41.601  31.721  37.188  1.00  0.00     0.031 C 
ATOM     56  C   UNL A   1      43.216  27.877  32.781  1.00  0.00     0.029 A 
ATOM     57  C   UNL A   1      42.574  28.880  33.488  1.00  0.00     0.049 A 
ATOM     58  H   UNL A   1      40.859  29.989  32.963  1.00  0.00     0.167 HD
ATOM     59  C   UNL A   1      42.198  30.370  35.435  1.00  0.00     0.074 A 
ATOM     60  C   UNL A   1      42.504  30.845  36.768  1.00  0.00     0.031 C 
ATOM     61  C   UNL A   1      42.905  29.414  34.784  1.00  0.00     0.034 A 
BRANCH  48  62
ATOM     62  C   UNL A   1      40.573  27.846  29.281  1.00  0.00     0.023 A 
ATOM     63  C   UNL A   1      39.720  26.727  29.196  1.00  0.00     0.012 A 
ATOM     64  C   UNL A   1      41.444  28.135  28.214  1.00  0.00     0.148 A 
ATOM     65  C   UNL A   1      39.756  25.889  28.083  1.00  0.00     0.002 A 
ATOM     66  C   UNL A   1      41.445  27.318  27.089  1.00  0.00     0.091 A 
ATOM     67  F   UNL A   1      42.268  29.187  28.325  1.00  0.00    -0.205 F 
ATOM     68  C   UNL A   1      40.610  26.190  27.026  1.00  0.00     0.022 A 
BRANCH  66  69
ATOM     69  S   UNL A   1      42.457  27.667  25.646  1.00  0.00     0.127 S 
ATOM     70  O   UNL A   1      41.912  28.951  25.207  1.00  0.00    -0.237 OA
ATOM     71  O   UNL A   1      43.802  27.741  26.221  1.00  0.00    -0.237 OA
ATOM     72  O   UNL A   1      42.250  26.551  24.735  1.00  0.00    -0.744 OA
ENDBRANCH  66  69
ENDBRANCH  48  62
BRANCH  49  73
ATOM     73  C   UNL A   1      39.456  33.728  37.282  1.00  0.00     0.023 A 
ATOM     74  C   UNL A   1      39.953  35.045  37.275  1.00  0.00     0.012 A 
ATOM     75  C   UNL A   1      38.765  33.262  38.417  1.00  0.00     0.148 A 
ATOM     76  C   UNL A   1      39.793  35.874  38.386  1.00  0.00     0.002 A 
ATOM     77  C   UNL A   1      38.563  34.109  39.501  1.00  0.00     0.091 A 
ATOM     78  F   UNL A   1      38.309  32.000  38.411  1.00  0.00    -0.205 F 
ATOM     79  C   UNL A   1      39.090  35.410  39.494  1.00  0.00     0.022 A 
BRANCH  77  80
ATOM     80  S   UNL A   1      37.556  33.636  40.912  1.00  0.00     0.127 S 
ATOM     81  O   UNL A   1      36.376  33.075  40.263  1.00  0.00    -0.237 OA
ATOM     82  O   UNL A   1      38.413  32.660  41.587  1.00  0.00    -0.237 OA
ATOM     83  O   UNL A   1      37.348  34.865  41.666  1.00  0.00    -0.744 OA
ENDBRANCH  77  80
ENDBRANCH  49  73
BRANCH  61  84
ATOM     84  C   UNL A   1      44.106  28.834  35.481  1.00  0.00     0.023 A 
ATOM     85  C   UNL A   1      45.374  29.411  35.281  1.00  0.00     0.012 A 
ATOM     86  C   UNL A   1      43.961  27.781  36.406  1.00  0.00     0.148 A 
ATOM     87  C   UNL A   1      46.485  28.936  35.974  1.00  0.00     0.002 A 
ATOM     88  C   UNL A   1      45.064  27.341  37.126  1.00  0.00     0.091 A 
ATOM     89  F   UNL A   1      42.747  27.232  36.566  1.00  0.00    -0.205 F 
ATOM     90  C   UNL A   1      46.328  27.910  36.906  1.00  0.00     0.022 A 
BRANCH  88  91
ATOM     91  S   UNL A   1      44.933  26.092  38.410  1.00  0.00     0.127 S 
ATOM     92  O   UNL A   1      44.272  25.000  37.699  1.00  0.00    -0.237 OA
ATOM     93  O   UNL A   1      46.335  25.840  38.747  1.00  0.00    -0.237 OA
ATOM     94  O   UNL A   1      44.158  26.704  39.482  1.00  0.00    -0.744 OA
ENDBRANCH  88  91
ENDBRANCH  61  84
ENDBRANCH  35  36
ENDBRANCH  27  30
ENDBRANCH  25  26
ENDBRANCH   1  25
TORSDOF 16
ENDMDL
MODEL 3
REMARK VINA RESULT:     -12.6      5.155     10.540
REMARK SMILES Cc1cc(NC(=O)c2ccc(Br)nc2)sc1C(=O)NCCCCNC(=O)c1ccc(-c2c3nc(c(-c4cccc(S(=O)(=O)[O-])c4F)c4ccc([nH]4)c(-c4cccc(S(=O)(=O)[O-])c4F)c4nc(c(-c5cccc(S(=O)(=O)[O-])c5F)c5ccc2[nH]5)C=C4)C=C3)cc1
REMARK SMILES IDX 22 1 21 2 20 3 19 4 17 5 18 6 16 8 1 9 2 10 3 11 4 12 15 13
REMARK SMILES IDX 5 14 6 15 7 17 8 18 9 19 14 20 10 21 13 22 11 23 12 24 23 25
REMARK SMILES IDX 24 26 25 27 26 29 27 30 28 31 89 32 29 33 88 34 30 35 31 36
REMARK SMILES IDX 32 37 82 38 33 39 87 40 81 41 83 42 34 43 86 44 80 45 79 46
REMARK SMILES IDX 35 48 67 49 47 50 66 51 48 52 51 53 65 54 84 55 49 56 50 57
REMARK SMILES IDX 64 59 85 60 52 61 36 62 37 63 45 64 38 65 40 66 46 67 39 68
REMARK SMILES IDX 41 69 42 70 43 71 44 72 68 73 69 74 77 75 70 76 72 77 78 78
REMARK SMILES IDX 71 79 73 80 74 81 75 82 76 83 53 84 54 85 62 86 55 87 57 88
REMARK SMILES IDX 63 89 56 90 58 91 59 92 60 93 61 94
REMARK H PARENT 19 7 5 16 24 28 83 47 51 58
REMARK Flexibility Score: inf
ROOT
ATOM      1  C   UNL A   1      31.629  31.120  26.211  1.00  0.00     0.023 C 
ENDROOT
BRANCH   1   2
ATOM      2  C   UNL A   1      31.624  29.662  25.762  1.00  0.00     0.023 C 
BRANCH   2   3
ATOM      3  C   UNL A   1      32.369  29.369  24.460  1.00  0.00     0.116 C 
BRANCH   3   4
ATOM      4  N   UNL A   1      31.480  29.344  23.327  1.00  0.00    -0.351 N 
ATOM      5  C   UNL A   1      30.807  28.359  22.653  1.00  0.00     0.261 C 
ATOM      6  O   UNL A   1      30.004  28.818  21.829  1.00  0.00    -0.268 OA
ATOM      7  H   UNL A   1      31.318  30.241  22.950  1.00  0.00     0.163 HD
BRANCH   5   8
ATOM      8  C   UNL A   1      30.988  26.909  22.834  1.00  0.00     0.097 A 
ATOM      9  C   UNL A   1      32.741  25.825  21.177  1.00  0.00     0.046 C 
ATOM     10  C   UNL A   1      31.687  25.861  22.226  1.00  0.00    -0.025 A 
ATOM     11  C   UNL A   1      31.229  24.591  22.708  1.00  0.00     0.042 A 
ATOM     12  C   UNL A   1      30.572  24.684  23.897  1.00  0.00     0.096 A 
ATOM     13  S   UNL A   1      30.044  26.253  24.178  1.00  0.00    -0.112 S 
BRANCH  12  14
ATOM     14  N   UNL A   1      30.270  23.750  24.858  1.00  0.00    -0.313 N 
ATOM     15  C   UNL A   1      31.143  22.817  25.388  1.00  0.00     0.257 C 
ATOM     16  H   UNL A   1      29.347  23.743  25.201  1.00  0.00     0.171 HD
ATOM     17  O   UNL A   1      30.749  21.893  26.095  1.00  0.00    -0.269 OA
BRANCH  15  18
ATOM     18  C   UNL A   1      32.595  22.949  25.159  1.00  0.00     0.058 A 
ATOM     19  C   UNL A   1      33.274  22.142  24.240  1.00  0.00     0.018 A 
ATOM     20  C   UNL A   1      33.333  23.806  25.960  1.00  0.00     0.126 A 
ATOM     21  C   UNL A   1      34.668  22.163  24.221  1.00  0.00     0.037 A 
ATOM     22  N   UNL A   1      34.688  23.847  25.956  1.00  0.00    -0.249 NA
ATOM     23  C   UNL A   1      35.327  23.013  25.101  1.00  0.00     0.106 A 
ATOM     24  Br  UNL A   1      37.222  22.971  25.162  1.00  0.00    -0.029 Br
ENDBRANCH  15  18
ENDBRANCH  12  14
ENDBRANCH   5   8
ENDBRANCH   3   4
ENDBRANCH   2   3
ENDBRANCH   1   2
BRANCH   1  25
ATOM     25  C   UNL A   1      32.699  31.463  27.241  1.00  0.00     0.116 C 
BRANCH  25  26
ATOM     26  N   UNL A   1      32.848  32.890  27.504  1.00  0.00    -0.352 N 
ATOM     27  C   UNL A   1      33.950  33.539  28.017  1.00  0.00     0.251 C 
ATOM     28  H   UNL A   1      32.070  33.455  27.290  1.00  0.00     0.163 HD
ATOM     29  O   UNL A   1      33.925  34.742  28.239  1.00  0.00    -0.269 OA
BRANCH  27  30
ATOM     30  C   UNL A   1      35.141  32.730  28.348  1.00  0.00     0.039 A 
ATOM     31  C   UNL A   1      36.399  33.335  28.304  1.00  0.00     0.014 A 
ATOM     32  C   UNL A   1      34.991  31.425  28.819  1.00  0.00     0.014 A 
ATOM     33  C   UNL A   1      37.502  32.656  28.823  1.00  0.00     0.010 A 
ATOM     34  C   UNL A   1      36.072  30.786  29.409  1.00  0.00     0.010 A 
ATOM     35  C   UNL A   1      37.336  31.397  29.424  1.00  0.00    -0.014 A 
BRANCH  35  36
ATOM     36  C   UNL A   1      38.459  30.707  30.103  1.00  0.00     0.031 A 
ATOM     37  C   UNL A   1      38.839  31.093  31.504  1.00  0.00     0.074 A 
ATOM     38  C   UNL A   1      39.208  29.820  29.416  1.00  0.00     0.049 A 
ATOM     39  N   UNL A   1      39.840  30.672  32.232  1.00  0.00    -0.248 NA
ATOM     40  C   UNL A   1      38.007  32.115  32.163  1.00  0.00     0.031 C 
ATOM     41  C   UNL A   1      39.000  29.436  28.017  1.00  0.00     0.029 A 
ATOM     42  N   UNL A   1      40.315  29.103  29.792  1.00  0.00    -0.354 N 
ATOM     43  C   UNL A   1      39.785  31.405  33.410  1.00  0.00     0.074 A 
ATOM     44  C   UNL A   1      38.675  32.323  33.288  1.00  0.00     0.031 C 
ATOM     45  C   UNL A   1      39.944  28.553  27.657  1.00  0.00     0.029 A 
ATOM     46  C   UNL A   1      40.837  28.321  28.787  1.00  0.00     0.049 A 
ATOM     47  H   UNL A   1      40.702  29.144  30.697  1.00  0.00     0.167 HD
ATOM     48  C   UNL A   1      40.565  31.298  34.511  1.00  0.00     0.034 A 
ATOM     49  C   UNL A   1      41.912  27.509  28.779  1.00  0.00     0.034 A 
ATOM     50  C   UNL A   1      41.623  30.336  34.654  1.00  0.00     0.049 A 
ATOM     51  C   UNL A   1      42.713  27.348  30.044  1.00  0.00     0.074 A 
ATOM     52  C   UNL A   1      42.404  30.076  35.766  1.00  0.00     0.029 A 
ATOM     53  N   UNL A   1      42.043  29.472  33.655  1.00  0.00    -0.354 N 
ATOM     54  N   UNL A   1      42.538  27.926  31.208  1.00  0.00    -0.248 NA
ATOM     55  C   UNL A   1      43.831  26.395  30.009  1.00  0.00     0.031 C 
ATOM     56  C   UNL A   1      43.301  29.053  35.437  1.00  0.00     0.029 A 
ATOM     57  C   UNL A   1      43.071  28.673  34.125  1.00  0.00     0.049 A 
ATOM     58  H   UNL A   1      41.666  29.431  32.747  1.00  0.00     0.167 HD
ATOM     59  C   UNL A   1      43.497  27.379  32.052  1.00  0.00     0.074 A 
ATOM     60  C   UNL A   1      44.239  26.412  31.271  1.00  0.00     0.031 C 
ATOM     61  C   UNL A   1      43.751  27.665  33.353  1.00  0.00     0.034 A 
BRANCH  48  62
ATOM     62  C   UNL A   1      40.251  32.195  35.677  1.00  0.00     0.023 A 
ATOM     63  C   UNL A   1      41.026  33.355  35.882  1.00  0.00     0.012 A 
ATOM     64  C   UNL A   1      39.169  31.925  36.536  1.00  0.00     0.148 A 
ATOM     65  C   UNL A   1      40.752  34.214  36.945  1.00  0.00     0.002 A 
ATOM     66  C   UNL A   1      38.876  32.808  37.569  1.00  0.00     0.091 A 
ATOM     67  F   UNL A   1      38.461  30.803  36.342  1.00  0.00    -0.205 F 
ATOM     68  C   UNL A   1      39.672  33.947  37.780  1.00  0.00     0.022 A 
BRANCH  66  69
ATOM     69  S   UNL A   1      37.461  32.587  38.653  1.00  0.00     0.127 S 
ATOM     70  O   UNL A   1      36.359  33.016  37.791  1.00  0.00    -0.237 OA
ATOM     71  O   UNL A   1      37.498  31.148  38.923  1.00  0.00    -0.237 OA
ATOM     72  O   UNL A   1      37.714  33.426  39.815  1.00  0.00    -0.744 OA
ENDBRANCH  66  69
ENDBRANCH  48  62
BRANCH  49  73
ATOM     73  C   UNL A   1      42.235  26.713  27.561  1.00  0.00     0.023 A 
ATOM     74  C   UNL A   1      42.880  27.345  26.481  1.00  0.00     0.012 A 
ATOM     75  C   UNL A   1      41.946  25.338  27.478  1.00  0.00     0.148 A 
ATOM     76  C   UNL A   1      43.206  26.631  25.328  1.00  0.00     0.002 A 
ATOM     77  C   UNL A   1      42.320  24.619  26.348  1.00  0.00     0.091 A 
ATOM     78  F   UNL A   1      41.320  24.755  28.511  1.00  0.00    -0.205 F 
ATOM     79  C   UNL A   1      42.935  25.266  25.265  1.00  0.00     0.022 A 
BRANCH  77  80
ATOM     80  S   UNL A   1      42.129  22.836  26.240  1.00  0.00     0.127 S 
ATOM     81  O   UNL A   1      42.890  22.381  27.399  1.00  0.00    -0.237 OA
ATOM     82  O   UNL A   1      40.678  22.676  26.352  1.00  0.00    -0.237 OA
ATOM     83  O   UNL A   1      42.668  22.468  24.937  1.00  0.00    -0.744 OA
ENDBRANCH  77  80
ENDBRANCH  49  73
BRANCH  61  84
ATOM     84  C   UNL A   1      44.853  26.902  34.036  1.00  0.00     0.023 A 
ATOM     85  C   UNL A   1      46.173  27.388  33.983  1.00  0.00     0.012 A 
ATOM     86  C   UNL A   1      44.565  25.759  34.807  1.00  0.00     0.148 A 
ATOM     87  C   UNL A   1      47.195  26.736  34.671  1.00  0.00     0.002 A 
ATOM     88  C   UNL A   1      45.580  25.140  35.525  1.00  0.00     0.091 A 
ATOM     89  F   UNL A   1      43.304  25.301  34.826  1.00  0.00    -0.205 F 
ATOM     90  C   UNL A   1      46.897  25.621  35.452  1.00  0.00     0.022 A 
BRANCH  88  91
ATOM     91  S   UNL A   1      45.266  23.757  36.628  1.00  0.00     0.127 S 
ATOM     92  O   UNL A   1      46.618  23.404  37.056  1.00  0.00    -0.237 OA
ATOM     93  O   UNL A   1      44.437  24.367  37.669  1.00  0.00    -0.237 OA
ATOM     94  O   UNL A   1      44.579  22.755  35.824  1.00  0.00    -0.744 OA
ENDBRANCH  88  91
ENDBRANCH  61  84
ENDBRANCH  35  36
ENDBRANCH  27  30
ENDBRANCH  25  26
ENDBRANCH   1  25
TORSDOF 16
ENDMDL
