MODEL 1
REMARK VINA RESULT:     -14.3      0.000      0.000
REMARK SMILES CC1(C)O[C@@H]2C[C@@H]3[C@H]4CCC5=CC(=O)C=C[C@@]5(C)[C@]4(F)[C@H](O)C[C@]3(C)[C@]2(C(=O)NCCCCNC(=O)c2ccc(-c3c4nc(c(-c5cccc(S(=O)(=O)[O-])c5F)c5ccc([nH]5)c(-c5cccc(S(=O)(=O)[O-])c5F)c5nc(c(-c6cccc(S(=O)(=O)[O-])c6F)c6ccc3[nH]6)C=C5)C=C4)cc2)O1
REMARK SMILES IDX 32 1 31 2 30 3 29 4 27 5 28 6 26 8 1 9 2 10 4 11 100 12 3 13
REMARK SMILES IDX 5 14 6 15 24 16 7 17 23 18 25 19 8 20 21 21 9 22 19 23 10 24
REMARK SMILES IDX 17 25 20 26 11 27 16 28 18 29 12 30 15 31 13 32 14 33 22 34
REMARK SMILES IDX 33 36 34 37 35 38 36 40 37 41 38 42 99 43 39 44 98 45 40 46
REMARK SMILES IDX 41 47 42 48 92 49 43 50 97 51 91 52 93 53 44 54 96 55 90 56
REMARK SMILES IDX 89 57 45 59 77 60 57 61 76 62 58 63 61 64 75 65 94 66 59 67
REMARK SMILES IDX 60 68 74 70 95 71 62 72 46 73 47 74 55 75 48 76 50 77 56 78
REMARK SMILES IDX 49 79 51 80 52 81 53 82 54 83 78 84 79 85 87 86 80 87 82 88
REMARK SMILES IDX 88 89 81 90 83 91 84 92 85 93 86 94 63 95 64 96 72 97 65 98
REMARK SMILES IDX 67 99 73 100 66 101 68 102 69 103 70 104 71 105
REMARK H PARENT 29 7 22 35 34 39 93 58 61 69
REMARK Flexibility Score: inf
ROOT
ATOM      1  C   UNL A   1      36.512  20.927  25.013  1.00  0.00     0.023 C 
ENDROOT
BRANCH   1   2
ATOM      2  C   UNL A   1      35.443  21.907  24.525  1.00  0.00     0.023 C 
BRANCH   2   3
ATOM      3  C   UNL A   1      34.035  21.541  24.979  1.00  0.00     0.116 C 
BRANCH   3   4
ATOM      4  N   UNL A   1      33.085  21.847  23.944  1.00  0.00    -0.353 N 
ATOM      5  C   UNL A   1      32.298  22.912  23.719  1.00  0.00     0.255 C 
ATOM      6  O   UNL A   1      31.500  22.773  22.781  1.00  0.00    -0.272 OA
ATOM      7  H   UNL A   1      32.993  21.138  23.268  1.00  0.00     0.163 HD
BRANCH   5   8
ATOM      8  C   UNL A   1      32.392  24.256  24.452  1.00  0.00     0.181 C 
ATOM      9  C   UNL A   1      30.318  22.934  26.513  1.00  0.00     0.075 C 
ATOM     10  C   UNL A   1      30.824  24.331  26.189  1.00  0.00     0.164 C 
ATOM     11  O   UNL A   1      32.084  24.505  26.838  1.00  0.00    -0.344 OA
ATOM     12  O   UNL A   1      30.972  24.488  24.772  1.00  0.00    -0.331 OA
ATOM     13  C   UNL A   1      29.832  25.374  26.715  1.00  0.00     0.075 C 
ATOM     14  C   UNL A   1      33.096  24.551  25.822  1.00  0.00     0.164 C 
ATOM     15  C   UNL A   1      33.623  26.056  25.746  1.00  0.00     0.040 C 
ATOM     16  C   UNL A   1      32.928  25.426  23.520  1.00  0.00     0.014 C 
ATOM     17  C   UNL A   1      32.787  26.567  24.568  1.00  0.00     0.008 C 
ATOM     18  C   UNL A   1      32.248  25.746  22.176  1.00  0.00     0.046 C 
ATOM     19  C   UNL A   1      34.408  25.120  23.127  1.00  0.00     0.015 C 
ATOM     20  C   UNL A   1      31.861  27.782  24.363  1.00  0.00     0.035 C 
ATOM     21  C   UNL A   1      31.049  26.679  22.214  1.00  0.00     0.154 C 
ATOM     22  C   UNL A   1      32.238  29.041  25.125  1.00  0.00     0.012 C 
ATOM     23  C   UNL A   1      31.354  28.036  22.937  1.00  0.00     0.152 C 
ATOM     24  C   UNL A   1      30.949  29.835  25.355  1.00  0.00     0.032 C 
ATOM     25  C   UNL A   1      30.109  29.039  22.982  1.00  0.00     0.044 C 
ATOM     26  F   UNL A   1      32.387  28.644  22.265  1.00  0.00    -0.239 F 
ATOM     27  C   UNL A   1      30.217  30.138  24.069  1.00  0.00    -0.053 C 
ATOM     28  C   UNL A   1      29.886  29.709  21.626  1.00  0.00    -0.009 C 
ATOM     29  C   UNL A   1      28.772  28.297  23.289  1.00  0.00     0.024 C 
ATOM     30  C   UNL A   1      29.554  31.304  23.937  1.00  0.00     0.052 C 
ATOM     31  C   UNL A   1      29.153  30.826  21.499  1.00  0.00     0.048 C 
ATOM     32  C   UNL A   1      28.775  31.593  22.709  1.00  0.00     0.178 C 
ATOM     33  O   UNL A   1      27.925  32.473  22.682  1.00  0.00    -0.290 OA
BRANCH  21  34
ATOM     34  O   UNL A   1      29.945  25.958  22.751  1.00  0.00    -0.390 OA
ATOM     35  H   UNL A   1      30.108  25.005  22.663  1.00  0.00     0.211 HD
ENDBRANCH  21  34
ENDBRANCH   5   8
ENDBRANCH   3   4
ENDBRANCH   2   3
ENDBRANCH   1   2
BRANCH   1  36
ATOM     36  C   UNL A   1      37.862  21.570  25.310  1.00  0.00     0.116 C 
BRANCH  36  37
ATOM     37  N   UNL A   1      38.847  20.603  25.781  1.00  0.00    -0.352 N 
ATOM     38  C   UNL A   1      40.012  20.832  26.465  1.00  0.00     0.251 C 
ATOM     39  H   UNL A   1      38.650  19.659  25.580  1.00  0.00     0.163 HD
ATOM     40  O   UNL A   1      40.811  19.922  26.665  1.00  0.00    -0.269 OA
BRANCH  38  41
ATOM     41  C   UNL A   1      40.293  22.202  26.924  1.00  0.00     0.039 A 
ATOM     42  C   UNL A   1      41.156  22.390  28.003  1.00  0.00     0.014 A 
ATOM     43  C   UNL A   1      39.771  23.290  26.218  1.00  0.00     0.014 A 
ATOM     44  C   UNL A   1      41.550  23.684  28.338  1.00  0.00     0.010 A 
ATOM     45  C   UNL A   1      40.232  24.567  26.501  1.00  0.00     0.010 A 
ATOM     46  C   UNL A   1      41.122  24.777  27.567  1.00  0.00    -0.014 A 
BRANCH  46  47
ATOM     47  C   UNL A   1      41.599  26.152  27.852  1.00  0.00     0.031 A 
ATOM     48  C   UNL A   1      43.007  26.544  27.501  1.00  0.00     0.074 A 
ATOM     49  C   UNL A   1      40.795  27.012  28.507  1.00  0.00     0.049 A 
ATOM     50  N   UNL A   1      43.625  27.675  27.721  1.00  0.00    -0.248 NA
ATOM     51  C   UNL A   1      43.842  25.522  26.849  1.00  0.00     0.031 C 
ATOM     52  C   UNL A   1      39.440  26.715  28.979  1.00  0.00     0.029 A 
ATOM     53  N   UNL A   1      41.011  28.304  28.915  1.00  0.00    -0.354 N 
ATOM     54  C   UNL A   1      44.925  27.489  27.270  1.00  0.00     0.074 A 
ATOM     55  C   UNL A   1      45.021  26.125  26.801  1.00  0.00     0.031 C 
ATOM     56  C   UNL A   1      38.944  27.796  29.603  1.00  0.00     0.029 A 
ATOM     57  C   UNL A   1      39.953  28.851  29.604  1.00  0.00     0.049 A 
ATOM     58  H   UNL A   1      41.845  28.794  28.732  1.00  0.00     0.167 HD
ATOM     59  C   UNL A   1      45.940  28.384  27.219  1.00  0.00     0.034 A 
ATOM     60  C   UNL A   1      39.815  30.062  30.176  1.00  0.00     0.034 A 
ATOM     61  C   UNL A   1      45.823  29.752  27.643  1.00  0.00     0.049 A 
ATOM     62  C   UNL A   1      40.942  31.053  30.061  1.00  0.00     0.074 A 
ATOM     63  C   UNL A   1      46.760  30.765  27.545  1.00  0.00     0.029 A 
ATOM     64  N   UNL A   1      44.704  30.299  28.251  1.00  0.00    -0.354 N 
ATOM     65  N   UNL A   1      42.107  30.913  29.479  1.00  0.00    -0.248 NA
ATOM     66  C   UNL A   1      40.720  32.383  30.649  1.00  0.00     0.031 C 
ATOM     67  C   UNL A   1      46.216  31.918  28.117  1.00  0.00     0.029 A 
ATOM     68  C   UNL A   1      44.929  31.632  28.543  1.00  0.00     0.049 A 
ATOM     69  H   UNL A   1      43.873  29.809  28.447  1.00  0.00     0.167 HD
ATOM     70  C   UNL A   1      42.743  32.144  29.596  1.00  0.00     0.074 A 
ATOM     71  C   UNL A   1      41.823  33.024  30.287  1.00  0.00     0.031 C 
ATOM     72  C   UNL A   1      43.982  32.509  29.183  1.00  0.00     0.034 A 
BRANCH  59  73
ATOM     73  C   UNL A   1      47.248  27.923  26.635  1.00  0.00     0.023 A 
ATOM     74  C   UNL A   1      48.293  27.528  27.497  1.00  0.00     0.012 A 
ATOM     75  C   UNL A   1      47.429  27.828  25.242  1.00  0.00     0.148 A 
ATOM     76  C   UNL A   1      49.510  27.082  26.982  1.00  0.00     0.002 A 
ATOM     77  C   UNL A   1      48.627  27.338  24.736  1.00  0.00     0.091 A 
ATOM     78  F   UNL A   1      46.433  28.230  24.439  1.00  0.00    -0.205 F 
ATOM     79  C   UNL A   1      49.672  26.977  25.604  1.00  0.00     0.022 A 
BRANCH  77  80
ATOM     80  S   UNL A   1      48.907  27.087  22.980  1.00  0.00     0.127 S 
ATOM     81  O   UNL A   1      50.368  27.078  22.914  1.00  0.00    -0.237 OA
ATOM     82  O   UNL A   1      48.278  25.787  22.751  1.00  0.00    -0.237 OA
ATOM     83  O   UNL A   1      48.258  28.204  22.306  1.00  0.00    -0.744 OA
ENDBRANCH  77  80
ENDBRANCH  59  73
BRANCH  60  84
ATOM     84  C   UNL A   1      38.536  30.429  30.845  1.00  0.00     0.023 A 
ATOM     85  C   UNL A   1      38.325  30.056  32.187  1.00  0.00     0.012 A 
ATOM     86  C   UNL A   1      37.541  31.166  30.174  1.00  0.00     0.148 A 
ATOM     87  C   UNL A   1      37.133  30.377  32.837  1.00  0.00     0.002 A 
ATOM     88  C   UNL A   1      36.380  31.533  30.846  1.00  0.00     0.091 A 
ATOM     89  F   UNL A   1      37.755  31.505  28.896  1.00  0.00    -0.205 F 
ATOM     90  C   UNL A   1      36.166  31.123  32.171  1.00  0.00     0.022 A 
BRANCH  88  91
ATOM     91  S   UNL A   1      35.141  32.605  30.111  1.00  0.00     0.127 S 
ATOM     92  O   UNL A   1      34.196  32.771  31.212  1.00  0.00    -0.237 OA
ATOM     93  O   UNL A   1      35.927  33.797  29.787  1.00  0.00    -0.237 OA
ATOM     94  O   UNL A   1      34.639  31.887  28.947  1.00  0.00    -0.744 OA
ENDBRANCH  88  91
ENDBRANCH  60  84
BRANCH  72  95
ATOM     95  C   UNL A   1      44.408  33.933  29.426  1.00  0.00     0.023 A 
ATOM     96  C   UNL A   1      45.006  34.287  30.651  1.00  0.00     0.012 A 
ATOM     97  C   UNL A   1      44.289  34.899  28.408  1.00  0.00     0.148 A 
ATOM     98  C   UNL A   1      45.449  35.590  30.872  1.00  0.00     0.002 A 
ATOM     99  C   UNL A   1      44.779  36.182  28.615  1.00  0.00     0.091 A 
ATOM    100  F   UNL A   1      43.701  34.546  27.256  1.00  0.00    -0.205 F 
ATOM    101  C   UNL A   1      45.348  36.534  29.851  1.00  0.00     0.022 A 
BRANCH  99 102
ATOM    102  S   UNL A   1      44.781  37.433  27.325  1.00  0.00     0.127 S 
ATOM    103  O   UNL A   1      45.736  36.874  26.371  1.00  0.00    -0.237 OA
ATOM    104  O   UNL A   1      43.389  37.418  26.876  1.00  0.00    -0.237 OA
ATOM    105  O   UNL A   1      45.193  38.672  27.970  1.00  0.00    -0.744 OA
ENDBRANCH  99 102
ENDBRANCH  72  95
ENDBRANCH  46  47
ENDBRANCH  38  41
ENDBRANCH  36  37
ENDBRANCH   1  36
TORSDOF 15
ENDMDL
MODEL 2
REMARK VINA RESULT:     -14.3      4.938     10.112
REMARK SMILES CC1(C)O[C@@H]2C[C@@H]3[C@H]4CCC5=CC(=O)C=C[C@@]5(C)[C@]4(F)[C@H](O)C[C@]3(C)[C@]2(C(=O)NCCCCNC(=O)c2ccc(-c3c4nc(c(-c5cccc(S(=O)(=O)[O-])c5F)c5ccc([nH]5)c(-c5cccc(S(=O)(=O)[O-])c5F)c5nc(c(-c6cccc(S(=O)(=O)[O-])c6F)c6ccc3[nH]6)C=C5)C=C4)cc2)O1
REMARK SMILES IDX 32 1 31 2 30 3 29 4 27 5 28 6 26 8 1 9 2 10 4 11 100 12 3 13
REMARK SMILES IDX 5 14 6 15 24 16 7 17 23 18 25 19 8 20 21 21 9 22 19 23 10 24
REMARK SMILES IDX 17 25 20 26 11 27 16 28 18 29 12 30 15 31 13 32 14 33 22 34
REMARK SMILES IDX 33 36 34 37 35 38 36 40 37 41 38 42 99 43 39 44 98 45 40 46
REMARK SMILES IDX 41 47 42 48 92 49 43 50 97 51 91 52 93 53 44 54 96 55 90 56
REMARK SMILES IDX 89 57 45 59 77 60 57 61 76 62 58 63 61 64 75 65 94 66 59 67
REMARK SMILES IDX 60 68 74 70 95 71 62 72 46 73 47 74 55 75 48 76 50 77 56 78
REMARK SMILES IDX 49 79 51 80 52 81 53 82 54 83 78 84 79 85 87 86 80 87 82 88
REMARK SMILES IDX 88 89 81 90 83 91 84 92 85 93 86 94 63 95 64 96 72 97 65 98
REMARK SMILES IDX 67 99 73 100 66 101 68 102 69 103 70 104 71 105
REMARK H PARENT 29 7 22 35 34 39 93 58 61 69
REMARK Flexibility Score: inf
ROOT
ATOM      1  C   UNL A   1      32.746  28.423  27.471  1.00  0.00     0.023 C 
ENDROOT
BRANCH   1   2
ATOM      2  C   UNL A   1      31.417  28.223  26.740  1.00  0.00     0.023 C 
BRANCH   2   3
ATOM      3  C   UNL A   1      31.582  27.934  25.253  1.00  0.00     0.116 C 
BRANCH   3   4
ATOM      4  N   UNL A   1      30.731  26.844  24.862  1.00  0.00    -0.353 N 
ATOM      5  C   UNL A   1      30.988  25.585  24.468  1.00  0.00     0.255 C 
ATOM      6  O   UNL A   1      29.994  24.954  24.082  1.00  0.00    -0.272 OA
ATOM      7  H   UNL A   1      29.771  27.062  24.888  1.00  0.00     0.163 HD
BRANCH   5   8
ATOM      8  C   UNL A   1      32.352  24.889  24.559  1.00  0.00     0.181 C 
ATOM      9  C   UNL A   1      32.560  25.552  21.426  1.00  0.00     0.075 C 
ATOM     10  C   UNL A   1      33.267  24.642  22.418  1.00  0.00     0.164 C 
ATOM     11  O   UNL A   1      34.227  25.424  23.128  1.00  0.00    -0.344 OA
ATOM     12  O   UNL A   1      32.319  24.074  23.331  1.00  0.00    -0.331 OA
ATOM     13  C   UNL A   1      33.984  23.517  21.664  1.00  0.00     0.075 C 
ATOM     14  C   UNL A   1      33.771  25.551  24.483  1.00  0.00     0.164 C 
ATOM     15  C   UNL A   1      34.736  24.662  25.393  1.00  0.00     0.040 C 
ATOM     16  C   UNL A   1      32.472  23.940  25.828  1.00  0.00     0.014 C 
ATOM     17  C   UNL A   1      33.890  23.389  25.504  1.00  0.00     0.008 C 
ATOM     18  C   UNL A   1      31.435  22.833  26.093  1.00  0.00     0.046 C 
ATOM     19  C   UNL A   1      32.423  24.816  27.119  1.00  0.00     0.015 C 
ATOM     20  C   UNL A   1      34.168  21.896  25.240  1.00  0.00     0.035 C 
ATOM     21  C   UNL A   1      31.656  21.499  25.399  1.00  0.00     0.154 C 
ATOM     22  C   UNL A   1      35.586  21.426  25.514  1.00  0.00     0.012 C 
ATOM     23  C   UNL A   1      33.081  20.901  25.667  1.00  0.00     0.152 C 
ATOM     24  C   UNL A   1      35.848  20.220  24.607  1.00  0.00     0.032 C 
ATOM     25  C   UNL A   1      33.335  19.492  24.954  1.00  0.00     0.044 C 
ATOM     26  F   UNL A   1      33.218  20.741  27.024  1.00  0.00    -0.239 F 
ATOM     27  C   UNL A   1      34.831  19.120  24.795  1.00  0.00    -0.053 C 
ATOM     28  C   UNL A   1      32.622  18.359  25.693  1.00  0.00    -0.009 C 
ATOM     29  C   UNL A   1      32.753  19.455  23.507  1.00  0.00     0.024 C 
ATOM     30  C   UNL A   1      35.212  17.832  24.687  1.00  0.00     0.052 C 
ATOM     31  C   UNL A   1      32.960  17.072  25.513  1.00  0.00     0.048 C 
ATOM     32  C   UNL A   1      34.217  16.739  24.803  1.00  0.00     0.178 C 
ATOM     33  O   UNL A   1      34.458  15.607  24.406  1.00  0.00    -0.290 OA
BRANCH  21  34
ATOM     34  O   UNL A   1      31.330  21.657  24.023  1.00  0.00    -0.390 OA
ATOM     35  H   UNL A   1      32.025  21.256  23.477  1.00  0.00     0.211 HD
ENDBRANCH  21  34
ENDBRANCH   5   8
ENDBRANCH   3   4
ENDBRANCH   2   3
ENDBRANCH   1   2
BRANCH   1  36
ATOM     36  C   UNL A   1      33.725  29.343  26.751  1.00  0.00     0.116 C 
BRANCH  36  37
ATOM     37  N   UNL A   1      33.727  30.694  27.302  1.00  0.00    -0.352 N 
ATOM     38  C   UNL A   1      34.644  31.275  28.139  1.00  0.00     0.251 C 
ATOM     39  H   UNL A   1      32.969  31.264  27.039  1.00  0.00     0.163 HD
ATOM     40  O   UNL A   1      34.430  32.377  28.634  1.00  0.00    -0.269 OA
BRANCH  38  41
ATOM     41  C   UNL A   1      35.873  30.529  28.452  1.00  0.00     0.039 A 
ATOM     42  C   UNL A   1      37.000  30.714  27.650  1.00  0.00     0.014 A 
ATOM     43  C   UNL A   1      35.923  29.724  29.594  1.00  0.00     0.014 A 
ATOM     44  C   UNL A   1      38.208  30.136  28.035  1.00  0.00     0.010 A 
ATOM     45  C   UNL A   1      37.145  29.222  30.017  1.00  0.00     0.010 A 
ATOM     46  C   UNL A   1      38.298  29.418  29.239  1.00  0.00    -0.014 A 
BRANCH  46  47
ATOM     47  C   UNL A   1      39.592  28.869  29.711  1.00  0.00     0.031 A 
ATOM     48  C   UNL A   1      40.337  29.556  30.822  1.00  0.00     0.074 A 
ATOM     49  C   UNL A   1      40.136  27.811  29.079  1.00  0.00     0.049 A 
ATOM     50  N   UNL A   1      41.503  29.264  31.334  1.00  0.00    -0.248 NA
ATOM     51  C   UNL A   1      39.704  30.747  31.414  1.00  0.00     0.031 C 
ATOM     52  C   UNL A   1      39.550  27.117  27.930  1.00  0.00     0.029 A 
ATOM     53  N   UNL A   1      41.319  27.152  29.295  1.00  0.00    -0.354 N 
ATOM     54  C   UNL A   1      41.760  30.251  32.277  1.00  0.00     0.074 A 
ATOM     55  C   UNL A   1      40.648  31.174  32.240  1.00  0.00     0.031 C 
ATOM     56  C   UNL A   1      40.371  26.125  27.549  1.00  0.00     0.029 A 
ATOM     57  C   UNL A   1      41.554  26.131  28.404  1.00  0.00     0.049 A 
ATOM     58  H   UNL A   1      41.942  27.387  30.020  1.00  0.00     0.167 HD
ATOM     59  C   UNL A   1      42.812  30.362  33.122  1.00  0.00     0.034 A 
ATOM     60  C   UNL A   1      42.605  25.297  28.286  1.00  0.00     0.034 A 
ATOM     61  C   UNL A   1      43.891  29.414  33.186  1.00  0.00     0.049 A 
ATOM     62  C   UNL A   1      43.738  25.412  29.271  1.00  0.00     0.074 A 
ATOM     63  C   UNL A   1      44.953  29.381  34.071  1.00  0.00     0.029 A 
ATOM     64  N   UNL A   1      44.048  28.336  32.329  1.00  0.00    -0.354 N 
ATOM     65  N   UNL A   1      43.882  26.251  30.267  1.00  0.00    -0.248 NA
ATOM     66  C   UNL A   1      44.835  24.441  29.139  1.00  0.00     0.031 C 
ATOM     67  C   UNL A   1      45.768  28.297  33.732  1.00  0.00     0.029 A 
ATOM     68  C   UNL A   1      45.196  27.636  32.657  1.00  0.00     0.049 A 
ATOM     69  H   UNL A   1      43.434  28.104  31.596  1.00  0.00     0.167 HD
ATOM     70  C   UNL A   1      45.064  25.888  30.904  1.00  0.00     0.074 A 
ATOM     71  C   UNL A   1      45.585  24.739  30.191  1.00  0.00     0.031 C 
ATOM     72  C   UNL A   1      45.672  26.462  31.971  1.00  0.00     0.034 A 
BRANCH  59  73
ATOM     73  C   UNL A   1      42.817  31.521  34.082  1.00  0.00     0.023 A 
ATOM     74  C   UNL A   1      43.410  32.741  33.696  1.00  0.00     0.012 A 
ATOM     75  C   UNL A   1      42.192  31.424  35.340  1.00  0.00     0.148 A 
ATOM     76  C   UNL A   1      43.415  33.835  34.560  1.00  0.00     0.002 A 
ATOM     77  C   UNL A   1      42.159  32.533  36.178  1.00  0.00     0.091 A 
ATOM     78  F   UNL A   1      41.654  30.250  35.699  1.00  0.00    -0.205 F 
ATOM     79  C   UNL A   1      42.780  33.734  35.795  1.00  0.00     0.022 A 
BRANCH  77  80
ATOM     80  S   UNL A   1      41.297  32.532  37.754  1.00  0.00     0.127 S 
ATOM     81  O   UNL A   1      39.978  32.035  37.367  1.00  0.00    -0.237 OA
ATOM     82  O   UNL A   1      42.096  31.593  38.540  1.00  0.00    -0.237 OA
ATOM     83  O   UNL A   1      41.331  33.908  38.231  1.00  0.00    -0.744 OA
ENDBRANCH  77  80
ENDBRANCH  59  73
BRANCH  60  84
ATOM     84  C   UNL A   1      42.603  24.236  27.240  1.00  0.00     0.023 A 
ATOM     85  C   UNL A   1      43.249  24.475  26.011  1.00  0.00     0.012 A 
ATOM     86  C   UNL A   1      41.991  22.988  27.463  1.00  0.00     0.148 A 
ATOM     87  C   UNL A   1      43.256  23.504  25.010  1.00  0.00     0.002 A 
ATOM     88  C   UNL A   1      42.051  22.004  26.481  1.00  0.00     0.091 A 
ATOM     89  F   UNL A   1      41.374  22.782  28.634  1.00  0.00    -0.205 F 
ATOM     90  C   UNL A   1      42.665  22.266  25.248  1.00  0.00     0.022 A 
BRANCH  88  91
ATOM     91  S   UNL A   1      41.437  20.338  26.751  1.00  0.00     0.127 S 
ATOM     92  O   UNL A   1      40.018  20.578  27.002  1.00  0.00    -0.237 OA
ATOM     93  O   UNL A   1      41.738  19.694  25.472  1.00  0.00    -0.237 OA
ATOM     94  O   UNL A   1      42.200  19.816  27.877  1.00  0.00    -0.744 OA
ENDBRANCH  88  91
ENDBRANCH  60  84
BRANCH  72  95
ATOM     95  C   UNL A   1      46.949  25.837  32.468  1.00  0.00     0.023 A 
ATOM     96  C   UNL A   1      48.188  26.283  31.970  1.00  0.00     0.012 A 
ATOM     97  C   UNL A   1      46.920  24.866  33.488  1.00  0.00     0.148 A 
ATOM     98  C   UNL A   1      49.380  25.747  32.456  1.00  0.00     0.002 A 
ATOM     99  C   UNL A   1      48.112  24.373  34.003  1.00  0.00     0.091 A 
ATOM    100  F   UNL A   1      45.729  24.442  33.936  1.00  0.00    -0.205 F 
ATOM    101  C   UNL A   1      49.343  24.804  33.480  1.00  0.00     0.022 A 
BRANCH  99 102
ATOM    102  S   UNL A   1      48.164  23.231  35.389  1.00  0.00     0.127 S 
ATOM    103  O   UNL A   1      47.457  23.985  36.422  1.00  0.00    -0.237 OA
ATOM    104  O   UNL A   1      47.432  22.076  34.867  1.00  0.00    -0.237 OA
ATOM    105  O   UNL A   1      49.575  22.982  35.650  1.00  0.00    -0.744 OA
ENDBRANCH  99 102
ENDBRANCH  72  95
ENDBRANCH  46  47
ENDBRANCH  38  41
ENDBRANCH  36  37
ENDBRANCH   1  36
TORSDOF 15
ENDMDL
MODEL 3
REMARK VINA RESULT:     -14.2      4.975     10.479
REMARK SMILES CC1(C)O[C@@H]2C[C@@H]3[C@H]4CCC5=CC(=O)C=C[C@@]5(C)[C@]4(F)[C@H](O)C[C@]3(C)[C@]2(C(=O)NCCCCNC(=O)c2ccc(-c3c4nc(c(-c5cccc(S(=O)(=O)[O-])c5F)c5ccc([nH]5)c(-c5cccc(S(=O)(=O)[O-])c5F)c5nc(c(-c6cccc(S(=O)(=O)[O-])c6F)c6ccc3[nH]6)C=C5)C=C4)cc2)O1
REMARK SMILES IDX 32 1 31 2 30 3 29 4 27 5 28 6 26 8 1 9 2 10 4 11 100 12 3 13
REMARK SMILES IDX 5 14 6 15 24 16 7 17 23 18 25 19 8 20 21 21 9 22 19 23 10 24
REMARK SMILES IDX 17 25 20 26 11 27 16 28 18 29 12 30 15 31 13 32 14 33 22 34
REMARK SMILES IDX 33 36 34 37 35 38 36 40 37 41 38 42 99 43 39 44 98 45 40 46
REMARK SMILES IDX 41 47 42 48 92 49 43 50 97 51 91 52 93 53 44 54 96 55 90 56
REMARK SMILES IDX 89 57 45 59 77 60 57 61 76 62 58 63 61 64 75 65 94 66 59 67
REMARK SMILES IDX 60 68 74 70 95 71 62 72 46 73 47 74 55 75 48 76 50 77 56 78
REMARK SMILES IDX 49 79 51 80 52 81 53 82 54 83 78 84 79 85 87 86 80 87 82 88
REMARK SMILES IDX 88 89 81 90 83 91 84 92 85 93 86 94 63 95 64 96 72 97 65 98
REMARK SMILES IDX 67 99 73 100 66 101 68 102 69 103 70 104 71 105
REMARK H PARENT 29 7 22 35 34 39 93 58 61 69
REMARK Flexibility Score: inf
ROOT
ATOM      1  C   UNL A   1      32.527  29.715  25.382  1.00  0.00     0.023 C 
ENDROOT
BRANCH   1   2
ATOM      2  C   UNL A   1      31.167  29.742  24.681  1.00  0.00     0.023 C 
BRANCH   2   3
ATOM      3  C   UNL A   1      31.083  28.801  23.486  1.00  0.00     0.116 C 
BRANCH   3   4
ATOM      4  N   UNL A   1      30.229  27.687  23.791  1.00  0.00    -0.353 N 
ATOM      5  C   UNL A   1      30.468  26.373  23.947  1.00  0.00     0.255 C 
ATOM      6  O   UNL A   1      29.451  25.678  24.083  1.00  0.00    -0.272 OA
ATOM      7  H   UNL A   1      29.283  27.933  23.908  1.00  0.00     0.163 HD
BRANCH   5   8
ATOM      8  C   UNL A   1      31.857  25.732  24.062  1.00  0.00     0.181 C 
ATOM      9  C   UNL A   1      31.973  26.137  20.881  1.00  0.00     0.075 C 
ATOM     10  C   UNL A   1      32.732  25.336  21.926  1.00  0.00     0.164 C 
ATOM     11  O   UNL A   1      33.680  26.206  22.545  1.00  0.00    -0.344 OA
ATOM     12  O   UNL A   1      31.825  24.816  22.906  1.00  0.00    -0.331 OA
ATOM     13  C   UNL A   1      33.471  24.176  21.252  1.00  0.00     0.075 C 
ATOM     14  C   UNL A   1      33.250  26.431  23.896  1.00  0.00     0.164 C 
ATOM     15  C   UNL A   1      34.264  25.654  24.852  1.00  0.00     0.040 C 
ATOM     16  C   UNL A   1      32.037  24.897  25.401  1.00  0.00     0.014 C 
ATOM     17  C   UNL A   1      33.466  24.367  25.090  1.00  0.00     0.008 C 
ATOM     18  C   UNL A   1      31.045  23.783  25.783  1.00  0.00     0.046 C 
ATOM     19  C   UNL A   1      31.986  25.876  26.616  1.00  0.00     0.015 C 
ATOM     20  C   UNL A   1      33.789  22.867  24.944  1.00  0.00     0.035 C 
ATOM     21  C   UNL A   1      31.297  22.404  25.197  1.00  0.00     0.154 C 
ATOM     22  C   UNL A   1      35.229  22.468  25.221  1.00  0.00     0.012 C 
ATOM     23  C   UNL A   1      32.747  21.877  25.479  1.00  0.00     0.152 C 
ATOM     24  C   UNL A   1      35.512  21.200  24.411  1.00  0.00     0.032 C 
ATOM     25  C   UNL A   1      33.033  20.422  24.879  1.00  0.00     0.044 C 
ATOM     26  F   UNL A   1      32.919  21.835  26.841  1.00  0.00    -0.239 F 
ATOM     27  C   UNL A   1      34.538  20.087  24.715  1.00  0.00    -0.053 C 
ATOM     28  C   UNL A   1      32.377  19.332  25.727  1.00  0.00    -0.009 C 
ATOM     29  C   UNL A   1      32.422  20.245  23.456  1.00  0.00     0.024 C 
ATOM     30  C   UNL A   1      34.961  18.807  24.705  1.00  0.00     0.052 C 
ATOM     31  C   UNL A   1      32.755  18.047  25.647  1.00  0.00     0.048 C 
ATOM     32  C   UNL A   1      34.007  17.696  24.936  1.00  0.00     0.178 C 
ATOM     33  O   UNL A   1      34.279  16.544  24.628  1.00  0.00    -0.290 OA
BRANCH  21  34
ATOM     34  O   UNL A   1      30.935  22.435  23.821  1.00  0.00    -0.390 OA
ATOM     35  H   UNL A   1      31.618  22.906  23.318  1.00  0.00     0.211 HD
ENDBRANCH  21  34
ENDBRANCH   5   8
ENDBRANCH   3   4
ENDBRANCH   2   3
ENDBRANCH   1   2
BRANCH   1  36
ATOM     36  C   UNL A   1      32.494  30.182  26.832  1.00  0.00     0.116 C 
BRANCH  36  37
ATOM     37  N   UNL A   1      32.495  31.637  26.948  1.00  0.00    -0.352 N 
ATOM     38  C   UNL A   1      33.440  32.448  27.521  1.00  0.00     0.251 C 
ATOM     39  H   UNL A   1      31.714  32.097  26.565  1.00  0.00     0.163 HD
ATOM     40  O   UNL A   1      33.228  33.647  27.670  1.00  0.00    -0.269 OA
BRANCH  38  41
ATOM     41  C   UNL A   1      34.697  31.837  27.981  1.00  0.00     0.039 A 
ATOM     42  C   UNL A   1      35.834  32.636  28.097  1.00  0.00     0.014 A 
ATOM     43  C   UNL A   1      34.711  30.498  28.382  1.00  0.00     0.014 A 
ATOM     44  C   UNL A   1      36.981  32.102  28.681  1.00  0.00     0.010 A 
ATOM     45  C   UNL A   1      35.826  29.998  29.039  1.00  0.00     0.010 A 
ATOM     46  C   UNL A   1      36.973  30.793  29.190  1.00  0.00    -0.014 A 
BRANCH  46  47
ATOM     47  C   UNL A   1      38.153  30.236  29.894  1.00  0.00     0.031 A 
ATOM     48  C   UNL A   1      38.460  30.668  31.301  1.00  0.00     0.074 A 
ATOM     49  C   UNL A   1      38.994  29.414  29.235  1.00  0.00     0.049 A 
ATOM     50  N   UNL A   1      39.471  30.340  32.060  1.00  0.00    -0.248 NA
ATOM     51  C   UNL A   1      37.527  31.622  31.925  1.00  0.00     0.031 C 
ATOM     52  C   UNL A   1      38.849  28.995  27.839  1.00  0.00     0.029 A 
ATOM     53  N   UNL A   1      40.154  28.807  29.644  1.00  0.00    -0.354 N 
ATOM     54  C   UNL A   1      39.318  31.070  33.232  1.00  0.00     0.074 A 
ATOM     55  C   UNL A   1      38.139  31.891  33.069  1.00  0.00     0.031 C 
ATOM     56  C   UNL A   1      39.875  28.193  27.511  1.00  0.00     0.029 A 
ATOM     57  C   UNL A   1      40.766  28.065  28.660  1.00  0.00     0.049 A 
ATOM     58  H   UNL A   1      40.514  28.894  30.556  1.00  0.00     0.167 HD
ATOM     59  C   UNL A   1      40.072  31.036  34.356  1.00  0.00     0.034 A 
ATOM     60  C   UNL A   1      41.916  27.365  28.682  1.00  0.00     0.034 A 
ATOM     61  C   UNL A   1      41.215  30.182  34.528  1.00  0.00     0.049 A 
ATOM     62  C   UNL A   1      42.708  27.306  29.960  1.00  0.00     0.074 A 
ATOM     63  C   UNL A   1      41.989  30.001  35.660  1.00  0.00     0.029 A 
ATOM     64  N   UNL A   1      41.752  29.371  33.541  1.00  0.00    -0.354 N 
ATOM     65  N   UNL A   1      42.454  27.873  31.114  1.00  0.00    -0.248 NA
ATOM     66  C   UNL A   1      43.925  26.481  29.950  1.00  0.00     0.031 C 
ATOM     67  C   UNL A   1      43.010  29.098  35.349  1.00  0.00     0.029 A 
ATOM     68  C   UNL A   1      42.853  28.694  34.033  1.00  0.00     0.049 A 
ATOM     69  H   UNL A   1      41.402  29.291  32.624  1.00  0.00     0.167 HD
ATOM     70  C   UNL A   1      43.456  27.444  31.978  1.00  0.00     0.074 A 
ATOM     71  C   UNL A   1      44.309  26.553  31.218  1.00  0.00     0.031 C 
ATOM     72  C   UNL A   1      43.660  27.769  33.279  1.00  0.00     0.034 A 
BRANCH  59  73
ATOM     73  C   UNL A   1      39.650  31.911  35.506  1.00  0.00     0.023 A 
ATOM     74  C   UNL A   1      40.087  33.251  35.557  1.00  0.00     0.012 A 
ATOM     75  C   UNL A   1      38.781  31.429  36.504  1.00  0.00     0.148 A 
ATOM     76  C   UNL A   1      39.698  34.086  36.604  1.00  0.00     0.002 A 
ATOM     77  C   UNL A   1      38.359  32.281  37.518  1.00  0.00     0.091 A 
ATOM     78  F   UNL A   1      38.394  30.146  36.451  1.00  0.00    -0.205 F 
ATOM     79  C   UNL A   1      38.826  33.605  37.576  1.00  0.00     0.022 A 
BRANCH  77  80
ATOM     80  S   UNL A   1      37.175  31.782  38.773  1.00  0.00     0.127 S 
ATOM     81  O   UNL A   1      37.944  31.982  39.999  1.00  0.00    -0.237 OA
ATOM     82  O   UNL A   1      36.090  32.743  38.570  1.00  0.00    -0.237 OA
ATOM     83  O   UNL A   1      36.827  30.401  38.470  1.00  0.00    -0.744 OA
ENDBRANCH  77  80
ENDBRANCH  59  73
BRANCH  60  84
ATOM     84  C   UNL A   1      42.351  26.608  27.475  1.00  0.00     0.023 A 
ATOM     85  C   UNL A   1      43.056  27.276  26.455  1.00  0.00     0.012 A 
ATOM     86  C   UNL A   1      42.095  25.229  27.342  1.00  0.00     0.148 A 
ATOM     87  C   UNL A   1      43.467  26.595  25.309  1.00  0.00     0.002 A 
ATOM     88  C   UNL A   1      42.558  24.544  26.223  1.00  0.00     0.091 A 
ATOM     89  F   UNL A   1      41.415  24.612  28.318  1.00  0.00    -0.205 F 
ATOM     90  C   UNL A   1      43.227  25.229  25.197  1.00  0.00     0.022 A 
BRANCH  88  91
ATOM     91  S   UNL A   1      42.413  22.762  26.058  1.00  0.00     0.127 S 
ATOM     92  O   UNL A   1      42.963  22.538  24.724  1.00  0.00    -0.237 OA
ATOM     93  O   UNL A   1      43.251  22.287  27.160  1.00  0.00    -0.237 OA
ATOM     94  O   UNL A   1      40.995  22.467  26.217  1.00  0.00    -0.744 OA
ENDBRANCH  88  91
ENDBRANCH  60  84
BRANCH  72  95
ATOM     95  C   UNL A   1      44.828  27.131  33.984  1.00  0.00     0.023 A 
ATOM     96  C   UNL A   1      46.090  27.753  33.955  1.00  0.00     0.012 A 
ATOM     97  C   UNL A   1      44.651  25.956  34.741  1.00  0.00     0.148 A 
ATOM     98  C   UNL A   1      47.169  27.199  34.643  1.00  0.00     0.002 A 
ATOM     99  C   UNL A   1      45.716  25.437  35.466  1.00  0.00     0.091 A 
ATOM    100  F   UNL A   1      43.445  25.369  34.741  1.00  0.00    -0.205 F 
ATOM    101  C   UNL A   1      46.979  26.050  35.408  1.00  0.00     0.022 A 
BRANCH  99 102
ATOM    102  S   UNL A   1      45.540  24.020  36.556  1.00  0.00     0.127 S 
ATOM    103  O   UNL A   1      46.919  23.805  36.989  1.00  0.00    -0.237 OA
ATOM    104  O   UNL A   1      44.647  24.535  37.593  1.00  0.00    -0.237 OA
ATOM    105  O   UNL A   1      44.967  22.957  35.741  1.00  0.00    -0.744 OA
ENDBRANCH  99 102
ENDBRANCH  72  95
ENDBRANCH  46  47
ENDBRANCH  38  41
ENDBRANCH  36  37
ENDBRANCH   1  36
TORSDOF 15
ENDMDL
