MODEL 1
REMARK VINA RESULT:     -10.4      0.000      0.000
REMARK SMILES CCC(CC)N(CC(C)C)C(=O)N[C@H](C)C(=O)NCCCCNC(=O)c1ccc(-c2c3nc(c(-c4cccc(S(=O)(=O)[O-])c4F)c4ccc([nH]4)c(-c4cccc(S(=O)(=O)[O-])c4F)c4nc(c(-c5cccc(S(=O)(=O)[O-])c5F)c5ccc2[nH]5)C=C4)C=C3)cc1
REMARK SMILES IDX 20 1 19 2 18 3 16 4 17 5 14 7 15 8 13 9 11 10 12 11 6 13
REMARK SMILES IDX 3 14 2 15 1 16 4 17 5 18 7 19 8 20 9 21 10 22 21 23 22 24
REMARK SMILES IDX 23 25 24 26 25 28 26 29 27 30 88 31 28 32 87 33 29 34 30 35
REMARK SMILES IDX 31 36 81 37 32 38 86 39 80 40 82 41 33 42 85 43 79 44 78 45
REMARK SMILES IDX 34 47 66 48 46 49 65 50 47 51 50 52 64 53 83 54 48 55 49 56
REMARK SMILES IDX 63 58 84 59 51 60 35 61 36 62 44 63 37 64 39 65 45 66 38 67
REMARK SMILES IDX 40 68 41 69 42 70 43 71 67 72 68 73 76 74 69 75 71 76 77 77
REMARK SMILES IDX 70 78 72 79 73 80 74 81 75 82 52 83 53 84 61 85 54 86 56 87
REMARK SMILES IDX 62 88 55 89 57 90 58 91 59 92 60 93
REMARK H PARENT 18 6 13 12 23 27 82 46 50 57
REMARK Flexibility Score: inf
ROOT
ATOM      1  C   UNL A   1      34.581  20.689  24.984  1.00  0.00     0.023 C 
ENDROOT
BRANCH   1   2
ATOM      2  C   UNL A   1      33.071  20.913  25.048  1.00  0.00     0.116 C 
BRANCH   2   3
ATOM      3  N   UNL A   1      32.658  21.404  26.348  1.00  0.00    -0.354 N 
ATOM      4  C   UNL A   1      32.273  22.661  26.721  1.00  0.00     0.242 C 
ATOM      5  O   UNL A   1      32.079  22.881  27.918  1.00  0.00    -0.273 OA
ATOM      6  H   UNL A   1      32.656  20.734  27.068  1.00  0.00     0.163 HD
BRANCH   4   7
ATOM      7  C   UNL A   1      32.028  23.757  25.665  1.00  0.00     0.170 C 
ATOM      8  C   UNL A   1      30.943  23.380  24.660  1.00  0.00     0.041 C 
BRANCH   7   9
ATOM      9  N   UNL A   1      31.759  24.996  26.396  1.00  0.00    -0.326 N 
ATOM     10  C   UNL A   1      31.608  26.299  26.138  1.00  0.00     0.318 C 
ATOM     11  O   UNL A   1      31.150  26.941  27.087  1.00  0.00    -0.249 OA
ATOM     12  H   UNL A   1      31.661  24.819  27.360  1.00  0.00     0.166 HD
BRANCH  10  13
ATOM     13  N   UNL A   1      31.914  26.873  24.932  1.00  0.00    -0.322 N 
BRANCH  13  14
ATOM     14  C   UNL A   1      33.291  27.405  24.723  1.00  0.00     0.086 C 
BRANCH  14  15
ATOM     15  C   UNL A   1      33.756  27.319  23.245  1.00  0.00     0.022 C 
ATOM     16  C   UNL A   1      34.058  28.673  22.620  1.00  0.00     0.006 C 
ENDBRANCH  14  15
BRANCH  14  17
ATOM     17  C   UNL A   1      33.546  28.760  25.418  1.00  0.00     0.022 C 
ATOM     18  C   UNL A   1      34.307  28.735  26.734  1.00  0.00     0.006 C 
ENDBRANCH  14  17
ENDBRANCH  13  14
BRANCH  13  19
ATOM     19  C   UNL A   1      31.015  26.945  23.777  1.00  0.00     0.124 C 
BRANCH  19  20
ATOM     20  C   UNL A   1      30.054  28.152  23.685  1.00  0.00     0.002 C 
ATOM     21  C   UNL A   1      30.414  29.244  22.678  1.00  0.00     0.009 C 
ATOM     22  C   UNL A   1      28.641  27.625  23.384  1.00  0.00     0.009 C 
ENDBRANCH  19  20
ENDBRANCH  13  19
ENDBRANCH  10  13
ENDBRANCH   7   9
ENDBRANCH   4   7
ENDBRANCH   2   3
ENDBRANCH   1   2
BRANCH   1  23
ATOM     23  C   UNL A   1      35.394  21.948  24.715  1.00  0.00     0.023 C 
BRANCH  23  24
ATOM     24  C   UNL A   1      36.595  22.120  25.626  1.00  0.00     0.116 C 
BRANCH  24  25
ATOM     25  N   UNL A   1      37.561  21.034  25.512  1.00  0.00    -0.352 N 
ATOM     26  C   UNL A   1      38.888  21.052  25.875  1.00  0.00     0.251 C 
ATOM     27  H   UNL A   1      37.225  20.191  25.131  1.00  0.00     0.163 HD
ATOM     28  O   UNL A   1      39.626  20.107  25.643  1.00  0.00    -0.269 OA
BRANCH  26  29
ATOM     29  C   UNL A   1      39.390  22.276  26.521  1.00  0.00     0.039 A 
ATOM     30  C   UNL A   1      40.361  22.164  27.517  1.00  0.00     0.014 A 
ATOM     31  C   UNL A   1      39.008  23.520  26.015  1.00  0.00     0.014 A 
ATOM     32  C   UNL A   1      41.007  23.316  27.963  1.00  0.00     0.010 A 
ATOM     33  C   UNL A   1      39.710  24.650  26.401  1.00  0.00     0.010 A 
ATOM     34  C   UNL A   1      40.713  24.559  27.379  1.00  0.00    -0.014 A 
BRANCH  34  35
ATOM     35  C   UNL A   1      41.433  25.791  27.772  1.00  0.00     0.031 A 
ATOM     36  C   UNL A   1      40.695  26.866  28.519  1.00  0.00     0.074 A 
ATOM     37  C   UNL A   1      42.699  25.991  27.356  1.00  0.00     0.049 A 
ATOM     38  N   UNL A   1      41.100  28.061  28.858  1.00  0.00    -0.248 NA
ATOM     39  C   UNL A   1      39.300  26.575  28.897  1.00  0.00     0.031 C 
ATOM     40  C   UNL A   1      43.485  25.054  26.548  1.00  0.00     0.029 A 
ATOM     41  N   UNL A   1      43.538  27.062  27.529  1.00  0.00    -0.354 N 
ATOM     42  C   UNL A   1      40.000  28.680  29.437  1.00  0.00     0.074 A 
ATOM     43  C   UNL A   1      38.900  27.743  29.374  1.00  0.00     0.031 C 
ATOM     44  C   UNL A   1      44.694  25.589  26.304  1.00  0.00     0.029 A 
ATOM     45  C   UNL A   1      44.760  26.913  26.914  1.00  0.00     0.049 A 
ATOM     46  H   UNL A   1      43.289  27.862  28.046  1.00  0.00     0.167 HD
ATOM     47  C   UNL A   1      39.921  29.907  30.002  1.00  0.00     0.034 A 
ATOM     48  C   UNL A   1      45.812  27.753  26.854  1.00  0.00     0.034 A 
ATOM     49  C   UNL A   1      41.040  30.797  30.133  1.00  0.00     0.049 A 
ATOM     50  C   UNL A   1      45.724  29.076  27.566  1.00  0.00     0.074 A 
ATOM     51  C   UNL A   1      41.101  32.011  30.790  1.00  0.00     0.029 A 
ATOM     52  N   UNL A   1      42.299  30.562  29.601  1.00  0.00    -0.354 N 
ATOM     53  N   UNL A   1      44.727  29.577  28.255  1.00  0.00    -0.248 NA
ATOM     54  C   UNL A   1      46.917  29.935  27.523  1.00  0.00     0.031 C 
ATOM     55  C   UNL A   1      42.398  32.515  30.651  1.00  0.00     0.029 A 
ATOM     56  C   UNL A   1      43.146  31.609  29.915  1.00  0.00     0.049 A 
ATOM     57  H   UNL A   1      42.552  29.769  29.076  1.00  0.00     0.167 HD
ATOM     58  C   UNL A   1      45.184  30.789  28.760  1.00  0.00     0.074 A 
ATOM     59  C   UNL A   1      46.554  30.939  28.311  1.00  0.00     0.031 C 
ATOM     60  C   UNL A   1      44.526  31.704  29.514  1.00  0.00     0.034 A 
BRANCH  47  61
ATOM     61  C   UNL A   1      38.597  30.321  30.586  1.00  0.00     0.023 A 
ATOM     62  C   UNL A   1      38.284  29.964  31.913  1.00  0.00     0.012 A 
ATOM     63  C   UNL A   1      37.684  31.090  29.842  1.00  0.00     0.148 A 
ATOM     64  C   UNL A   1      37.067  30.336  32.480  1.00  0.00     0.002 A 
ATOM     65  C   UNL A   1      36.490  31.494  30.428  1.00  0.00     0.091 A 
ATOM     66  F   UNL A   1      37.986  31.395  28.572  1.00  0.00    -0.205 F 
ATOM     67  C   UNL A   1      36.175  31.109  31.742  1.00  0.00     0.022 A 
BRANCH  65  68
ATOM     68  S   UNL A   1      35.311  32.554  29.584  1.00  0.00     0.127 S 
ATOM     69  O   UNL A   1      34.255  32.680  30.587  1.00  0.00    -0.237 OA
ATOM     70  O   UNL A   1      36.092  33.773  29.365  1.00  0.00    -0.237 OA
ATOM     71  O   UNL A   1      34.941  31.847  28.367  1.00  0.00    -0.744 OA
ENDBRANCH  65  68
ENDBRANCH  47  61
BRANCH  48  72
ATOM     72  C   UNL A   1      47.071  27.325  26.180  1.00  0.00     0.023 A 
ATOM     73  C   UNL A   1      47.281  27.687  24.835  1.00  0.00     0.012 A 
ATOM     74  C   UNL A   1      48.069  26.601  26.859  1.00  0.00     0.148 A 
ATOM     75  C   UNL A   1      48.446  27.309  24.168  1.00  0.00     0.002 A 
ATOM     76  C   UNL A   1      49.251  26.270  26.204  1.00  0.00     0.091 A 
ATOM     77  F   UNL A   1      47.847  26.255  28.135  1.00  0.00    -0.205 F 
ATOM     78  C   UNL A   1      49.435  26.610  24.854  1.00  0.00     0.022 A 
BRANCH  76  79
ATOM     79  S   UNL A   1      50.630  25.484  27.047  1.00  0.00     0.127 S 
ATOM     80  O   UNL A   1      51.568  25.268  25.950  1.00  0.00    -0.237 OA
ATOM     81  O   UNL A   1      51.030  26.515  28.006  1.00  0.00    -0.237 OA
ATOM     82  O   UNL A   1      50.075  24.283  27.659  1.00  0.00    -0.744 OA
ENDBRANCH  76  79
ENDBRANCH  48  72
BRANCH  60  83
ATOM     83  C   UNL A   1      45.281  32.934  29.937  1.00  0.00     0.023 A 
ATOM     84  C   UNL A   1      46.024  32.916  31.133  1.00  0.00     0.012 A 
ATOM     85  C   UNL A   1      45.329  34.070  29.106  1.00  0.00     0.148 A 
ATOM     86  C   UNL A   1      46.788  34.021  31.507  1.00  0.00     0.002 A 
ATOM     87  C   UNL A   1      46.127  35.149  29.463  1.00  0.00     0.091 A 
ATOM     88  F   UNL A   1      44.596  34.073  27.983  1.00  0.00    -0.205 F 
ATOM     89  C   UNL A   1      46.850  35.131  30.667  1.00  0.00     0.022 A 
BRANCH  87  90
ATOM     90  S   UNL A   1      46.339  36.576  28.392  1.00  0.00     0.127 S 
ATOM     91  O   UNL A   1      46.849  35.959  27.169  1.00  0.00    -0.237 OA
ATOM     92  O   UNL A   1      44.975  37.096  28.289  1.00  0.00    -0.237 OA
ATOM     93  O   UNL A   1      47.267  37.459  29.086  1.00  0.00    -0.744 OA
ENDBRANCH  87  90
ENDBRANCH  60  83
ENDBRANCH  34  35
ENDBRANCH  26  29
ENDBRANCH  24  25
ENDBRANCH  23  24
ENDBRANCH   1  23
TORSDOF 21
ENDMDL
MODEL 2
REMARK VINA RESULT:     -10.4      4.587      8.163
REMARK SMILES CCC(CC)N(CC(C)C)C(=O)N[C@H](C)C(=O)NCCCCNC(=O)c1ccc(-c2c3nc(c(-c4cccc(S(=O)(=O)[O-])c4F)c4ccc([nH]4)c(-c4cccc(S(=O)(=O)[O-])c4F)c4nc(c(-c5cccc(S(=O)(=O)[O-])c5F)c5ccc2[nH]5)C=C4)C=C3)cc1
REMARK SMILES IDX 20 1 19 2 18 3 16 4 17 5 14 7 15 8 13 9 11 10 12 11 6 13
REMARK SMILES IDX 3 14 2 15 1 16 4 17 5 18 7 19 8 20 9 21 10 22 21 23 22 24
REMARK SMILES IDX 23 25 24 26 25 28 26 29 27 30 88 31 28 32 87 33 29 34 30 35
REMARK SMILES IDX 31 36 81 37 32 38 86 39 80 40 82 41 33 42 85 43 79 44 78 45
REMARK SMILES IDX 34 47 66 48 46 49 65 50 47 51 50 52 64 53 83 54 48 55 49 56
REMARK SMILES IDX 63 58 84 59 51 60 35 61 36 62 44 63 37 64 39 65 45 66 38 67
REMARK SMILES IDX 40 68 41 69 42 70 43 71 67 72 68 73 76 74 69 75 71 76 77 77
REMARK SMILES IDX 70 78 72 79 73 80 74 81 75 82 52 83 53 84 61 85 54 86 56 87
REMARK SMILES IDX 62 88 55 89 57 90 58 91 59 92 60 93
REMARK H PARENT 18 6 13 12 23 27 82 46 50 57
REMARK Flexibility Score: inf
ROOT
ATOM      1  C   UNL A   1      33.662  28.929  24.225  1.00  0.00     0.023 C 
ENDROOT
BRANCH   1   2
ATOM      2  C   UNL A   1      32.940  28.993  22.881  1.00  0.00     0.116 C 
BRANCH   2   3
ATOM      3  N   UNL A   1      33.368  27.931  21.992  1.00  0.00    -0.354 N 
ATOM      4  C   UNL A   1      33.074  26.597  22.025  1.00  0.00     0.242 C 
ATOM      5  O   UNL A   1      33.653  25.852  21.232  1.00  0.00    -0.273 OA
ATOM      6  H   UNL A   1      33.960  28.212  21.258  1.00  0.00     0.163 HD
BRANCH   4   7
ATOM      7  C   UNL A   1      32.000  26.049  22.986  1.00  0.00     0.170 C 
ATOM      8  C   UNL A   1      30.600  26.563  22.664  1.00  0.00     0.041 C 
BRANCH   7   9
ATOM      9  N   UNL A   1      32.120  24.591  22.966  1.00  0.00    -0.326 N 
ATOM     10  C   UNL A   1      32.620  23.617  23.734  1.00  0.00     0.318 C 
ATOM     11  O   UNL A   1      32.262  22.486  23.392  1.00  0.00    -0.249 OA
ATOM     12  H   UNL A   1      31.715  24.218  22.150  1.00  0.00     0.166 HD
BRANCH  10  13
ATOM     13  N   UNL A   1      33.438  23.844  24.809  1.00  0.00    -0.322 N 
BRANCH  13  14
ATOM     14  C   UNL A   1      32.933  23.517  26.173  1.00  0.00     0.086 C 
BRANCH  14  15
ATOM     15  C   UNL A   1      31.562  24.173  26.485  1.00  0.00     0.022 C 
ATOM     16  C   UNL A   1      30.455  23.169  26.770  1.00  0.00     0.006 C 
ENDBRANCH  14  15
BRANCH  14  17
ATOM     17  C   UNL A   1      33.048  22.021  26.537  1.00  0.00     0.022 C 
ATOM     18  C   UNL A   1      34.037  21.644  27.629  1.00  0.00     0.006 C 
ENDBRANCH  14  17
ENDBRANCH  13  14
BRANCH  13  19
ATOM     19  C   UNL A   1      34.823  24.318  24.733  1.00  0.00     0.124 C 
BRANCH  19  20
ATOM     20  C   UNL A   1      35.949  23.260  24.742  1.00  0.00     0.002 C 
ATOM     21  C   UNL A   1      36.619  22.956  23.402  1.00  0.00     0.009 C 
ATOM     22  C   UNL A   1      37.016  23.696  25.760  1.00  0.00     0.009 C 
ENDBRANCH  19  20
ENDBRANCH  13  19
ENDBRANCH  10  13
ENDBRANCH   7   9
ENDBRANCH   4   7
ENDBRANCH   2   3
ENDBRANCH   1   2
BRANCH   1  23
ATOM     23  C   UNL A   1      32.765  29.155  25.434  1.00  0.00     0.023 C 
BRANCH  23  24
ATOM     24  C   UNL A   1      33.516  29.405  26.729  1.00  0.00     0.116 C 
BRANCH  24  25
ATOM     25  N   UNL A   1      33.757  30.819  26.988  1.00  0.00    -0.352 N 
ATOM     26  C   UNL A   1      34.839  31.382  27.624  1.00  0.00     0.251 C 
ATOM     27  H   UNL A   1      33.065  31.444  26.670  1.00  0.00     0.163 HD
ATOM     28  O   UNL A   1      34.886  32.577  27.868  1.00  0.00    -0.269 OA
BRANCH  26  29
ATOM     29  C   UNL A   1      35.923  30.473  28.034  1.00  0.00     0.039 A 
ATOM     30  C   UNL A   1      37.081  30.408  27.258  1.00  0.00     0.014 A 
ATOM     31  C   UNL A   1      35.838  29.825  29.268  1.00  0.00     0.014 A 
ATOM     32  C   UNL A   1      38.194  29.738  27.760  1.00  0.00     0.010 A 
ATOM     33  C   UNL A   1      36.973  29.233  29.798  1.00  0.00     0.010 A 
ATOM     34  C   UNL A   1      38.160  29.181  29.048  1.00  0.00    -0.014 A 
BRANCH  34  35
ATOM     35  C   UNL A   1      39.347  28.529  29.646  1.00  0.00     0.031 A 
ATOM     36  C   UNL A   1      39.945  29.101  30.901  1.00  0.00     0.074 A 
ATOM     37  C   UNL A   1      39.948  27.510  29.002  1.00  0.00     0.049 A 
ATOM     38  N   UNL A   1      41.040  28.756  31.523  1.00  0.00    -0.248 NA
ATOM     39  C   UNL A   1      39.240  30.241  31.514  1.00  0.00     0.031 C 
ATOM     40  C   UNL A   1      39.508  26.931  27.731  1.00  0.00     0.029 A 
ATOM     41  N   UNL A   1      41.080  26.800  29.314  1.00  0.00    -0.354 N 
ATOM     42  C   UNL A   1      41.184  29.666  32.562  1.00  0.00     0.074 A 
ATOM     43  C   UNL A   1      40.084  30.599  32.468  1.00  0.00     0.031 C 
ATOM     44  C   UNL A   1      40.355  25.949  27.376  1.00  0.00     0.029 A 
ATOM     45  C   UNL A   1      41.410  25.846  28.379  1.00  0.00     0.049 A 
ATOM     46  H   UNL A   1      41.606  26.958  30.131  1.00  0.00     0.167 HD
ATOM     47  C   UNL A   1      42.129  29.701  33.530  1.00  0.00     0.034 A 
ATOM     48  C   UNL A   1      42.447  24.986  28.340  1.00  0.00     0.034 A 
ATOM     49  C   UNL A   1      43.170  28.722  33.661  1.00  0.00     0.049 A 
ATOM     50  C   UNL A   1      43.435  24.993  29.476  1.00  0.00     0.074 A 
ATOM     51  C   UNL A   1      44.109  28.595  34.668  1.00  0.00     0.029 A 
ATOM     52  N   UNL A   1      43.405  27.695  32.759  1.00  0.00    -0.354 N 
ATOM     53  N   UNL A   1      43.460  25.755  30.543  1.00  0.00    -0.248 NA
ATOM     54  C   UNL A   1      44.517  23.999  29.422  1.00  0.00     0.031 C 
ATOM     55  C   UNL A   1      44.916  27.491  34.372  1.00  0.00     0.029 A 
ATOM     56  C   UNL A   1      44.473  26.927  33.186  1.00  0.00     0.049 A 
ATOM     57  H   UNL A   1      42.888  27.537  31.937  1.00  0.00     0.167 HD
ATOM     58  C   UNL A   1      44.533  25.308  31.305  1.00  0.00     0.074 A 
ATOM     59  C   UNL A   1      45.123  24.198  30.586  1.00  0.00     0.031 C 
ATOM     60  C   UNL A   1      45.000  25.784  32.486  1.00  0.00     0.034 A 
BRANCH  47  61
ATOM     61  C   UNL A   1      42.031  30.794  34.560  1.00  0.00     0.023 A 
ATOM     62  C   UNL A   1      41.280  30.574  35.732  1.00  0.00     0.012 A 
ATOM     63  C   UNL A   1      42.707  32.015  34.390  1.00  0.00     0.148 A 
ATOM     64  C   UNL A   1      41.173  31.566  36.704  1.00  0.00     0.002 A 
ATOM     65  C   UNL A   1      42.632  32.985  35.384  1.00  0.00     0.091 A 
ATOM     66  F   UNL A   1      43.393  32.219  33.256  1.00  0.00    -0.205 F 
ATOM     67  C   UNL A   1      41.856  32.767  36.534  1.00  0.00     0.022 A 
BRANCH  65  68
ATOM     68  S   UNL A   1      43.538  34.533  35.291  1.00  0.00     0.127 S 
ATOM     69  O   UNL A   1      44.916  34.062  35.165  1.00  0.00    -0.237 OA
ATOM     70  O   UNL A   1      42.989  35.142  34.079  1.00  0.00    -0.237 OA
ATOM     71  O   UNL A   1      43.228  35.250  36.520  1.00  0.00    -0.744 OA
ENDBRANCH  65  68
ENDBRANCH  47  61
BRANCH  48  72
ATOM     72  C   UNL A   1      42.544  23.983  27.243  1.00  0.00     0.023 A 
ATOM     73  C   UNL A   1      43.305  24.297  26.099  1.00  0.00     0.012 A 
ATOM     74  C   UNL A   1      41.929  22.721  27.331  1.00  0.00     0.148 A 
ATOM     75  C   UNL A   1      43.425  23.385  25.049  1.00  0.00     0.002 A 
ATOM     76  C   UNL A   1      42.093  21.797  26.304  1.00  0.00     0.091 A 
ATOM     77  F   UNL A   1      41.200  22.444  28.422  1.00  0.00    -0.205 F 
ATOM     78  C   UNL A   1      42.828  22.132  25.156  1.00  0.00     0.022 A 
BRANCH  76  79
ATOM     79  S   UNL A   1      41.467  20.116  26.415  1.00  0.00     0.127 S 
ATOM     80  O   UNL A   1      41.903  19.721  27.751  1.00  0.00    -0.237 OA
ATOM     81  O   UNL A   1      40.024  20.316  26.271  1.00  0.00    -0.237 OA
ATOM     82  O   UNL A   1      42.083  19.400  25.305  1.00  0.00    -0.744 OA
ENDBRANCH  76  79
ENDBRANCH  48  72
BRANCH  60  83
ATOM     83  C   UNL A   1      46.183  25.088  33.102  1.00  0.00     0.023 A 
ATOM     84  C   UNL A   1      47.480  25.586  32.869  1.00  0.00     0.012 A 
ATOM     85  C   UNL A   1      46.002  24.005  33.983  1.00  0.00     0.148 A 
ATOM     86  C   UNL A   1      48.583  24.999  33.487  1.00  0.00     0.002 A 
ATOM     87  C   UNL A   1      47.101  23.455  34.630  1.00  0.00     0.091 A 
ATOM     88  F   UNL A   1      44.760  23.535  34.173  1.00  0.00    -0.205 F 
ATOM     89  C   UNL A   1      48.393  23.944  34.377  1.00  0.00     0.022 A 
BRANCH  87  90
ATOM     90  S   UNL A   1      46.933  22.159  35.863  1.00  0.00     0.127 S 
ATOM     91  O   UNL A   1      48.232  22.211  36.530  1.00  0.00    -0.237 OA
ATOM     92  O   UNL A   1      45.812  22.638  36.672  1.00  0.00    -0.237 OA
ATOM     93  O   UNL A   1      46.656  20.937  35.119  1.00  0.00    -0.744 OA
ENDBRANCH  87  90
ENDBRANCH  60  83
ENDBRANCH  34  35
ENDBRANCH  26  29
ENDBRANCH  24  25
ENDBRANCH  23  24
ENDBRANCH   1  23
TORSDOF 21
ENDMDL
MODEL 3
REMARK VINA RESULT:     -10.1      4.420      8.082
REMARK SMILES CCC(CC)N(CC(C)C)C(=O)N[C@H](C)C(=O)NCCCCNC(=O)c1ccc(-c2c3nc(c(-c4cccc(S(=O)(=O)[O-])c4F)c4ccc([nH]4)c(-c4cccc(S(=O)(=O)[O-])c4F)c4nc(c(-c5cccc(S(=O)(=O)[O-])c5F)c5ccc2[nH]5)C=C4)C=C3)cc1
REMARK SMILES IDX 20 1 19 2 18 3 16 4 17 5 14 7 15 8 13 9 11 10 12 11 6 13
REMARK SMILES IDX 3 14 2 15 1 16 4 17 5 18 7 19 8 20 9 21 10 22 21 23 22 24
REMARK SMILES IDX 23 25 24 26 25 28 26 29 27 30 88 31 28 32 87 33 29 34 30 35
REMARK SMILES IDX 31 36 81 37 32 38 86 39 80 40 82 41 33 42 85 43 79 44 78 45
REMARK SMILES IDX 34 47 66 48 46 49 65 50 47 51 50 52 64 53 83 54 48 55 49 56
REMARK SMILES IDX 63 58 84 59 51 60 35 61 36 62 44 63 37 64 39 65 45 66 38 67
REMARK SMILES IDX 40 68 41 69 42 70 43 71 67 72 68 73 76 74 69 75 71 76 77 77
REMARK SMILES IDX 70 78 72 79 73 80 74 81 75 82 52 83 53 84 61 85 54 86 56 87
REMARK SMILES IDX 62 88 55 89 57 90 58 91 59 92 60 93
REMARK H PARENT 18 6 13 12 23 27 82 46 50 57
REMARK Flexibility Score: inf
ROOT
ATOM      1  C   UNL A   1      32.179  28.054  26.521  1.00  0.00     0.023 C 
ENDROOT
BRANCH   1   2
ATOM      2  C   UNL A   1      31.502  26.688  26.613  1.00  0.00     0.116 C 
BRANCH   2   3
ATOM      3  N   UNL A   1      30.729  26.392  25.423  1.00  0.00    -0.354 N 
ATOM      4  C   UNL A   1      30.691  25.252  24.671  1.00  0.00     0.242 C 
ATOM      5  O   UNL A   1      30.048  25.266  23.621  1.00  0.00    -0.273 OA
ATOM      6  H   UNL A   1      30.148  27.120  25.109  1.00  0.00     0.163 HD
BRANCH   4   7
ATOM      7  C   UNL A   1      31.386  23.963  25.156  1.00  0.00     0.170 C 
ATOM      8  C   UNL A   1      30.522  23.150  26.115  1.00  0.00     0.041 C 
BRANCH   7   9
ATOM      9  N   UNL A   1      31.801  23.230  23.959  1.00  0.00    -0.326 N 
ATOM     10  C   UNL A   1      32.405  22.079  23.649  1.00  0.00     0.318 C 
ATOM     11  O   UNL A   1      32.322  21.784  22.454  1.00  0.00    -0.249 OA
ATOM     12  H   UNL A   1      31.568  23.732  23.144  1.00  0.00     0.166 HD
BRANCH  10  13
ATOM     13  N   UNL A   1      33.043  21.287  24.567  1.00  0.00    -0.322 N 
BRANCH  13  14
ATOM     14  C   UNL A   1      34.255  21.820  25.252  1.00  0.00     0.086 C 
BRANCH  14  15
ATOM     15  C   UNL A   1      34.338  21.406  26.745  1.00  0.00     0.022 C 
ATOM     16  C   UNL A   1      33.797  22.460  27.702  1.00  0.00     0.006 C 
ENDBRANCH  14  15
BRANCH  14  17
ATOM     17  C   UNL A   1      35.557  21.638  24.443  1.00  0.00     0.022 C 
ATOM     18  C   UNL A   1      36.111  22.863  23.732  1.00  0.00     0.006 C 
ENDBRANCH  14  17
ENDBRANCH  13  14
BRANCH  13  19
ATOM     19  C   UNL A   1      32.589  19.962  25.002  1.00  0.00     0.124 C 
BRANCH  19  20
ATOM     20  C   UNL A   1      33.216  18.726  24.321  1.00  0.00     0.002 C 
ATOM     21  C   UNL A   1      33.295  17.446  25.154  1.00  0.00     0.009 C 
ATOM     22  C   UNL A   1      32.442  18.442  23.023  1.00  0.00     0.009 C 
ENDBRANCH  19  20
ENDBRANCH  13  19
ENDBRANCH  10  13
ENDBRANCH   7   9
ENDBRANCH   4   7
ENDBRANCH   2   3
ENDBRANCH   1   2
BRANCH   1  23
ATOM     23  C   UNL A   1      33.574  28.027  25.911  1.00  0.00     0.023 C 
BRANCH  23  24
ATOM     24  C   UNL A   1      34.594  28.869  26.654  1.00  0.00     0.116 C 
BRANCH  24  25
ATOM     25  N   UNL A   1      34.144  30.236  26.891  1.00  0.00    -0.352 N 
ATOM     26  C   UNL A   1      34.676  31.152  27.769  1.00  0.00     0.251 C 
ATOM     27  H   UNL A   1      33.371  30.538  26.361  1.00  0.00     0.163 HD
ATOM     28  O   UNL A   1      34.153  32.240  27.950  1.00  0.00    -0.269 OA
BRANCH  26  29
ATOM     29  C   UNL A   1      35.882  30.748  28.511  1.00  0.00     0.039 A 
ATOM     30  C   UNL A   1      35.767  29.787  29.516  1.00  0.00     0.014 A 
ATOM     31  C   UNL A   1      37.129  31.210  28.087  1.00  0.00     0.014 A 
ATOM     32  C   UNL A   1      36.925  29.231  30.056  1.00  0.00     0.010 A 
ATOM     33  C   UNL A   1      38.275  30.595  28.566  1.00  0.00     0.010 A 
ATOM     34  C   UNL A   1      38.183  29.603  29.556  1.00  0.00    -0.014 A 
BRANCH  34  35
ATOM     35  C   UNL A   1      39.432  28.980  30.050  1.00  0.00     0.031 A 
ATOM     36  C   UNL A   1      40.096  29.538  31.277  1.00  0.00     0.074 A 
ATOM     37  C   UNL A   1      40.022  28.002  29.335  1.00  0.00     0.049 A 
ATOM     38  N   UNL A   1      41.245  29.216  31.810  1.00  0.00    -0.248 NA
ATOM     39  C   UNL A   1      39.397  30.633  31.972  1.00  0.00     0.031 C 
ATOM     40  C   UNL A   1      39.514  27.443  28.079  1.00  0.00     0.029 A 
ATOM     41  N   UNL A   1      41.197  27.326  29.545  1.00  0.00    -0.354 N 
ATOM     42  C   UNL A   1      41.430  30.101  32.864  1.00  0.00     0.074 A 
ATOM     43  C   UNL A   1      40.293  30.995  32.876  1.00  0.00     0.031 C 
ATOM     44  C   UNL A   1      40.367  26.504  27.637  1.00  0.00     0.029 A 
ATOM     45  C   UNL A   1      41.494  26.412  28.561  1.00  0.00     0.049 A 
ATOM     46  H   UNL A   1      41.774  27.480  30.328  1.00  0.00     0.167 HD
ATOM     47  C   UNL A   1      42.439  30.144  33.765  1.00  0.00     0.034 A 
ATOM     48  C   UNL A   1      42.555  25.593  28.423  1.00  0.00     0.034 A 
ATOM     49  C   UNL A   1      43.520  29.201  33.794  1.00  0.00     0.049 A 
ATOM     50  C   UNL A   1      43.620  25.604  29.488  1.00  0.00     0.074 A 
ATOM     51  C   UNL A   1      44.532  29.081  34.729  1.00  0.00     0.029 A 
ATOM     52  N   UNL A   1      43.726  28.209  32.847  1.00  0.00    -0.354 N 
ATOM     53  N   UNL A   1      43.693  26.337  30.573  1.00  0.00    -0.248 NA
ATOM     54  C   UNL A   1      44.729  24.653  29.328  1.00  0.00     0.031 C 
ATOM     55  C   UNL A   1      45.353  28.016  34.344  1.00  0.00     0.029 A 
ATOM     56  C   UNL A   1      44.848  27.470  33.174  1.00  0.00     0.049 A 
ATOM     57  H   UNL A   1      43.158  28.055  32.058  1.00  0.00     0.167 HD
ATOM     58  C   UNL A   1      44.832  25.909  31.245  1.00  0.00     0.074 A 
ATOM     59  C   UNL A   1      45.409  24.842  30.452  1.00  0.00     0.031 C 
ATOM     60  C   UNL A   1      45.364  26.367  32.405  1.00  0.00     0.034 A 
BRANCH  47  61
ATOM     61  C   UNL A   1      42.375  31.203  34.832  1.00  0.00     0.023 A 
ATOM     62  C   UNL A   1      41.754  30.908  36.063  1.00  0.00     0.012 A 
ATOM     63  C   UNL A   1      42.957  32.468  34.637  1.00  0.00     0.148 A 
ATOM     64  C   UNL A   1      41.682  31.868  37.071  1.00  0.00     0.002 A 
ATOM     65  C   UNL A   1      42.920  33.407  35.662  1.00  0.00     0.091 A 
ATOM     66  F   UNL A   1      43.518  32.742  33.450  1.00  0.00    -0.205 F 
ATOM     67  C   UNL A   1      42.274  33.112  36.874  1.00  0.00     0.022 A 
BRANCH  65  68
ATOM     68  S   UNL A   1      43.719  35.010  35.532  1.00  0.00     0.127 S 
ATOM     69  O   UNL A   1      43.364  35.623  36.810  1.00  0.00    -0.237 OA
ATOM     70  O   UNL A   1      45.130  34.643  35.404  1.00  0.00    -0.237 OA
ATOM     71  O   UNL A   1      43.150  35.643  34.351  1.00  0.00    -0.744 OA
ENDBRANCH  65  68
ENDBRANCH  47  61
BRANCH  48  72
ATOM     72  C   UNL A   1      42.610  24.625  27.291  1.00  0.00     0.023 A 
ATOM     73  C   UNL A   1      43.266  25.004  26.103  1.00  0.00     0.012 A 
ATOM     74  C   UNL A   1      42.057  23.335  27.388  1.00  0.00     0.148 A 
ATOM     75  C   UNL A   1      43.344  24.127  25.021  1.00  0.00     0.002 A 
ATOM     76  C   UNL A   1      42.181  22.448  26.323  1.00  0.00     0.091 A 
ATOM     77  F   UNL A   1      41.426  22.996  28.521  1.00  0.00    -0.205 F 
ATOM     78  C   UNL A   1      42.810  22.846  25.134  1.00  0.00     0.022 A 
BRANCH  76  79
ATOM     79  S   UNL A   1      41.637  20.738  26.429  1.00  0.00     0.127 S 
ATOM     80  O   UNL A   1      40.204  20.863  26.177  1.00  0.00    -0.237 OA
ATOM     81  O   UNL A   1      42.399  20.107  25.350  1.00  0.00    -0.237 OA
ATOM     82  O   UNL A   1      42.014  20.294  27.765  1.00  0.00    -0.744 OA
ENDBRANCH  76  79
ENDBRANCH  48  72
BRANCH  60  83
ATOM     83  C   UNL A   1      46.612  25.700  32.915  1.00  0.00     0.023 A 
ATOM     84  C   UNL A   1      47.872  26.236  32.586  1.00  0.00     0.012 A 
ATOM     85  C   UNL A   1      46.531  24.602  33.793  1.00  0.00     0.148 A 
ATOM     86  C   UNL A   1      49.036  25.674  33.107  1.00  0.00     0.002 A 
ATOM     87  C   UNL A   1      47.694  24.076  34.344  1.00  0.00     0.091 A 
ATOM     88  F   UNL A   1      45.323  24.094  34.076  1.00  0.00    -0.205 F 
ATOM     89  C   UNL A   1      48.947  24.605  33.995  1.00  0.00     0.022 A 
BRANCH  87  90
ATOM     90  S   UNL A   1      47.661  22.763  35.568  1.00  0.00     0.127 S 
ATOM     91  O   UNL A   1      47.104  21.651  34.800  1.00  0.00    -0.237 OA
ATOM     92  O   UNL A   1      49.075  22.618  35.913  1.00  0.00    -0.237 OA
ATOM     93  O   UNL A   1      46.827  23.256  36.657  1.00  0.00    -0.744 OA
ENDBRANCH  87  90
ENDBRANCH  60  83
ENDBRANCH  34  35
ENDBRANCH  26  29
ENDBRANCH  24  25
ENDBRANCH  23  24
ENDBRANCH   1  23
TORSDOF 21
ENDMDL
