MODEL 1
REMARK VINA RESULT:     -12.4      0.000      0.000
REMARK SMILES O=C(NCCCCNC(=O)c1cc(SCc2csc(-c3ccsc3)n2)ccn1)c1ccc(-c2c3nc(c(-c4cccc(S(=O)(=O)[O-])c4F)c4ccc([nH]4)c(-c4cccc(S(=O)(=O)[O-])c4F)c4nc(c(-c5cccc(S(=O)(=O)[O-])c5F)c5ccc2[nH]5)C=C4)C=C3)cc1
REMARK SMILES IDX 6 1 5 2 4 3 3 4 1 5 2 6 29 8 30 9 91 10 31 11 90 12 32 13
REMARK SMILES IDX 33 14 34 15 84 16 35 17 89 18 83 19 85 20 36 21 88 22 82 23
REMARK SMILES IDX 81 24 37 26 69 27 49 28 68 29 50 30 53 31 67 32 86 33 51 34
REMARK SMILES IDX 52 35 66 37 87 38 54 39 38 40 39 41 47 42 40 43 42 44 48 45
REMARK SMILES IDX 41 46 43 47 44 48 45 49 46 50 70 51 71 52 79 53 72 54 74 55
REMARK SMILES IDX 80 56 73 57 75 58 76 59 77 60 78 61 55 62 56 63 64 64 57 65
REMARK SMILES IDX 59 66 65 67 58 68 60 69 61 70 62 71 63 72 7 73 8 74 9 75
REMARK SMILES IDX 10 77 11 78 12 79 28 80 13 81 27 82 26 83 14 84 15 85 16 86
REMARK SMILES IDX 17 87 25 88 18 89 19 90 20 91 21 92 24 93 22 94 23 95
REMARK H PARENT 3 7 85 25 53 36 8 76
REMARK Flexibility Score: inf
ROOT
ATOM      1  C   UNL A   1      32.064  30.155  26.632  1.00  0.00     0.023 C 
ENDROOT
BRANCH   1   2
ATOM      2  C   UNL A   1      31.773  31.639  26.850  1.00  0.00     0.023 C 
BRANCH   2   3
ATOM      3  C   UNL A   1      32.956  32.478  27.322  1.00  0.00     0.116 C 
BRANCH   3   4
ATOM      4  N   UNL A   1      32.604  33.853  27.628  1.00  0.00    -0.352 N 
ATOM      5  O   UNL A   1      32.605  35.779  28.787  1.00  0.00    -0.269 OA
ATOM      6  C   UNL A   1      33.137  34.699  28.580  1.00  0.00     0.251 C 
ATOM      7  H   UNL A   1      31.883  34.237  27.078  1.00  0.00     0.163 HD
BRANCH   6   8
ATOM      8  C   UNL A   1      34.304  34.265  29.387  1.00  0.00     0.039 A 
ATOM      9  C   UNL A   1      35.614  34.407  28.924  1.00  0.00     0.014 A 
ATOM     10  C   UNL A   1      34.068  33.672  30.632  1.00  0.00     0.014 A 
ATOM     11  C   UNL A   1      36.664  33.807  29.615  1.00  0.00     0.010 A 
ATOM     12  C   UNL A   1      35.132  33.135  31.361  1.00  0.00     0.010 A 
ATOM     13  C   UNL A   1      36.431  33.149  30.831  1.00  0.00    -0.014 A 
BRANCH  13  14
ATOM     14  C   UNL A   1      37.552  32.481  31.539  1.00  0.00     0.031 A 
ATOM     15  C   UNL A   1      38.296  31.339  30.896  1.00  0.00     0.074 A 
ATOM     16  C   UNL A   1      37.907  32.914  32.763  1.00  0.00     0.049 A 
ATOM     17  N   UNL A   1      39.305  30.648  31.360  1.00  0.00    -0.248 NA
ATOM     18  C   UNL A   1      37.845  30.913  29.561  1.00  0.00     0.031 C 
ATOM     19  C   UNL A   1      37.245  33.994  33.497  1.00  0.00     0.029 A 
ATOM     20  N   UNL A   1      38.902  32.497  33.610  1.00  0.00    -0.354 N 
ATOM     21  C   UNL A   1      39.590  29.689  30.396  1.00  0.00     0.074 A 
ATOM     22  C   UNL A   1      38.638  29.877  29.322  1.00  0.00     0.031 C 
ATOM     23  C   UNL A   1      37.858  34.163  34.678  1.00  0.00     0.029 A 
ATOM     24  C   UNL A   1      38.929  33.181  34.803  1.00  0.00     0.049 A 
ATOM     25  H   UNL A   1      39.536  31.779  33.385  1.00  0.00     0.167 HD
ATOM     26  C   UNL A   1      40.567  28.751  30.394  1.00  0.00     0.034 A 
ATOM     27  C   UNL A   1      39.722  33.027  35.881  1.00  0.00     0.034 A 
ATOM     28  C   UNL A   1      41.534  28.591  31.448  1.00  0.00     0.049 A 
ATOM     29  C   UNL A   1      40.803  31.984  35.847  1.00  0.00     0.074 A 
ATOM     30  C   UNL A   1      42.595  27.703  31.516  1.00  0.00     0.029 A 
ATOM     31  N   UNL A   1      41.558  29.332  32.620  1.00  0.00    -0.354 N 
ATOM     32  N   UNL A   1      41.133  31.169  34.875  1.00  0.00    -0.248 NA
ATOM     33  C   UNL A   1      41.643  31.858  37.047  1.00  0.00     0.031 C 
ATOM     34  C   UNL A   1      43.251  27.899  32.736  1.00  0.00     0.029 A 
ATOM     35  C   UNL A   1      42.608  28.918  33.421  1.00  0.00     0.049 A 
ATOM     36  H   UNL A   1      40.921  30.047  32.848  1.00  0.00     0.167 HD
ATOM     37  C   UNL A   1      42.231  30.452  35.334  1.00  0.00     0.074 A 
ATOM     38  C   UNL A   1      42.527  30.949  36.662  1.00  0.00     0.031 C 
ATOM     39  C   UNL A   1      42.921  29.459  34.719  1.00  0.00     0.034 A 
BRANCH  26  40
ATOM     40  C   UNL A   1      40.673  27.848  29.192  1.00  0.00     0.023 A 
ATOM     41  C   UNL A   1      39.835  26.719  29.098  1.00  0.00     0.012 A 
ATOM     42  C   UNL A   1      41.550  28.147  28.130  1.00  0.00     0.148 A 
ATOM     43  C   UNL A   1      39.884  25.887  27.979  1.00  0.00     0.002 A 
ATOM     44  C   UNL A   1      41.569  27.333  27.003  1.00  0.00     0.091 A 
ATOM     45  F   UNL A   1      42.356  29.213  28.247  1.00  0.00    -0.205 F 
ATOM     46  C   UNL A   1      40.743  26.199  26.929  1.00  0.00     0.022 A 
BRANCH  44  47
ATOM     47  S   UNL A   1      42.592  27.691  25.569  1.00  0.00     0.127 S 
ATOM     48  O   UNL A   1      43.927  27.733  26.163  1.00  0.00    -0.237 OA
ATOM     49  O   UNL A   1      42.344  26.530  24.713  1.00  0.00    -0.237 OA
ATOM     50  O   UNL A   1      42.102  28.953  25.034  1.00  0.00    -0.744 OA
ENDBRANCH  44  47
ENDBRANCH  26  40
BRANCH  27  51
ATOM     51  C   UNL A   1      39.548  33.923  37.057  1.00  0.00     0.023 A 
ATOM     52  C   UNL A   1      39.924  35.276  36.955  1.00  0.00     0.012 A 
ATOM     53  C   UNL A   1      38.968  33.460  38.254  1.00  0.00     0.148 A 
ATOM     54  C   UNL A   1      39.744  36.147  38.031  1.00  0.00     0.002 A 
ATOM     55  C   UNL A   1      38.739  34.344  39.302  1.00  0.00     0.091 A 
ATOM     56  F   UNL A   1      38.634  32.164  38.339  1.00  0.00    -0.205 F 
ATOM     57  C   UNL A   1      39.140  35.684  39.198  1.00  0.00     0.022 A 
BRANCH  55  58
ATOM     58  S   UNL A   1      37.841  33.860  40.781  1.00  0.00     0.127 S 
ATOM     59  O   UNL A   1      38.799  32.976  41.437  1.00  0.00    -0.237 OA
ATOM     60  O   UNL A   1      37.632  35.148  41.448  1.00  0.00    -0.237 OA
ATOM     61  O   UNL A   1      36.617  33.233  40.302  1.00  0.00    -0.744 OA
ENDBRANCH  55  58
ENDBRANCH  27  51
BRANCH  39  62
ATOM     62  C   UNL A   1      44.076  28.851  35.467  1.00  0.00     0.023 A 
ATOM     63  C   UNL A   1      45.370  29.383  35.297  1.00  0.00     0.012 A 
ATOM     64  C   UNL A   1      43.872  27.804  36.387  1.00  0.00     0.148 A 
ATOM     65  C   UNL A   1      46.448  28.864  36.012  1.00  0.00     0.002 A 
ATOM     66  C   UNL A   1      44.945  27.321  37.128  1.00  0.00     0.091 A 
ATOM     67  F   UNL A   1      42.637  27.297  36.517  1.00  0.00    -0.205 F 
ATOM     68  C   UNL A   1      46.234  27.843  36.935  1.00  0.00     0.022 A 
BRANCH  66  69
ATOM     69  S   UNL A   1      44.741  26.070  38.402  1.00  0.00     0.127 S 
ATOM     70  O   UNL A   1      43.798  25.150  37.768  1.00  0.00    -0.237 OA
ATOM     71  O   UNL A   1      46.100  25.546  38.547  1.00  0.00    -0.237 OA
ATOM     72  O   UNL A   1      44.241  26.775  39.574  1.00  0.00    -0.744 OA
ENDBRANCH  66  69
ENDBRANCH  39  62
ENDBRANCH  13  14
ENDBRANCH   6   8
ENDBRANCH   3   4
ENDBRANCH   2   3
ENDBRANCH   1   2
BRANCH   1  73
ATOM     73  C   UNL A   1      32.118  29.715  25.173  1.00  0.00     0.116 C 
BRANCH  73  74
ATOM     74  N   UNL A   1      30.931  30.099  24.425  1.00  0.00    -0.351 N 
ATOM     75  C   UNL A   1      30.165  29.333  23.569  1.00  0.00     0.269 C 
ATOM     76  H   UNL A   1      30.632  31.030  24.546  1.00  0.00     0.163 HD
ATOM     77  O   UNL A   1      29.220  29.833  22.967  1.00  0.00    -0.268 OA
BRANCH  75  78
ATOM     78  C   UNL A   1      30.486  27.889  23.411  1.00  0.00     0.129 A 
ATOM     79  C   UNL A   1      30.378  27.051  24.515  1.00  0.00     0.049 A 
ATOM     80  N   UNL A   1      30.943  27.497  22.197  1.00  0.00    -0.251 NA
ATOM     81  C   UNL A   1      30.847  25.750  24.399  1.00  0.00     0.011 A 
ATOM     82  C   UNL A   1      31.326  26.214  22.093  1.00  0.00     0.113 A 
ATOM     83  C   UNL A   1      31.312  25.320  23.153  1.00  0.00     0.035 A 
BRANCH  81  84
ATOM     84  S   UNL A   1      30.932  24.576  25.741  1.00  0.00    -0.120 SA
BRANCH  84  85
ATOM     85  C   UNL A   1      30.989  22.949  24.920  1.00  0.00     0.132 C 
BRANCH  85  86
ATOM     86  C   UNL A   1      32.208  22.113  25.178  1.00  0.00     0.062 A 
ATOM     87  C   UNL A   1      33.532  22.505  25.260  1.00  0.00     0.091 A 
ATOM     88  N   UNL A   1      32.025  20.735  25.256  1.00  0.00    -0.240 NA
ATOM     89  S   UNL A   1      34.559  21.130  25.255  1.00  0.00    -0.122 S 
ATOM     90  C   UNL A   1      33.182  20.107  25.176  1.00  0.00     0.124 A 
BRANCH  90  91
ATOM     91  C   UNL A   1      33.254  18.619  24.988  1.00  0.00     0.021 A 
ATOM     92  C   UNL A   1      32.493  17.638  25.693  1.00  0.00     0.023 A 
ATOM     93  C   UNL A   1      34.135  18.036  24.100  1.00  0.00     0.076 A 
ATOM     94  C   UNL A   1      32.838  16.352  25.333  1.00  0.00     0.065 A 
ATOM     95  S   UNL A   1      34.040  16.327  24.117  1.00  0.00    -0.152 S 
ENDBRANCH  90  91
ENDBRANCH  85  86
ENDBRANCH  84  85
ENDBRANCH  81  84
ENDBRANCH  75  78
ENDBRANCH  73  74
ENDBRANCH   1  73
TORSDOF 18
ENDMDL
MODEL 2
REMARK VINA RESULT:     -12.0      0.971      7.859
REMARK SMILES O=C(NCCCCNC(=O)c1cc(SCc2csc(-c3ccsc3)n2)ccn1)c1ccc(-c2c3nc(c(-c4cccc(S(=O)(=O)[O-])c4F)c4ccc([nH]4)c(-c4cccc(S(=O)(=O)[O-])c4F)c4nc(c(-c5cccc(S(=O)(=O)[O-])c5F)c5ccc2[nH]5)C=C4)C=C3)cc1
REMARK SMILES IDX 6 1 5 2 4 3 3 4 1 5 2 6 29 8 30 9 91 10 31 11 90 12 32 13
REMARK SMILES IDX 33 14 34 15 84 16 35 17 89 18 83 19 85 20 36 21 88 22 82 23
REMARK SMILES IDX 81 24 37 26 69 27 49 28 68 29 50 30 53 31 67 32 86 33 51 34
REMARK SMILES IDX 52 35 66 37 87 38 54 39 38 40 39 41 47 42 40 43 42 44 48 45
REMARK SMILES IDX 41 46 43 47 44 48 45 49 46 50 70 51 71 52 79 53 72 54 74 55
REMARK SMILES IDX 80 56 73 57 75 58 76 59 77 60 78 61 55 62 56 63 64 64 57 65
REMARK SMILES IDX 59 66 65 67 58 68 60 69 61 70 62 71 63 72 7 73 8 74 9 75
REMARK SMILES IDX 10 77 11 78 12 79 28 80 13 81 27 82 26 83 14 84 15 85 16 86
REMARK SMILES IDX 17 87 25 88 18 89 19 90 20 91 21 92 24 93 22 94 23 95
REMARK H PARENT 3 7 85 25 53 36 8 76
REMARK Flexibility Score: inf
ROOT
ATOM      1  C   UNL A   1      32.121  30.317  26.752  1.00  0.00     0.023 C 
ENDROOT
BRANCH   1   2
ATOM      2  C   UNL A   1      31.880  31.823  26.834  1.00  0.00     0.023 C 
BRANCH   2   3
ATOM      3  C   UNL A   1      33.033  32.644  27.401  1.00  0.00     0.116 C 
BRANCH   3   4
ATOM      4  N   UNL A   1      32.651  33.991  27.786  1.00  0.00    -0.352 N 
ATOM      5  O   UNL A   1      32.622  35.852  29.046  1.00  0.00    -0.269 OA
ATOM      6  C   UNL A   1      33.177  34.798  28.773  1.00  0.00     0.251 C 
ATOM      7  H   UNL A   1      31.911  34.384  27.268  1.00  0.00     0.163 HD
BRANCH   6   8
ATOM      8  C   UNL A   1      34.369  34.354  29.538  1.00  0.00     0.039 A 
ATOM      9  C   UNL A   1      35.668  34.594  29.083  1.00  0.00     0.014 A 
ATOM     10  C   UNL A   1      34.169  33.650  30.730  1.00  0.00     0.014 A 
ATOM     11  C   UNL A   1      36.749  33.989  29.719  1.00  0.00     0.010 A 
ATOM     12  C   UNL A   1      35.262  33.105  31.409  1.00  0.00     0.010 A 
ATOM     13  C   UNL A   1      36.555  33.222  30.877  1.00  0.00    -0.014 A 
BRANCH  13  14
ATOM     14  C   UNL A   1      37.711  32.551  31.524  1.00  0.00     0.031 A 
ATOM     15  C   UNL A   1      38.220  33.017  32.863  1.00  0.00     0.074 A 
ATOM     16  C   UNL A   1      38.298  31.511  30.903  1.00  0.00     0.049 A 
ATOM     17  N   UNL A   1      39.206  32.543  33.580  1.00  0.00    -0.248 NA
ATOM     18  C   UNL A   1      37.536  34.167  33.477  1.00  0.00     0.031 C 
ATOM     19  C   UNL A   1      37.910  30.986  29.592  1.00  0.00     0.029 A 
ATOM     20  N   UNL A   1      39.347  30.713  31.283  1.00  0.00    -0.354 N 
ATOM     21  C   UNL A   1      39.284  33.351  34.708  1.00  0.00     0.074 A 
ATOM     22  C   UNL A   1      38.252  34.357  34.577  1.00  0.00     0.031 C 
ATOM     23  C   UNL A   1      38.701  29.948  29.282  1.00  0.00     0.029 A 
ATOM     24  C   UNL A   1      39.675  29.757  30.351  1.00  0.00     0.049 A 
ATOM     25  H   UNL A   1      39.818  30.815  32.141  1.00  0.00     0.167 HD
ATOM     26  C   UNL A   1      40.125  33.253  35.765  1.00  0.00     0.034 A 
ATOM     27  C   UNL A   1      40.658  28.836  30.352  1.00  0.00     0.034 A 
ATOM     28  C   UNL A   1      41.126  32.230  35.908  1.00  0.00     0.049 A 
ATOM     29  C   UNL A   1      41.570  28.745  31.543  1.00  0.00     0.074 A 
ATOM     30  C   UNL A   1      41.994  32.015  36.967  1.00  0.00     0.029 A 
ATOM     31  N   UNL A   1      41.399  31.252  34.964  1.00  0.00    -0.354 N 
ATOM     32  N   UNL A   1      41.548  29.441  32.654  1.00  0.00    -0.248 NA
ATOM     33  C   UNL A   1      42.624  27.721  31.496  1.00  0.00     0.031 C 
ATOM     34  C   UNL A   1      42.799  30.915  36.655  1.00  0.00     0.029 A 
ATOM     35  C   UNL A   1      42.425  30.435  35.410  1.00  0.00     0.049 A 
ATOM     36  H   UNL A   1      40.932  31.153  34.104  1.00  0.00     0.167 HD
ATOM     37  C   UNL A   1      42.566  28.925  33.447  1.00  0.00     0.074 A 
ATOM     38  C   UNL A   1      43.167  27.840  32.700  1.00  0.00     0.031 C 
ATOM     39  C   UNL A   1      42.977  29.326  34.675  1.00  0.00     0.034 A 
BRANCH  26  40
ATOM     40  C   UNL A   1      39.970  34.254  36.882  1.00  0.00     0.023 A 
ATOM     41  C   UNL A   1      40.305  35.603  36.654  1.00  0.00     0.012 A 
ATOM     42  C   UNL A   1      39.435  33.877  38.131  1.00  0.00     0.148 A 
ATOM     43  C   UNL A   1      40.135  36.558  37.657  1.00  0.00     0.002 A 
ATOM     44  C   UNL A   1      39.237  34.840  39.114  1.00  0.00     0.091 A 
ATOM     45  F   UNL A   1      39.143  32.584  38.337  1.00  0.00    -0.205 F 
ATOM     46  C   UNL A   1      39.593  36.179  38.881  1.00  0.00     0.022 A 
BRANCH  44  47
ATOM     47  S   UNL A   1      38.481  34.461  40.699  1.00  0.00     0.127 S 
ATOM     48  O   UNL A   1      37.307  33.692  40.290  1.00  0.00    -0.237 OA
ATOM     49  O   UNL A   1      39.523  33.675  41.360  1.00  0.00    -0.237 OA
ATOM     50  O   UNL A   1      38.203  35.746  41.326  1.00  0.00    -0.744 OA
ENDBRANCH  44  47
ENDBRANCH  26  40
BRANCH  27  51
ATOM     51  C   UNL A   1      40.788  27.896  29.204  1.00  0.00     0.023 A 
ATOM     52  C   UNL A   1      39.989  26.738  29.167  1.00  0.00     0.012 A 
ATOM     53  C   UNL A   1      41.656  28.167  28.129  1.00  0.00     0.148 A 
ATOM     54  C   UNL A   1      40.067  25.855  28.089  1.00  0.00     0.002 A 
ATOM     55  C   UNL A   1      41.688  27.314  27.032  1.00  0.00     0.091 A 
ATOM     56  F   UNL A   1      42.424  29.264  28.191  1.00  0.00    -0.205 F 
ATOM     57  C   UNL A   1      40.906  26.149  27.016  1.00  0.00     0.022 A 
BRANCH  55  58
ATOM     58  S   UNL A   1      42.635  27.695  25.553  1.00  0.00     0.127 S 
ATOM     59  O   UNL A   1      41.976  28.909  25.080  1.00  0.00    -0.237 OA
ATOM     60  O   UNL A   1      43.981  27.895  26.094  1.00  0.00    -0.237 OA
ATOM     61  O   UNL A   1      42.505  26.523  24.698  1.00  0.00    -0.744 OA
ENDBRANCH  55  58
ENDBRANCH  27  51
BRANCH  39  62
ATOM     62  C   UNL A   1      44.123  28.578  35.301  1.00  0.00     0.023 A 
ATOM     63  C   UNL A   1      45.447  28.920  34.956  1.00  0.00     0.012 A 
ATOM     64  C   UNL A   1      43.894  27.590  36.278  1.00  0.00     0.148 A 
ATOM     65  C   UNL A   1      46.524  28.271  35.556  1.00  0.00     0.002 A 
ATOM     66  C   UNL A   1      44.976  26.977  36.903  1.00  0.00     0.091 A 
ATOM     67  F   UNL A   1      42.629  27.263  36.575  1.00  0.00    -0.205 F 
ATOM     68  C   UNL A   1      46.289  27.309  36.536  1.00  0.00     0.022 A 
BRANCH  66  69
ATOM     69  S   UNL A   1      44.764  25.794  38.238  1.00  0.00     0.127 S 
ATOM     70  O   UNL A   1      43.880  26.524  39.146  1.00  0.00    -0.237 OA
ATOM     71  O   UNL A   1      44.135  24.661  37.556  1.00  0.00    -0.237 OA
ATOM     72  O   UNL A   1      46.102  25.522  38.744  1.00  0.00    -0.744 OA
ENDBRANCH  66  69
ENDBRANCH  39  62
ENDBRANCH  13  14
ENDBRANCH   6   8
ENDBRANCH   3   4
ENDBRANCH   2   3
ENDBRANCH   1   2
BRANCH   1  73
ATOM     73  C   UNL A   1      32.099  29.735  25.343  1.00  0.00     0.116 C 
BRANCH  73  74
ATOM     74  N   UNL A   1      30.926  30.140  24.585  1.00  0.00    -0.351 N 
ATOM     75  C   UNL A   1      30.196  29.411  23.668  1.00  0.00     0.269 C 
ATOM     76  H   UNL A   1      30.608  31.059  24.749  1.00  0.00     0.163 HD
ATOM     77  O   UNL A   1      29.258  29.929  23.069  1.00  0.00    -0.268 OA
BRANCH  75  78
ATOM     78  C   UNL A   1      30.545  27.984  23.440  1.00  0.00     0.129 A 
ATOM     79  C   UNL A   1      30.541  27.109  24.521  1.00  0.00     0.049 A 
ATOM     80  N   UNL A   1      30.924  27.644  22.185  1.00  0.00    -0.251 NA
ATOM     81  C   UNL A   1      31.037  25.827  24.329  1.00  0.00     0.011 A 
ATOM     82  C   UNL A   1      31.336  26.377  22.010  1.00  0.00     0.113 A 
ATOM     83  C   UNL A   1      31.423  25.450  23.039  1.00  0.00     0.035 A 
BRANCH  81  84
ATOM     84  S   UNL A   1      31.251  24.615  25.621  1.00  0.00    -0.120 SA
BRANCH  84  85
ATOM     85  C   UNL A   1      31.035  23.011  24.782  1.00  0.00     0.132 C 
BRANCH  85  86
ATOM     86  C   UNL A   1      32.250  22.134  24.694  1.00  0.00     0.062 A 
ATOM     87  C   UNL A   1      32.325  20.755  24.620  1.00  0.00     0.091 A 
ATOM     88  N   UNL A   1      33.490  22.759  24.796  1.00  0.00    -0.240 NA
ATOM     89  S   UNL A   1      33.944  20.236  24.856  1.00  0.00    -0.122 S 
ATOM     90  C   UNL A   1      34.442  21.871  25.011  1.00  0.00     0.124 A 
BRANCH  90  91
ATOM     91  C   UNL A   1      35.829  22.291  25.402  1.00  0.00     0.021 A 
ATOM     92  C   UNL A   1      36.236  23.597  25.812  1.00  0.00     0.023 A 
ATOM     93  C   UNL A   1      36.897  21.419  25.358  1.00  0.00     0.076 A 
ATOM     94  C   UNL A   1      37.593  23.673  26.043  1.00  0.00     0.065 A 
ATOM     95  S   UNL A   1      38.368  22.167  25.811  1.00  0.00    -0.152 S 
ENDBRANCH  90  91
ENDBRANCH  85  86
ENDBRANCH  84  85
ENDBRANCH  81  84
ENDBRANCH  75  78
ENDBRANCH  73  74
ENDBRANCH   1  73
TORSDOF 18
ENDMDL
MODEL 3
REMARK VINA RESULT:     -11.9      0.774      7.734
REMARK SMILES O=C(NCCCCNC(=O)c1cc(SCc2csc(-c3ccsc3)n2)ccn1)c1ccc(-c2c3nc(c(-c4cccc(S(=O)(=O)[O-])c4F)c4ccc([nH]4)c(-c4cccc(S(=O)(=O)[O-])c4F)c4nc(c(-c5cccc(S(=O)(=O)[O-])c5F)c5ccc2[nH]5)C=C4)C=C3)cc1
REMARK SMILES IDX 6 1 5 2 4 3 3 4 1 5 2 6 29 8 30 9 91 10 31 11 90 12 32 13
REMARK SMILES IDX 33 14 34 15 84 16 35 17 89 18 83 19 85 20 36 21 88 22 82 23
REMARK SMILES IDX 81 24 37 26 69 27 49 28 68 29 50 30 53 31 67 32 86 33 51 34
REMARK SMILES IDX 52 35 66 37 87 38 54 39 38 40 39 41 47 42 40 43 42 44 48 45
REMARK SMILES IDX 41 46 43 47 44 48 45 49 46 50 70 51 71 52 79 53 72 54 74 55
REMARK SMILES IDX 80 56 73 57 75 58 76 59 77 60 78 61 55 62 56 63 64 64 57 65
REMARK SMILES IDX 59 66 65 67 58 68 60 69 61 70 62 71 63 72 7 73 8 74 9 75
REMARK SMILES IDX 10 77 11 78 12 79 28 80 13 81 27 82 26 83 14 84 15 85 16 86
REMARK SMILES IDX 17 87 25 88 18 89 19 90 20 91 21 92 24 93 22 94 23 95
REMARK H PARENT 3 7 85 25 53 36 8 76
REMARK Flexibility Score: inf
ROOT
ATOM      1  C   UNL A   1      31.642  30.503  26.655  1.00  0.00     0.023 C 
ENDROOT
BRANCH   1   2
ATOM      2  C   UNL A   1      31.793  32.021  26.576  1.00  0.00     0.023 C 
BRANCH   2   3
ATOM      3  C   UNL A   1      32.740  32.642  27.598  1.00  0.00     0.116 C 
BRANCH   3   4
ATOM      4  N   UNL A   1      32.477  34.048  27.852  1.00  0.00    -0.352 N 
ATOM      5  O   UNL A   1      32.643  36.024  28.909  1.00  0.00    -0.269 OA
ATOM      6  C   UNL A   1      33.106  34.908  28.727  1.00  0.00     0.251 C 
ATOM      7  H   UNL A   1      31.744  34.442  27.325  1.00  0.00     0.163 HD
BRANCH   6   8
ATOM      8  C   UNL A   1      34.297  34.453  29.488  1.00  0.00     0.039 A 
ATOM      9  C   UNL A   1      35.594  34.625  28.999  1.00  0.00     0.014 A 
ATOM     10  C   UNL A   1      34.096  33.808  30.713  1.00  0.00     0.014 A 
ATOM     11  C   UNL A   1      36.665  34.007  29.639  1.00  0.00     0.010 A 
ATOM     12  C   UNL A   1      35.182  33.252  31.394  1.00  0.00     0.010 A 
ATOM     13  C   UNL A   1      36.468  33.299  30.833  1.00  0.00    -0.014 A 
BRANCH  13  14
ATOM     14  C   UNL A   1      37.611  32.613  31.486  1.00  0.00     0.031 A 
ATOM     15  C   UNL A   1      38.106  33.060  32.837  1.00  0.00     0.074 A 
ATOM     16  C   UNL A   1      38.200  31.577  30.860  1.00  0.00     0.049 A 
ATOM     17  N   UNL A   1      39.080  32.572  33.560  1.00  0.00    -0.248 NA
ATOM     18  C   UNL A   1      37.421  34.207  33.456  1.00  0.00     0.031 C 
ATOM     19  C   UNL A   1      37.826  31.070  29.538  1.00  0.00     0.029 A 
ATOM     20  N   UNL A   1      39.240  30.769  31.243  1.00  0.00    -0.354 N 
ATOM     21  C   UNL A   1      39.149  33.365  34.699  1.00  0.00     0.074 A 
ATOM     22  C   UNL A   1      38.124  34.379  34.567  1.00  0.00     0.031 C 
ATOM     23  C   UNL A   1      38.615  30.032  29.225  1.00  0.00     0.029 A 
ATOM     24  C   UNL A   1      39.575  29.822  30.304  1.00  0.00     0.049 A 
ATOM     25  H   UNL A   1      39.701  30.857  32.108  1.00  0.00     0.167 HD
ATOM     26  C   UNL A   1      39.976  33.251  35.765  1.00  0.00     0.034 A 
ATOM     27  C   UNL A   1      40.553  28.896  30.305  1.00  0.00     0.034 A 
ATOM     28  C   UNL A   1      40.970  32.220  35.908  1.00  0.00     0.049 A 
ATOM     29  C   UNL A   1      41.449  28.785  31.507  1.00  0.00     0.074 A 
ATOM     30  C   UNL A   1      41.822  31.987  36.975  1.00  0.00     0.029 A 
ATOM     31  N   UNL A   1      41.249  31.251  34.956  1.00  0.00    -0.354 N 
ATOM     32  N   UNL A   1      41.417  29.468  32.626  1.00  0.00    -0.248 NA
ATOM     33  C   UNL A   1      42.497  27.756  31.461  1.00  0.00     0.031 C 
ATOM     34  C   UNL A   1      42.626  30.886  36.660  1.00  0.00     0.029 A 
ATOM     35  C   UNL A   1      42.264  30.424  35.404  1.00  0.00     0.049 A 
ATOM     36  H   UNL A   1      40.792  31.166  34.089  1.00  0.00     0.167 HD
ATOM     37  C   UNL A   1      42.421  28.937  33.425  1.00  0.00     0.074 A 
ATOM     38  C   UNL A   1      43.026  27.857  32.673  1.00  0.00     0.031 C 
ATOM     39  C   UNL A   1      42.820  29.320  34.664  1.00  0.00     0.034 A 
BRANCH  26  40
ATOM     40  C   UNL A   1      39.812  34.238  36.892  1.00  0.00     0.023 A 
ATOM     41  C   UNL A   1      40.159  35.588  36.684  1.00  0.00     0.012 A 
ATOM     42  C   UNL A   1      39.259  33.850  38.129  1.00  0.00     0.148 A 
ATOM     43  C   UNL A   1      39.982  36.532  37.697  1.00  0.00     0.002 A 
ATOM     44  C   UNL A   1      39.053  34.802  39.121  1.00  0.00     0.091 A 
ATOM     45  F   UNL A   1      38.957  32.556  38.315  1.00  0.00    -0.205 F 
ATOM     46  C   UNL A   1      39.421  36.142  38.909  1.00  0.00     0.022 A 
BRANCH  44  47
ATOM     47  S   UNL A   1      38.275  34.409  40.692  1.00  0.00     0.127 S 
ATOM     48  O   UNL A   1      37.927  35.740  41.188  1.00  0.00    -0.237 OA
ATOM     49  O   UNL A   1      37.130  33.597  40.277  1.00  0.00    -0.237 OA
ATOM     50  O   UNL A   1      39.277  33.691  41.466  1.00  0.00    -0.744 OA
ENDBRANCH  44  47
ENDBRANCH  26  40
BRANCH  27  51
ATOM     51  C   UNL A   1      40.691  27.969  29.148  1.00  0.00     0.023 A 
ATOM     52  C   UNL A   1      39.856  26.839  29.065  1.00  0.00     0.012 A 
ATOM     53  C   UNL A   1      41.605  28.226  28.108  1.00  0.00     0.148 A 
ATOM     54  C   UNL A   1      39.943  25.970  27.976  1.00  0.00     0.002 A 
ATOM     55  C   UNL A   1      41.648  27.389  27.000  1.00  0.00     0.091 A 
ATOM     56  F   UNL A   1      42.406  29.296  28.215  1.00  0.00    -0.205 F 
ATOM     57  C   UNL A   1      40.828  26.252  26.939  1.00  0.00     0.022 A 
BRANCH  55  58
ATOM     58  S   UNL A   1      42.658  27.759  25.561  1.00  0.00     0.127 S 
ATOM     59  O   UNL A   1      43.984  27.905  26.154  1.00  0.00    -0.237 OA
ATOM     60  O   UNL A   1      42.477  26.559  24.741  1.00  0.00    -0.237 OA
ATOM     61  O   UNL A   1      42.080  28.965  24.984  1.00  0.00    -0.744 OA
ENDBRANCH  55  58
ENDBRANCH  27  51
BRANCH  39  62
ATOM     62  C   UNL A   1      43.954  28.559  35.294  1.00  0.00     0.023 A 
ATOM     63  C   UNL A   1      45.282  28.878  34.949  1.00  0.00     0.012 A 
ATOM     64  C   UNL A   1      43.709  27.579  36.277  1.00  0.00     0.148 A 
ATOM     65  C   UNL A   1      46.349  28.216  35.553  1.00  0.00     0.002 A 
ATOM     66  C   UNL A   1      44.780  26.954  36.905  1.00  0.00     0.091 A 
ATOM     67  F   UNL A   1      42.438  27.274  36.575  1.00  0.00    -0.205 F 
ATOM     68  C   UNL A   1      46.099  27.263  36.538  1.00  0.00     0.022 A 
BRANCH  66  69
ATOM     69  S   UNL A   1      44.549  25.781  38.247  1.00  0.00     0.127 S 
ATOM     70  O   UNL A   1      45.928  25.513  38.650  1.00  0.00    -0.237 OA
ATOM     71  O   UNL A   1      43.772  26.560  39.213  1.00  0.00    -0.237 OA
ATOM     72  O   UNL A   1      43.831  24.653  37.670  1.00  0.00    -0.744 OA
ENDBRANCH  66  69
ENDBRANCH  39  62
ENDBRANCH  13  14
ENDBRANCH   6   8
ENDBRANCH   3   4
ENDBRANCH   2   3
ENDBRANCH   1   2
BRANCH   1  73
ATOM     73  C   UNL A   1      31.880  29.762  25.344  1.00  0.00     0.116 C 
BRANCH  73  74
ATOM     74  N   UNL A   1      30.885  30.078  24.331  1.00  0.00    -0.351 N 
ATOM     75  C   UNL A   1      30.228  29.222  23.469  1.00  0.00     0.269 C 
ATOM     76  H   UNL A   1      30.646  31.030  24.249  1.00  0.00     0.163 HD
ATOM     77  O   UNL A   1      29.453  29.664  22.627  1.00  0.00    -0.268 OA
BRANCH  75  78
ATOM     78  C   UNL A   1      30.453  27.757  23.598  1.00  0.00     0.129 A 
ATOM     79  C   UNL A   1      31.724  27.248  23.358  1.00  0.00     0.049 A 
ATOM     80  N   UNL A   1      29.365  26.998  23.872  1.00  0.00    -0.251 NA
ATOM     81  C   UNL A   1      31.879  25.869  23.309  1.00  0.00     0.011 A 
ATOM     82  C   UNL A   1      29.557  25.668  23.886  1.00  0.00     0.113 A 
ATOM     83  C   UNL A   1      30.773  25.065  23.601  1.00  0.00     0.035 A 
BRANCH  81  84
ATOM     84  S   UNL A   1      33.392  25.030  22.869  1.00  0.00    -0.120 SA
BRANCH  84  85
ATOM     85  C   UNL A   1      32.941  23.265  22.834  1.00  0.00     0.132 C 
BRANCH  85  86
ATOM     86  C   UNL A   1      33.710  22.360  23.753  1.00  0.00     0.062 A 
ATOM     87  C   UNL A   1      34.971  22.536  24.294  1.00  0.00     0.091 A 
ATOM     88  N   UNL A   1      33.143  21.123  24.043  1.00  0.00    -0.240 NA
ATOM     89  S   UNL A   1      35.515  21.078  25.016  1.00  0.00    -0.122 S 
ATOM     90  C   UNL A   1      34.034  20.320  24.593  1.00  0.00     0.124 A 
BRANCH  90  91
ATOM     91  C   UNL A   1      33.759  18.856  24.778  1.00  0.00     0.021 A 
ATOM     92  C   UNL A   1      32.632  18.282  25.442  1.00  0.00     0.023 A 
ATOM     93  C   UNL A   1      34.636  17.886  24.338  1.00  0.00     0.076 A 
ATOM     94  C   UNL A   1      32.705  16.907  25.499  1.00  0.00     0.065 A 
ATOM     95  S   UNL A   1      34.101  16.305  24.718  1.00  0.00    -0.152 S 
ENDBRANCH  90  91
ENDBRANCH  85  86
ENDBRANCH  84  85
ENDBRANCH  81  84
ENDBRANCH  75  78
ENDBRANCH  73  74
ENDBRANCH   1  73
TORSDOF 18
ENDMDL
