MODEL 1
REMARK VINA RESULT:     -12.4      0.000      0.000
REMARK SMILES Cc1c(C(=O)Nc2ccc(C(=O)Nc3ccccc3C(=O)NCCCCNC(=O)c3ccc(-c4c5nc(c(-c6cccc(S(=O)(=O)[O-])c6F)c6ccc([nH]6)c(-c6cccc(S(=O)(=O)[O-])c6F)c6nc(c(-c7cccc(S(=O)(=O)[O-])c7F)c7ccc4[nH]7)C=C6)C=C5)cc3)cc2)cccc1[N+](=O)[O-]
REMARK SMILES IDX 23 1 22 2 20 3 21 4 19 6 14 7 15 8 16 9 18 10 17 11 13 12
REMARK SMILES IDX 11 13 12 14 10 16 7 17 8 18 94 19 9 20 93 21 6 22 4 23 5 24
REMARK SMILES IDX 3 26 1 27 2 28 98 29 95 30 97 31 96 32 99 33 100 34 101 35
REMARK SMILES IDX 24 36 25 37 26 38 27 39 28 40 29 42 30 43 31 44 92 45 32 46
REMARK SMILES IDX 91 47 33 48 34 49 35 50 85 51 36 52 90 53 84 54 86 55 37 56
REMARK SMILES IDX 89 57 83 58 82 59 38 61 70 62 50 63 69 64 51 65 54 66 68 67
REMARK SMILES IDX 87 68 52 69 53 70 67 72 88 73 55 74 39 75 40 76 48 77 41 78
REMARK SMILES IDX 43 79 49 80 42 81 44 82 45 83 46 84 47 85 71 86 72 87 80 88
REMARK SMILES IDX 73 89 75 90 81 91 74 92 76 93 77 94 78 95 79 96 56 97 57 98
REMARK SMILES IDX 65 99 58 100 60 101 66 102 59 103 61 104 62 105 63 106
REMARK SMILES IDX 64 107
REMARK H PARENT 22 5 13 15 6 25 27 41 86 60 54 71
REMARK Flexibility Score: inf
ROOT
ATOM      1  C   UNL A   1      33.550  28.928  27.224  1.00  0.00     0.116 C 
ENDROOT
BRANCH   1   2
ATOM      2  N   UNL A   1      32.582  29.727  26.473  1.00  0.00    -0.352 N 
ATOM      3  C   UNL A   1      31.959  29.556  25.244  1.00  0.00     0.253 C 
ATOM      4  O   UNL A   1      30.991  30.267  24.983  1.00  0.00    -0.269 OA
ATOM      5  H   UNL A   1      32.318  30.554  26.934  1.00  0.00     0.163 HD
BRANCH   3   6
ATOM      6  C   UNL A   1      32.470  28.622  24.197  1.00  0.00     0.063 A 
ATOM      7  C   UNL A   1      31.606  27.831  23.393  1.00  0.00     0.054 A 
ATOM      8  C   UNL A   1      32.162  27.042  22.366  1.00  0.00     0.027 A 
ATOM      9  C   UNL A   1      33.527  27.080  22.088  1.00  0.00     0.002 A 
ATOM     10  C   UNL A   1      33.855  28.507  24.002  1.00  0.00     0.016 A 
ATOM     11  C   UNL A   1      34.377  27.798  22.918  1.00  0.00     0.001 A 
BRANCH   7  12
ATOM     12  N   UNL A   1      30.189  27.810  23.409  1.00  0.00    -0.321 N 
ATOM     13  C   UNL A   1      29.272  26.843  23.784  1.00  0.00     0.255 C 
ATOM     14  O   UNL A   1      28.071  27.059  23.611  1.00  0.00    -0.269 OA
ATOM     15  H   UNL A   1      29.776  28.644  23.090  1.00  0.00     0.170 HD
BRANCH  13  16
ATOM     16  C   UNL A   1      29.665  25.653  24.585  1.00  0.00     0.040 A 
ATOM     17  C   UNL A   1      30.696  23.512  26.083  1.00  0.00     0.041 A 
ATOM     18  C   UNL A   1      30.691  23.478  24.703  1.00  0.00     0.027 A 
ATOM     19  C   UNL A   1      30.037  24.561  26.731  1.00  0.00     0.027 A 
ATOM     20  C   UNL A   1      30.296  24.579  23.979  1.00  0.00     0.016 A 
ATOM     21  C   UNL A   1      29.522  25.634  25.979  1.00  0.00     0.016 A 
BRANCH  17  22
ATOM     22  N   UNL A   1      31.428  22.566  26.815  1.00  0.00    -0.322 N 
ATOM     23  C   UNL A   1      32.761  22.187  26.718  1.00  0.00     0.256 C 
ATOM     24  O   UNL A   1      33.134  21.191  27.341  1.00  0.00    -0.269 OA
ATOM     25  H   UNL A   1      30.915  22.094  27.510  1.00  0.00     0.170 HD
BRANCH  23  26
ATOM     26  C   UNL A   1      33.784  22.910  25.875  1.00  0.00     0.049 A 
ATOM     27  C   UNL A   1      34.022  21.138  24.058  1.00  0.00     0.053 C 
ATOM     28  C   UNL A   1      34.517  22.360  24.792  1.00  0.00     0.039 A 
ATOM     29  C   UNL A   1      35.688  23.048  24.383  1.00  0.00     0.273 A 
ATOM     30  C   UNL A   1      34.027  24.247  26.254  1.00  0.00     0.014 A 
ATOM     31  C   UNL A   1      35.921  24.375  24.779  1.00  0.00     0.086 A 
ATOM     32  C   UNL A   1      35.046  24.994  25.661  1.00  0.00     0.008 A 
BRANCH  29  33
ATOM     33  N   UNL A   1      36.777  22.377  23.641  1.00  0.00     0.063 N 
ATOM     34  O   UNL A   1      37.409  21.487  24.228  1.00  0.00    -0.258 OA
ATOM     35  O   UNL A   1      36.953  22.682  22.454  1.00  0.00    -0.258 OA
ENDBRANCH  29  33
ENDBRANCH  23  26
ENDBRANCH  17  22
ENDBRANCH  13  16
ENDBRANCH   7  12
ENDBRANCH   3   6
ENDBRANCH   1   2
BRANCH   1  36
ATOM     36  C   UNL A   1      35.049  29.285  27.153  1.00  0.00     0.023 C 
BRANCH  36  37
ATOM     37  C   UNL A   1      35.511  30.680  27.578  1.00  0.00     0.023 C 
BRANCH  37  38
ATOM     38  C   UNL A   1      34.676  31.202  28.710  1.00  0.00     0.116 C 
BRANCH  38  39
ATOM     39  N   UNL A   1      34.446  32.625  28.624  1.00  0.00    -0.352 N 
ATOM     40  C   UNL A   1      34.901  33.632  29.440  1.00  0.00     0.251 C 
ATOM     41  H   UNL A   1      33.881  32.916  27.872  1.00  0.00     0.163 HD
ATOM     42  O   UNL A   1      34.215  34.660  29.482  1.00  0.00    -0.269 OA
BRANCH  40  43
ATOM     43  C   UNL A   1      36.222  33.560  30.110  1.00  0.00     0.039 A 
ATOM     44  C   UNL A   1      37.367  33.870  29.361  1.00  0.00     0.014 A 
ATOM     45  C   UNL A   1      36.376  32.955  31.351  1.00  0.00     0.014 A 
ATOM     46  C   UNL A   1      38.584  33.283  29.690  1.00  0.00     0.010 A 
ATOM     47  C   UNL A   1      37.566  32.409  31.702  1.00  0.00     0.010 A 
ATOM     48  C   UNL A   1      38.602  32.438  30.782  1.00  0.00    -0.014 A 
BRANCH  48  49
ATOM     49  C   UNL A   1      39.614  31.484  31.147  1.00  0.00     0.031 A 
ATOM     50  C   UNL A   1      39.638  30.232  30.403  1.00  0.00     0.074 A 
ATOM     51  C   UNL A   1      40.697  32.053  31.727  1.00  0.00     0.049 A 
ATOM     52  N   UNL A   1      40.468  29.287  30.630  1.00  0.00    -0.248 NA
ATOM     53  C   UNL A   1      38.693  29.947  29.327  1.00  0.00     0.031 C 
ATOM     54  C   UNL A   1      42.106  31.713  31.603  1.00  0.00     0.029 A 
ATOM     55  N   UNL A   1      40.709  33.147  32.585  1.00  0.00    -0.354 N 
ATOM     56  C   UNL A   1      40.404  28.446  29.543  1.00  0.00     0.074 A 
ATOM     57  C   UNL A   1      39.174  28.787  28.878  1.00  0.00     0.031 C 
ATOM     58  C   UNL A   1      42.802  32.390  32.537  1.00  0.00     0.029 A 
ATOM     59  C   UNL A   1      41.837  33.054  33.403  1.00  0.00     0.049 A 
ATOM     60  H   UNL A   1      40.036  33.865  32.613  1.00  0.00     0.167 HD
ATOM     61  C   UNL A   1      41.511  27.708  29.257  1.00  0.00     0.034 A 
ATOM     62  C   UNL A   1      41.627  32.739  34.721  1.00  0.00     0.034 A 
ATOM     63  C   UNL A   1      42.519  27.895  30.327  1.00  0.00     0.049 A 
ATOM     64  C   UNL A   1      42.008  31.297  35.039  1.00  0.00     0.074 A 
ATOM     65  C   UNL A   1      43.679  28.647  30.420  1.00  0.00     0.029 A 
ATOM     66  N   UNL A   1      42.177  27.557  31.638  1.00  0.00    -0.354 N 
ATOM     67  N   UNL A   1      42.376  30.412  34.150  1.00  0.00    -0.248 NA
ATOM     68  C   UNL A   1      42.046  30.752  36.391  1.00  0.00     0.031 C 
ATOM     69  C   UNL A   1      43.954  28.859  31.808  1.00  0.00     0.029 A 
ATOM     70  C   UNL A   1      42.989  28.205  32.560  1.00  0.00     0.049 A 
ATOM     71  H   UNL A   1      41.450  26.938  31.878  1.00  0.00     0.167 HD
ATOM     72  C   UNL A   1      42.557  29.188  34.733  1.00  0.00     0.074 A 
ATOM     73  C   UNL A   1      42.429  29.485  36.153  1.00  0.00     0.031 C 
ATOM     74  C   UNL A   1      42.744  28.041  34.000  1.00  0.00     0.034 A 
BRANCH  61  75
ATOM     75  C   UNL A   1      41.811  27.009  27.937  1.00  0.00     0.023 A 
ATOM     76  C   UNL A   1      41.779  27.814  26.778  1.00  0.00     0.012 A 
ATOM     77  C   UNL A   1      42.070  25.631  27.714  1.00  0.00     0.148 A 
ATOM     78  C   UNL A   1      41.964  27.294  25.490  1.00  0.00     0.002 A 
ATOM     79  C   UNL A   1      42.281  25.111  26.433  1.00  0.00     0.091 A 
ATOM     80  F   UNL A   1      42.091  24.771  28.727  1.00  0.00    -0.205 F 
ATOM     81  C   UNL A   1      42.219  25.942  25.315  1.00  0.00     0.022 A 
BRANCH  79  82
ATOM     82  S   UNL A   1      42.635  23.365  26.131  1.00  0.00     0.127 S 
ATOM     83  O   UNL A   1      41.338  22.740  26.392  1.00  0.00    -0.237 OA
ATOM     84  O   UNL A   1      43.034  23.368  24.723  1.00  0.00    -0.237 OA
ATOM     85  O   UNL A   1      43.690  22.983  27.062  1.00  0.00    -0.744 OA
ENDBRANCH  79  82
ENDBRANCH  61  75
BRANCH  62  86
ATOM     86  C   UNL A   1      40.438  33.498  35.261  1.00  0.00     0.023 A 
ATOM     87  C   UNL A   1      39.179  32.854  35.122  1.00  0.00     0.012 A 
ATOM     88  C   UNL A   1      40.585  34.465  36.275  1.00  0.00     0.148 A 
ATOM     89  C   UNL A   1      38.185  33.000  36.094  1.00  0.00     0.002 A 
ATOM     90  C   UNL A   1      39.576  34.621  37.230  1.00  0.00     0.091 A 
ATOM     91  F   UNL A   1      41.725  35.165  36.334  1.00  0.00    -0.205 F 
ATOM     92  C   UNL A   1      38.407  33.844  37.178  1.00  0.00     0.022 A 
BRANCH  90  93
ATOM     93  S   UNL A   1      39.772  35.747  38.621  1.00  0.00     0.127 S 
ATOM     94  O   UNL A   1      38.733  35.273  39.531  1.00  0.00    -0.237 OA
ATOM     95  O   UNL A   1      41.136  35.481  39.073  1.00  0.00    -0.237 OA
ATOM     96  O   UNL A   1      39.577  37.077  38.062  1.00  0.00    -0.744 OA
ENDBRANCH  90  93
ENDBRANCH  62  86
BRANCH  74  97
ATOM     97  C   UNL A   1      42.698  26.625  34.570  1.00  0.00     0.023 A 
ATOM     98  C   UNL A   1      41.574  26.116  35.248  1.00  0.00     0.012 A 
ATOM     99  C   UNL A   1      43.749  25.700  34.324  1.00  0.00     0.148 A 
ATOM    100  C   UNL A   1      41.524  24.805  35.733  1.00  0.00     0.002 A 
ATOM    101  C   UNL A   1      43.629  24.358  34.675  1.00  0.00     0.091 A 
ATOM    102  F   UNL A   1      44.897  26.113  33.772  1.00  0.00    -0.205 F 
ATOM    103  C   UNL A   1      42.540  23.916  35.422  1.00  0.00     0.022 A 
BRANCH 101 104
ATOM    104  S   UNL A   1      44.770  23.124  34.036  1.00  0.00     0.127 S 
ATOM    105  O   UNL A   1      44.620  23.291  32.593  1.00  0.00    -0.237 OA
ATOM    106  O   UNL A   1      46.053  23.580  34.574  1.00  0.00    -0.237 OA
ATOM    107  O   UNL A   1      44.312  21.856  34.588  1.00  0.00    -0.744 OA
ENDBRANCH 101 104
ENDBRANCH  74  97
ENDBRANCH  48  49
ENDBRANCH  40  43
ENDBRANCH  38  39
ENDBRANCH  37  38
ENDBRANCH  36  37
ENDBRANCH   1  36
TORSDOF 19
ENDMDL
MODEL 2
REMARK VINA RESULT:     -11.7      1.359      2.053
REMARK SMILES Cc1c(C(=O)Nc2ccc(C(=O)Nc3ccccc3C(=O)NCCCCNC(=O)c3ccc(-c4c5nc(c(-c6cccc(S(=O)(=O)[O-])c6F)c6ccc([nH]6)c(-c6cccc(S(=O)(=O)[O-])c6F)c6nc(c(-c7cccc(S(=O)(=O)[O-])c7F)c7ccc4[nH]7)C=C6)C=C5)cc3)cc2)cccc1[N+](=O)[O-]
REMARK SMILES IDX 23 1 22 2 20 3 21 4 19 6 14 7 15 8 16 9 18 10 17 11 13 12
REMARK SMILES IDX 11 13 12 14 10 16 7 17 8 18 94 19 9 20 93 21 6 22 4 23 5 24
REMARK SMILES IDX 3 26 1 27 2 28 98 29 95 30 97 31 96 32 99 33 100 34 101 35
REMARK SMILES IDX 24 36 25 37 26 38 27 39 28 40 29 42 30 43 31 44 92 45 32 46
REMARK SMILES IDX 91 47 33 48 34 49 35 50 85 51 36 52 90 53 84 54 86 55 37 56
REMARK SMILES IDX 89 57 83 58 82 59 38 61 70 62 50 63 69 64 51 65 54 66 68 67
REMARK SMILES IDX 87 68 52 69 53 70 67 72 88 73 55 74 39 75 40 76 48 77 41 78
REMARK SMILES IDX 43 79 49 80 42 81 44 82 45 83 46 84 47 85 71 86 72 87 80 88
REMARK SMILES IDX 73 89 75 90 81 91 74 92 76 93 77 94 78 95 79 96 56 97 57 98
REMARK SMILES IDX 65 99 58 100 60 101 66 102 59 103 61 104 62 105 63 106
REMARK SMILES IDX 64 107
REMARK H PARENT 22 5 13 15 6 25 27 41 86 60 54 71
REMARK Flexibility Score: inf
ROOT
ATOM      1  C   UNL A   1      33.883  28.154  26.022  1.00  0.00     0.116 C 
ENDROOT
BRANCH   1   2
ATOM      2  N   UNL A   1      32.670  28.544  25.304  1.00  0.00    -0.352 N 
ATOM      3  C   UNL A   1      31.780  27.849  24.495  1.00  0.00     0.253 C 
ATOM      4  O   UNL A   1      30.701  28.377  24.235  1.00  0.00    -0.269 OA
ATOM      5  H   UNL A   1      32.436  29.492  25.418  1.00  0.00     0.163 HD
BRANCH   3   6
ATOM      6  C   UNL A   1      32.115  26.542  23.855  1.00  0.00     0.063 A 
ATOM      7  C   UNL A   1      31.679  25.299  24.387  1.00  0.00     0.054 A 
ATOM      8  C   UNL A   1      31.961  24.116  23.674  1.00  0.00     0.027 A 
ATOM      9  C   UNL A   1      32.595  24.156  22.434  1.00  0.00     0.002 A 
ATOM     10  C   UNL A   1      32.899  26.532  22.691  1.00  0.00     0.016 A 
ATOM     11  C   UNL A   1      33.082  25.363  21.951  1.00  0.00     0.001 A 
BRANCH   7  12
ATOM     12  N   UNL A   1      30.868  25.083  25.529  1.00  0.00    -0.321 N 
ATOM     13  C   UNL A   1      30.629  23.966  26.309  1.00  0.00     0.255 C 
ATOM     14  O   UNL A   1      29.792  24.034  27.212  1.00  0.00    -0.269 OA
ATOM     15  H   UNL A   1      30.377  25.884  25.824  1.00  0.00     0.170 HD
BRANCH  13  16
ATOM     16  C   UNL A   1      31.496  22.759  26.244  1.00  0.00     0.040 A 
ATOM     17  C   UNL A   1      33.274  20.615  25.881  1.00  0.00     0.041 A 
ATOM     18  C   UNL A   1      32.097  20.693  25.164  1.00  0.00     0.027 A 
ATOM     19  C   UNL A   1      33.498  21.538  26.906  1.00  0.00     0.027 A 
ATOM     20  C   UNL A   1      31.293  21.804  25.259  1.00  0.00     0.016 A 
ATOM     21  C   UNL A   1      32.606  22.613  27.086  1.00  0.00     0.016 A 
BRANCH  17  22
ATOM     22  N   UNL A   1      34.265  19.688  25.523  1.00  0.00    -0.322 N 
ATOM     23  C   UNL A   1      35.532  19.886  24.989  1.00  0.00     0.256 C 
ATOM     24  O   UNL A   1      36.153  18.905  24.575  1.00  0.00    -0.269 OA
ATOM     25  H   UNL A   1      34.024  18.747  25.677  1.00  0.00     0.170 HD
BRANCH  23  26
ATOM     26  C   UNL A   1      36.193  21.238  24.862  1.00  0.00     0.049 A 
ATOM     27  C   UNL A   1      38.510  20.544  25.669  1.00  0.00     0.053 C 
ATOM     28  C   UNL A   1      37.471  21.596  25.365  1.00  0.00     0.039 A 
ATOM     29  C   UNL A   1      37.754  22.979  25.498  1.00  0.00     0.273 A 
ATOM     30  C   UNL A   1      35.421  22.217  24.203  1.00  0.00     0.014 A 
ATOM     31  C   UNL A   1      36.968  23.942  24.845  1.00  0.00     0.086 A 
ATOM     32  C   UNL A   1      35.839  23.546  24.138  1.00  0.00     0.008 A 
BRANCH  29  33
ATOM     33  N   UNL A   1      38.791  23.486  26.422  1.00  0.00     0.063 N 
ATOM     34  O   UNL A   1      38.639  24.624  26.887  1.00  0.00    -0.258 OA
ATOM     35  O   UNL A   1      39.714  22.726  26.742  1.00  0.00    -0.258 OA
ENDBRANCH  29  33
ENDBRANCH  23  26
ENDBRANCH  17  22
ENDBRANCH  13  16
ENDBRANCH   7  12
ENDBRANCH   3   6
ENDBRANCH   1   2
BRANCH   1  36
ATOM     36  C   UNL A   1      34.338  28.975  27.246  1.00  0.00     0.023 C 
BRANCH  36  37
ATOM     37  C   UNL A   1      34.098  30.486  27.271  1.00  0.00     0.023 C 
BRANCH  37  38
ATOM     38  C   UNL A   1      34.721  31.110  28.485  1.00  0.00     0.116 C 
BRANCH  38  39
ATOM     39  N   UNL A   1      34.279  32.467  28.704  1.00  0.00    -0.352 N 
ATOM     40  C   UNL A   1      34.578  33.325  29.734  1.00  0.00     0.251 C 
ATOM     41  H   UNL A   1      33.675  32.830  28.016  1.00  0.00     0.163 HD
ATOM     42  O   UNL A   1      33.744  34.206  29.977  1.00  0.00    -0.269 OA
BRANCH  40  43
ATOM     43  C   UNL A   1      35.896  33.304  30.414  1.00  0.00     0.039 A 
ATOM     44  C   UNL A   1      37.028  33.697  29.685  1.00  0.00     0.014 A 
ATOM     45  C   UNL A   1      36.073  32.669  31.637  1.00  0.00     0.014 A 
ATOM     46  C   UNL A   1      38.272  33.166  30.008  1.00  0.00     0.010 A 
ATOM     47  C   UNL A   1      37.288  32.177  31.983  1.00  0.00     0.010 A 
ATOM     48  C   UNL A   1      38.327  32.289  31.074  1.00  0.00    -0.014 A 
BRANCH  48  49
ATOM     49  C   UNL A   1      39.386  31.380  31.419  1.00  0.00     0.031 A 
ATOM     50  C   UNL A   1      39.422  30.110  30.707  1.00  0.00     0.074 A 
ATOM     51  C   UNL A   1      40.472  32.000  31.937  1.00  0.00     0.049 A 
ATOM     52  N   UNL A   1      40.292  29.199  30.922  1.00  0.00    -0.248 NA
ATOM     53  C   UNL A   1      38.443  29.765  29.680  1.00  0.00     0.031 C 
ATOM     54  C   UNL A   1      41.886  31.704  31.761  1.00  0.00     0.029 A 
ATOM     55  N   UNL A   1      40.483  33.117  32.766  1.00  0.00    -0.354 N 
ATOM     56  C   UNL A   1      40.212  28.328  29.860  1.00  0.00     0.074 A 
ATOM     57  C   UNL A   1      38.944  28.609  29.241  1.00  0.00     0.031 C 
ATOM     58  C   UNL A   1      42.597  32.429  32.647  1.00  0.00     0.029 A 
ATOM     59  C   UNL A   1      41.647  33.084  33.536  1.00  0.00     0.049 A 
ATOM     60  H   UNL A   1      39.787  33.813  32.804  1.00  0.00     0.167 HD
ATOM     61  C   UNL A   1      41.331  27.620  29.546  1.00  0.00     0.034 A 
ATOM     62  C   UNL A   1      41.504  32.798  34.870  1.00  0.00     0.034 A 
ATOM     63  C   UNL A   1      42.376  27.870  30.567  1.00  0.00     0.049 A 
ATOM     64  C   UNL A   1      41.947  31.378  35.207  1.00  0.00     0.074 A 
ATOM     65  C   UNL A   1      43.512  28.662  30.590  1.00  0.00     0.029 A 
ATOM     66  N   UNL A   1      42.101  27.556  31.899  1.00  0.00    -0.354 N 
ATOM     67  N   UNL A   1      42.308  30.483  34.326  1.00  0.00    -0.248 NA
ATOM     68  C   UNL A   1      42.061  30.872  36.570  1.00  0.00     0.031 C 
ATOM     69  C   UNL A   1      43.838  28.920  31.958  1.00  0.00     0.029 A 
ATOM     70  C   UNL A   1      42.929  28.255  32.769  1.00  0.00     0.049 A 
ATOM     71  H   UNL A   1      41.407  26.919  32.186  1.00  0.00     0.167 HD
ATOM     72  C   UNL A   1      42.555  29.282  34.932  1.00  0.00     0.074 A 
ATOM     73  C   UNL A   1      42.477  29.612  36.349  1.00  0.00     0.031 C 
ATOM     74  C   UNL A   1      42.751  28.122  34.221  1.00  0.00     0.034 A 
BRANCH  61  75
ATOM     75  C   UNL A   1      41.599  26.896  28.233  1.00  0.00     0.023 A 
ATOM     76  C   UNL A   1      40.993  27.441  27.079  1.00  0.00     0.012 A 
ATOM     77  C   UNL A   1      42.342  25.705  28.025  1.00  0.00     0.148 A 
ATOM     78  C   UNL A   1      41.092  26.841  25.818  1.00  0.00     0.002 A 
ATOM     79  C   UNL A   1      42.466  25.116  26.762  1.00  0.00     0.091 A 
ATOM     80  F   UNL A   1      42.929  25.083  29.042  1.00  0.00    -0.205 F 
ATOM     81  C   UNL A   1      41.832  25.679  25.655  1.00  0.00     0.022 A 
BRANCH  79  82
ATOM     82  S   UNL A   1      43.427  23.613  26.473  1.00  0.00     0.127 S 
ATOM     83  O   UNL A   1      42.837  22.682  27.433  1.00  0.00    -0.237 OA
ATOM     84  O   UNL A   1      43.124  23.315  25.073  1.00  0.00    -0.237 OA
ATOM     85  O   UNL A   1      44.822  23.950  26.733  1.00  0.00    -0.744 OA
ENDBRANCH  79  82
ENDBRANCH  61  75
BRANCH  62  86
ATOM     86  C   UNL A   1      40.313  33.531  35.441  1.00  0.00     0.023 A 
ATOM     87  C   UNL A   1      39.072  32.844  35.369  1.00  0.00     0.012 A 
ATOM     88  C   UNL A   1      40.469  34.526  36.425  1.00  0.00     0.148 A 
ATOM     89  C   UNL A   1      38.114  32.980  36.378  1.00  0.00     0.002 A 
ATOM     90  C   UNL A   1      39.495  34.673  37.418  1.00  0.00     0.091 A 
ATOM     91  F   UNL A   1      41.586  35.265  36.421  1.00  0.00    -0.205 F 
ATOM     92  C   UNL A   1      38.352  33.857  37.432  1.00  0.00     0.022 A 
BRANCH  90  93
ATOM     93  S   UNL A   1      39.710  35.838  38.773  1.00  0.00     0.127 S 
ATOM     94  O   UNL A   1      41.052  35.501  39.240  1.00  0.00    -0.237 OA
ATOM     95  O   UNL A   1      39.612  37.137  38.111  1.00  0.00    -0.237 OA
ATOM     96  O   UNL A   1      38.620  35.553  39.694  1.00  0.00    -0.744 OA
ENDBRANCH  90  93
ENDBRANCH  62  86
BRANCH  74  97
ATOM     97  C   UNL A   1      42.777  26.721  34.829  1.00  0.00     0.023 A 
ATOM     98  C   UNL A   1      41.615  26.067  35.281  1.00  0.00     0.012 A 
ATOM     99  C   UNL A   1      43.972  25.950  34.845  1.00  0.00     0.148 A 
ATOM    100  C   UNL A   1      41.643  24.768  35.800  1.00  0.00     0.002 A 
ATOM    101  C   UNL A   1      43.964  24.610  35.219  1.00  0.00     0.091 A 
ATOM    102  F   UNL A   1      45.144  26.515  34.525  1.00  0.00    -0.205 F 
ATOM    103  C   UNL A   1      42.812  24.028  35.744  1.00  0.00     0.022 A 
BRANCH 101 104
ATOM    104  S   UNL A   1      45.370  23.541  34.883  1.00  0.00     0.127 S 
ATOM    105  O   UNL A   1      45.609  23.792  33.465  1.00  0.00    -0.237 OA
ATOM    106  O   UNL A   1      46.394  24.084  35.780  1.00  0.00    -0.237 OA
ATOM    107  O   UNL A   1      44.925  22.200  35.234  1.00  0.00    -0.744 OA
ENDBRANCH 101 104
ENDBRANCH  74  97
ENDBRANCH  48  49
ENDBRANCH  40  43
ENDBRANCH  38  39
ENDBRANCH  37  38
ENDBRANCH  36  37
ENDBRANCH   1  36
TORSDOF 19
ENDMDL
MODEL 3
REMARK VINA RESULT:     -11.6      5.066      9.824
REMARK SMILES Cc1c(C(=O)Nc2ccc(C(=O)Nc3ccccc3C(=O)NCCCCNC(=O)c3ccc(-c4c5nc(c(-c6cccc(S(=O)(=O)[O-])c6F)c6ccc([nH]6)c(-c6cccc(S(=O)(=O)[O-])c6F)c6nc(c(-c7cccc(S(=O)(=O)[O-])c7F)c7ccc4[nH]7)C=C6)C=C5)cc3)cc2)cccc1[N+](=O)[O-]
REMARK SMILES IDX 23 1 22 2 20 3 21 4 19 6 14 7 15 8 16 9 18 10 17 11 13 12
REMARK SMILES IDX 11 13 12 14 10 16 7 17 8 18 94 19 9 20 93 21 6 22 4 23 5 24
REMARK SMILES IDX 3 26 1 27 2 28 98 29 95 30 97 31 96 32 99 33 100 34 101 35
REMARK SMILES IDX 24 36 25 37 26 38 27 39 28 40 29 42 30 43 31 44 92 45 32 46
REMARK SMILES IDX 91 47 33 48 34 49 35 50 85 51 36 52 90 53 84 54 86 55 37 56
REMARK SMILES IDX 89 57 83 58 82 59 38 61 70 62 50 63 69 64 51 65 54 66 68 67
REMARK SMILES IDX 87 68 52 69 53 70 67 72 88 73 55 74 39 75 40 76 48 77 41 78
REMARK SMILES IDX 43 79 49 80 42 81 44 82 45 83 46 84 47 85 71 86 72 87 80 88
REMARK SMILES IDX 73 89 75 90 81 91 74 92 76 93 77 94 78 95 79 96 56 97 57 98
REMARK SMILES IDX 65 99 58 100 60 101 66 102 59 103 61 104 62 105 63 106
REMARK SMILES IDX 64 107
REMARK H PARENT 22 5 13 15 6 25 27 41 86 60 54 71
REMARK Flexibility Score: inf
ROOT
ATOM      1  C   UNL A   1      40.101  28.565  32.849  1.00  0.00     0.116 C 
ENDROOT
BRANCH   1   2
ATOM      2  N   UNL A   1      38.654  28.778  32.877  1.00  0.00    -0.352 N 
ATOM      3  C   UNL A   1      37.823  29.733  32.306  1.00  0.00     0.253 C 
ATOM      4  O   UNL A   1      36.614  29.511  32.288  1.00  0.00    -0.269 OA
ATOM      5  H   UNL A   1      38.171  28.106  33.408  1.00  0.00     0.163 HD
BRANCH   3   6
ATOM      6  C   UNL A   1      38.322  31.048  31.806  1.00  0.00     0.063 A 
ATOM      7  C   UNL A   1      38.321  32.220  32.609  1.00  0.00     0.054 A 
ATOM      8  C   UNL A   1      38.892  33.401  32.094  1.00  0.00     0.027 A 
ATOM      9  C   UNL A   1      39.512  33.415  30.845  1.00  0.00     0.002 A 
ATOM     10  C   UNL A   1      38.801  31.141  30.490  1.00  0.00     0.016 A 
ATOM     11  C   UNL A   1      39.450  32.291  30.035  1.00  0.00     0.001 A 
BRANCH   7  12
ATOM     12  N   UNL A   1      37.906  32.343  33.959  1.00  0.00    -0.321 N 
ATOM     13  C   UNL A   1      36.889  33.060  34.564  1.00  0.00     0.255 C 
ATOM     14  O   UNL A   1      36.803  33.057  35.793  1.00  0.00    -0.269 OA
ATOM     15  H   UNL A   1      38.449  31.817  34.590  1.00  0.00     0.170 HD
BRANCH  13  16
ATOM     16  C   UNL A   1      35.770  33.651  33.782  1.00  0.00     0.040 A 
ATOM     17  C   UNL A   1      33.857  34.798  32.074  1.00  0.00     0.041 A 
ATOM     18  C   UNL A   1      34.698  35.587  32.834  1.00  0.00     0.027 A 
ATOM     19  C   UNL A   1      33.863  33.417  32.284  1.00  0.00     0.027 A 
ATOM     20  C   UNL A   1      35.710  35.020  33.573  1.00  0.00     0.016 A 
ATOM     21  C   UNL A   1      34.823  32.843  33.140  1.00  0.00     0.016 A 
BRANCH  17  22
ATOM     22  N   UNL A   1      33.083  35.364  31.051  1.00  0.00    -0.322 N 
ATOM     23  C   UNL A   1      33.201  35.258  29.670  1.00  0.00     0.256 C 
ATOM     24  O   UNL A   1      32.518  36.004  28.965  1.00  0.00    -0.269 OA
ATOM     25  H   UNL A   1      32.337  35.925  31.359  1.00  0.00     0.170 HD
BRANCH  23  26
ATOM     26  C   UNL A   1      34.133  34.295  28.974  1.00  0.00     0.049 A 
ATOM     27  C   UNL A   1      32.393  33.180  27.481  1.00  0.00     0.053 C 
ATOM     28  C   UNL A   1      33.749  33.211  28.143  1.00  0.00     0.039 A 
ATOM     29  C   UNL A   1      34.716  32.202  27.902  1.00  0.00     0.273 A 
ATOM     30  C   UNL A   1      35.504  34.510  29.225  1.00  0.00     0.014 A 
ATOM     31  C   UNL A   1      36.076  32.427  28.169  1.00  0.00     0.086 A 
ATOM     32  C   UNL A   1      36.473  33.616  28.767  1.00  0.00     0.008 A 
BRANCH  29  33
ATOM     33  N   UNL A   1      34.339  30.833  27.491  1.00  0.00     0.063 N 
ATOM     34  O   UNL A   1      33.164  30.637  27.150  1.00  0.00    -0.258 OA
ATOM     35  O   UNL A   1      35.227  29.972  27.435  1.00  0.00    -0.258 OA
ENDBRANCH  29  33
ENDBRANCH  23  26
ENDBRANCH  17  22
ENDBRANCH  13  16
ENDBRANCH   7  12
ENDBRANCH   3   6
ENDBRANCH   1   2
BRANCH   1  36
ATOM     36  C   UNL A   1      40.881  28.820  31.543  1.00  0.00     0.023 C 
BRANCH  36  37
ATOM     37  C   UNL A   1      41.091  27.671  30.554  1.00  0.00     0.023 C 
BRANCH  37  38
ATOM     38  C   UNL A   1      40.101  27.742  29.429  1.00  0.00     0.116 C 
BRANCH  38  39
ATOM     39  N   UNL A   1      39.457  26.475  29.172  1.00  0.00    -0.352 N 
ATOM     40  C   UNL A   1      39.823  25.472  28.309  1.00  0.00     0.251 C 
ATOM     41  H   UNL A   1      38.637  26.306  29.690  1.00  0.00     0.163 HD
ATOM     42  O   UNL A   1      38.914  24.740  27.897  1.00  0.00    -0.269 OA
BRANCH  40  43
ATOM     43  C   UNL A   1      41.245  25.175  28.009  1.00  0.00     0.039 A 
ATOM     44  C   UNL A   1      41.868  24.130  28.706  1.00  0.00     0.014 A 
ATOM     45  C   UNL A   1      42.031  26.051  27.271  1.00  0.00     0.014 A 
ATOM     46  C   UNL A   1      43.240  24.174  28.930  1.00  0.00     0.010 A 
ATOM     47  C   UNL A   1      43.373  26.082  27.451  1.00  0.00     0.010 A 
ATOM     48  C   UNL A   1      43.929  25.252  28.411  1.00  0.00    -0.014 A 
BRANCH  48  49
ATOM     49  C   UNL A   1      45.253  25.701  28.745  1.00  0.00     0.031 A 
ATOM     50  C   UNL A   1      46.316  25.378  27.803  1.00  0.00     0.074 A 
ATOM     51  C   UNL A   1      45.259  26.775  29.569  1.00  0.00     0.049 A 
ATOM     52  N   UNL A   1      47.542  25.696  27.978  1.00  0.00    -0.248 NA
ATOM     53  C   UNL A   1      46.064  24.643  26.567  1.00  0.00     0.031 C 
ATOM     54  C   UNL A   1      46.150  27.925  29.595  1.00  0.00     0.029 A 
ATOM     55  N   UNL A   1      44.365  27.044  30.600  1.00  0.00    -0.354 N 
ATOM     56  C   UNL A   1      48.162  25.529  26.761  1.00  0.00     0.074 A 
ATOM     57  C   UNL A   1      47.268  24.704  25.995  1.00  0.00     0.031 C 
ATOM     58  C   UNL A   1      45.930  28.624  30.726  1.00  0.00     0.029 A 
ATOM     59  C   UNL A   1      45.010  27.846  31.545  1.00  0.00     0.049 A 
ATOM     60  H   UNL A   1      43.436  26.723  30.656  1.00  0.00     0.167 HD
ATOM     61  C   UNL A   1      49.267  26.284  26.514  1.00  0.00     0.034 A 
ATOM     62  C   UNL A   1      45.336  27.260  32.741  1.00  0.00     0.034 A 
ATOM     63  C   UNL A   1      49.634  27.038  27.737  1.00  0.00     0.049 A 
ATOM     64  C   UNL A   1      46.827  26.960  32.850  1.00  0.00     0.074 A 
ATOM     65  C   UNL A   1      49.458  28.354  28.130  1.00  0.00     0.029 A 
ATOM     66  N   UNL A   1      49.924  26.326  28.902  1.00  0.00    -0.354 N 
ATOM     67  N   UNL A   1      47.690  27.121  31.882  1.00  0.00    -0.248 NA
ATOM     68  C   UNL A   1      47.469  26.498  34.075  1.00  0.00     0.031 C 
ATOM     69  C   UNL A   1      49.523  28.397  29.558  1.00  0.00     0.029 A 
ATOM     70  C   UNL A   1      49.778  27.119  30.034  1.00  0.00     0.049 A 
ATOM     71  H   UNL A   1      50.197  25.381  28.920  1.00  0.00     0.167 HD
ATOM     72  C   UNL A   1      48.927  26.675  32.259  1.00  0.00     0.074 A 
ATOM     73  C   UNL A   1      48.749  26.384  33.675  1.00  0.00     0.031 C 
ATOM     74  C   UNL A   1      49.966  26.537  31.370  1.00  0.00     0.034 A 
BRANCH  61  75
ATOM     75  C   UNL A   1      49.892  26.547  25.150  1.00  0.00     0.023 A 
ATOM     76  C   UNL A   1      51.300  26.473  25.079  1.00  0.00     0.012 A 
ATOM     77  C   UNL A   1      49.239  26.910  23.943  1.00  0.00     0.148 A 
ATOM     78  C   UNL A   1      52.014  26.761  23.909  1.00  0.00     0.002 A 
ATOM     79  C   UNL A   1      49.947  27.173  22.765  1.00  0.00     0.091 A 
ATOM     80  F   UNL A   1      47.918  27.044  23.897  1.00  0.00    -0.205 F 
ATOM     81  C   UNL A   1      51.340  27.108  22.748  1.00  0.00     0.022 A 
BRANCH  79  82
ATOM     82  S   UNL A   1      49.133  27.614  21.213  1.00  0.00     0.127 S 
ATOM     83  O   UNL A   1      48.301  26.439  20.958  1.00  0.00    -0.237 OA
ATOM     84  O   UNL A   1      48.388  28.818  21.583  1.00  0.00    -0.237 OA
ATOM     85  O   UNL A   1      50.190  27.832  20.232  1.00  0.00    -0.744 OA
ENDBRANCH  79  82
ENDBRANCH  61  75
BRANCH  62  86
ATOM     86  C   UNL A   1      44.202  26.388  33.227  1.00  0.00     0.023 A 
ATOM     87  C   UNL A   1      44.360  24.993  33.011  1.00  0.00     0.012 A 
ATOM     88  C   UNL A   1      43.345  26.811  34.261  1.00  0.00     0.148 A 
ATOM     89  C   UNL A   1      43.868  24.062  33.930  1.00  0.00     0.002 A 
ATOM     90  C   UNL A   1      42.837  25.870  35.163  1.00  0.00     0.091 A 
ATOM     91  F   UNL A   1      43.092  28.119  34.392  1.00  0.00    -0.205 F 
ATOM     92  C   UNL A   1      43.151  24.507  35.036  1.00  0.00     0.022 A 
BRANCH  90  93
ATOM     93  S   UNL A   1      41.845  26.374  36.578  1.00  0.00     0.127 S 
ATOM     94  O   UNL A   1      41.086  27.491  36.022  1.00  0.00    -0.237 OA
ATOM     95  O   UNL A   1      41.046  25.185  36.863  1.00  0.00    -0.237 OA
ATOM     96  O   UNL A   1      42.809  26.708  37.617  1.00  0.00    -0.744 OA
ENDBRANCH  90  93
ENDBRANCH  62  86
BRANCH  74  97
ATOM     97  C   UNL A   1      51.277  25.814  31.667  1.00  0.00     0.023 A 
ATOM     98  C   UNL A   1      52.526  26.462  31.634  1.00  0.00     0.012 A 
ATOM     99  C   UNL A   1      51.286  24.468  32.128  1.00  0.00     0.148 A 
ATOM    100  C   UNL A   1      53.720  25.802  31.947  1.00  0.00     0.002 A 
ATOM    101  C   UNL A   1      52.455  23.866  32.582  1.00  0.00     0.091 A 
ATOM    102  F   UNL A   1      50.162  23.739  32.104  1.00  0.00    -0.205 F 
ATOM    103  C   UNL A   1      53.683  24.512  32.449  1.00  0.00     0.022 A 
BRANCH 101 104
ATOM    104  S   UNL A   1      52.410  22.325  33.508  1.00  0.00     0.127 S 
ATOM    105  O   UNL A   1      53.813  22.153  33.876  1.00  0.00    -0.237 OA
ATOM    106  O   UNL A   1      51.523  22.660  34.624  1.00  0.00    -0.237 OA
ATOM    107  O   UNL A   1      51.861  21.340  32.587  1.00  0.00    -0.744 OA
ENDBRANCH 101 104
ENDBRANCH  74  97
ENDBRANCH  48  49
ENDBRANCH  40  43
ENDBRANCH  38  39
ENDBRANCH  37  38
ENDBRANCH  36  37
ENDBRANCH   1  36
TORSDOF 19
ENDMDL
