MODEL 1
REMARK VINA RESULT:     -10.8      0.000      0.000
REMARK SMILES CC[C@H](C(=O)NCCCCNC(=O)c1ccc(-c2c3nc(c(-c4cccc(S(=O)(=O)[O-])c4F)c4ccc([nH]4)c(-c4cccc(S(=O)(=O)[O-])c4F)c4nc(c(-c5cccc(S(=O)(=O)[O-])c5F)c5ccc2[nH]5)C=C4)C=C3)cc1)N(C)c1cc(C)ccc1[N+](=O)[O-]
REMARK SMILES IDX 8 1 7 2 6 3 4 4 5 5 3 7 2 8 1 9 77 10 78 11 79 12 80 13
REMARK SMILES IDX 85 14 81 15 84 16 82 17 83 18 86 19 87 20 88 21 9 22 10 23
REMARK SMILES IDX 11 24 12 25 13 27 14 28 15 29 76 30 16 31 75 32 17 33 18 34
REMARK SMILES IDX 19 35 69 36 20 37 74 38 68 39 70 40 21 41 73 42 67 43 66 44
REMARK SMILES IDX 22 46 54 47 34 48 53 49 35 50 38 51 52 52 71 53 36 54 37 55
REMARK SMILES IDX 51 57 72 58 39 59 23 60 24 61 32 62 25 63 27 64 33 65 26 66
REMARK SMILES IDX 28 67 29 68 30 69 31 70 55 71 56 72 64 73 57 74 59 75 65 76
REMARK SMILES IDX 58 77 60 78 61 79 62 80 63 81 40 82 41 83 49 84 42 85 44 86
REMARK SMILES IDX 50 87 43 88 45 89 46 90 47 91 48 92
REMARK H PARENT 6 6 11 26 70 45 38 56
REMARK Flexibility Score: inf
ROOT
ATOM      1  C   UNL A   1      37.450  20.674  24.529  1.00  0.00     0.023 C 
ENDROOT
BRANCH   1   2
ATOM      2  C   UNL A   1      37.658  21.959  25.337  1.00  0.00     0.116 C 
BRANCH   2   3
ATOM      3  N   UNL A   1      37.288  23.126  24.564  1.00  0.00    -0.354 N 
ATOM      4  C   UNL A   1      36.078  23.248  23.938  1.00  0.00     0.242 C 
ATOM      5  O   UNL A   1      36.095  23.344  22.710  1.00  0.00    -0.273 OA
ATOM      6  H   UNL A   1      37.935  23.865  24.486  1.00  0.00     0.163 HD
BRANCH   4   7
ATOM      7  C   UNL A   1      34.773  23.101  24.754  1.00  0.00     0.171 C 
BRANCH   7   8
ATOM      8  C   UNL A   1      34.846  23.374  26.271  1.00  0.00     0.032 C 
ATOM      9  C   UNL A   1      34.303  22.333  27.234  1.00  0.00     0.006 C 
ENDBRANCH   7   8
BRANCH   7  10
ATOM     10  N   UNL A   1      33.587  23.705  24.070  1.00  0.00    -0.357 N 
ATOM     11  C   UNL A   1      32.920  22.854  23.082  1.00  0.00     0.144 C 
BRANCH  10  12
ATOM     12  C   UNL A   1      32.987  24.921  24.371  1.00  0.00     0.116 A 
ATOM     13  C   UNL A   1      33.551  26.096  23.817  1.00  0.00     0.036 A 
ATOM     14  C   UNL A   1      31.852  25.150  25.171  1.00  0.00     0.292 A 
ATOM     15  C   UNL A   1      33.008  27.384  24.006  1.00  0.00    -0.049 A 
ATOM     16  C   UNL A   1      31.262  26.421  25.336  1.00  0.00     0.088 A 
ATOM     17  C   UNL A   1      33.697  28.580  23.418  1.00  0.00     0.044 C 
ATOM     18  C   UNL A   1      31.836  27.534  24.743  1.00  0.00     0.010 A 
BRANCH  14  19
ATOM     19  N   UNL A   1      31.269  24.143  26.029  1.00  0.00     0.064 N 
ATOM     20  O   UNL A   1      30.616  23.247  25.470  1.00  0.00    -0.258 OA
ATOM     21  O   UNL A   1      31.307  24.368  27.248  1.00  0.00    -0.258 OA
ENDBRANCH  14  19
ENDBRANCH  10  12
ENDBRANCH   7  10
ENDBRANCH   4   7
ENDBRANCH   2   3
ENDBRANCH   1   2
BRANCH   1  22
ATOM     22  C   UNL A   1      38.267  19.468  25.011  1.00  0.00     0.023 C 
BRANCH  22  23
ATOM     23  C   UNL A   1      39.268  19.764  26.123  1.00  0.00     0.116 C 
BRANCH  23  24
ATOM     24  N   UNL A   1      40.487  18.981  25.999  1.00  0.00    -0.352 N 
ATOM     25  C   UNL A   1      41.794  19.402  26.040  1.00  0.00     0.251 C 
ATOM     26  H   UNL A   1      40.357  18.013  25.868  1.00  0.00     0.163 HD
ATOM     27  O   UNL A   1      42.697  18.617  25.777  1.00  0.00    -0.269 OA
BRANCH  25  28
ATOM     28  C   UNL A   1      42.101  20.809  26.379  1.00  0.00     0.039 A 
ATOM     29  C   UNL A   1      42.395  21.134  27.706  1.00  0.00     0.014 A 
ATOM     30  C   UNL A   1      42.106  21.799  25.393  1.00  0.00     0.014 A 
ATOM     31  C   UNL A   1      42.749  22.445  28.034  1.00  0.00     0.010 A 
ATOM     32  C   UNL A   1      42.528  23.087  25.710  1.00  0.00     0.010 A 
ATOM     33  C   UNL A   1      42.846  23.425  27.034  1.00  0.00    -0.014 A 
BRANCH  33  34
ATOM     34  C   UNL A   1      43.275  24.813  27.348  1.00  0.00     0.031 A 
ATOM     35  C   UNL A   1      42.300  25.783  27.958  1.00  0.00     0.074 A 
ATOM     36  C   UNL A   1      44.511  25.226  27.002  1.00  0.00     0.049 A 
ATOM     37  N   UNL A   1      42.457  27.053  28.228  1.00  0.00    -0.248 NA
ATOM     38  C   UNL A   1      40.960  25.265  28.283  1.00  0.00     0.031 C 
ATOM     39  C   UNL A   1      45.524  24.401  26.340  1.00  0.00     0.029 A 
ATOM     40  N   UNL A   1      45.114  26.453  27.129  1.00  0.00    -0.354 N 
ATOM     41  C   UNL A   1      41.232  27.494  28.714  1.00  0.00     0.074 A 
ATOM     42  C   UNL A   1      40.330  26.363  28.673  1.00  0.00     0.031 C 
ATOM     43  C   UNL A   1      46.620  25.145  26.118  1.00  0.00     0.029 A 
ATOM     44  C   UNL A   1      46.379  26.505  26.592  1.00  0.00     0.049 A 
ATOM     45  H   UNL A   1      44.681  27.223  27.564  1.00  0.00     0.167 HD
ATOM     46  C   UNL A   1      40.894  28.720  29.179  1.00  0.00     0.034 A 
ATOM     47  C   UNL A   1      47.243  27.533  26.482  1.00  0.00     0.034 A 
ATOM     48  C   UNL A   1      41.806  29.829  29.260  1.00  0.00     0.049 A 
ATOM     49  C   UNL A   1      46.855  28.876  27.040  1.00  0.00     0.074 A 
ATOM     50  C   UNL A   1      41.586  31.087  29.792  1.00  0.00     0.029 A 
ATOM     51  N   UNL A   1      43.110  29.815  28.790  1.00  0.00    -0.354 N 
ATOM     52  N   UNL A   1      45.742  29.232  27.636  1.00  0.00    -0.248 NA
ATOM     53  C   UNL A   1      47.854  29.951  26.946  1.00  0.00     0.031 C 
ATOM     54  C   UNL A   1      42.750  31.841  29.625  1.00  0.00     0.029 A 
ATOM     55  C   UNL A   1      43.706  31.045  29.016  1.00  0.00     0.049 A 
ATOM     56  H   UNL A   1      43.548  29.046  28.361  1.00  0.00     0.167 HD
ATOM     57  C   UNL A   1      45.923  30.555  28.024  1.00  0.00     0.074 A 
ATOM     58  C   UNL A   1      47.259  30.933  27.611  1.00  0.00     0.031 C 
ATOM     59  C   UNL A   1      45.058  31.386  28.657  1.00  0.00     0.034 A 
BRANCH  46  60
ATOM     60  C   UNL A   1      39.489  28.914  29.688  1.00  0.00     0.023 A 
ATOM     61  C   UNL A   1      39.177  28.567  31.018  1.00  0.00     0.012 A 
ATOM     62  C   UNL A   1      38.494  29.491  28.874  1.00  0.00     0.148 A 
ATOM     63  C   UNL A   1      37.890  28.756  31.521  1.00  0.00     0.002 A 
ATOM     64  C   UNL A   1      37.226  29.721  29.396  1.00  0.00     0.091 A 
ATOM     65  F   UNL A   1      38.802  29.797  27.605  1.00  0.00    -0.205 F 
ATOM     66  C   UNL A   1      36.919  29.343  30.714  1.00  0.00     0.022 A 
BRANCH  64  67
ATOM     67  S   UNL A   1      35.929  30.544  28.466  1.00  0.00     0.127 S 
ATOM     68  O   UNL A   1      35.472  29.470  27.584  1.00  0.00    -0.237 OA
ATOM     69  O   UNL A   1      34.982  30.912  29.518  1.00  0.00    -0.237 OA
ATOM     70  O   UNL A   1      36.564  31.672  27.800  1.00  0.00    -0.744 OA
ENDBRANCH  64  67
ENDBRANCH  46  60
BRANCH  47  71
ATOM     71  C   UNL A   1      48.589  27.319  25.878  1.00  0.00     0.023 A 
ATOM     72  C   UNL A   1      49.652  26.889  26.696  1.00  0.00     0.012 A 
ATOM     73  C   UNL A   1      48.818  27.519  24.503  1.00  0.00     0.148 A 
ATOM     74  C   UNL A   1      50.928  26.697  26.164  1.00  0.00     0.002 A 
ATOM     75  C   UNL A   1      50.079  27.273  23.970  1.00  0.00     0.091 A 
ATOM     76  F   UNL A   1      47.797  27.937  23.743  1.00  0.00    -0.205 F 
ATOM     77  C   UNL A   1      51.139  26.879  24.801  1.00  0.00     0.022 A 
BRANCH  75  78
ATOM     78  S   UNL A   1      50.414  27.359  22.207  1.00  0.00     0.127 S 
ATOM     79  O   UNL A   1      49.370  26.496  21.662  1.00  0.00    -0.237 OA
ATOM     80  O   UNL A   1      50.240  28.786  21.936  1.00  0.00    -0.237 OA
ATOM     81  O   UNL A   1      51.781  26.879  22.045  1.00  0.00    -0.744 OA
ENDBRANCH  75  78
ENDBRANCH  47  71
BRANCH  59  82
ATOM     82  C   UNL A   1      45.536  32.774  28.996  1.00  0.00     0.023 A 
ATOM     83  C   UNL A   1      46.266  32.999  30.180  1.00  0.00     0.012 A 
ATOM     84  C   UNL A   1      45.333  33.838  28.094  1.00  0.00     0.148 A 
ATOM     85  C   UNL A   1      46.761  34.269  30.475  1.00  0.00     0.002 A 
ATOM     86  C   UNL A   1      45.872  35.088  28.371  1.00  0.00     0.091 A 
ATOM     87  F   UNL A   1      44.619  33.606  26.983  1.00  0.00    -0.205 F 
ATOM     88  C   UNL A   1      46.576  35.308  29.565  1.00  0.00     0.022 A 
BRANCH  86  89
ATOM     89  S   UNL A   1      45.771  36.457  27.213  1.00  0.00     0.127 S 
ATOM     90  O   UNL A   1      46.305  37.561  28.009  1.00  0.00    -0.237 OA
ATOM     91  O   UNL A   1      46.643  36.010  26.127  1.00  0.00    -0.237 OA
ATOM     92  O   UNL A   1      44.365  36.574  26.849  1.00  0.00    -0.744 OA
ENDBRANCH  86  89
ENDBRANCH  59  82
ENDBRANCH  33  34
ENDBRANCH  25  28
ENDBRANCH  23  24
ENDBRANCH  22  23
ENDBRANCH   1  22
TORSDOF 18
ENDMDL
MODEL 2
REMARK VINA RESULT:     -10.6      5.392      8.725
REMARK SMILES CC[C@H](C(=O)NCCCCNC(=O)c1ccc(-c2c3nc(c(-c4cccc(S(=O)(=O)[O-])c4F)c4ccc([nH]4)c(-c4cccc(S(=O)(=O)[O-])c4F)c4nc(c(-c5cccc(S(=O)(=O)[O-])c5F)c5ccc2[nH]5)C=C4)C=C3)cc1)N(C)c1cc(C)ccc1[N+](=O)[O-]
REMARK SMILES IDX 8 1 7 2 6 3 4 4 5 5 3 7 2 8 1 9 77 10 78 11 79 12 80 13
REMARK SMILES IDX 85 14 81 15 84 16 82 17 83 18 86 19 87 20 88 21 9 22 10 23
REMARK SMILES IDX 11 24 12 25 13 27 14 28 15 29 76 30 16 31 75 32 17 33 18 34
REMARK SMILES IDX 19 35 69 36 20 37 74 38 68 39 70 40 21 41 73 42 67 43 66 44
REMARK SMILES IDX 22 46 54 47 34 48 53 49 35 50 38 51 52 52 71 53 36 54 37 55
REMARK SMILES IDX 51 57 72 58 39 59 23 60 24 61 32 62 25 63 27 64 33 65 26 66
REMARK SMILES IDX 28 67 29 68 30 69 31 70 55 71 56 72 64 73 57 74 59 75 65 76
REMARK SMILES IDX 58 77 60 78 61 79 62 80 63 81 40 82 41 83 49 84 42 85 44 86
REMARK SMILES IDX 50 87 43 88 45 89 46 90 47 91 48 92
REMARK H PARENT 6 6 11 26 70 45 38 56
REMARK Flexibility Score: inf
ROOT
ATOM      1  C   UNL A   1      32.713  28.586  23.406  1.00  0.00     0.023 C 
ENDROOT
BRANCH   1   2
ATOM      2  C   UNL A   1      33.623  27.650  22.603  1.00  0.00     0.116 C 
BRANCH   2   3
ATOM      3  N   UNL A   1      32.871  26.547  22.041  1.00  0.00    -0.354 N 
ATOM      4  C   UNL A   1      33.029  25.254  22.458  1.00  0.00     0.242 C 
ATOM      5  O   UNL A   1      33.434  24.446  21.621  1.00  0.00    -0.273 OA
ATOM      6  H   UNL A   1      32.217  26.737  21.330  1.00  0.00     0.163 HD
BRANCH   4   7
ATOM      7  C   UNL A   1      32.854  24.902  23.953  1.00  0.00     0.171 C 
BRANCH   7   8
ATOM      8  C   UNL A   1      31.415  24.835  24.507  1.00  0.00     0.032 C 
ATOM      9  C   UNL A   1      30.307  24.296  23.619  1.00  0.00     0.006 C 
ENDBRANCH   7   8
BRANCH   7  10
ATOM     10  N   UNL A   1      33.743  23.782  24.396  1.00  0.00    -0.357 N 
ATOM     11  C   UNL A   1      35.147  24.133  24.617  1.00  0.00     0.144 C 
BRANCH  10  12
ATOM     12  C   UNL A   1      33.346  22.497  24.741  1.00  0.00     0.116 A 
ATOM     13  C   UNL A   1      33.047  21.590  23.694  1.00  0.00     0.036 A 
ATOM     14  C   UNL A   1      33.207  21.952  26.031  1.00  0.00     0.292 A 
ATOM     15  C   UNL A   1      32.682  20.244  23.911  1.00  0.00    -0.049 A 
ATOM     16  C   UNL A   1      32.890  20.598  26.272  1.00  0.00     0.088 A 
ATOM     17  C   UNL A   1      32.337  19.366  22.745  1.00  0.00     0.044 C 
ATOM     18  C   UNL A   1      32.640  19.745  25.210  1.00  0.00     0.010 A 
BRANCH  14  19
ATOM     19  N   UNL A   1      33.216  22.752  27.235  1.00  0.00     0.064 N 
ATOM     20  O   UNL A   1      34.293  22.818  27.850  1.00  0.00    -0.258 OA
ATOM     21  O   UNL A   1      32.113  23.137  27.650  1.00  0.00    -0.258 OA
ENDBRANCH  14  19
ENDBRANCH  10  12
ENDBRANCH   7  10
ENDBRANCH   4   7
ENDBRANCH   2   3
ENDBRANCH   1   2
BRANCH   1  22
ATOM     22  C   UNL A   1      33.406  29.337  24.549  1.00  0.00     0.023 C 
BRANCH  22  23
ATOM     23  C   UNL A   1      32.595  29.455  25.835  1.00  0.00     0.116 C 
BRANCH  23  24
ATOM     24  N   UNL A   1      32.321  30.836  26.198  1.00  0.00    -0.352 N 
ATOM     25  C   UNL A   1      32.989  31.647  27.083  1.00  0.00     0.251 C 
ATOM     26  H   UNL A   1      31.548  31.247  25.747  1.00  0.00     0.163 HD
ATOM     27  O   UNL A   1      32.530  32.746  27.370  1.00  0.00    -0.269 OA
BRANCH  25  28
ATOM     28  C   UNL A   1      34.248  31.177  27.702  1.00  0.00     0.039 A 
ATOM     29  C   UNL A   1      35.248  32.111  27.985  1.00  0.00     0.014 A 
ATOM     30  C   UNL A   1      34.436  29.827  28.008  1.00  0.00     0.014 A 
ATOM     31  C   UNL A   1      36.418  31.697  28.627  1.00  0.00     0.010 A 
ATOM     32  C   UNL A   1      35.571  29.430  28.711  1.00  0.00     0.010 A 
ATOM     33  C   UNL A   1      36.576  30.359  29.021  1.00  0.00    -0.014 A 
BRANCH  33  34
ATOM     34  C   UNL A   1      37.785  29.904  29.755  1.00  0.00     0.031 A 
ATOM     35  C   UNL A   1      38.074  30.437  31.133  1.00  0.00     0.074 A 
ATOM     36  C   UNL A   1      38.667  29.085  29.149  1.00  0.00     0.049 A 
ATOM     37  N   UNL A   1      39.113  30.226  31.899  1.00  0.00    -0.248 NA
ATOM     38  C   UNL A   1      37.077  31.349  31.717  1.00  0.00     0.031 C 
ATOM     39  C   UNL A   1      38.536  28.557  27.789  1.00  0.00     0.029 A 
ATOM     40  N   UNL A   1      39.866  28.578  29.587  1.00  0.00    -0.354 N 
ATOM     41  C   UNL A   1      38.916  31.007  33.031  1.00  0.00     0.074 A 
ATOM     42  C   UNL A   1      37.673  31.721  32.841  1.00  0.00     0.031 C 
ATOM     43  C   UNL A   1      39.611  27.803  27.504  1.00  0.00     0.029 A 
ATOM     44  C   UNL A   1      40.521  27.819  28.646  1.00  0.00     0.049 A 
ATOM     45  H   UNL A   1      40.224  28.743  30.490  1.00  0.00     0.167 HD
ATOM     46  C   UNL A   1      39.685  31.100  34.142  1.00  0.00     0.034 A 
ATOM     47  C   UNL A   1      41.725  27.213  28.691  1.00  0.00     0.034 A 
ATOM     48  C   UNL A   1      40.897  30.355  34.347  1.00  0.00     0.049 A 
ATOM     49  C   UNL A   1      42.542  27.305  29.952  1.00  0.00     0.074 A 
ATOM     50  C   UNL A   1      41.703  30.315  35.471  1.00  0.00     0.029 A 
ATOM     51  N   UNL A   1      41.482  29.523  33.405  1.00  0.00    -0.354 N 
ATOM     52  N   UNL A   1      42.263  27.927  31.073  1.00  0.00    -0.248 NA
ATOM     53  C   UNL A   1      43.821  26.580  29.971  1.00  0.00     0.031 C 
ATOM     54  C   UNL A   1      42.787  29.475  35.200  1.00  0.00     0.029 A 
ATOM     55  C   UNL A   1      42.642  28.968  33.919  1.00  0.00     0.049 A 
ATOM     56  H   UNL A   1      41.125  29.350  32.504  1.00  0.00     0.167 HD
ATOM     57  C   UNL A   1      43.309  27.634  31.941  1.00  0.00     0.074 A 
ATOM     58  C   UNL A   1      44.219  26.766  31.223  1.00  0.00     0.031 C 
ATOM     59  C   UNL A   1      43.504  28.054  33.216  1.00  0.00     0.034 A 
BRANCH  46  60
ATOM     60  C   UNL A   1      39.209  32.005  35.249  1.00  0.00     0.023 A 
ATOM     61  C   UNL A   1      38.255  31.531  36.173  1.00  0.00     0.012 A 
ATOM     62  C   UNL A   1      39.744  33.297  35.413  1.00  0.00     0.148 A 
ATOM     63  C   UNL A   1      37.813  32.340  37.220  1.00  0.00     0.002 A 
ATOM     64  C   UNL A   1      39.335  34.081  36.486  1.00  0.00     0.091 A 
ATOM     65  F   UNL A   1      40.636  33.740  34.515  1.00  0.00    -0.205 F 
ATOM     66  C   UNL A   1      38.361  33.609  37.382  1.00  0.00     0.022 A 
BRANCH  64  67
ATOM     67  S   UNL A   1      40.038  35.697  36.831  1.00  0.00     0.127 S 
ATOM     68  O   UNL A   1      39.615  36.460  35.656  1.00  0.00    -0.237 OA
ATOM     69  O   UNL A   1      39.361  36.069  38.073  1.00  0.00    -0.237 OA
ATOM     70  O   UNL A   1      41.473  35.493  36.960  1.00  0.00    -0.744 OA
ENDBRANCH  64  67
ENDBRANCH  46  60
BRANCH  47  71
ATOM     71  C   UNL A   1      42.202  26.409  27.529  1.00  0.00     0.023 A 
ATOM     72  C   UNL A   1      42.977  27.032  26.531  1.00  0.00     0.012 A 
ATOM     73  C   UNL A   1      41.911  25.037  27.417  1.00  0.00     0.148 A 
ATOM     74  C   UNL A   1      43.423  26.311  25.423  1.00  0.00     0.002 A 
ATOM     75  C   UNL A   1      42.405  24.312  26.337  1.00  0.00     0.091 A 
ATOM     76  F   UNL A   1      41.164  24.465  28.370  1.00  0.00    -0.205 F 
ATOM     77  C   UNL A   1      43.145  24.951  25.330  1.00  0.00     0.022 A 
BRANCH  75  78
ATOM     78  S   UNL A   1      42.206  22.532  26.197  1.00  0.00     0.127 S 
ATOM     79  O   UNL A   1      40.757  22.402  26.079  1.00  0.00    -0.237 OA
ATOM     80  O   UNL A   1      42.955  22.240  24.974  1.00  0.00    -0.237 OA
ATOM     81  O   UNL A   1      42.795  21.976  27.409  1.00  0.00    -0.744 OA
ENDBRANCH  75  78
ENDBRANCH  47  71
BRANCH  59  82
ATOM     82  C   UNL A   1      44.718  27.545  33.946  1.00  0.00     0.023 A 
ATOM     83  C   UNL A   1      45.922  28.275  33.910  1.00  0.00     0.012 A 
ATOM     84  C   UNL A   1      44.637  26.383  34.741  1.00  0.00     0.148 A 
ATOM     85  C   UNL A   1      47.035  27.842  34.628  1.00  0.00     0.002 A 
ATOM     86  C   UNL A   1      45.735  25.985  35.494  1.00  0.00     0.091 A 
ATOM     87  F   UNL A   1      43.488  25.692  34.746  1.00  0.00    -0.205 F 
ATOM     88  C   UNL A   1      46.937  26.706  35.430  1.00  0.00     0.022 A 
BRANCH  86  89
ATOM     89  S   UNL A   1      45.669  24.595  36.629  1.00  0.00     0.127 S 
ATOM     90  O   UNL A   1      44.596  25.001  37.536  1.00  0.00    -0.237 OA
ATOM     91  O   UNL A   1      45.329  23.484  35.741  1.00  0.00    -0.237 OA
ATOM     92  O   UNL A   1      46.993  24.504  37.231  1.00  0.00    -0.744 OA
ENDBRANCH  86  89
ENDBRANCH  59  82
ENDBRANCH  33  34
ENDBRANCH  25  28
ENDBRANCH  23  24
ENDBRANCH  22  23
ENDBRANCH   1  22
TORSDOF 18
ENDMDL
MODEL 3
REMARK VINA RESULT:     -10.5      1.665      2.196
REMARK SMILES CC[C@H](C(=O)NCCCCNC(=O)c1ccc(-c2c3nc(c(-c4cccc(S(=O)(=O)[O-])c4F)c4ccc([nH]4)c(-c4cccc(S(=O)(=O)[O-])c4F)c4nc(c(-c5cccc(S(=O)(=O)[O-])c5F)c5ccc2[nH]5)C=C4)C=C3)cc1)N(C)c1cc(C)ccc1[N+](=O)[O-]
REMARK SMILES IDX 8 1 7 2 6 3 4 4 5 5 3 7 2 8 1 9 77 10 78 11 79 12 80 13
REMARK SMILES IDX 85 14 81 15 84 16 82 17 83 18 86 19 87 20 88 21 9 22 10 23
REMARK SMILES IDX 11 24 12 25 13 27 14 28 15 29 76 30 16 31 75 32 17 33 18 34
REMARK SMILES IDX 19 35 69 36 20 37 74 38 68 39 70 40 21 41 73 42 67 43 66 44
REMARK SMILES IDX 22 46 54 47 34 48 53 49 35 50 38 51 52 52 71 53 36 54 37 55
REMARK SMILES IDX 51 57 72 58 39 59 23 60 24 61 32 62 25 63 27 64 33 65 26 66
REMARK SMILES IDX 28 67 29 68 30 69 31 70 55 71 56 72 64 73 57 74 59 75 65 76
REMARK SMILES IDX 58 77 60 78 61 79 62 80 63 81 40 82 41 83 49 84 42 85 44 86
REMARK SMILES IDX 50 87 43 88 45 89 46 90 47 91 48 92
REMARK H PARENT 6 6 11 26 70 45 38 56
REMARK Flexibility Score: inf
ROOT
ATOM      1  C   UNL A   1      36.975  21.040  24.981  1.00  0.00     0.023 C 
ENDROOT
BRANCH   1   2
ATOM      2  C   UNL A   1      35.557  20.524  25.248  1.00  0.00     0.116 C 
BRANCH   2   3
ATOM      3  N   UNL A   1      34.620  21.050  24.277  1.00  0.00    -0.354 N 
ATOM      4  C   UNL A   1      33.578  21.868  24.618  1.00  0.00     0.242 C 
ATOM      5  O   UNL A   1      32.443  21.445  24.397  1.00  0.00    -0.273 OA
ATOM      6  H   UNL A   1      34.739  20.809  23.329  1.00  0.00     0.163 HD
BRANCH   4   7
ATOM      7  C   UNL A   1      33.853  23.178  25.392  1.00  0.00     0.171 C 
BRANCH   7   8
ATOM      8  C   UNL A   1      34.860  24.173  24.776  1.00  0.00     0.032 C 
ATOM      9  C   UNL A   1      35.479  23.854  23.426  1.00  0.00     0.006 C 
ENDBRANCH   7   8
BRANCH   7  10
ATOM     10  N   UNL A   1      32.607  23.808  25.931  1.00  0.00    -0.357 N 
ATOM     11  C   UNL A   1      31.958  23.094  27.033  1.00  0.00     0.144 C 
BRANCH  10  12
ATOM     12  C   UNL A   1      32.091  25.050  25.586  1.00  0.00     0.116 A 
ATOM     13  C   UNL A   1      32.034  26.048  26.589  1.00  0.00     0.036 A 
ATOM     14  C   UNL A   1      31.610  25.468  24.330  1.00  0.00     0.292 A 
ATOM     15  C   UNL A   1      31.578  27.363  26.354  1.00  0.00    -0.049 A 
ATOM     16  C   UNL A   1      31.194  26.789  24.059  1.00  0.00     0.088 A 
ATOM     17  C   UNL A   1      31.509  28.344  27.486  1.00  0.00     0.044 C 
ATOM     18  C   UNL A   1      31.191  27.737  25.070  1.00  0.00     0.010 A 
BRANCH  14  19
ATOM     19  N   UNL A   1      31.342  24.557  23.240  1.00  0.00     0.064 N 
ATOM     20  O   UNL A   1      30.333  23.843  23.349  1.00  0.00    -0.258 OA
ATOM     21  O   UNL A   1      32.239  24.432  22.394  1.00  0.00    -0.258 OA
ENDBRANCH  14  19
ENDBRANCH  10  12
ENDBRANCH   7  10
ENDBRANCH   4   7
ENDBRANCH   2   3
ENDBRANCH   1   2
BRANCH   1  22
ATOM     22  C   UNL A   1      38.074  19.972  25.047  1.00  0.00     0.023 C 
BRANCH  22  23
ATOM     23  C   UNL A   1      39.257  20.311  25.947  1.00  0.00     0.116 C 
BRANCH  23  24
ATOM     24  N   UNL A   1      40.254  19.254  25.981  1.00  0.00    -0.352 N 
ATOM     25  C   UNL A   1      41.617  19.353  26.126  1.00  0.00     0.251 C 
ATOM     26  H   UNL A   1      39.904  18.338  25.887  1.00  0.00     0.163 HD
ATOM     27  O   UNL A   1      42.320  18.360  25.990  1.00  0.00    -0.269 OA
BRANCH  25  28
ATOM     28  C   UNL A   1      42.229  20.668  26.422  1.00  0.00     0.039 A 
ATOM     29  C   UNL A   1      42.601  21.492  25.356  1.00  0.00     0.014 A 
ATOM     30  C   UNL A   1      42.426  21.087  27.739  1.00  0.00     0.014 A 
ATOM     31  C   UNL A   1      43.122  22.763  25.614  1.00  0.00     0.010 A 
ATOM     32  C   UNL A   1      42.878  22.379  27.992  1.00  0.00     0.010 A 
ATOM     33  C   UNL A   1      43.238  23.227  26.934  1.00  0.00    -0.014 A 
BRANCH  33  34
ATOM     34  C   UNL A   1      43.735  24.595  27.233  1.00  0.00     0.031 A 
ATOM     35  C   UNL A   1      42.786  25.647  27.739  1.00  0.00     0.074 A 
ATOM     36  C   UNL A   1      45.017  24.914  26.965  1.00  0.00     0.049 A 
ATOM     37  N   UNL A   1      43.008  26.914  27.979  1.00  0.00    -0.248 NA
ATOM     38  C   UNL A   1      41.395  25.229  27.982  1.00  0.00     0.031 C 
ATOM     39  C   UNL A   1      46.017  24.003  26.405  1.00  0.00     0.029 A 
ATOM     40  N   UNL A   1      45.690  26.104  27.097  1.00  0.00    -0.354 N 
ATOM     41  C   UNL A   1      41.784  27.450  28.360  1.00  0.00     0.074 A 
ATOM     42  C   UNL A   1      40.814  26.379  28.289  1.00  0.00     0.031 C 
ATOM     43  C   UNL A   1      47.174  24.665  26.241  1.00  0.00     0.029 A 
ATOM     44  C   UNL A   1      46.990  26.055  26.652  1.00  0.00     0.049 A 
ATOM     45  H   UNL A   1      45.280  26.916  27.474  1.00  0.00     0.167 HD
ATOM     46  C   UNL A   1      41.497  28.712  28.759  1.00  0.00     0.034 A 
ATOM     47  C   UNL A   1      47.927  27.021  26.573  1.00  0.00     0.034 A 
ATOM     48  C   UNL A   1      42.473  29.761  28.871  1.00  0.00     0.049 A 
ATOM     49  C   UNL A   1      47.591  28.406  27.058  1.00  0.00     0.074 A 
ATOM     50  C   UNL A   1      42.300  31.050  29.345  1.00  0.00     0.029 A 
ATOM     51  N   UNL A   1      43.803  29.647  28.499  1.00  0.00    -0.354 N 
ATOM     52  N   UNL A   1      46.465  28.854  27.559  1.00  0.00    -0.248 NA
ATOM     53  C   UNL A   1      48.664  29.409  27.003  1.00  0.00     0.031 C 
ATOM     54  C   UNL A   1      43.521  31.721  29.240  1.00  0.00     0.029 A 
ATOM     55  C   UNL A   1      44.463  30.843  28.728  1.00  0.00     0.049 A 
ATOM     56  H   UNL A   1      44.218  28.836  28.127  1.00  0.00     0.167 HD
ATOM     57  C   UNL A   1      46.707  30.176  27.917  1.00  0.00     0.074 A 
ATOM     58  C   UNL A   1      48.090  30.451  27.590  1.00  0.00     0.031 C 
ATOM     59  C   UNL A   1      45.856  31.083  28.458  1.00  0.00     0.034 A 
BRANCH  46  60
ATOM     60  C   UNL A   1      40.075  29.014  29.158  1.00  0.00     0.023 A 
ATOM     61  C   UNL A   1      39.095  29.189  28.159  1.00  0.00     0.012 A 
ATOM     62  C   UNL A   1      39.697  29.068  30.513  1.00  0.00     0.148 A 
ATOM     63  C   UNL A   1      37.768  29.448  28.501  1.00  0.00     0.002 A 
ATOM     64  C   UNL A   1      38.364  29.279  30.848  1.00  0.00     0.091 A 
ATOM     65  F   UNL A   1      40.644  28.919  31.450  1.00  0.00    -0.205 F 
ATOM     66  C   UNL A   1      37.401  29.482  29.844  1.00  0.00     0.022 A 
BRANCH  64  67
ATOM     67  S   UNL A   1      37.774  29.260  32.544  1.00  0.00     0.127 S 
ATOM     68  O   UNL A   1      36.439  29.840  32.398  1.00  0.00    -0.237 OA
ATOM     69  O   UNL A   1      37.786  27.832  32.859  1.00  0.00    -0.237 OA
ATOM     70  O   UNL A   1      38.721  30.058  33.308  1.00  0.00    -0.744 OA
ENDBRANCH  64  67
ENDBRANCH  46  60
BRANCH  47  71
ATOM     71  C   UNL A   1      49.295  26.698  26.075  1.00  0.00     0.023 A 
ATOM     72  C   UNL A   1      50.150  25.909  26.870  1.00  0.00     0.012 A 
ATOM     73  C   UNL A   1      49.746  27.148  24.820  1.00  0.00     0.148 A 
ATOM     74  C   UNL A   1      51.442  25.605  26.441  1.00  0.00     0.002 A 
ATOM     75  C   UNL A   1      51.016  26.796  24.375  1.00  0.00     0.091 A 
ATOM     76  F   UNL A   1      48.923  27.905  24.083  1.00  0.00    -0.205 F 
ATOM     77  C   UNL A   1      51.872  26.040  25.191  1.00  0.00     0.022 A 
BRANCH  75  78
ATOM     78  S   UNL A   1      51.609  27.202  22.729  1.00  0.00     0.127 S 
ATOM     79  O   UNL A   1      51.831  28.641  22.838  1.00  0.00    -0.237 OA
ATOM     80  O   UNL A   1      52.826  26.394  22.638  1.00  0.00    -0.237 OA
ATOM     81  O   UNL A   1      50.547  26.792  21.818  1.00  0.00    -0.744 OA
ENDBRANCH  75  78
ENDBRANCH  47  71
BRANCH  59  82
ATOM     82  C   UNL A   1      46.401  32.449  28.786  1.00  0.00     0.023 A 
ATOM     83  C   UNL A   1      47.001  32.687  30.038  1.00  0.00     0.012 A 
ATOM     84  C   UNL A   1      46.392  33.472  27.816  1.00  0.00     0.148 A 
ATOM     85  C   UNL A   1      47.558  33.931  30.331  1.00  0.00     0.002 A 
ATOM     86  C   UNL A   1      46.993  34.692  28.097  1.00  0.00     0.091 A 
ATOM     87  F   UNL A   1      45.798  33.231  26.639  1.00  0.00    -0.205 F 
ATOM     88  C   UNL A   1      47.566  34.927  29.357  1.00  0.00     0.022 A 
BRANCH  86  89
ATOM     89  S   UNL A   1      47.140  35.997  26.871  1.00  0.00     0.127 S 
ATOM     90  O   UNL A   1      47.963  36.978  27.577  1.00  0.00    -0.237 OA
ATOM     91  O   UNL A   1      47.818  35.313  25.770  1.00  0.00    -0.237 OA
ATOM     92  O   UNL A   1      45.780  36.423  26.572  1.00  0.00    -0.744 OA
ENDBRANCH  86  89
ENDBRANCH  59  82
ENDBRANCH  33  34
ENDBRANCH  25  28
ENDBRANCH  23  24
ENDBRANCH  22  23
ENDBRANCH   1  22
TORSDOF 18
ENDMDL
