MODEL 1
REMARK VINA RESULT:      -9.2      0.000      0.000
REMARK SMILES CC[C@H](C)CN(CC)C(=O)c1ccc(/C=C/C(=O)NCCCCNC(=O)c2ccc(-c3c4nc(c(-c5cccc(S(=O)(=O)[O-])c5F)c5ccc([nH]5)c(-c5cccc(S(=O)(=O)[O-])c5F)c5nc(c(-c6cccc(S(=O)(=O)[O-])c6F)c6ccc3[nH]6)C=C5)C=C4)cc2)cn1
REMARK SMILES IDX 20 1 19 2 17 3 18 4 16 6 15 7 14 8 11 9 12 10 91 11 13 12
REMARK SMILES IDX 90 13 9 14 10 15 6 16 5 17 3 18 4 19 2 20 1 21 7 22 8 23
REMARK SMILES IDX 21 24 22 25 23 26 24 27 25 28 26 30 27 31 28 32 89 33 29 34
REMARK SMILES IDX 88 35 30 36 31 37 32 38 82 39 33 40 87 41 81 42 83 43 34 44
REMARK SMILES IDX 86 45 80 46 79 47 35 49 67 50 47 51 66 52 48 53 51 54 65 55
REMARK SMILES IDX 84 56 49 57 50 58 64 60 85 61 52 62 36 63 37 64 45 65 38 66
REMARK SMILES IDX 40 67 46 68 39 69 41 70 42 71 43 72 44 73 68 74 69 75 77 76
REMARK SMILES IDX 70 77 72 78 78 79 71 80 73 81 74 82 75 83 76 84 53 85 54 86
REMARK SMILES IDX 62 87 55 88 57 89 63 90 56 91 58 92 59 93 60 94 61 95
REMARK H PARENT 19 5 24 29 83 48 51 59
REMARK Flexibility Score: inf
ROOT
ATOM      1  C   UNL A   1      33.501  24.309  24.782  1.00  0.00     0.116 C 
ENDROOT
BRANCH   1   2
ATOM      2  N   UNL A   1      33.083  25.320  23.825  1.00  0.00    -0.353 N 
ATOM      3  C   UNL A   1      33.089  26.678  23.929  1.00  0.00     0.243 C 
ATOM      4  O   UNL A   1      32.811  27.381  22.963  1.00  0.00    -0.270 OA
ATOM      5  H   UNL A   1      32.743  24.969  22.971  1.00  0.00     0.163 HD
BRANCH   3   6
ATOM      6  C   UNL A   1      33.522  27.321  25.191  1.00  0.00     0.072 C 
ATOM      7  C   UNL A   1      33.927  28.598  25.241  1.00  0.00     0.015 C 
BRANCH   7   8
ATOM      8  C   UNL A   1      34.344  29.319  26.447  1.00  0.00    -0.007 A 
ATOM      9  C   UNL A   1      35.140  30.784  28.619  1.00  0.00     0.128 A 
ATOM     10  C   UNL A   1      33.967  31.151  27.980  1.00  0.00     0.035 A 
ATOM     11  N   UNL A   1      35.919  29.736  28.252  1.00  0.00    -0.250 NA
ATOM     12  C   UNL A   1      33.558  30.391  26.890  1.00  0.00     0.012 A 
ATOM     13  C   UNL A   1      35.512  29.046  27.160  1.00  0.00     0.120 A 
BRANCH   9  14
ATOM     14  C   UNL A   1      35.652  31.639  29.711  1.00  0.00     0.272 C 
ATOM     15  O   UNL A   1      36.411  31.121  30.530  1.00  0.00    -0.267 OA
BRANCH  14  16
ATOM     16  N   UNL A   1      35.265  32.983  29.759  1.00  0.00    -0.337 N 
BRANCH  16  17
ATOM     17  C   UNL A   1      34.294  33.367  30.781  1.00  0.00     0.123 C 
BRANCH  17  18
ATOM     18  C   UNL A   1      34.541  34.780  31.360  1.00  0.00     0.005 C 
ATOM     19  C   UNL A   1      33.362  35.738  31.160  1.00  0.00     0.009 C 
BRANCH  18  20
ATOM     20  C   UNL A   1      34.951  34.702  32.846  1.00  0.00     0.002 C 
ATOM     21  C   UNL A   1      34.431  33.480  33.597  1.00  0.00     0.004 C 
ENDBRANCH  18  20
ENDBRANCH  17  18
ENDBRANCH  16  17
BRANCH  16  22
ATOM     22  C   UNL A   1      35.757  34.024  28.852  1.00  0.00     0.116 C 
ATOM     23  C   UNL A   1      34.669  34.503  27.898  1.00  0.00     0.027 C 
ENDBRANCH  16  22
ENDBRANCH  14  16
ENDBRANCH   9  14
ENDBRANCH   7   8
ENDBRANCH   3   6
ENDBRANCH   1   2
BRANCH   1  24
ATOM     24  C   UNL A   1      34.962  23.907  24.573  1.00  0.00     0.023 C 
BRANCH  24  25
ATOM     25  C   UNL A   1      35.561  23.073  25.709  1.00  0.00     0.023 C 
BRANCH  25  26
ATOM     26  C   UNL A   1      36.961  23.488  26.147  1.00  0.00     0.116 C 
BRANCH  26  27
ATOM     27  N   UNL A   1      37.891  22.373  26.245  1.00  0.00    -0.352 N 
ATOM     28  C   UNL A   1      39.225  22.406  26.580  1.00  0.00     0.251 C 
ATOM     29  H   UNL A   1      37.519  21.482  26.047  1.00  0.00     0.163 HD
ATOM     30  O   UNL A   1      39.903  21.384  26.525  1.00  0.00    -0.269 OA
BRANCH  28  31
ATOM     31  C   UNL A   1      39.837  23.694  26.967  1.00  0.00     0.039 A 
ATOM     32  C   UNL A   1      40.656  23.740  28.098  1.00  0.00     0.014 A 
ATOM     33  C   UNL A   1      39.643  24.835  26.184  1.00  0.00     0.014 A 
ATOM     34  C   UNL A   1      41.340  24.919  28.405  1.00  0.00     0.010 A 
ATOM     35  C   UNL A   1      40.378  25.985  26.453  1.00  0.00     0.010 A 
ATOM     36  C   UNL A   1      41.234  26.039  27.564  1.00  0.00    -0.014 A 
BRANCH  36  37
ATOM     37  C   UNL A   1      42.026  27.269  27.812  1.00  0.00     0.031 A 
ATOM     38  C   UNL A   1      43.438  27.375  27.305  1.00  0.00     0.074 A 
ATOM     39  C   UNL A   1      41.512  28.245  28.587  1.00  0.00     0.049 A 
ATOM     40  N   UNL A   1      44.306  28.337  27.482  1.00  0.00    -0.248 NA
ATOM     41  C   UNL A   1      43.952  26.239  26.523  1.00  0.00     0.031 C 
ATOM     42  C   UNL A   1      40.189  28.217  29.215  1.00  0.00     0.029 A 
ATOM     43  N   UNL A   1      42.052  29.436  29.005  1.00  0.00    -0.354 N 
ATOM     44  C   UNL A   1      45.478  27.906  26.872  1.00  0.00     0.074 A 
ATOM     45  C   UNL A   1      45.219  26.584  26.346  1.00  0.00     0.031 C 
ATOM     46  C   UNL A   1      40.021  29.336  29.937  1.00  0.00     0.029 A 
ATOM     47  C   UNL A   1      41.230  30.151  29.845  1.00  0.00     0.049 A 
ATOM     48  H   UNL A   1      42.944  29.748  28.730  1.00  0.00     0.167 HD
ATOM     49  C   UNL A   1      46.653  28.564  26.733  1.00  0.00     0.034 A 
ATOM     50  C   UNL A   1      41.427  31.327  30.471  1.00  0.00     0.034 A 
ATOM     51  C   UNL A   1      46.887  29.900  27.208  1.00  0.00     0.049 A 
ATOM     52  C   UNL A   1      42.716  32.068  30.244  1.00  0.00     0.074 A 
ATOM     53  C   UNL A   1      48.006  30.694  27.026  1.00  0.00     0.029 A 
ATOM     54  N   UNL A   1      45.989  30.641  27.960  1.00  0.00    -0.354 N 
ATOM     55  N   UNL A   1      43.750  31.720  29.516  1.00  0.00    -0.248 NA
ATOM     56  C   UNL A   1      42.854  33.380  30.893  1.00  0.00     0.031 C 
ATOM     57  C   UNL A   1      47.789  31.911  27.682  1.00  0.00     0.029 A 
ATOM     58  C   UNL A   1      46.529  31.881  28.256  1.00  0.00     0.049 A 
ATOM     59  H   UNL A   1      45.099  30.331  28.242  1.00  0.00     0.167 HD
ATOM     60  C   UNL A   1      44.643  32.783  29.587  1.00  0.00     0.074 A 
ATOM     61  C   UNL A   1      44.021  33.795  30.416  1.00  0.00     0.031 C 
ATOM     62  C   UNL A   1      45.873  32.903  29.031  1.00  0.00     0.034 A 
BRANCH  49  63
ATOM     63  C   UNL A   1      47.756  27.870  25.978  1.00  0.00     0.023 A 
ATOM     64  C   UNL A   1      48.682  27.075  26.683  1.00  0.00     0.012 A 
ATOM     65  C   UNL A   1      47.848  27.960  24.576  1.00  0.00     0.148 A 
ATOM     66  C   UNL A   1      49.705  26.409  26.010  1.00  0.00     0.002 A 
ATOM     67  C   UNL A   1      48.846  27.257  23.907  1.00  0.00     0.091 A 
ATOM     68  F   UNL A   1      46.974  28.739  23.924  1.00  0.00    -0.205 F 
ATOM     69  C   UNL A   1      49.780  26.491  24.623  1.00  0.00     0.022 A 
BRANCH  67  70
ATOM     70  S   UNL A   1      48.978  27.239  22.115  1.00  0.00     0.127 S 
ATOM     71  O   UNL A   1      48.055  28.309  21.741  1.00  0.00    -0.237 OA
ATOM     72  O   UNL A   1      50.392  27.554  21.906  1.00  0.00    -0.237 OA
ATOM     73  O   UNL A   1      48.588  25.899  21.700  1.00  0.00    -0.744 OA
ENDBRANCH  67  70
ENDBRANCH  49  63
BRANCH  50  74
ATOM     74  C   UNL A   1      40.340  31.915  31.306  1.00  0.00     0.023 A 
ATOM     75  C   UNL A   1      39.522  32.921  30.759  1.00  0.00     0.012 A 
ATOM     76  C   UNL A   1      40.087  31.457  32.613  1.00  0.00     0.148 A 
ATOM     77  C   UNL A   1      38.489  33.484  31.509  1.00  0.00     0.002 A 
ATOM     78  C   UNL A   1      39.022  31.983  33.335  1.00  0.00     0.091 A 
ATOM     79  F   UNL A   1      40.884  30.506  33.119  1.00  0.00    -0.205 F 
ATOM     80  C   UNL A   1      38.232  33.008  32.792  1.00  0.00     0.022 A 
BRANCH  78  81
ATOM     81  S   UNL A   1      38.536  31.338  34.940  1.00  0.00     0.127 S 
ATOM     82  O   UNL A   1      38.357  29.918  34.650  1.00  0.00    -0.237 OA
ATOM     83  O   UNL A   1      39.704  31.656  35.762  1.00  0.00    -0.237 OA
ATOM     84  O   UNL A   1      37.331  32.070  35.305  1.00  0.00    -0.744 OA
ENDBRANCH  78  81
ENDBRANCH  50  74
BRANCH  62  85
ATOM     85  C   UNL A   1      46.625  34.187  29.264  1.00  0.00     0.023 A 
ATOM     86  C   UNL A   1      47.512  34.288  30.353  1.00  0.00     0.012 A 
ATOM     87  C   UNL A   1      46.518  35.258  28.354  1.00  0.00     0.148 A 
ATOM     88  C   UNL A   1      48.262  35.448  30.550  1.00  0.00     0.002 A 
ATOM     89  C   UNL A   1      47.302  36.391  28.531  1.00  0.00     0.091 A 
ATOM     90  F   UNL A   1      45.652  35.149  27.336  1.00  0.00    -0.205 F 
ATOM     91  C   UNL A   1      48.167  36.492  29.632  1.00  0.00     0.022 A 
BRANCH  89  92
ATOM     92  S   UNL A   1      47.313  37.743  27.348  1.00  0.00     0.127 S 
ATOM     93  O   UNL A   1      48.192  38.707  28.005  1.00  0.00    -0.237 OA
ATOM     94  O   UNL A   1      47.883  37.111  26.156  1.00  0.00    -0.237 OA
ATOM     95  O   UNL A   1      45.924  38.158  27.202  1.00  0.00    -0.744 OA
ENDBRANCH  89  92
ENDBRANCH  62  85
ENDBRANCH  36  37
ENDBRANCH  28  31
ENDBRANCH  26  27
ENDBRANCH  25  26
ENDBRANCH  24  25
ENDBRANCH   1  24
TORSDOF 21
ENDMDL
MODEL 2
REMARK VINA RESULT:      -9.2      4.283      8.987
REMARK SMILES CC[C@H](C)CN(CC)C(=O)c1ccc(/C=C/C(=O)NCCCCNC(=O)c2ccc(-c3c4nc(c(-c5cccc(S(=O)(=O)[O-])c5F)c5ccc([nH]5)c(-c5cccc(S(=O)(=O)[O-])c5F)c5nc(c(-c6cccc(S(=O)(=O)[O-])c6F)c6ccc3[nH]6)C=C5)C=C4)cc2)cn1
REMARK SMILES IDX 20 1 19 2 17 3 18 4 16 6 15 7 14 8 11 9 12 10 91 11 13 12
REMARK SMILES IDX 90 13 9 14 10 15 6 16 5 17 3 18 4 19 2 20 1 21 7 22 8 23
REMARK SMILES IDX 21 24 22 25 23 26 24 27 25 28 26 30 27 31 28 32 89 33 29 34
REMARK SMILES IDX 88 35 30 36 31 37 32 38 82 39 33 40 87 41 81 42 83 43 34 44
REMARK SMILES IDX 86 45 80 46 79 47 35 49 67 50 47 51 66 52 48 53 51 54 65 55
REMARK SMILES IDX 84 56 49 57 50 58 64 60 85 61 52 62 36 63 37 64 45 65 38 66
REMARK SMILES IDX 40 67 46 68 39 69 41 70 42 71 43 72 44 73 68 74 69 75 77 76
REMARK SMILES IDX 70 77 72 78 78 79 71 80 73 81 74 82 75 83 76 84 53 85 54 86
REMARK SMILES IDX 62 87 55 88 57 89 63 90 56 91 58 92 59 93 60 94 61 95
REMARK H PARENT 19 5 24 29 83 48 51 59
REMARK Flexibility Score: inf
ROOT
ATOM      1  C   UNL A   1      44.550  21.867  25.868  1.00  0.00     0.116 C 
ENDROOT
BRANCH   1   2
ATOM      2  N   UNL A   1      43.199  21.350  25.731  1.00  0.00    -0.353 N 
ATOM      3  C   UNL A   1      42.011  21.896  26.114  1.00  0.00     0.243 C 
ATOM      4  O   UNL A   1      40.949  21.366  25.803  1.00  0.00    -0.270 OA
ATOM      5  H   UNL A   1      43.132  20.470  25.296  1.00  0.00     0.163 HD
BRANCH   3   6
ATOM      6  C   UNL A   1      41.989  23.190  26.834  1.00  0.00     0.072 C 
ATOM      7  C   UNL A   1      40.852  23.858  27.070  1.00  0.00     0.015 C 
BRANCH   7   8
ATOM      8  C   UNL A   1      40.737  25.127  27.796  1.00  0.00    -0.007 A 
ATOM      9  C   UNL A   1      40.504  27.563  29.025  1.00  0.00     0.128 A 
ATOM     10  C   UNL A   1      39.409  27.077  28.327  1.00  0.00     0.035 A 
ATOM     11  N   UNL A   1      41.684  26.907  29.154  1.00  0.00    -0.250 NA
ATOM     12  C   UNL A   1      39.528  25.831  27.722  1.00  0.00     0.012 A 
ATOM     13  C   UNL A   1      41.776  25.717  28.515  1.00  0.00     0.120 A 
BRANCH   9  14
ATOM     14  C   UNL A   1      40.441  28.930  29.584  1.00  0.00     0.272 C 
ATOM     15  O   UNL A   1      40.989  29.829  28.948  1.00  0.00    -0.267 OA
BRANCH  14  16
ATOM     16  N   UNL A   1      39.762  29.139  30.789  1.00  0.00    -0.337 N 
BRANCH  16  17
ATOM     17  C   UNL A   1      38.844  30.275  30.856  1.00  0.00     0.123 C 
BRANCH  17  18
ATOM     18  C   UNL A   1      37.844  30.324  29.677  1.00  0.00     0.005 C 
ATOM     19  C   UNL A   1      36.479  29.711  30.008  1.00  0.00     0.009 C 
BRANCH  18  20
ATOM     20  C   UNL A   1      37.693  31.763  29.142  1.00  0.00     0.002 C 
ATOM     21  C   UNL A   1      36.337  32.084  28.521  1.00  0.00     0.004 C 
ENDBRANCH  18  20
ENDBRANCH  17  18
ENDBRANCH  16  17
BRANCH  16  22
ATOM     22  C   UNL A   1      39.915  28.308  31.987  1.00  0.00     0.116 C 
ATOM     23  C   UNL A   1      38.593  27.679  32.412  1.00  0.00     0.027 C 
ENDBRANCH  16  22
ENDBRANCH  14  16
ENDBRANCH   9  14
ENDBRANCH   7   8
ENDBRANCH   3   6
ENDBRANCH   1   2
BRANCH   1  24
ATOM     24  C   UNL A   1      45.052  22.481  24.560  1.00  0.00     0.023 C 
BRANCH  24  25
ATOM     25  C   UNL A   1      45.351  23.981  24.635  1.00  0.00     0.023 C 
BRANCH  25  26
ATOM     26  C   UNL A   1      46.791  24.337  24.985  1.00  0.00     0.116 C 
BRANCH  26  27
ATOM     27  N   UNL A   1      47.302  25.479  24.241  1.00  0.00    -0.352 N 
ATOM     28  C   UNL A   1      47.218  26.812  24.568  1.00  0.00     0.251 C 
ATOM     29  H   UNL A   1      47.767  25.271  23.397  1.00  0.00     0.163 HD
ATOM     30  O   UNL A   1      47.616  27.669  23.783  1.00  0.00    -0.269 OA
BRANCH  28  31
ATOM     31  C   UNL A   1      46.605  27.199  25.856  1.00  0.00     0.039 A 
ATOM     32  C   UNL A   1      47.434  27.617  26.900  1.00  0.00     0.014 A 
ATOM     33  C   UNL A   1      45.216  27.199  26.009  1.00  0.00     0.014 A 
ATOM     34  C   UNL A   1      46.864  28.103  28.078  1.00  0.00     0.010 A 
ATOM     35  C   UNL A   1      44.652  27.747  27.156  1.00  0.00     0.010 A 
ATOM     36  C   UNL A   1      45.469  28.206  28.201  1.00  0.00    -0.014 A 
BRANCH  36  37
ATOM     37  C   UNL A   1      44.841  28.810  29.402  1.00  0.00     0.031 A 
ATOM     38  C   UNL A   1      44.618  27.983  30.637  1.00  0.00     0.074 A 
ATOM     39  C   UNL A   1      44.373  30.074  29.342  1.00  0.00     0.049 A 
ATOM     40  N   UNL A   1      44.024  28.314  31.754  1.00  0.00    -0.248 NA
ATOM     41  C   UNL A   1      45.098  26.591  30.602  1.00  0.00     0.031 C 
ATOM     42  C   UNL A   1      44.445  30.947  28.168  1.00  0.00     0.029 A 
ATOM     43  N   UNL A   1      43.715  30.831  30.278  1.00  0.00    -0.354 N 
ATOM     44  C   UNL A   1      44.022  27.166  32.537  1.00  0.00     0.074 A 
ATOM     45  C   UNL A   1      44.646  26.121  31.756  1.00  0.00     0.031 C 
ATOM     46  C   UNL A   1      43.855  32.119  28.455  1.00  0.00     0.029 A 
ATOM     47  C   UNL A   1      43.343  32.074  29.821  1.00  0.00     0.049 A 
ATOM     48  H   UNL A   1      43.528  30.515  31.191  1.00  0.00     0.167 HD
ATOM     49  C   UNL A   1      43.571  27.004  33.803  1.00  0.00     0.034 A 
ATOM     50  C   UNL A   1      42.664  33.065  30.432  1.00  0.00     0.034 A 
ATOM     51  C   UNL A   1      43.003  28.060  34.595  1.00  0.00     0.049 A 
ATOM     52  C   UNL A   1      42.233  32.882  31.862  1.00  0.00     0.074 A 
ATOM     53  C   UNL A   1      42.612  28.025  35.923  1.00  0.00     0.029 A 
ATOM     54  N   UNL A   1      42.742  29.341  34.136  1.00  0.00    -0.354 N 
ATOM     55  N   UNL A   1      42.397  31.843  32.646  1.00  0.00    -0.248 NA
ATOM     56  C   UNL A   1      41.560  34.018  32.506  1.00  0.00     0.031 C 
ATOM     57  C   UNL A   1      42.102  29.282  36.261  1.00  0.00     0.029 A 
ATOM     58  C   UNL A   1      42.191  30.105  35.150  1.00  0.00     0.049 A 
ATOM     59  H   UNL A   1      42.923  29.661  33.223  1.00  0.00     0.167 HD
ATOM     60  C   UNL A   1      41.883  32.212  33.882  1.00  0.00     0.074 A 
ATOM     61  C   UNL A   1      41.417  33.578  33.749  1.00  0.00     0.031 C 
ATOM     62  C   UNL A   1      41.789  31.483  35.020  1.00  0.00     0.034 A 
BRANCH  49  63
ATOM     63  C   UNL A   1      43.734  25.646  34.434  1.00  0.00     0.023 A 
ATOM     64  C   UNL A   1      42.651  24.744  34.425  1.00  0.00     0.012 A 
ATOM     65  C   UNL A   1      44.966  25.242  34.985  1.00  0.00     0.148 A 
ATOM     66  C   UNL A   1      42.778  23.475  34.988  1.00  0.00     0.002 A 
ATOM     67  C   UNL A   1      45.098  23.959  35.506  1.00  0.00     0.091 A 
ATOM     68  F   UNL A   1      45.978  26.121  35.005  1.00  0.00    -0.205 F 
ATOM     69  C   UNL A   1      44.003  23.079  35.518  1.00  0.00     0.022 A 
BRANCH  67  70
ATOM     70  S   UNL A   1      46.656  23.330  36.142  1.00  0.00     0.127 S 
ATOM     71  O   UNL A   1      47.527  23.471  34.976  1.00  0.00    -0.237 OA
ATOM     72  O   UNL A   1      46.943  24.262  37.233  1.00  0.00    -0.237 OA
ATOM     73  O   UNL A   1      46.390  21.963  36.567  1.00  0.00    -0.744 OA
ENDBRANCH  67  70
ENDBRANCH  49  63
BRANCH  50  74
ATOM     74  C   UNL A   1      42.424  34.351  29.717  1.00  0.00     0.023 A 
ATOM     75  C   UNL A   1      41.207  34.541  29.035  1.00  0.00     0.012 A 
ATOM     76  C   UNL A   1      43.369  35.395  29.743  1.00  0.00     0.148 A 
ATOM     77  C   UNL A   1      40.947  35.737  28.365  1.00  0.00     0.002 A 
ATOM     78  C   UNL A   1      43.081  36.603  29.120  1.00  0.00     0.091 A 
ATOM     79  F   UNL A   1      44.526  35.189  30.388  1.00  0.00    -0.205 F 
ATOM     80  C   UNL A   1      41.878  36.772  28.417  1.00  0.00     0.022 A 
BRANCH  78  81
ATOM     81  S   UNL A   1      44.161  38.033  29.248  1.00  0.00     0.127 S 
ATOM     82  O   UNL A   1      43.440  39.025  28.455  1.00  0.00    -0.237 OA
ATOM     83  O   UNL A   1      44.165  38.282  30.690  1.00  0.00    -0.237 OA
ATOM     84  O   UNL A   1      45.445  37.601  28.712  1.00  0.00    -0.744 OA
ENDBRANCH  78  81
ENDBRANCH  50  74
BRANCH  62  85
ATOM     85  C   UNL A   1      41.192  32.148  36.232  1.00  0.00     0.023 A 
ATOM     86  C   UNL A   1      41.976  33.026  37.004  1.00  0.00     0.012 A 
ATOM     87  C   UNL A   1      39.830  31.971  36.552  1.00  0.00     0.148 A 
ATOM     88  C   UNL A   1      41.423  33.697  38.095  1.00  0.00     0.002 A 
ATOM     89  C   UNL A   1      39.275  32.677  37.611  1.00  0.00     0.091 A 
ATOM     90  F   UNL A   1      39.106  31.115  35.816  1.00  0.00    -0.205 F 
ATOM     91  C   UNL A   1      40.071  33.533  38.389  1.00  0.00     0.022 A 
BRANCH  89  92
ATOM     92  S   UNL A   1      37.523  32.600  38.002  1.00  0.00     0.127 S 
ATOM     93  O   UNL A   1      37.454  33.405  39.219  1.00  0.00    -0.237 OA
ATOM     94  O   UNL A   1      36.913  33.219  36.824  1.00  0.00    -0.237 OA
ATOM     95  O   UNL A   1      37.214  31.186  38.166  1.00  0.00    -0.744 OA
ENDBRANCH  89  92
ENDBRANCH  62  85
ENDBRANCH  36  37
ENDBRANCH  28  31
ENDBRANCH  26  27
ENDBRANCH  25  26
ENDBRANCH  24  25
ENDBRANCH   1  24
TORSDOF 21
ENDMDL
MODEL 3
REMARK VINA RESULT:      -9.1      4.305      8.133
REMARK SMILES CC[C@H](C)CN(CC)C(=O)c1ccc(/C=C/C(=O)NCCCCNC(=O)c2ccc(-c3c4nc(c(-c5cccc(S(=O)(=O)[O-])c5F)c5ccc([nH]5)c(-c5cccc(S(=O)(=O)[O-])c5F)c5nc(c(-c6cccc(S(=O)(=O)[O-])c6F)c6ccc3[nH]6)C=C5)C=C4)cc2)cn1
REMARK SMILES IDX 20 1 19 2 17 3 18 4 16 6 15 7 14 8 11 9 12 10 91 11 13 12
REMARK SMILES IDX 90 13 9 14 10 15 6 16 5 17 3 18 4 19 2 20 1 21 7 22 8 23
REMARK SMILES IDX 21 24 22 25 23 26 24 27 25 28 26 30 27 31 28 32 89 33 29 34
REMARK SMILES IDX 88 35 30 36 31 37 32 38 82 39 33 40 87 41 81 42 83 43 34 44
REMARK SMILES IDX 86 45 80 46 79 47 35 49 67 50 47 51 66 52 48 53 51 54 65 55
REMARK SMILES IDX 84 56 49 57 50 58 64 60 85 61 52 62 36 63 37 64 45 65 38 66
REMARK SMILES IDX 40 67 46 68 39 69 41 70 42 71 43 72 44 73 68 74 69 75 77 76
REMARK SMILES IDX 70 77 72 78 78 79 71 80 73 81 74 82 75 83 76 84 53 85 54 86
REMARK SMILES IDX 62 87 55 88 57 89 63 90 56 91 58 92 59 93 60 94 61 95
REMARK H PARENT 19 5 24 29 83 48 51 59
REMARK Flexibility Score: inf
ROOT
ATOM      1  C   UNL A   1      40.380  21.442  26.862  1.00  0.00     0.116 C 
ENDROOT
BRANCH   1   2
ATOM      2  N   UNL A   1      39.181  21.844  26.147  1.00  0.00    -0.353 N 
ATOM      3  C   UNL A   1      38.534  23.043  26.129  1.00  0.00     0.243 C 
ATOM      4  O   UNL A   1      37.595  23.236  25.363  1.00  0.00    -0.270 OA
ATOM      5  H   UNL A   1      38.773  21.142  25.591  1.00  0.00     0.163 HD
BRANCH   3   6
ATOM      6  C   UNL A   1      39.018  24.158  26.974  1.00  0.00     0.072 C 
ATOM      7  C   UNL A   1      39.849  25.100  26.509  1.00  0.00     0.015 C 
BRANCH   7   8
ATOM      8  C   UNL A   1      40.354  26.249  27.266  1.00  0.00    -0.007 A 
ATOM      9  C   UNL A   1      41.187  28.378  28.773  1.00  0.00     0.128 A 
ATOM     10  C   UNL A   1      41.171  27.127  29.367  1.00  0.00     0.035 A 
ATOM     11  N   UNL A   1      40.831  28.622  27.487  1.00  0.00    -0.250 NA
ATOM     12  C   UNL A   1      40.766  26.047  28.591  1.00  0.00     0.012 A 
ATOM     13  C   UNL A   1      40.401  27.553  26.776  1.00  0.00     0.120 A 
BRANCH   9  14
ATOM     14  C   UNL A   1      41.510  29.557  29.606  1.00  0.00     0.272 C 
ATOM     15  O   UNL A   1      42.366  30.333  29.184  1.00  0.00    -0.267 OA
BRANCH  14  16
ATOM     16  N   UNL A   1      40.830  29.739  30.814  1.00  0.00    -0.337 N 
BRANCH  16  17
ATOM     17  C   UNL A   1      39.495  30.332  30.753  1.00  0.00     0.123 C 
BRANCH  17  18
ATOM     18  C   UNL A   1      39.491  31.776  30.197  1.00  0.00     0.005 C 
ATOM     19  C   UNL A   1      38.132  32.212  29.639  1.00  0.00     0.009 C 
BRANCH  18  20
ATOM     20  C   UNL A   1      40.006  32.774  31.255  1.00  0.00     0.002 C 
ATOM     21  C   UNL A   1      41.454  33.219  31.073  1.00  0.00     0.004 C 
ENDBRANCH  18  20
ENDBRANCH  17  18
ENDBRANCH  16  17
BRANCH  16  22
ATOM     22  C   UNL A   1      41.366  29.390  32.133  1.00  0.00     0.116 C 
ATOM     23  C   UNL A   1      40.378  28.557  32.942  1.00  0.00     0.027 C 
ENDBRANCH  16  22
ENDBRANCH  14  16
ENDBRANCH   9  14
ENDBRANCH   7   8
ENDBRANCH   3   6
ENDBRANCH   1   2
BRANCH   1  24
ATOM     24  C   UNL A   1      40.957  20.141  26.304  1.00  0.00     0.023 C 
BRANCH  24  25
ATOM     25  C   UNL A   1      42.487  20.094  26.251  1.00  0.00     0.023 C 
BRANCH  25  26
ATOM     26  C   UNL A   1      43.170  21.447  26.091  1.00  0.00     0.116 C 
BRANCH  26  27
ATOM     27  N   UNL A   1      43.823  21.617  24.801  1.00  0.00    -0.352 N 
ATOM     28  C   UNL A   1      44.491  22.721  24.325  1.00  0.00     0.251 C 
ATOM     29  H   UNL A   1      43.782  20.843  24.191  1.00  0.00     0.163 HD
ATOM     30  O   UNL A   1      44.906  22.744  23.170  1.00  0.00    -0.269 OA
BRANCH  28  31
ATOM     31  C   UNL A   1      44.662  23.893  25.209  1.00  0.00     0.039 A 
ATOM     32  C   UNL A   1      43.592  24.775  25.376  1.00  0.00     0.014 A 
ATOM     33  C   UNL A   1      45.856  24.086  25.908  1.00  0.00     0.014 A 
ATOM     34  C   UNL A   1      43.696  25.816  26.302  1.00  0.00     0.010 A 
ATOM     35  C   UNL A   1      45.932  25.080  26.878  1.00  0.00     0.010 A 
ATOM     36  C   UNL A   1      44.853  25.954  27.086  1.00  0.00    -0.014 A 
BRANCH  36  37
ATOM     37  C   UNL A   1      44.951  26.988  28.145  1.00  0.00     0.031 A 
ATOM     38  C   UNL A   1      44.706  26.624  29.583  1.00  0.00     0.074 A 
ATOM     39  C   UNL A   1      45.151  28.276  27.799  1.00  0.00     0.049 A 
ATOM     40  N   UNL A   1      44.678  27.400  30.636  1.00  0.00    -0.248 NA
ATOM     41  C   UNL A   1      44.428  25.208  29.874  1.00  0.00     0.031 C 
ATOM     42  C   UNL A   1      45.309  28.768  26.429  1.00  0.00     0.029 A 
ATOM     43  N   UNL A   1      45.224  29.410  28.569  1.00  0.00    -0.354 N 
ATOM     44  C   UNL A   1      44.339  26.578  31.703  1.00  0.00     0.074 A 
ATOM     45  C   UNL A   1      44.142  25.249  31.167  1.00  0.00     0.031 C 
ATOM     46  C   UNL A   1      45.459  30.102  26.455  1.00  0.00     0.029 A 
ATOM     47  C   UNL A   1      45.386  30.565  27.839  1.00  0.00     0.049 A 
ATOM     48  H   UNL A   1      45.167  29.398  29.552  1.00  0.00     0.167 HD
ATOM     49  C   UNL A   1      44.233  26.892  33.015  1.00  0.00     0.034 A 
ATOM     50  C   UNL A   1      45.465  31.849  28.237  1.00  0.00     0.034 A 
ATOM     51  C   UNL A   1      44.485  28.202  33.551  1.00  0.00     0.049 A 
ATOM     52  C   UNL A   1      45.411  32.163  29.707  1.00  0.00     0.074 A 
ATOM     53  C   UNL A   1      44.507  28.601  34.877  1.00  0.00     0.029 A 
ATOM     54  N   UNL A   1      44.758  29.329  32.791  1.00  0.00    -0.354 N 
ATOM     55  N   UNL A   1      45.263  31.343  30.720  1.00  0.00    -0.248 NA
ATOM     56  C   UNL A   1      45.572  33.571  30.095  1.00  0.00     0.031 C 
ATOM     57  C   UNL A   1      44.780  29.972  34.916  1.00  0.00     0.029 A 
ATOM     58  C   UNL A   1      44.944  30.424  33.617  1.00  0.00     0.049 A 
ATOM     59  H   UNL A   1      44.811  29.347  31.808  1.00  0.00     0.167 HD
ATOM     60  C   UNL A   1      45.352  32.128  31.863  1.00  0.00     0.074 A 
ATOM     61  C   UNL A   1      45.583  33.487  31.419  1.00  0.00     0.031 C 
ATOM     62  C   UNL A   1      45.235  31.760  33.162  1.00  0.00     0.034 A 
BRANCH  49  63
ATOM     63  C   UNL A   1      43.890  25.783  33.974  1.00  0.00     0.023 A 
ATOM     64  C   UNL A   1      42.569  25.663  34.450  1.00  0.00     0.012 A 
ATOM     65  C   UNL A   1      44.854  24.832  34.363  1.00  0.00     0.148 A 
ATOM     66  C   UNL A   1      42.219  24.636  35.326  1.00  0.00     0.002 A 
ATOM     67  C   UNL A   1      44.487  23.786  35.203  1.00  0.00     0.091 A 
ATOM     68  F   UNL A   1      46.111  24.975  33.920  1.00  0.00    -0.205 F 
ATOM     69  C   UNL A   1      43.174  23.693  35.694  1.00  0.00     0.022 A 
BRANCH  67  70
ATOM     70  S   UNL A   1      45.627  22.479  35.673  1.00  0.00     0.127 S 
ATOM     71  O   UNL A   1      45.686  22.648  37.124  1.00  0.00    -0.237 OA
ATOM     72  O   UNL A   1      44.920  21.277  35.228  1.00  0.00    -0.237 OA
ATOM     73  O   UNL A   1      46.864  22.753  34.957  1.00  0.00    -0.744 OA
ENDBRANCH  67  70
ENDBRANCH  49  63
BRANCH  50  74
ATOM     74  C   UNL A   1      45.686  32.926  27.230  1.00  0.00     0.023 A 
ATOM     75  C   UNL A   1      44.585  33.440  26.519  1.00  0.00     0.012 A 
ATOM     76  C   UNL A   1      46.966  33.470  27.003  1.00  0.00     0.148 A 
ATOM     77  C   UNL A   1      44.756  34.455  25.578  1.00  0.00     0.002 A 
ATOM     78  C   UNL A   1      47.121  34.518  26.105  1.00  0.00     0.091 A 
ATOM     79  F   UNL A   1      48.002  32.959  27.682  1.00  0.00    -0.205 F 
ATOM     80  C   UNL A   1      46.022  35.002  25.379  1.00  0.00     0.022 A 
BRANCH  78  81
ATOM     81  S   UNL A   1      48.687  35.371  25.884  1.00  0.00     0.127 S 
ATOM     82  O   UNL A   1      48.256  36.648  25.321  1.00  0.00    -0.237 OA
ATOM     83  O   UNL A   1      49.191  35.441  27.256  1.00  0.00    -0.237 OA
ATOM     84  O   UNL A   1      49.473  34.520  25.001  1.00  0.00    -0.744 OA
ENDBRANCH  78  81
ENDBRANCH  50  74
BRANCH  62  85
ATOM     85  C   UNL A   1      45.390  32.830  34.210  1.00  0.00     0.023 A 
ATOM     86  C   UNL A   1      46.669  33.128  34.721  1.00  0.00     0.012 A 
ATOM     87  C   UNL A   1      44.283  33.599  34.622  1.00  0.00     0.148 A 
ATOM     88  C   UNL A   1      46.839  34.156  35.647  1.00  0.00     0.002 A 
ATOM     89  C   UNL A   1      44.468  34.651  35.511  1.00  0.00     0.091 A 
ATOM     90  F   UNL A   1      43.072  33.286  34.140  1.00  0.00    -0.205 F 
ATOM     91  C   UNL A   1      45.743  34.925  36.031  1.00  0.00     0.022 A 
BRANCH  89  92
ATOM     92  S   UNL A   1      43.130  35.752  35.986  1.00  0.00     0.127 S 
ATOM     93  O   UNL A   1      42.544  35.038  37.117  1.00  0.00    -0.237 OA
ATOM     94  O   UNL A   1      43.845  36.978  36.341  1.00  0.00    -0.237 OA
ATOM     95  O   UNL A   1      42.277  35.873  34.810  1.00  0.00    -0.744 OA
ENDBRANCH  89  92
ENDBRANCH  62  85
ENDBRANCH  36  37
ENDBRANCH  28  31
ENDBRANCH  26  27
ENDBRANCH  25  26
ENDBRANCH  24  25
ENDBRANCH   1  24
TORSDOF 21
ENDMDL
