MODEL 1
REMARK VINA RESULT:     -12.0      0.000      0.000
REMARK SMILES C[C@@H](C(=O)NCCCCNC(=O)c1ccc(-c2c3nc(c(-c4cccc(S(=O)(=O)[O-])c4F)c4ccc([nH]4)c(-c4cccc(S(=O)(=O)[O-])c4F)c4nc(c(-c5cccc(S(=O)(=O)[O-])c5F)c5ccc2[nH]5)C=C4)C=C3)cc1)c1ccc(Cc2ccsc2)cc1F
REMARK SMILES IDX 7 1 6 2 5 3 3 4 4 5 2 7 1 8 76 9 77 10 87 11 78 12 86 13
REMARK SMILES IDX 88 14 79 15 80 16 81 17 82 18 85 19 83 20 84 21 8 22 9 23
REMARK SMILES IDX 10 24 11 25 12 27 13 28 14 29 75 30 15 31 74 32 16 33 17 34
REMARK SMILES IDX 18 35 68 36 19 37 73 38 67 39 69 40 20 41 72 42 66 43 65 44
REMARK SMILES IDX 21 46 53 47 33 48 52 49 34 50 37 51 51 52 70 53 35 54 36 55
REMARK SMILES IDX 50 57 71 58 38 59 22 60 23 61 31 62 24 63 26 64 32 65 25 66
REMARK SMILES IDX 27 67 28 68 29 69 30 70 54 71 55 72 63 73 56 74 58 75 64 76
REMARK SMILES IDX 57 77 59 78 60 79 61 80 62 81 39 82 40 83 48 84 41 85 43 86
REMARK SMILES IDX 49 87 42 88 44 89 45 90 46 91 47 92
REMARK H PARENT 5 6 10 26 69 45 37 56
REMARK Flexibility Score: inf
ROOT
ATOM      1  C   UNL A   1      31.713  27.839  26.701  1.00  0.00     0.023 C 
ENDROOT
BRANCH   1   2
ATOM      2  C   UNL A   1      32.930  27.402  25.883  1.00  0.00     0.116 C 
BRANCH   2   3
ATOM      3  N   UNL A   1      33.024  25.958  25.813  1.00  0.00    -0.356 N 
ATOM      4  C   UNL A   1      32.778  25.106  24.775  1.00  0.00     0.227 C 
ATOM      5  O   UNL A   1      32.841  23.899  25.019  1.00  0.00    -0.274 OA
ATOM      6  H   UNL A   1      33.311  25.521  26.647  1.00  0.00     0.163 HD
BRANCH   4   7
ATOM      7  C   UNL A   1      32.502  25.656  23.360  1.00  0.00     0.108 C 
ATOM      8  C   UNL A   1      33.725  26.391  22.806  1.00  0.00     0.023 C 
BRANCH   7   9
ATOM      9  C   UNL A   1      31.211  26.476  23.333  1.00  0.00    -0.000 A 
ATOM     10  C   UNL A   1      31.201  27.689  22.621  1.00  0.00     0.008 A 
ATOM     11  C   UNL A   1      30.011  26.074  23.930  1.00  0.00     0.127 A 
ATOM     12  C   UNL A   1      30.033  28.452  22.507  1.00  0.00     0.004 A 
ATOM     13  C   UNL A   1      28.851  26.848  23.847  1.00  0.00     0.043 A 
ATOM     14  F   UNL A   1      29.924  24.918  24.602  1.00  0.00    -0.207 F 
ATOM     15  C   UNL A   1      28.842  28.045  23.125  1.00  0.00    -0.041 A 
BRANCH  15  16
ATOM     16  C   UNL A   1      27.566  28.832  22.960  1.00  0.00     0.072 C 
BRANCH  16  17
ATOM     17  C   UNL A   1      27.947  30.244  22.617  1.00  0.00    -0.033 A 
ATOM     18  C   UNL A   1      27.991  30.786  21.286  1.00  0.00     0.015 A 
ATOM     19  C   UNL A   1      28.241  31.229  23.545  1.00  0.00     0.068 A 
ATOM     20  C   UNL A   1      28.338  32.118  21.259  1.00  0.00     0.065 A 
ATOM     21  S   UNL A   1      28.584  32.744  22.827  1.00  0.00    -0.152 S 
ENDBRANCH  16  17
ENDBRANCH  15  16
ENDBRANCH   7   9
ENDBRANCH   4   7
ENDBRANCH   2   3
ENDBRANCH   1   2
BRANCH   1  22
ATOM     22  C   UNL A   1      31.755  29.290  27.189  1.00  0.00     0.023 C 
BRANCH  22  23
ATOM     23  C   UNL A   1      32.436  30.274  26.246  1.00  0.00     0.116 C 
BRANCH  23  24
ATOM     24  N   UNL A   1      32.154  31.666  26.572  1.00  0.00    -0.352 N 
ATOM     25  C   UNL A   1      32.904  32.537  27.325  1.00  0.00     0.251 C 
ATOM     26  H   UNL A   1      31.316  32.030  26.203  1.00  0.00     0.163 HD
ATOM     27  O   UNL A   1      32.469  33.651  27.602  1.00  0.00    -0.269 OA
BRANCH  25  28
ATOM     28  C   UNL A   1      34.225  32.105  27.828  1.00  0.00     0.039 A 
ATOM     29  C   UNL A   1      35.253  33.045  27.931  1.00  0.00     0.014 A 
ATOM     30  C   UNL A   1      34.428  30.785  28.241  1.00  0.00     0.014 A 
ATOM     31  C   UNL A   1      36.466  32.680  28.519  1.00  0.00     0.010 A 
ATOM     32  C   UNL A   1      35.610  30.442  28.885  1.00  0.00     0.010 A 
ATOM     33  C   UNL A   1      36.640  31.385  29.034  1.00  0.00    -0.014 A 
BRANCH  33  34
ATOM     34  C   UNL A   1      37.875  30.991  29.757  1.00  0.00     0.031 A 
ATOM     35  C   UNL A   1      38.805  29.973  29.158  1.00  0.00     0.074 A 
ATOM     36  C   UNL A   1      38.087  31.444  31.009  1.00  0.00     0.049 A 
ATOM     37  N   UNL A   1      39.858  29.406  29.685  1.00  0.00    -0.248 NA
ATOM     38  C   UNL A   1      38.487  29.504  27.799  1.00  0.00     0.031 C 
ATOM     39  C   UNL A   1      37.207  32.363  31.735  1.00  0.00     0.029 A 
ATOM     40  N   UNL A   1      39.082  31.156  31.909  1.00  0.00    -0.354 N 
ATOM     41  C   UNL A   1      40.300  28.481  28.749  1.00  0.00     0.074 A 
ATOM     42  C   UNL A   1      39.385  28.545  27.628  1.00  0.00     0.031 C 
ATOM     43  C   UNL A   1      37.691  32.548  32.974  1.00  0.00     0.029 A 
ATOM     44  C   UNL A   1      38.896  31.742  33.141  1.00  0.00     0.049 A 
ATOM     45  H   UNL A   1      39.854  30.584  31.695  1.00  0.00     0.167 HD
ATOM     46  C   UNL A   1      41.381  27.670  28.803  1.00  0.00     0.034 A 
ATOM     47  C   UNL A   1      39.605  31.628  34.282  1.00  0.00     0.034 A 
ATOM     48  C   UNL A   1      42.320  27.654  29.892  1.00  0.00     0.049 A 
ATOM     49  C   UNL A   1      40.843  30.774  34.294  1.00  0.00     0.074 A 
ATOM     50  C   UNL A   1      43.513  26.961  29.988  1.00  0.00     0.029 A 
ATOM     51  N   UNL A   1      42.168  28.359  31.076  1.00  0.00    -0.354 N 
ATOM     52  N   UNL A   1      41.349  30.046  33.329  1.00  0.00    -0.248 NA
ATOM     53  C   UNL A   1      41.629  30.754  35.537  1.00  0.00     0.031 C 
ATOM     54  C   UNL A   1      44.076  27.234  31.239  1.00  0.00     0.029 A 
ATOM     55  C   UNL A   1      43.241  28.109  31.915  1.00  0.00     0.049 A 
ATOM     56  H   UNL A   1      41.410  28.949  31.289  1.00  0.00     0.167 HD
ATOM     57  C   UNL A   1      42.526  29.506  33.834  1.00  0.00     0.074 A 
ATOM     58  C   UNL A   1      42.668  30.005  35.186  1.00  0.00     0.031 C 
ATOM     59  C   UNL A   1      43.401  28.660  33.236  1.00  0.00     0.034 A 
BRANCH  46  60
ATOM     60  C   UNL A   1      41.642  26.772  27.623  1.00  0.00     0.023 A 
ATOM     61  C   UNL A   1      42.244  27.306  26.464  1.00  0.00     0.012 A 
ATOM     62  C   UNL A   1      41.336  25.398  27.671  1.00  0.00     0.148 A 
ATOM     63  C   UNL A   1      42.502  26.496  25.361  1.00  0.00     0.002 A 
ATOM     64  C   UNL A   1      41.635  24.589  26.582  1.00  0.00     0.091 A 
ATOM     65  F   UNL A   1      40.740  24.912  28.770  1.00  0.00    -0.205 F 
ATOM     66  C   UNL A   1      42.208  25.137  25.423  1.00  0.00     0.022 A 
BRANCH  64  67
ATOM     67  S   UNL A   1      41.363  22.813  26.601  1.00  0.00     0.127 S 
ATOM     68  O   UNL A   1      42.114  22.386  25.423  1.00  0.00    -0.237 OA
ATOM     69  O   UNL A   1      41.958  22.419  27.879  1.00  0.00    -0.237 OA
ATOM     70  O   UNL A   1      39.920  22.634  26.529  1.00  0.00    -0.744 OA
ENDBRANCH  64  67
ENDBRANCH  46  60
BRANCH  47  71
ATOM     71  C   UNL A   1      39.188  32.400  35.486  1.00  0.00     0.023 A 
ATOM     72  C   UNL A   1      38.348  31.794  36.439  1.00  0.00     0.012 A 
ATOM     73  C   UNL A   1      39.664  33.706  35.720  1.00  0.00     0.148 A 
ATOM     74  C   UNL A   1      37.971  32.480  37.593  1.00  0.00     0.002 A 
ATOM     75  C   UNL A   1      39.328  34.363  36.898  1.00  0.00     0.091 A 
ATOM     76  F   UNL A   1      40.453  34.269  34.794  1.00  0.00    -0.205 F 
ATOM     77  C   UNL A   1      38.469  33.759  37.829  1.00  0.00     0.022 A 
BRANCH  75  78
ATOM     78  S   UNL A   1      40.033  35.954  37.347  1.00  0.00     0.127 S 
ATOM     79  O   UNL A   1      41.443  35.616  37.524  1.00  0.00    -0.237 OA
ATOM     80  O   UNL A   1      39.736  36.761  36.164  1.00  0.00    -0.237 OA
ATOM     81  O   UNL A   1      39.325  36.370  38.550  1.00  0.00    -0.744 OA
ENDBRANCH  75  78
ENDBRANCH  47  71
BRANCH  59  82
ATOM     82  C   UNL A   1      44.615  28.232  34.018  1.00  0.00     0.023 A 
ATOM     83  C   UNL A   1      45.784  29.017  33.975  1.00  0.00     0.012 A 
ATOM     84  C   UNL A   1      44.560  27.115  34.875  1.00  0.00     0.148 A 
ATOM     85  C   UNL A   1      46.886  28.686  34.761  1.00  0.00     0.002 A 
ATOM     86  C   UNL A   1      45.645  26.818  35.689  1.00  0.00     0.091 A 
ATOM     87  F   UNL A   1      43.444  26.372  34.886  1.00  0.00    -0.205 F 
ATOM     88  C   UNL A   1      46.813  27.597  35.627  1.00  0.00     0.022 A 
BRANCH  86  89
ATOM     89  S   UNL A   1      45.608  25.493  36.902  1.00  0.00     0.127 S 
ATOM     90  O   UNL A   1      47.026  25.339  37.219  1.00  0.00    -0.237 OA
ATOM     91  O   UNL A   1      44.801  26.077  37.975  1.00  0.00    -0.237 OA
ATOM     92  O   UNL A   1      44.990  24.354  36.234  1.00  0.00    -0.744 OA
ENDBRANCH  86  89
ENDBRANCH  59  82
ENDBRANCH  33  34
ENDBRANCH  25  28
ENDBRANCH  23  24
ENDBRANCH  22  23
ENDBRANCH   1  22
TORSDOF 17
ENDMDL
MODEL 2
REMARK VINA RESULT:     -12.0      3.055      9.044
REMARK SMILES C[C@@H](C(=O)NCCCCNC(=O)c1ccc(-c2c3nc(c(-c4cccc(S(=O)(=O)[O-])c4F)c4ccc([nH]4)c(-c4cccc(S(=O)(=O)[O-])c4F)c4nc(c(-c5cccc(S(=O)(=O)[O-])c5F)c5ccc2[nH]5)C=C4)C=C3)cc1)c1ccc(Cc2ccsc2)cc1F
REMARK SMILES IDX 7 1 6 2 5 3 3 4 4 5 2 7 1 8 76 9 77 10 87 11 78 12 86 13
REMARK SMILES IDX 88 14 79 15 80 16 81 17 82 18 85 19 83 20 84 21 8 22 9 23
REMARK SMILES IDX 10 24 11 25 12 27 13 28 14 29 75 30 15 31 74 32 16 33 17 34
REMARK SMILES IDX 18 35 68 36 19 37 73 38 67 39 69 40 20 41 72 42 66 43 65 44
REMARK SMILES IDX 21 46 53 47 33 48 52 49 34 50 37 51 51 52 70 53 35 54 36 55
REMARK SMILES IDX 50 57 71 58 38 59 22 60 23 61 31 62 24 63 26 64 32 65 25 66
REMARK SMILES IDX 27 67 28 68 29 69 30 70 54 71 55 72 63 73 56 74 58 75 64 76
REMARK SMILES IDX 57 77 59 78 60 79 61 80 62 81 39 82 40 83 48 84 41 85 43 86
REMARK SMILES IDX 49 87 42 88 44 89 45 90 46 91 47 92
REMARK H PARENT 5 6 10 26 69 45 37 56
REMARK Flexibility Score: inf
ROOT
ATOM      1  C   UNL A   1      31.485  28.152  26.585  1.00  0.00     0.023 C 
ENDROOT
BRANCH   1   2
ATOM      2  C   UNL A   1      31.375  28.399  25.079  1.00  0.00     0.116 C 
BRANCH   2   3
ATOM      3  N   UNL A   1      30.858  27.234  24.392  1.00  0.00    -0.356 N 
ATOM      4  C   UNL A   1      31.511  26.254  23.699  1.00  0.00     0.227 C 
ATOM      5  O   UNL A   1      30.810  25.421  23.121  1.00  0.00    -0.274 OA
ATOM      6  H   UNL A   1      29.880  27.132  24.429  1.00  0.00     0.163 HD
BRANCH   4   7
ATOM      7  C   UNL A   1      33.052  26.181  23.714  1.00  0.00     0.108 C 
ATOM      8  C   UNL A   1      33.639  26.654  22.381  1.00  0.00     0.023 C 
BRANCH   7   9
ATOM      9  C   UNL A   1      33.532  24.798  24.156  1.00  0.00    -0.000 A 
ATOM     10  C   UNL A   1      34.169  23.974  23.211  1.00  0.00     0.008 A 
ATOM     11  C   UNL A   1      33.425  24.309  25.463  1.00  0.00     0.127 A 
ATOM     12  C   UNL A   1      34.685  22.725  23.571  1.00  0.00     0.004 A 
ATOM     13  C   UNL A   1      33.909  23.048  25.820  1.00  0.00     0.043 A 
ATOM     14  F   UNL A   1      32.858  25.040  26.432  1.00  0.00    -0.207 F 
ATOM     15  C   UNL A   1      34.557  22.240  24.880  1.00  0.00    -0.041 A 
BRANCH  15  16
ATOM     16  C   UNL A   1      35.159  20.920  25.290  1.00  0.00     0.072 C 
BRANCH  16  17
ATOM     17  C   UNL A   1      34.292  19.832  24.723  1.00  0.00    -0.033 A 
ATOM     18  C   UNL A   1      32.946  20.014  24.250  1.00  0.00     0.015 A 
ATOM     19  C   UNL A   1      34.699  18.525  24.518  1.00  0.00     0.068 A 
ATOM     20  C   UNL A   1      32.392  18.858  23.748  1.00  0.00     0.065 A 
ATOM     21  S   UNL A   1      33.487  17.549  23.806  1.00  0.00    -0.152 S 
ENDBRANCH  16  17
ENDBRANCH  15  16
ENDBRANCH   7   9
ENDBRANCH   4   7
ENDBRANCH   2   3
ENDBRANCH   1   2
BRANCH   1  22
ATOM     22  C   UNL A   1      32.843  28.504  27.196  1.00  0.00     0.023 C 
BRANCH  22  23
ATOM     23  C   UNL A   1      33.721  29.419  26.350  1.00  0.00     0.116 C 
BRANCH  23  24
ATOM     24  N   UNL A   1      33.780  30.784  26.858  1.00  0.00    -0.352 N 
ATOM     25  C   UNL A   1      34.699  31.336  27.718  1.00  0.00     0.251 C 
ATOM     26  H   UNL A   1      33.069  31.388  26.544  1.00  0.00     0.163 HD
ATOM     27  O   UNL A   1      34.543  32.478  28.141  1.00  0.00    -0.269 OA
BRANCH  25  28
ATOM     28  C   UNL A   1      35.857  30.530  28.155  1.00  0.00     0.039 A 
ATOM     29  C   UNL A   1      37.072  30.663  27.477  1.00  0.00     0.014 A 
ATOM     30  C   UNL A   1      35.752  29.681  29.260  1.00  0.00     0.014 A 
ATOM     31  C   UNL A   1      38.205  30.001  27.955  1.00  0.00     0.010 A 
ATOM     32  C   UNL A   1      36.893  29.076  29.772  1.00  0.00     0.010 A 
ATOM     33  C   UNL A   1      38.131  29.232  29.128  1.00  0.00    -0.014 A 
BRANCH  33  34
ATOM     34  C   UNL A   1      39.334  28.598  29.724  1.00  0.00     0.031 A 
ATOM     35  C   UNL A   1      39.992  29.216  30.927  1.00  0.00     0.074 A 
ATOM     36  C   UNL A   1      39.912  27.550  29.104  1.00  0.00     0.049 A 
ATOM     37  N   UNL A   1      41.114  28.890  31.512  1.00  0.00    -0.248 NA
ATOM     38  C   UNL A   1      39.315  30.378  31.528  1.00  0.00     0.031 C 
ATOM     39  C   UNL A   1      39.420  26.919  27.877  1.00  0.00     0.029 A 
ATOM     40  N   UNL A   1      41.063  26.861  29.393  1.00  0.00    -0.354 N 
ATOM     41  C   UNL A   1      41.305  29.831  32.516  1.00  0.00     0.074 A 
ATOM     42  C   UNL A   1      40.195  30.756  32.445  1.00  0.00     0.031 C 
ATOM     43  C   UNL A   1      40.273  25.950  27.509  1.00  0.00     0.029 A 
ATOM     44  C   UNL A   1      41.385  25.908  28.454  1.00  0.00     0.049 A 
ATOM     45  H   UNL A   1      41.607  27.033  30.195  1.00  0.00     0.167 HD
ATOM     46  C   UNL A   1      42.300  29.905  33.430  1.00  0.00     0.034 A 
ATOM     47  C   UNL A   1      42.462  25.103  28.354  1.00  0.00     0.034 A 
ATOM     48  C   UNL A   1      43.369  28.948  33.534  1.00  0.00     0.049 A 
ATOM     49  C   UNL A   1      43.519  25.158  29.423  1.00  0.00     0.074 A 
ATOM     50  C   UNL A   1      44.355  28.863  34.501  1.00  0.00     0.029 A 
ATOM     51  N   UNL A   1      43.594  27.915  32.638  1.00  0.00    -0.354 N 
ATOM     52  N   UNL A   1      43.586  25.938  30.474  1.00  0.00    -0.248 NA
ATOM     53  C   UNL A   1      44.629  24.199  29.315  1.00  0.00     0.031 C 
ATOM     54  C   UNL A   1      45.187  27.786  34.179  1.00  0.00     0.029 A 
ATOM     55  C   UNL A   1      44.710  27.192  33.022  1.00  0.00     0.049 A 
ATOM     56  H   UNL A   1      43.042  27.723  31.846  1.00  0.00     0.167 HD
ATOM     57  C   UNL A   1      44.725  25.545  31.169  1.00  0.00     0.074 A 
ATOM     58  C   UNL A   1      45.308  24.446  30.428  1.00  0.00     0.031 C 
ATOM     59  C   UNL A   1      45.247  26.061  32.309  1.00  0.00     0.034 A 
BRANCH  46  60
ATOM     60  C   UNL A   1      42.248  31.028  34.431  1.00  0.00     0.023 A 
ATOM     61  C   UNL A   1      41.648  30.810  35.688  1.00  0.00     0.012 A 
ATOM     62  C   UNL A   1      42.828  32.281  34.150  1.00  0.00     0.148 A 
ATOM     63  C   UNL A   1      41.592  31.831  36.635  1.00  0.00     0.002 A 
ATOM     64  C   UNL A   1      42.805  33.280  35.116  1.00  0.00     0.091 A 
ATOM     65  F   UNL A   1      43.371  32.480  32.940  1.00  0.00    -0.205 F 
ATOM     66  C   UNL A   1      42.179  33.061  36.354  1.00  0.00     0.022 A 
BRANCH  64  67
ATOM     67  S   UNL A   1      43.603  34.871  34.870  1.00  0.00     0.127 S 
ATOM     68  O   UNL A   1      44.985  34.471  34.606  1.00  0.00    -0.237 OA
ATOM     69  O   UNL A   1      42.891  35.403  33.708  1.00  0.00    -0.237 OA
ATOM     70  O   UNL A   1      43.387  35.616  36.102  1.00  0.00    -0.744 OA
ENDBRANCH  64  67
ENDBRANCH  46  60
BRANCH  47  71
ATOM     71  C   UNL A   1      42.552  24.133  27.227  1.00  0.00     0.023 A 
ATOM     72  C   UNL A   1      43.252  24.492  26.060  1.00  0.00     0.012 A 
ATOM     73  C   UNL A   1      42.001  22.840  27.328  1.00  0.00     0.148 A 
ATOM     74  C   UNL A   1      43.383  23.591  25.004  1.00  0.00     0.002 A 
ATOM     75  C   UNL A   1      42.182  21.929  26.294  1.00  0.00     0.091 A 
ATOM     76  F   UNL A   1      41.328  22.522  28.444  1.00  0.00    -0.205 F 
ATOM     77  C   UNL A   1      42.860  22.306  25.125  1.00  0.00     0.022 A 
BRANCH  75  78
ATOM     78  S   UNL A   1      41.662  20.213  26.421  1.00  0.00     0.127 S 
ATOM     79  O   UNL A   1      42.115  19.862  27.764  1.00  0.00    -0.237 OA
ATOM     80  O   UNL A   1      40.212  20.325  26.270  1.00  0.00    -0.237 OA
ATOM     81  O   UNL A   1      42.327  19.521  25.326  1.00  0.00    -0.744 OA
ENDBRANCH  75  78
ENDBRANCH  47  71
BRANCH  59  82
ATOM     82  C   UNL A   1      46.501  25.433  32.857  1.00  0.00     0.023 A 
ATOM     83  C   UNL A   1      47.756  25.976  32.524  1.00  0.00     0.012 A 
ATOM     84  C   UNL A   1      46.426  24.374  33.784  1.00  0.00     0.148 A 
ATOM     85  C   UNL A   1      48.921  25.464  33.092  1.00  0.00     0.002 A 
ATOM     86  C   UNL A   1      47.588  23.899  34.380  1.00  0.00     0.091 A 
ATOM     87  F   UNL A   1      45.222  23.860  34.073  1.00  0.00    -0.205 F 
ATOM     88  C   UNL A   1      48.837  24.437  34.029  1.00  0.00     0.022 A 
BRANCH  86  89
ATOM     89  S   UNL A   1      47.568  22.644  35.666  1.00  0.00     0.127 S 
ATOM     90  O   UNL A   1      48.986  22.541  36.004  1.00  0.00    -0.237 OA
ATOM     91  O   UNL A   1      46.738  23.268  36.698  1.00  0.00    -0.237 OA
ATOM     92  O   UNL A   1      46.983  21.455  35.058  1.00  0.00    -0.744 OA
ENDBRANCH  86  89
ENDBRANCH  59  82
ENDBRANCH  33  34
ENDBRANCH  25  28
ENDBRANCH  23  24
ENDBRANCH  22  23
ENDBRANCH   1  22
TORSDOF 17
ENDMDL
MODEL 3
REMARK VINA RESULT:     -12.0      5.573     10.456
REMARK SMILES C[C@@H](C(=O)NCCCCNC(=O)c1ccc(-c2c3nc(c(-c4cccc(S(=O)(=O)[O-])c4F)c4ccc([nH]4)c(-c4cccc(S(=O)(=O)[O-])c4F)c4nc(c(-c5cccc(S(=O)(=O)[O-])c5F)c5ccc2[nH]5)C=C4)C=C3)cc1)c1ccc(Cc2ccsc2)cc1F
REMARK SMILES IDX 7 1 6 2 5 3 3 4 4 5 2 7 1 8 76 9 77 10 87 11 78 12 86 13
REMARK SMILES IDX 88 14 79 15 80 16 81 17 82 18 85 19 83 20 84 21 8 22 9 23
REMARK SMILES IDX 10 24 11 25 12 27 13 28 14 29 75 30 15 31 74 32 16 33 17 34
REMARK SMILES IDX 18 35 68 36 19 37 73 38 67 39 69 40 20 41 72 42 66 43 65 44
REMARK SMILES IDX 21 46 53 47 33 48 52 49 34 50 37 51 51 52 70 53 35 54 36 55
REMARK SMILES IDX 50 57 71 58 38 59 22 60 23 61 31 62 24 63 26 64 32 65 25 66
REMARK SMILES IDX 27 67 28 68 29 69 30 70 54 71 55 72 63 73 56 74 58 75 64 76
REMARK SMILES IDX 57 77 59 78 60 79 61 80 62 81 39 82 40 83 48 84 41 85 43 86
REMARK SMILES IDX 49 87 42 88 44 89 45 90 46 91 47 92
REMARK H PARENT 5 6 10 26 69 45 37 56
REMARK Flexibility Score: inf
ROOT
ATOM      1  C   UNL A   1      36.348  21.180  25.329  1.00  0.00     0.023 C 
ENDROOT
BRANCH   1   2
ATOM      2  C   UNL A   1      35.727  22.061  24.243  1.00  0.00     0.116 C 
BRANCH   2   3
ATOM      3  N   UNL A   1      34.286  21.915  24.209  1.00  0.00    -0.356 N 
ATOM      4  C   UNL A   1      33.341  22.259  25.133  1.00  0.00     0.227 C 
ATOM      5  O   UNL A   1      32.179  21.927  24.889  1.00  0.00    -0.274 OA
ATOM      6  H   UNL A   1      33.932  21.501  23.389  1.00  0.00     0.163 HD
BRANCH   4   7
ATOM      7  C   UNL A   1      33.729  23.082  26.379  1.00  0.00     0.108 C 
ATOM      8  C   UNL A   1      33.290  22.375  27.665  1.00  0.00     0.023 C 
BRANCH   7   9
ATOM      9  C   UNL A   1      33.239  24.526  26.258  1.00  0.00    -0.000 A 
ATOM     10  C   UNL A   1      34.143  25.505  25.809  1.00  0.00     0.008 A 
ATOM     11  C   UNL A   1      31.927  24.936  26.517  1.00  0.00     0.127 A 
ATOM     12  C   UNL A   1      33.738  26.830  25.618  1.00  0.00     0.004 A 
ATOM     13  C   UNL A   1      31.525  26.265  26.360  1.00  0.00     0.043 A 
ATOM     14  F   UNL A   1      30.994  24.063  26.921  1.00  0.00    -0.207 F 
ATOM     15  C   UNL A   1      32.424  27.232  25.897  1.00  0.00    -0.041 A 
BRANCH  15  16
ATOM     16  C   UNL A   1      31.965  28.645  25.640  1.00  0.00     0.072 C 
BRANCH  16  17
ATOM     17  C   UNL A   1      31.206  28.645  24.344  1.00  0.00    -0.033 A 
ATOM     18  C   UNL A   1      31.250  27.593  23.364  1.00  0.00     0.015 A 
ATOM     19  C   UNL A   1      30.312  29.627  23.952  1.00  0.00     0.068 A 
ATOM     20  C   UNL A   1      30.431  27.831  22.283  1.00  0.00     0.065 A 
ATOM     21  S   UNL A   1      29.576  29.299  22.443  1.00  0.00    -0.152 S 
ENDBRANCH  16  17
ENDBRANCH  15  16
ENDBRANCH   7   9
ENDBRANCH   4   7
ENDBRANCH   2   3
ENDBRANCH   1   2
BRANCH   1  22
ATOM     22  C   UNL A   1      37.631  20.456  24.912  1.00  0.00     0.023 C 
BRANCH  22  23
ATOM     23  C   UNL A   1      38.848  20.731  25.787  1.00  0.00     0.116 C 
BRANCH  23  24
ATOM     24  N   UNL A   1      39.774  19.607  25.847  1.00  0.00    -0.352 N 
ATOM     25  C   UNL A   1      41.129  19.627  26.074  1.00  0.00     0.251 C 
ATOM     26  H   UNL A   1      39.375  18.717  25.707  1.00  0.00     0.163 HD
ATOM     27  O   UNL A   1      41.788  18.596  25.981  1.00  0.00    -0.269 OA
BRANCH  25  28
ATOM     28  C   UNL A   1      41.789  20.909  26.396  1.00  0.00     0.039 A 
ATOM     29  C   UNL A   1      42.097  21.794  25.359  1.00  0.00     0.014 A 
ATOM     30  C   UNL A   1      42.057  21.253  27.724  1.00  0.00     0.014 A 
ATOM     31  C   UNL A   1      42.608  23.058  25.661  1.00  0.00     0.010 A 
ATOM     32  C   UNL A   1      42.502  22.534  28.025  1.00  0.00     0.010 A 
ATOM     33  C   UNL A   1      42.779  23.451  26.998  1.00  0.00    -0.014 A 
BRANCH  33  34
ATOM     34  C   UNL A   1      43.220  24.822  27.360  1.00  0.00     0.031 A 
ATOM     35  C   UNL A   1      42.255  25.775  28.008  1.00  0.00     0.074 A 
ATOM     36  C   UNL A   1      44.441  25.250  26.982  1.00  0.00     0.049 A 
ATOM     37  N   UNL A   1      42.408  27.044  28.282  1.00  0.00    -0.248 NA
ATOM     38  C   UNL A   1      40.930  25.239  28.361  1.00  0.00     0.031 C 
ATOM     39  C   UNL A   1      45.433  24.446  26.265  1.00  0.00     0.029 A 
ATOM     40  N   UNL A   1      45.037  26.480  27.108  1.00  0.00    -0.354 N 
ATOM     41  C   UNL A   1      41.189  27.472  28.792  1.00  0.00     0.074 A 
ATOM     42  C   UNL A   1      40.297  26.331  28.768  1.00  0.00     0.031 C 
ATOM     43  C   UNL A   1      46.505  25.209  25.996  1.00  0.00     0.029 A 
ATOM     44  C   UNL A   1      46.268  26.560  26.496  1.00  0.00     0.049 A 
ATOM     45  H   UNL A   1      44.624  27.233  27.588  1.00  0.00     0.167 HD
ATOM     46  C   UNL A   1      40.848  28.694  29.262  1.00  0.00     0.034 A 
ATOM     47  C   UNL A   1      47.102  27.607  26.339  1.00  0.00     0.034 A 
ATOM     48  C   UNL A   1      41.755  29.806  29.341  1.00  0.00     0.049 A 
ATOM     49  C   UNL A   1      46.729  28.937  26.933  1.00  0.00     0.074 A 
ATOM     50  C   UNL A   1      41.545  31.048  29.914  1.00  0.00     0.029 A 
ATOM     51  N   UNL A   1      43.042  29.814  28.825  1.00  0.00    -0.354 N 
ATOM     52  N   UNL A   1      45.639  29.273  27.579  1.00  0.00    -0.248 NA
ATOM     53  C   UNL A   1      47.713  30.024  26.810  1.00  0.00     0.031 C 
ATOM     54  C   UNL A   1      42.702  31.813  29.730  1.00  0.00     0.029 A 
ATOM     55  C   UNL A   1      43.636  31.043  29.056  1.00  0.00     0.049 A 
ATOM     56  H   UNL A   1      43.470  29.058  28.362  1.00  0.00     0.167 HD
ATOM     57  C   UNL A   1      45.818  30.596  27.967  1.00  0.00     0.074 A 
ATOM     58  C   UNL A   1      47.128  30.996  27.498  1.00  0.00     0.031 C 
ATOM     59  C   UNL A   1      44.965  31.409  28.637  1.00  0.00     0.034 A 
BRANCH  46  60
ATOM     60  C   UNL A   1      39.448  28.876  29.785  1.00  0.00     0.023 A 
ATOM     61  C   UNL A   1      39.135  28.451  31.093  1.00  0.00     0.012 A 
ATOM     62  C   UNL A   1      38.456  29.504  29.007  1.00  0.00     0.148 A 
ATOM     63  C   UNL A   1      37.849  28.614  31.604  1.00  0.00     0.002 A 
ATOM     64  C   UNL A   1      37.188  29.701  29.539  1.00  0.00     0.091 A 
ATOM     65  F   UNL A   1      38.764  29.878  27.756  1.00  0.00    -0.205 F 
ATOM     66  C   UNL A   1      36.879  29.248  30.833  1.00  0.00     0.022 A 
BRANCH  64  67
ATOM     67  S   UNL A   1      35.897  30.576  28.647  1.00  0.00     0.127 S 
ATOM     68  O   UNL A   1      35.081  29.470  28.149  1.00  0.00    -0.237 OA
ATOM     69  O   UNL A   1      35.268  31.369  29.704  1.00  0.00    -0.237 OA
ATOM     70  O   UNL A   1      36.582  31.363  27.631  1.00  0.00    -0.744 OA
ENDBRANCH  64  67
ENDBRANCH  46  60
BRANCH  47  71
ATOM     71  C   UNL A   1      48.403  27.410  25.640  1.00  0.00     0.023 A 
ATOM     72  C   UNL A   1      49.529  26.999  26.379  1.00  0.00     0.012 A 
ATOM     73  C   UNL A   1      48.516  27.569  24.245  1.00  0.00     0.148 A 
ATOM     74  C   UNL A   1      50.751  26.772  25.745  1.00  0.00     0.002 A 
ATOM     75  C   UNL A   1      49.723  27.289  23.613  1.00  0.00     0.091 A 
ATOM     76  F   UNL A   1      47.435  27.972  23.562  1.00  0.00    -0.205 F 
ATOM     77  C   UNL A   1      50.845  26.905  24.362  1.00  0.00     0.022 A 
BRANCH  75  78
ATOM     78  S   UNL A   1      49.897  27.300  21.824  1.00  0.00     0.127 S 
ATOM     79  O   UNL A   1      51.254  26.787  21.653  1.00  0.00    -0.237 OA
ATOM     80  O   UNL A   1      48.835  26.383  21.411  1.00  0.00    -0.237 OA
ATOM     81  O   UNL A   1      49.686  28.682  21.419  1.00  0.00    -0.744 OA
ENDBRANCH  75  78
ENDBRANCH  47  71
BRANCH  59  82
ATOM     82  C   UNL A   1      45.419  32.813  28.939  1.00  0.00     0.023 A 
ATOM     83  C   UNL A   1      46.145  33.072  30.118  1.00  0.00     0.012 A 
ATOM     84  C   UNL A   1      45.219  33.849  28.005  1.00  0.00     0.148 A 
ATOM     85  C   UNL A   1      46.651  34.346  30.370  1.00  0.00     0.002 A 
ATOM     86  C   UNL A   1      45.765  35.104  28.242  1.00  0.00     0.091 A 
ATOM     87  F   UNL A   1      44.509  33.584  26.899  1.00  0.00    -0.205 F 
ATOM     88  C   UNL A   1      46.474  35.357  29.428  1.00  0.00     0.022 A 
BRANCH  86  89
ATOM     89  S   UNL A   1      45.668  36.440  27.045  1.00  0.00     0.127 S 
ATOM     90  O   UNL A   1      46.323  35.846  25.881  1.00  0.00    -0.237 OA
ATOM     91  O   UNL A   1      44.224  36.627  26.903  1.00  0.00    -0.237 OA
ATOM     92  O   UNL A   1      46.367  37.569  27.646  1.00  0.00    -0.744 OA
ENDBRANCH  86  89
ENDBRANCH  59  82
ENDBRANCH  33  34
ENDBRANCH  25  28
ENDBRANCH  23  24
ENDBRANCH  22  23
ENDBRANCH   1  22
TORSDOF 17
ENDMDL
