MODEL 1
REMARK VINA RESULT:     -13.0      0.000      0.000
REMARK SMILES CC(C)C[C@H](NC(=O)[C@H]1N2C(=O)c3ccccc3[C@@H]2SC1(C)C)C(=O)N[C@@H](C)C(=O)NCCCCNC(=O)c1ccc(-c2c3nc(c(-c4cccc(S(=O)(=O)[O-])c4F)c4ccc([nH]4)c(-c4cccc(S(=O)(=O)[O-])c4F)c4nc(c(-c5cccc(S(=O)(=O)[O-])c5F)c5ccc2[nH]5)C=C4)C=C3)cc1
REMARK SMILES IDX 33 1 32 2 31 3 29 4 30 5 27 7 28 8 26 9 24 10 25 11 5 13
REMARK SMILES IDX 4 14 2 15 1 16 3 17 6 18 7 19 8 21 9 22 10 23 21 24 11 25
REMARK SMILES IDX 19 26 20 27 22 28 23 29 12 30 13 31 18 32 14 33 17 34 15 35
REMARK SMILES IDX 16 36 34 37 35 38 36 39 37 40 38 42 39 43 40 44 101 45 41 46
REMARK SMILES IDX 100 47 42 48 43 49 44 50 94 51 45 52 99 53 93 54 95 55 46 56
REMARK SMILES IDX 98 57 92 58 91 59 47 61 79 62 59 63 78 64 60 65 63 66 77 67
REMARK SMILES IDX 96 68 61 69 62 70 76 72 97 73 64 74 48 75 49 76 57 77 50 78
REMARK SMILES IDX 52 79 58 80 51 81 53 82 54 83 55 84 56 85 80 86 81 87 89 88
REMARK SMILES IDX 82 89 84 90 90 91 83 92 85 93 86 94 87 95 88 96 65 97 66 98
REMARK SMILES IDX 74 99 67 100 69 101 75 102 68 103 70 104 71 105 72 106
REMARK SMILES IDX 73 107
REMARK H PARENT 31 6 26 12 6 20 36 41 95 60 63 71
REMARK Flexibility Score: inf
ROOT
ATOM      1  C   UNL A   1      31.599  30.974  26.224  1.00  0.00     0.023 C 
ENDROOT
BRANCH   1   2
ATOM      2  C   UNL A   1      31.634  29.655  25.457  1.00  0.00     0.116 C 
BRANCH   2   3
ATOM      3  N   UNL A   1      30.992  29.741  24.158  1.00  0.00    -0.354 N 
ATOM      4  C   UNL A   1      31.211  29.062  22.995  1.00  0.00     0.242 C 
ATOM      5  O   UNL A   1      30.396  29.222  22.081  1.00  0.00    -0.273 OA
ATOM      6  H   UNL A   1      30.269  30.408  24.108  1.00  0.00     0.163 HD
BRANCH   4   7
ATOM      7  C   UNL A   1      32.366  28.048  22.829  1.00  0.00     0.168 C 
ATOM      8  C   UNL A   1      33.722  28.743  22.842  1.00  0.00     0.041 C 
BRANCH   7   9
ATOM      9  N   UNL A   1      32.188  27.230  21.636  1.00  0.00    -0.343 N 
ATOM     10  C   UNL A   1      32.009  25.895  21.488  1.00  0.00     0.243 C 
ATOM     11  O   UNL A   1      31.778  25.504  20.336  1.00  0.00    -0.273 OA
ATOM     12  H   UNL A   1      32.199  27.734  20.791  1.00  0.00     0.164 HD
BRANCH  10  13
ATOM     13  C   UNL A   1      32.223  24.857  22.611  1.00  0.00     0.171 C 
BRANCH  13  14
ATOM     14  C   UNL A   1      32.075  25.280  24.084  1.00  0.00     0.038 C 
BRANCH  14  15
ATOM     15  C   UNL A   1      30.724  24.878  24.734  1.00  0.00    -0.015 C 
ATOM     16  C   UNL A   1      30.863  24.458  26.210  1.00  0.00     0.007 C 
ATOM     17  C   UNL A   1      29.741  26.047  24.655  1.00  0.00     0.007 C 
ENDBRANCH  14  15
ENDBRANCH  13  14
BRANCH  13  18
ATOM     18  N   UNL A   1      33.438  24.080  22.405  1.00  0.00    -0.342 N 
ATOM     19  C   UNL A   1      34.305  23.438  23.222  1.00  0.00     0.244 C 
ATOM     20  H   UNL A   1      33.687  24.008  21.455  1.00  0.00     0.164 HD
ATOM     21  O   UNL A   1      35.364  23.159  22.629  1.00  0.00    -0.273 OA
BRANCH  19  22
ATOM     22  C   UNL A   1      34.079  22.882  24.684  1.00  0.00     0.191 C 
ATOM     23  N   UNL A   1      33.766  21.444  24.457  1.00  0.00    -0.309 N 
ATOM     24  C   UNL A   1      35.050  22.786  25.911  1.00  0.00     0.042 C 
ATOM     25  C   UNL A   1      32.625  20.745  24.813  1.00  0.00     0.256 C 
ATOM     26  C   UNL A   1      34.916  20.597  24.356  1.00  0.00     0.176 C 
ATOM     27  S   UNL A   1      35.915  21.142  25.756  1.00  0.00    -0.123 SA
ATOM     28  C   UNL A   1      36.215  23.719  26.145  1.00  0.00     0.026 C 
ATOM     29  C   UNL A   1      34.205  22.835  27.203  1.00  0.00     0.026 C 
ATOM     30  O   UNL A   1      31.541  21.178  25.127  1.00  0.00    -0.269 OA
ATOM     31  C   UNL A   1      33.021  19.315  24.872  1.00  0.00     0.046 A 
ATOM     32  C   UNL A   1      34.377  19.232  24.560  1.00  0.00    -0.002 A 
ATOM     33  C   UNL A   1      32.311  18.207  25.291  1.00  0.00     0.014 A 
ATOM     34  C   UNL A   1      35.054  18.022  24.582  1.00  0.00     0.007 A 
ATOM     35  C   UNL A   1      32.996  16.985  25.358  1.00  0.00     0.001 A 
ATOM     36  C   UNL A   1      34.351  16.890  24.991  1.00  0.00     0.000 A 
ENDBRANCH  19  22
ENDBRANCH  13  18
ENDBRANCH  10  13
ENDBRANCH   7   9
ENDBRANCH   4   7
ENDBRANCH   2   3
ENDBRANCH   1   2
BRANCH   1  37
ATOM     37  C   UNL A   1      32.575  31.075  27.398  1.00  0.00     0.023 C 
BRANCH  37  38
ATOM     38  C   UNL A   1      33.528  32.266  27.368  1.00  0.00     0.116 C 
BRANCH  38  39
ATOM     39  N   UNL A   1      32.902  33.545  27.670  1.00  0.00    -0.352 N 
ATOM     40  C   UNL A   1      33.264  34.459  28.639  1.00  0.00     0.251 C 
ATOM     41  H   UNL A   1      32.125  33.788  27.116  1.00  0.00     0.163 HD
ATOM     42  O   UNL A   1      32.593  35.469  28.818  1.00  0.00    -0.269 OA
BRANCH  40  43
ATOM     43  C   UNL A   1      34.438  34.167  29.491  1.00  0.00     0.039 A 
ATOM     44  C   UNL A   1      35.714  34.555  29.083  1.00  0.00     0.014 A 
ATOM     45  C   UNL A   1      34.269  33.417  30.657  1.00  0.00     0.014 A 
ATOM     46  C   UNL A   1      36.827  34.027  29.724  1.00  0.00     0.010 A 
ATOM     47  C   UNL A   1      35.393  32.963  31.356  1.00  0.00     0.010 A 
ATOM     48  C   UNL A   1      36.681  33.211  30.860  1.00  0.00    -0.014 A 
BRANCH  48  49
ATOM     49  C   UNL A   1      37.898  32.625  31.484  1.00  0.00     0.031 A 
ATOM     50  C   UNL A   1      38.378  33.080  32.837  1.00  0.00     0.074 A 
ATOM     51  C   UNL A   1      38.530  31.616  30.854  1.00  0.00     0.049 A 
ATOM     52  N   UNL A   1      39.368  32.610  33.555  1.00  0.00    -0.248 NA
ATOM     53  C   UNL A   1      37.667  34.202  33.471  1.00  0.00     0.031 C 
ATOM     54  C   UNL A   1      38.180  31.105  29.528  1.00  0.00     0.029 A 
ATOM     55  N   UNL A   1      39.575  30.820  31.252  1.00  0.00    -0.354 N 
ATOM     56  C   UNL A   1      39.420  33.395  34.700  1.00  0.00     0.074 A 
ATOM     57  C   UNL A   1      38.369  34.381  34.583  1.00  0.00     0.031 C 
ATOM     58  C   UNL A   1      38.953  30.048  29.246  1.00  0.00     0.029 A 
ATOM     59  C   UNL A   1      39.888  29.834  30.347  1.00  0.00     0.049 A 
ATOM     60  H   UNL A   1      40.053  30.944  32.103  1.00  0.00     0.167 HD
ATOM     61  C   UNL A   1      40.248  33.288  35.766  1.00  0.00     0.034 A 
ATOM     62  C   UNL A   1      40.820  28.864  30.390  1.00  0.00     0.034 A 
ATOM     63  C   UNL A   1      41.259  32.276  35.910  1.00  0.00     0.049 A 
ATOM     64  C   UNL A   1      41.703  28.743  31.595  1.00  0.00     0.074 A 
ATOM     65  C   UNL A   1      42.125  32.074  36.971  1.00  0.00     0.029 A 
ATOM     66  N   UNL A   1      41.532  31.290  34.976  1.00  0.00    -0.354 N 
ATOM     67  N   UNL A   1      41.689  29.457  32.694  1.00  0.00    -0.248 NA
ATOM     68  C   UNL A   1      42.717  27.680  31.579  1.00  0.00     0.031 C 
ATOM     69  C   UNL A   1      42.921  30.963  36.679  1.00  0.00     0.029 A 
ATOM     70  C   UNL A   1      42.546  30.471  35.438  1.00  0.00     0.049 A 
ATOM     71  H   UNL A   1      41.073  31.186  34.112  1.00  0.00     0.167 HD
ATOM     72  C   UNL A   1      42.685  28.928  33.505  1.00  0.00     0.074 A 
ATOM     73  C   UNL A   1      43.269  27.817  32.780  1.00  0.00     0.031 C 
ATOM     74  C   UNL A   1      43.089  29.342  34.729  1.00  0.00     0.034 A 
BRANCH  61  75
ATOM     75  C   UNL A   1      40.060  34.251  36.905  1.00  0.00     0.023 A 
ATOM     76  C   UNL A   1      40.391  35.607  36.716  1.00  0.00     0.012 A 
ATOM     77  C   UNL A   1      39.471  33.841  38.118  1.00  0.00     0.148 A 
ATOM     78  C   UNL A   1      40.151  36.542  37.722  1.00  0.00     0.002 A 
ATOM     79  C   UNL A   1      39.210  34.785  39.105  1.00  0.00     0.091 A 
ATOM     80  F   UNL A   1      39.177  32.544  38.279  1.00  0.00    -0.205 F 
ATOM     81  C   UNL A   1      39.553  36.133  38.911  1.00  0.00     0.022 A 
BRANCH  79  82
ATOM     82  S   UNL A   1      38.393  34.376  40.653  1.00  0.00     0.127 S 
ATOM     83  O   UNL A   1      39.442  33.632  41.350  1.00  0.00    -0.237 OA
ATOM     84  O   UNL A   1      38.109  35.697  41.210  1.00  0.00    -0.237 OA
ATOM     85  O   UNL A   1      37.215  33.598  40.293  1.00  0.00    -0.744 OA
ENDBRANCH  79  82
ENDBRANCH  61  75
BRANCH  62  86
ATOM     86  C   UNL A   1      40.905  27.904  29.258  1.00  0.00     0.023 A 
ATOM     87  C   UNL A   1      40.006  26.821  29.202  1.00  0.00     0.012 A 
ATOM     88  C   UNL A   1      41.785  28.131  28.183  1.00  0.00     0.148 A 
ATOM     89  C   UNL A   1      39.982  25.982  28.087  1.00  0.00     0.002 A 
ATOM     90  C   UNL A   1      41.722  27.320  27.057  1.00  0.00     0.091 A 
ATOM     91  F   UNL A   1      42.627  29.170  28.266  1.00  0.00    -0.205 F 
ATOM     92  C   UNL A   1      40.828  26.239  27.011  1.00  0.00     0.022 A 
BRANCH  90  93
ATOM     93  S   UNL A   1      42.676  27.651  25.571  1.00  0.00     0.127 S 
ATOM     94  O   UNL A   1      44.037  27.702  26.096  1.00  0.00    -0.237 OA
ATOM     95  O   UNL A   1      42.372  26.476  24.756  1.00  0.00    -0.237 OA
ATOM     96  O   UNL A   1      42.162  28.907  25.041  1.00  0.00    -0.744 OA
ENDBRANCH  90  93
ENDBRANCH  62  86
BRANCH  74  97
ATOM     97  C   UNL A   1      44.220  28.604  35.386  1.00  0.00     0.023 A 
ATOM     98  C   UNL A   1      45.544  29.012  35.136  1.00  0.00     0.012 A 
ATOM     99  C   UNL A   1      43.967  27.608  36.349  1.00  0.00     0.148 A 
ATOM    100  C   UNL A   1      46.604  28.436  35.834  1.00  0.00     0.002 A 
ATOM    101  C   UNL A   1      45.025  27.060  37.063  1.00  0.00     0.091 A 
ATOM    102  F   UNL A   1      42.696  27.236  36.561  1.00  0.00    -0.205 F 
ATOM    103  C   UNL A   1      46.343  27.470  36.804  1.00  0.00     0.022 A 
BRANCH 101 104
ATOM    104  S   UNL A   1      44.789  25.865  38.384  1.00  0.00     0.127 S 
ATOM    105  O   UNL A   1      43.984  24.842  37.717  1.00  0.00    -0.237 OA
ATOM    106  O   UNL A   1      46.162  25.463  38.683  1.00  0.00    -0.237 OA
ATOM    107  O   UNL A   1      44.113  26.578  39.459  1.00  0.00    -0.744 OA
ENDBRANCH 101 104
ENDBRANCH  74  97
ENDBRANCH  48  49
ENDBRANCH  40  43
ENDBRANCH  38  39
ENDBRANCH  37  38
ENDBRANCH   1  37
TORSDOF 20
ENDMDL
MODEL 2
REMARK VINA RESULT:     -12.4      0.566      7.302
REMARK SMILES CC(C)C[C@H](NC(=O)[C@H]1N2C(=O)c3ccccc3[C@@H]2SC1(C)C)C(=O)N[C@@H](C)C(=O)NCCCCNC(=O)c1ccc(-c2c3nc(c(-c4cccc(S(=O)(=O)[O-])c4F)c4ccc([nH]4)c(-c4cccc(S(=O)(=O)[O-])c4F)c4nc(c(-c5cccc(S(=O)(=O)[O-])c5F)c5ccc2[nH]5)C=C4)C=C3)cc1
REMARK SMILES IDX 33 1 32 2 31 3 29 4 30 5 27 7 28 8 26 9 24 10 25 11 5 13
REMARK SMILES IDX 4 14 2 15 1 16 3 17 6 18 7 19 8 21 9 22 10 23 21 24 11 25
REMARK SMILES IDX 19 26 20 27 22 28 23 29 12 30 13 31 18 32 14 33 17 34 15 35
REMARK SMILES IDX 16 36 34 37 35 38 36 39 37 40 38 42 39 43 40 44 101 45 41 46
REMARK SMILES IDX 100 47 42 48 43 49 44 50 94 51 45 52 99 53 93 54 95 55 46 56
REMARK SMILES IDX 98 57 92 58 91 59 47 61 79 62 59 63 78 64 60 65 63 66 77 67
REMARK SMILES IDX 96 68 61 69 62 70 76 72 97 73 64 74 48 75 49 76 57 77 50 78
REMARK SMILES IDX 52 79 58 80 51 81 53 82 54 83 55 84 56 85 80 86 81 87 89 88
REMARK SMILES IDX 82 89 84 90 90 91 83 92 85 93 86 94 87 95 88 96 65 97 66 98
REMARK SMILES IDX 74 99 67 100 69 101 75 102 68 103 70 104 71 105 72 106
REMARK SMILES IDX 73 107
REMARK H PARENT 31 6 26 12 6 20 36 41 95 60 63 71
REMARK Flexibility Score: inf
ROOT
ATOM      1  C   UNL A   1      32.368  30.418  27.194  1.00  0.00     0.023 C 
ENDROOT
BRANCH   1   2
ATOM      2  C   UNL A   1      32.871  30.078  25.794  1.00  0.00     0.116 C 
BRANCH   2   3
ATOM      3  N   UNL A   1      31.811  30.063  24.802  1.00  0.00    -0.354 N 
ATOM      4  C   UNL A   1      31.640  29.316  23.673  1.00  0.00     0.242 C 
ATOM      5  O   UNL A   1      30.551  29.395  23.099  1.00  0.00    -0.273 OA
ATOM      6  H   UNL A   1      31.086  30.707  24.975  1.00  0.00     0.163 HD
BRANCH   4   7
ATOM      7  C   UNL A   1      32.709  28.323  23.164  1.00  0.00     0.168 C 
ATOM      8  C   UNL A   1      34.011  29.035  22.818  1.00  0.00     0.041 C 
BRANCH   7   9
ATOM      9  N   UNL A   1      32.211  27.532  22.046  1.00  0.00    -0.343 N 
ATOM     10  C   UNL A   1      31.843  26.230  21.967  1.00  0.00     0.243 C 
ATOM     11  O   UNL A   1      31.354  25.870  20.888  1.00  0.00    -0.273 OA
ATOM     12  H   UNL A   1      32.127  28.029  21.201  1.00  0.00     0.164 HD
BRANCH  10  13
ATOM     13  C   UNL A   1      32.133  25.174  23.056  1.00  0.00     0.171 C 
BRANCH  13  14
ATOM     14  C   UNL A   1      32.301  25.614  24.523  1.00  0.00     0.038 C 
BRANCH  14  15
ATOM     15  C   UNL A   1      30.969  25.760  25.306  1.00  0.00    -0.015 C 
ATOM     16  C   UNL A   1      30.499  24.444  25.954  1.00  0.00     0.007 C 
ATOM     17  C   UNL A   1      31.127  26.811  26.407  1.00  0.00     0.007 C 
ENDBRANCH  14  15
ENDBRANCH  13  14
BRANCH  13  18
ATOM     18  N   UNL A   1      33.192  24.259  22.654  1.00  0.00    -0.342 N 
ATOM     19  C   UNL A   1      34.068  23.469  23.319  1.00  0.00     0.244 C 
ATOM     20  H   UNL A   1      33.295  24.203  21.677  1.00  0.00     0.164 HD
ATOM     21  O   UNL A   1      34.988  23.087  22.572  1.00  0.00    -0.273 OA
BRANCH  19  22
ATOM     22  C   UNL A   1      33.971  22.875  24.779  1.00  0.00     0.191 C 
ATOM     23  N   UNL A   1      33.671  21.436  24.542  1.00  0.00    -0.309 N 
ATOM     24  C   UNL A   1      35.040  22.772  25.923  1.00  0.00     0.042 C 
ATOM     25  C   UNL A   1      32.577  20.703  24.971  1.00  0.00     0.256 C 
ATOM     26  C   UNL A   1      34.826  20.617  24.328  1.00  0.00     0.176 C 
ATOM     27  S   UNL A   1      35.923  21.151  25.657  1.00  0.00    -0.123 SA
ATOM     28  C   UNL A   1      36.201  23.725  26.085  1.00  0.00     0.026 C 
ATOM     29  C   UNL A   1      34.302  22.772  27.278  1.00  0.00     0.026 C 
ATOM     30  O   UNL A   1      31.513  21.105  25.382  1.00  0.00    -0.269 OA
ATOM     31  C   UNL A   1      33.006  19.282  24.963  1.00  0.00     0.046 A 
ATOM     32  C   UNL A   1      34.333  19.237  24.541  1.00  0.00    -0.002 A 
ATOM     33  C   UNL A   1      32.355  18.149  25.409  1.00  0.00     0.014 A 
ATOM     34  C   UNL A   1      35.034  18.042  24.478  1.00  0.00     0.007 A 
ATOM     35  C   UNL A   1      33.067  16.941  25.390  1.00  0.00     0.001 A 
ATOM     36  C   UNL A   1      34.390  16.886  24.913  1.00  0.00     0.000 A 
ENDBRANCH  19  22
ENDBRANCH  13  18
ENDBRANCH  10  13
ENDBRANCH   7   9
ENDBRANCH   4   7
ENDBRANCH   2   3
ENDBRANCH   1   2
BRANCH   1  37
ATOM     37  C   UNL A   1      33.247  31.387  27.989  1.00  0.00     0.023 C 
BRANCH  37  38
ATOM     38  C   UNL A   1      33.699  32.638  27.242  1.00  0.00     0.116 C 
BRANCH  38  39
ATOM     39  N   UNL A   1      33.025  33.861  27.655  1.00  0.00    -0.352 N 
ATOM     40  C   UNL A   1      33.270  34.625  28.778  1.00  0.00     0.251 C 
ATOM     41  H   UNL A   1      32.307  34.182  27.062  1.00  0.00     0.163 HD
ATOM     42  O   UNL A   1      32.570  35.601  29.027  1.00  0.00    -0.269 OA
BRANCH  40  43
ATOM     43  C   UNL A   1      34.352  34.214  29.700  1.00  0.00     0.039 A 
ATOM     44  C   UNL A   1      35.687  34.426  29.353  1.00  0.00     0.014 A 
ATOM     45  C   UNL A   1      34.029  33.524  30.871  1.00  0.00     0.014 A 
ATOM     46  C   UNL A   1      36.688  33.781  30.067  1.00  0.00     0.010 A 
ATOM     47  C   UNL A   1      35.048  32.954  31.641  1.00  0.00     0.010 A 
ATOM     48  C   UNL A   1      36.382  33.023  31.211  1.00  0.00    -0.014 A 
BRANCH  48  49
ATOM     49  C   UNL A   1      37.480  32.308  31.914  1.00  0.00     0.031 A 
ATOM     50  C   UNL A   1      38.236  31.188  31.247  1.00  0.00     0.074 A 
ATOM     51  C   UNL A   1      37.851  32.728  33.139  1.00  0.00     0.049 A 
ATOM     52  N   UNL A   1      39.273  30.523  31.690  1.00  0.00    -0.248 NA
ATOM     53  C   UNL A   1      37.774  30.751  29.919  1.00  0.00     0.031 C 
ATOM     54  C   UNL A   1      37.181  33.783  33.901  1.00  0.00     0.029 A 
ATOM     55  N   UNL A   1      38.894  32.346  33.944  1.00  0.00    -0.354 N 
ATOM     56  C   UNL A   1      39.566  29.574  30.718  1.00  0.00     0.074 A 
ATOM     57  C   UNL A   1      38.592  29.738  29.663  1.00  0.00     0.031 C 
ATOM     58  C   UNL A   1      37.860  34.005  35.035  1.00  0.00     0.029 A 
ATOM     59  C   UNL A   1      38.985  33.077  35.105  1.00  0.00     0.049 A 
ATOM     60  H   UNL A   1      39.517  31.620  33.712  1.00  0.00     0.167 HD
ATOM     61  C   UNL A   1      40.572  28.668  30.693  1.00  0.00     0.034 A 
ATOM     62  C   UNL A   1      39.871  33.014  36.118  1.00  0.00     0.034 A 
ATOM     63  C   UNL A   1      41.574  28.538  31.716  1.00  0.00     0.049 A 
ATOM     64  C   UNL A   1      40.996  32.025  36.052  1.00  0.00     0.074 A 
ATOM     65  C   UNL A   1      42.647  27.665  31.758  1.00  0.00     0.029 A 
ATOM     66  N   UNL A   1      41.636  29.307  32.867  1.00  0.00    -0.354 N 
ATOM     67  N   UNL A   1      41.290  31.183  35.091  1.00  0.00    -0.248 NA
ATOM     68  C   UNL A   1      41.920  31.985  37.194  1.00  0.00     0.031 C 
ATOM     69  C   UNL A   1      43.361  27.908  32.935  1.00  0.00     0.029 A 
ATOM     70  C   UNL A   1      42.734  28.936  33.622  1.00  0.00     0.049 A 
ATOM     71  H   UNL A   1      40.995  30.013  33.111  1.00  0.00     0.167 HD
ATOM     72  C   UNL A   1      42.434  30.516  35.507  1.00  0.00     0.074 A 
ATOM     73  C   UNL A   1      42.796  31.068  36.798  1.00  0.00     0.031 C 
ATOM     74  C   UNL A   1      43.109  29.522  34.882  1.00  0.00     0.034 A 
BRANCH  61  75
ATOM     75  C   UNL A   1      40.689  27.777  29.487  1.00  0.00     0.023 A 
ATOM     76  C   UNL A   1      39.873  26.632  29.400  1.00  0.00     0.012 A 
ATOM     77  C   UNL A   1      41.524  28.119  28.405  1.00  0.00     0.148 A 
ATOM     78  C   UNL A   1      39.894  25.831  28.260  1.00  0.00     0.002 A 
ATOM     79  C   UNL A   1      41.519  27.330  27.260  1.00  0.00     0.091 A 
ATOM     80  F   UNL A   1      42.300  29.206  28.516  1.00  0.00    -0.205 F 
ATOM     81  C   UNL A   1      40.709  26.184  27.188  1.00  0.00     0.022 A 
BRANCH  79  82
ATOM     82  S   UNL A   1      42.489  27.725  25.800  1.00  0.00     0.127 S 
ATOM     83  O   UNL A   1      43.851  27.690  26.335  1.00  0.00    -0.237 OA
ATOM     84  O   UNL A   1      42.158  26.620  24.902  1.00  0.00    -0.237 OA
ATOM     85  O   UNL A   1      42.032  29.033  25.354  1.00  0.00    -0.744 OA
ENDBRANCH  79  82
ENDBRANCH  61  75
BRANCH  62  86
ATOM     86  C   UNL A   1      39.735  33.971  37.246  1.00  0.00     0.023 A 
ATOM     87  C   UNL A   1      40.058  35.327  37.045  1.00  0.00     0.012 A 
ATOM     88  C   UNL A   1      39.172  33.566  38.472  1.00  0.00     0.148 A 
ATOM     89  C   UNL A   1      39.818  36.266  38.049  1.00  0.00     0.002 A 
ATOM     90  C   UNL A   1      38.892  34.514  39.448  1.00  0.00     0.091 A 
ATOM     91  F   UNL A   1      38.874  32.270  38.632  1.00  0.00    -0.205 F 
ATOM     92  C   UNL A   1      39.223  35.863  39.243  1.00  0.00     0.022 A 
BRANCH  90  93
ATOM     93  S   UNL A   1      38.009  34.114  40.960  1.00  0.00     0.127 S 
ATOM     94  O   UNL A   1      37.738  35.441  41.507  1.00  0.00    -0.237 OA
ATOM     95  O   UNL A   1      36.838  33.408  40.442  1.00  0.00    -0.237 OA
ATOM     96  O   UNL A   1      38.917  33.289  41.744  1.00  0.00    -0.744 OA
ENDBRANCH  90  93
ENDBRANCH  62  86
BRANCH  74  97
ATOM     97  C   UNL A   1      44.316  28.948  35.568  1.00  0.00     0.023 A 
ATOM     98  C   UNL A   1      45.571  29.553  35.370  1.00  0.00     0.012 A 
ATOM     99  C   UNL A   1      44.182  27.906  36.507  1.00  0.00     0.148 A 
ATOM    100  C   UNL A   1      46.681  29.127  36.097  1.00  0.00     0.002 A 
ATOM    101  C   UNL A   1      45.286  27.508  37.250  1.00  0.00     0.091 A 
ATOM    102  F   UNL A   1      42.975  27.345  36.669  1.00  0.00    -0.205 F 
ATOM    103  C   UNL A   1      46.536  28.115  37.044  1.00  0.00     0.022 A 
BRANCH 101 104
ATOM    104  S   UNL A   1      45.188  26.265  38.544  1.00  0.00     0.127 S 
ATOM    105  O   UNL A   1      46.558  26.262  39.057  1.00  0.00    -0.237 OA
ATOM    106  O   UNL A   1      44.197  26.844  39.450  1.00  0.00    -0.237 OA
ATOM    107  O   UNL A   1      44.771  25.033  37.890  1.00  0.00    -0.744 OA
ENDBRANCH 101 104
ENDBRANCH  74  97
ENDBRANCH  48  49
ENDBRANCH  40  43
ENDBRANCH  38  39
ENDBRANCH  37  38
ENDBRANCH   1  37
TORSDOF 20
ENDMDL
MODEL 3
REMARK VINA RESULT:     -11.2      2.165      2.567
REMARK SMILES CC(C)C[C@H](NC(=O)[C@H]1N2C(=O)c3ccccc3[C@@H]2SC1(C)C)C(=O)N[C@@H](C)C(=O)NCCCCNC(=O)c1ccc(-c2c3nc(c(-c4cccc(S(=O)(=O)[O-])c4F)c4ccc([nH]4)c(-c4cccc(S(=O)(=O)[O-])c4F)c4nc(c(-c5cccc(S(=O)(=O)[O-])c5F)c5ccc2[nH]5)C=C4)C=C3)cc1
REMARK SMILES IDX 33 1 32 2 31 3 29 4 30 5 27 7 28 8 26 9 24 10 25 11 5 13
REMARK SMILES IDX 4 14 2 15 1 16 3 17 6 18 7 19 8 21 9 22 10 23 21 24 11 25
REMARK SMILES IDX 19 26 20 27 22 28 23 29 12 30 13 31 18 32 14 33 17 34 15 35
REMARK SMILES IDX 16 36 34 37 35 38 36 39 37 40 38 42 39 43 40 44 101 45 41 46
REMARK SMILES IDX 100 47 42 48 43 49 44 50 94 51 45 52 99 53 93 54 95 55 46 56
REMARK SMILES IDX 98 57 92 58 91 59 47 61 79 62 59 63 78 64 60 65 63 66 77 67
REMARK SMILES IDX 96 68 61 69 62 70 76 72 97 73 64 74 48 75 49 76 57 77 50 78
REMARK SMILES IDX 52 79 58 80 51 81 53 82 54 83 55 84 56 85 80 86 81 87 89 88
REMARK SMILES IDX 82 89 84 90 90 91 83 92 85 93 86 94 87 95 88 96 65 97 66 98
REMARK SMILES IDX 74 99 67 100 69 101 75 102 68 103 70 104 71 105 72 106
REMARK SMILES IDX 73 107
REMARK H PARENT 31 6 26 12 6 20 36 41 95 60 63 71
REMARK Flexibility Score: inf
ROOT
ATOM      1  C   UNL A   1      32.195  29.562  26.890  1.00  0.00     0.023 C 
ENDROOT
BRANCH   1   2
ATOM      2  C   UNL A   1      32.923  29.457  25.553  1.00  0.00     0.116 C 
BRANCH   2   3
ATOM      3  N   UNL A   1      32.044  29.652  24.415  1.00  0.00    -0.354 N 
ATOM      4  C   UNL A   1      32.005  29.053  23.190  1.00  0.00     0.242 C 
ATOM      5  O   UNL A   1      31.035  29.299  22.467  1.00  0.00    -0.273 OA
ATOM      6  H   UNL A   1      31.352  30.340  24.552  1.00  0.00     0.163 HD
BRANCH   4   7
ATOM      7  C   UNL A   1      33.064  28.024  22.733  1.00  0.00     0.168 C 
ATOM      8  C   UNL A   1      34.396  28.696  22.425  1.00  0.00     0.041 C 
BRANCH   7   9
ATOM      9  N   UNL A   1      32.585  27.229  21.610  1.00  0.00    -0.343 N 
ATOM     10  C   UNL A   1      32.147  25.948  21.544  1.00  0.00     0.243 C 
ATOM     11  O   UNL A   1      31.699  25.585  20.449  1.00  0.00    -0.273 OA
ATOM     12  H   UNL A   1      32.577  27.706  20.748  1.00  0.00     0.164 HD
BRANCH  10  13
ATOM     13  C   UNL A   1      32.312  24.911  22.676  1.00  0.00     0.171 C 
BRANCH  13  14
ATOM     14  C   UNL A   1      32.347  25.378  24.144  1.00  0.00     0.038 C 
BRANCH  14  15
ATOM     15  C   UNL A   1      30.950  25.510  24.808  1.00  0.00    -0.015 C 
ATOM     16  C   UNL A   1      29.815  25.741  23.792  1.00  0.00     0.007 C 
ATOM     17  C   UNL A   1      30.633  24.244  25.607  1.00  0.00     0.007 C 
ENDBRANCH  14  15
ENDBRANCH  13  14
BRANCH  13  18
ATOM     18  N   UNL A   1      33.390  23.973  22.396  1.00  0.00    -0.342 N 
ATOM     19  C   UNL A   1      34.199  23.200  23.158  1.00  0.00     0.244 C 
ATOM     20  H   UNL A   1      33.572  23.880  21.433  1.00  0.00     0.164 HD
ATOM     21  O   UNL A   1      35.172  22.782  22.503  1.00  0.00    -0.273 OA
BRANCH  19  22
ATOM     22  C   UNL A   1      33.976  22.661  24.626  1.00  0.00     0.191 C 
ATOM     23  N   UNL A   1      33.734  21.206  24.421  1.00  0.00    -0.309 N 
ATOM     24  C   UNL A   1      34.932  22.631  25.869  1.00  0.00     0.042 C 
ATOM     25  C   UNL A   1      32.621  20.461  24.774  1.00  0.00     0.256 C 
ATOM     26  C   UNL A   1      34.923  20.411  24.352  1.00  0.00     0.176 C 
ATOM     27  S   UNL A   1      35.874  21.026  25.756  1.00  0.00    -0.123 SA
ATOM     28  C   UNL A   1      36.049  23.621  26.102  1.00  0.00     0.026 C 
ATOM     29  C   UNL A   1      34.067  22.664  27.147  1.00  0.00     0.026 C 
ATOM     30  O   UNL A   1      31.513  20.849  25.064  1.00  0.00    -0.269 OA
ATOM     31  C   UNL A   1      33.081  19.052  24.865  1.00  0.00     0.046 A 
ATOM     32  C   UNL A   1      34.444  19.027  24.573  1.00  0.00    -0.002 A 
ATOM     33  C   UNL A   1      32.417  17.920  25.294  1.00  0.00     0.014 A 
ATOM     34  C   UNL A   1      35.176  17.850  24.627  1.00  0.00     0.007 A 
ATOM     35  C   UNL A   1      33.156  16.732  25.392  1.00  0.00     0.001 A 
ATOM     36  C   UNL A   1      34.520  16.694  25.047  1.00  0.00     0.000 A 
ENDBRANCH  19  22
ENDBRANCH  13  18
ENDBRANCH  10  13
ENDBRANCH   7   9
ENDBRANCH   4   7
ENDBRANCH   2   3
ENDBRANCH   1   2
BRANCH   1  37
ATOM     37  C   UNL A   1      32.701  30.661  27.828  1.00  0.00     0.023 C 
BRANCH  37  38
ATOM     38  C   UNL A   1      33.392  31.842  27.154  1.00  0.00     0.116 C 
BRANCH  38  39
ATOM     39  N   UNL A   1      32.852  33.144  27.520  1.00  0.00    -0.352 N 
ATOM     40  C   UNL A   1      33.316  34.013  28.487  1.00  0.00     0.251 C 
ATOM     41  H   UNL A   1      32.058  33.440  27.018  1.00  0.00     0.163 HD
ATOM     42  O   UNL A   1      32.711  35.052  28.726  1.00  0.00    -0.269 OA
BRANCH  40  43
ATOM     43  C   UNL A   1      34.521  33.640  29.262  1.00  0.00     0.039 A 
ATOM     44  C   UNL A   1      35.780  34.086  28.859  1.00  0.00     0.014 A 
ATOM     45  C   UNL A   1      34.396  32.760  30.340  1.00  0.00     0.014 A 
ATOM     46  C   UNL A   1      36.917  33.501  29.401  1.00  0.00     0.010 A 
ATOM     47  C   UNL A   1      35.546  32.244  30.947  1.00  0.00     0.010 A 
ATOM     48  C   UNL A   1      36.815  32.560  30.441  1.00  0.00    -0.014 A 
BRANCH  48  49
ATOM     49  C   UNL A   1      38.056  31.922  30.955  1.00  0.00     0.031 A 
ATOM     50  C   UNL A   1      38.560  32.200  32.347  1.00  0.00     0.074 A 
ATOM     51  C   UNL A   1      38.691  31.019  30.182  1.00  0.00     0.049 A 
ATOM     52  N   UNL A   1      39.574  31.659  32.974  1.00  0.00    -0.248 NA
ATOM     53  C   UNL A   1      37.843  33.212  33.140  1.00  0.00     0.031 C 
ATOM     54  C   UNL A   1      38.319  30.683  28.806  1.00  0.00     0.029 A 
ATOM     55  N   UNL A   1      39.759  30.199  30.448  1.00  0.00    -0.354 N 
ATOM     56  C   UNL A   1      39.638  32.284  34.213  1.00  0.00     0.074 A 
ATOM     57  C   UNL A   1      38.568  33.255  34.252  1.00  0.00     0.031 C 
ATOM     58  C   UNL A   1      39.104  29.690  28.368  1.00  0.00     0.029 A 
ATOM     59  C   UNL A   1      40.068  29.350  29.411  1.00  0.00     0.049 A 
ATOM     60  H   UNL A   1      40.254  30.217  31.298  1.00  0.00     0.167 HD
ATOM     61  C   UNL A   1      40.493  32.052  35.238  1.00  0.00     0.034 A 
ATOM     62  C   UNL A   1      41.018  28.402  29.304  1.00  0.00     0.034 A 
ATOM     63  C   UNL A   1      41.525  31.050  35.223  1.00  0.00     0.049 A 
ATOM     64  C   UNL A   1      41.931  28.139  30.464  1.00  0.00     0.074 A 
ATOM     65  C   UNL A   1      42.419  30.726  36.229  1.00  0.00     0.029 A 
ATOM     66  N   UNL A   1      41.794  30.205  34.159  1.00  0.00    -0.354 N 
ATOM     67  N   UNL A   1      41.929  28.698  31.649  1.00  0.00    -0.248 NA
ATOM     68  C   UNL A   1      42.963  27.108  30.283  1.00  0.00     0.031 C 
ATOM     69  C   UNL A   1      43.227  29.681  35.774  1.00  0.00     0.029 A 
ATOM     70  C   UNL A   1      42.833  29.352  34.486  1.00  0.00     0.049 A 
ATOM     71  H   UNL A   1      41.316  30.208  33.299  1.00  0.00     0.167 HD
ATOM     72  C   UNL A   1      42.953  28.086  32.360  1.00  0.00     0.074 A 
ATOM     73  C   UNL A   1      43.540  27.095  31.480  1.00  0.00     0.031 C 
ATOM     74  C   UNL A   1      43.378  28.340  33.620  1.00  0.00     0.034 A 
BRANCH  61  75
ATOM     75  C   UNL A   1      40.314  32.849  36.500  1.00  0.00     0.023 A 
ATOM     76  C   UNL A   1      39.374  32.416  37.455  1.00  0.00     0.012 A 
ATOM     77  C   UNL A   1      41.134  33.958  36.785  1.00  0.00     0.148 A 
ATOM     78  C   UNL A   1      39.242  33.082  38.672  1.00  0.00     0.002 A 
ATOM     79  C   UNL A   1      41.016  34.600  38.012  1.00  0.00     0.091 A 
ATOM     80  F   UNL A   1      42.013  34.359  35.855  1.00  0.00    -0.205 F 
ATOM     81  C   UNL A   1      40.068  34.167  38.954  1.00  0.00     0.022 A 
BRANCH  79  82
ATOM     82  S   UNL A   1      42.067  35.973  38.500  1.00  0.00     0.127 S 
ATOM     83  O   UNL A   1      42.072  36.786  37.284  1.00  0.00    -0.237 OA
ATOM     84  O   UNL A   1      41.321  36.551  39.617  1.00  0.00    -0.237 OA
ATOM     85  O   UNL A   1      43.352  35.389  38.860  1.00  0.00    -0.744 OA
ENDBRANCH  79  82
ENDBRANCH  61  75
BRANCH  62  86
ATOM     86  C   UNL A   1      41.093  27.605  28.052  1.00  0.00     0.023 A 
ATOM     87  C   UNL A   1      41.645  28.186  26.894  1.00  0.00     0.012 A 
ATOM     88  C   UNL A   1      40.735  26.243  28.041  1.00  0.00     0.148 A 
ATOM     89  C   UNL A   1      41.844  27.420  25.745  1.00  0.00     0.002 A 
ATOM     90  C   UNL A   1      40.979  25.475  26.909  1.00  0.00     0.091 A 
ATOM     91  F   UNL A   1      40.213  25.719  29.157  1.00  0.00    -0.205 F 
ATOM     92  C   UNL A   1      41.524  26.063  25.757  1.00  0.00     0.022 A 
BRANCH  90  93
ATOM     93  S   UNL A   1      40.726  23.698  26.872  1.00  0.00     0.127 S 
ATOM     94  O   UNL A   1      39.290  23.606  26.622  1.00  0.00    -0.237 OA
ATOM     95  O   UNL A   1      41.575  23.301  25.749  1.00  0.00    -0.237 OA
ATOM     96  O   UNL A   1      41.167  23.207  28.170  1.00  0.00    -0.744 OA
ENDBRANCH  90  93
ENDBRANCH  62  86
BRANCH  74  97
ATOM     97  C   UNL A   1      44.538  27.544  34.148  1.00  0.00     0.023 A 
ATOM     98  C   UNL A   1      44.291  26.317  34.792  1.00  0.00     0.012 A 
ATOM     99  C   UNL A   1      45.863  27.941  33.885  1.00  0.00     0.148 A 
ATOM    100  C   UNL A   1      45.350  25.495  35.172  1.00  0.00     0.002 A 
ATOM    101  C   UNL A   1      46.912  27.102  34.238  1.00  0.00     0.091 A 
ATOM    102  F   UNL A   1      46.067  29.119  33.276  1.00  0.00    -0.205 F 
ATOM    103  C   UNL A   1      46.658  25.881  34.884  1.00  0.00     0.022 A 
BRANCH 101 104
ATOM    104  S   UNL A   1      48.626  27.474  33.846  1.00  0.00     0.127 S 
ATOM    105  O   UNL A   1      48.855  28.685  34.633  1.00  0.00    -0.237 OA
ATOM    106  O   UNL A   1      49.319  26.284  34.339  1.00  0.00    -0.237 OA
ATOM    107  O   UNL A   1      48.680  27.657  32.402  1.00  0.00    -0.744 OA
ENDBRANCH 101 104
ENDBRANCH  74  97
ENDBRANCH  48  49
ENDBRANCH  40  43
ENDBRANCH  38  39
ENDBRANCH  37  38
ENDBRANCH   1  37
TORSDOF 20
ENDMDL
