MODEL 1
REMARK VINA RESULT:     -10.9      0.000      0.000
REMARK SMILES C[C@H](CN(C)C(=O)CCc1nc2ccccc2o1)C(=O)NCCCCNC(=O)c1ccc(-c2c3nc(c(-c4cccc(S(=O)(=O)[O-])c4F)c4ccc([nH]4)c(-c4cccc(S(=O)(=O)[O-])c4F)c4nc(c(-c5cccc(S(=O)(=O)[O-])c5F)c5ccc2[nH]5)C=C4)C=C3)cc1
REMARK SMILES IDX 22 1 21 2 19 3 20 4 2 6 1 7 3 8 4 9 5 10 6 11 7 12 8 13 9 14
REMARK SMILES IDX 10 15 11 16 18 17 12 18 17 19 13 20 16 21 14 22 15 23 23 24
REMARK SMILES IDX 24 25 25 26 26 27 27 28 28 30 29 31 30 32 91 33 31 34 90 35
REMARK SMILES IDX 32 36 33 37 34 38 84 39 35 40 89 41 83 42 85 43 36 44 88 45
REMARK SMILES IDX 82 46 81 47 37 49 69 50 49 51 68 52 50 53 53 54 67 55 86 56
REMARK SMILES IDX 51 57 52 58 66 60 87 61 54 62 38 63 39 64 47 65 40 66 42 67
REMARK SMILES IDX 48 68 41 69 43 70 44 71 45 72 46 73 70 74 71 75 79 76 72 77
REMARK SMILES IDX 74 78 80 79 73 80 75 81 76 82 77 83 78 84 55 85 56 86 64 87
REMARK SMILES IDX 57 88 59 89 65 90 58 91 60 92 61 93 62 94 63 95
REMARK H PARENT 21 5 26 29 85 48 53 59
REMARK Flexibility Score: inf
ROOT
ATOM      1  C   UNL A   1      32.546  30.240  26.178  1.00  0.00     0.116 C 
ENDROOT
BRANCH   1   2
ATOM      2  N   UNL A   1      32.105  29.174  27.053  1.00  0.00    -0.356 N 
ATOM      3  C   UNL A   1      31.801  27.878  26.775  1.00  0.00     0.224 C 
ATOM      4  O   UNL A   1      31.390  27.176  27.701  1.00  0.00    -0.275 OA
ATOM      5  H   UNL A   1      32.011  29.428  27.999  1.00  0.00     0.163 HD
BRANCH   3   6
ATOM      6  C   UNL A   1      31.997  27.298  25.378  1.00  0.00     0.095 C 
ATOM      7  C   UNL A   1      30.707  27.470  24.572  1.00  0.00     0.020 C 
BRANCH   6   8
ATOM      8  C   UNL A   1      32.560  25.859  25.434  1.00  0.00     0.132 C 
BRANCH   8   9
ATOM      9  N   UNL A   1      31.618  24.794  25.062  1.00  0.00    -0.345 N 
ATOM     10  C   UNL A   1      31.870  24.133  23.789  1.00  0.00     0.146 C 
BRANCH   9  11
ATOM     11  C   UNL A   1      30.870  24.160  26.041  1.00  0.00     0.222 C 
ATOM     12  O   UNL A   1      29.884  24.678  26.563  1.00  0.00    -0.275 OA
BRANCH  11  13
ATOM     13  C   UNL A   1      31.253  22.738  26.410  1.00  0.00     0.110 C 
BRANCH  13  14
ATOM     14  C   UNL A   1      32.277  22.717  27.549  1.00  0.00     0.107 C 
BRANCH  14  15
ATOM     15  C   UNL A   1      33.637  22.382  27.051  1.00  0.00     0.195 A 
ATOM     16  N   UNL A   1      34.047  21.251  26.515  1.00  0.00    -0.214 NA
ATOM     17  O   UNL A   1      34.533  23.417  26.968  1.00  0.00    -0.441 OA
ATOM     18  C   UNL A   1      35.235  21.583  25.923  1.00  0.00     0.109 A 
ATOM     19  C   UNL A   1      35.554  22.896  26.224  1.00  0.00     0.154 A 
ATOM     20  C   UNL A   1      36.067  20.857  25.064  1.00  0.00     0.032 A 
ATOM     21  C   UNL A   1      36.690  23.555  25.774  1.00  0.00     0.049 A 
ATOM     22  C   UNL A   1      37.200  21.502  24.548  1.00  0.00     0.003 A 
ATOM     23  C   UNL A   1      37.511  22.820  24.909  1.00  0.00     0.004 A 
ENDBRANCH  14  15
ENDBRANCH  13  14
ENDBRANCH  11  13
ENDBRANCH   9  11
ENDBRANCH   8   9
ENDBRANCH   6   8
ENDBRANCH   3   6
ENDBRANCH   1   2
BRANCH   1  24
ATOM     24  C   UNL A   1      31.373  31.121  25.764  1.00  0.00     0.023 C 
BRANCH  24  25
ATOM     25  C   UNL A   1      31.300  32.446  26.523  1.00  0.00     0.023 C 
BRANCH  25  26
ATOM     26  C   UNL A   1      32.591  32.851  27.227  1.00  0.00     0.116 C 
BRANCH  26  27
ATOM     27  N   UNL A   1      32.555  34.217  27.732  1.00  0.00    -0.352 N 
ATOM     28  C   UNL A   1      33.353  34.791  28.692  1.00  0.00     0.251 C 
ATOM     29  H   UNL A   1      31.873  34.805  27.335  1.00  0.00     0.163 HD
ATOM     30  O   UNL A   1      33.109  35.918  29.112  1.00  0.00    -0.269 OA
BRANCH  28  31
ATOM     31  C   UNL A   1      34.489  34.018  29.231  1.00  0.00     0.039 A 
ATOM     32  C   UNL A   1      35.786  34.360  28.843  1.00  0.00     0.014 A 
ATOM     33  C   UNL A   1      34.267  32.998  30.160  1.00  0.00     0.014 A 
ATOM     34  C   UNL A   1      36.870  33.716  29.441  1.00  0.00     0.010 A 
ATOM     35  C   UNL A   1      35.349  32.413  30.806  1.00  0.00     0.010 A 
ATOM     36  C   UNL A   1      36.661  32.763  30.452  1.00  0.00    -0.014 A 
BRANCH  36  37
ATOM     37  C   UNL A   1      37.800  32.130  31.162  1.00  0.00     0.031 A 
ATOM     38  C   UNL A   1      38.518  30.960  30.546  1.00  0.00     0.074 A 
ATOM     39  C   UNL A   1      38.126  32.548  32.402  1.00  0.00     0.049 A 
ATOM     40  N   UNL A   1      39.491  30.240  31.038  1.00  0.00    -0.248 NA
ATOM     41  C   UNL A   1      38.062  30.525  29.216  1.00  0.00     0.031 C 
ATOM     42  C   UNL A   1      37.446  33.613  33.142  1.00  0.00     0.029 A 
ATOM     43  N   UNL A   1      39.093  32.106  33.269  1.00  0.00    -0.354 N 
ATOM     44  C   UNL A   1      39.740  29.249  30.097  1.00  0.00     0.074 A 
ATOM     45  C   UNL A   1      38.790  29.435  29.023  1.00  0.00     0.031 C 
ATOM     46  C   UNL A   1      38.016  33.742  34.351  1.00  0.00     0.029 A 
ATOM     47  C   UNL A   1      39.084  32.755  34.482  1.00  0.00     0.049 A 
ATOM     48  H   UNL A   1      39.732  31.392  33.045  1.00  0.00     0.167 HD
ATOM     49  C   UNL A   1      40.697  28.289  30.109  1.00  0.00     0.034 A 
ATOM     50  C   UNL A   1      39.844  32.570  35.580  1.00  0.00     0.034 A 
ATOM     51  C   UNL A   1      41.668  28.135  31.157  1.00  0.00     0.049 A 
ATOM     52  C   UNL A   1      40.931  31.531  35.547  1.00  0.00     0.074 A 
ATOM     53  C   UNL A   1      42.731  27.253  31.221  1.00  0.00     0.029 A 
ATOM     54  N   UNL A   1      41.691  28.877  32.329  1.00  0.00    -0.354 N 
ATOM     55  N   UNL A   1      41.260  30.711  34.579  1.00  0.00    -0.248 NA
ATOM     56  C   UNL A   1      41.779  31.417  36.743  1.00  0.00     0.031 C 
ATOM     57  C   UNL A   1      43.387  27.448  32.442  1.00  0.00     0.029 A 
ATOM     58  C   UNL A   1      42.746  28.469  33.126  1.00  0.00     0.049 A 
ATOM     59  H   UNL A   1      41.051  29.588  32.559  1.00  0.00     0.167 HD
ATOM     60  C   UNL A   1      42.370  30.008  35.033  1.00  0.00     0.074 A 
ATOM     61  C   UNL A   1      42.672  30.516  36.355  1.00  0.00     0.031 C 
ATOM     62  C   UNL A   1      43.068  29.021  34.417  1.00  0.00     0.034 A 
BRANCH  49  63
ATOM     63  C   UNL A   1      40.776  27.371  28.916  1.00  0.00     0.023 A 
ATOM     64  C   UNL A   1      39.861  26.304  28.801  1.00  0.00     0.012 A 
ATOM     65  C   UNL A   1      41.715  27.589  27.889  1.00  0.00     0.148 A 
ATOM     66  C   UNL A   1      39.903  25.446  27.703  1.00  0.00     0.002 A 
ATOM     67  C   UNL A   1      41.721  26.756  26.776  1.00  0.00     0.091 A 
ATOM     68  F   UNL A   1      42.592  28.594  28.025  1.00  0.00    -0.205 F 
ATOM     69  C   UNL A   1      40.825  25.678  26.688  1.00  0.00     0.022 A 
BRANCH  67  70
ATOM     70  S   UNL A   1      42.815  27.020  25.376  1.00  0.00     0.127 S 
ATOM     71  O   UNL A   1      44.107  27.190  26.039  1.00  0.00    -0.237 OA
ATOM     72  O   UNL A   1      42.673  25.766  24.633  1.00  0.00    -0.237 OA
ATOM     73  O   UNL A   1      42.306  28.195  24.685  1.00  0.00    -0.744 OA
ENDBRANCH  67  70
ENDBRANCH  49  63
BRANCH  50  74
ATOM     74  C   UNL A   1      39.646  33.438  36.774  1.00  0.00     0.023 A 
ATOM     75  C   UNL A   1      38.627  33.125  37.695  1.00  0.00     0.012 A 
ATOM     76  C   UNL A   1      40.478  34.547  37.022  1.00  0.00     0.148 A 
ATOM     77  C   UNL A   1      38.420  33.918  38.824  1.00  0.00     0.002 A 
ATOM     78  C   UNL A   1      40.302  35.300  38.178  1.00  0.00     0.091 A 
ATOM     79  F   UNL A   1      41.435  34.835  36.129  1.00  0.00    -0.205 F 
ATOM     80  C   UNL A   1      39.263  34.998  39.071  1.00  0.00     0.022 A 
BRANCH  78  81
ATOM     81  S   UNL A   1      41.424  36.623  38.645  1.00  0.00     0.127 S 
ATOM     82  O   UNL A   1      42.341  35.933  39.547  1.00  0.00    -0.237 OA
ATOM     83  O   UNL A   1      41.998  37.004  37.354  1.00  0.00    -0.237 OA
ATOM     84  O   UNL A   1      40.587  37.649  39.254  1.00  0.00    -0.744 OA
ENDBRANCH  78  81
ENDBRANCH  50  74
BRANCH  62  85
ATOM     85  C   UNL A   1      44.251  28.442  35.146  1.00  0.00     0.023 A 
ATOM     86  C   UNL A   1      45.545  28.937  34.886  1.00  0.00     0.012 A 
ATOM     87  C   UNL A   1      44.072  27.464  36.144  1.00  0.00     0.148 A 
ATOM     88  C   UNL A   1      46.645  28.444  35.586  1.00  0.00     0.002 A 
ATOM     89  C   UNL A   1      45.167  27.014  36.872  1.00  0.00     0.091 A 
ATOM     90  F   UNL A   1      42.836  26.993  36.363  1.00  0.00    -0.205 F 
ATOM     91  C   UNL A   1      46.455  27.493  36.586  1.00  0.00     0.022 A 
BRANCH  89  92
ATOM     92  S   UNL A   1      45.003  25.863  38.241  1.00  0.00     0.127 S 
ATOM     93  O   UNL A   1      44.111  26.593  39.140  1.00  0.00    -0.237 OA
ATOM     94  O   UNL A   1      44.398  24.697  37.597  1.00  0.00    -0.237 OA
ATOM     95  O   UNL A   1      46.352  25.643  38.744  1.00  0.00    -0.744 OA
ENDBRANCH  89  92
ENDBRANCH  62  85
ENDBRANCH  36  37
ENDBRANCH  28  31
ENDBRANCH  26  27
ENDBRANCH  25  26
ENDBRANCH  24  25
ENDBRANCH   1  24
TORSDOF 20
ENDMDL
MODEL 2
REMARK VINA RESULT:     -10.9      2.700      8.097
REMARK SMILES C[C@H](CN(C)C(=O)CCc1nc2ccccc2o1)C(=O)NCCCCNC(=O)c1ccc(-c2c3nc(c(-c4cccc(S(=O)(=O)[O-])c4F)c4ccc([nH]4)c(-c4cccc(S(=O)(=O)[O-])c4F)c4nc(c(-c5cccc(S(=O)(=O)[O-])c5F)c5ccc2[nH]5)C=C4)C=C3)cc1
REMARK SMILES IDX 22 1 21 2 19 3 20 4 2 6 1 7 3 8 4 9 5 10 6 11 7 12 8 13 9 14
REMARK SMILES IDX 10 15 11 16 18 17 12 18 17 19 13 20 16 21 14 22 15 23 23 24
REMARK SMILES IDX 24 25 25 26 26 27 27 28 28 30 29 31 30 32 91 33 31 34 90 35
REMARK SMILES IDX 32 36 33 37 34 38 84 39 35 40 89 41 83 42 85 43 36 44 88 45
REMARK SMILES IDX 82 46 81 47 37 49 69 50 49 51 68 52 50 53 53 54 67 55 86 56
REMARK SMILES IDX 51 57 52 58 66 60 87 61 54 62 38 63 39 64 47 65 40 66 42 67
REMARK SMILES IDX 48 68 41 69 43 70 44 71 45 72 46 73 70 74 71 75 79 76 72 77
REMARK SMILES IDX 74 78 80 79 73 80 75 81 76 82 77 83 78 84 55 85 56 86 64 87
REMARK SMILES IDX 57 88 59 89 65 90 58 91 60 92 61 93 62 94 63 95
REMARK H PARENT 21 5 26 29 85 48 53 59
REMARK Flexibility Score: inf
ROOT
ATOM      1  C   UNL A   1      31.179  28.282  26.343  1.00  0.00     0.116 C 
ENDROOT
BRANCH   1   2
ATOM      2  N   UNL A   1      31.148  26.920  26.833  1.00  0.00    -0.356 N 
ATOM      3  C   UNL A   1      31.170  25.740  26.155  1.00  0.00     0.224 C 
ATOM      4  O   UNL A   1      31.078  24.701  26.811  1.00  0.00    -0.275 OA
ATOM      5  H   UNL A   1      31.105  26.833  27.812  1.00  0.00     0.163 HD
BRANCH   3   6
ATOM      6  C   UNL A   1      31.344  25.699  24.639  1.00  0.00     0.095 C 
ATOM      7  C   UNL A   1      30.233  24.842  24.025  1.00  0.00     0.020 C 
BRANCH   6   8
ATOM      8  C   UNL A   1      32.784  25.303  24.244  1.00  0.00     0.132 C 
BRANCH   8   9
ATOM      9  N   UNL A   1      32.952  24.803  22.872  1.00  0.00    -0.345 N 
ATOM     10  C   UNL A   1      33.214  25.809  21.852  1.00  0.00     0.146 C 
BRANCH   9  11
ATOM     11  C   UNL A   1      33.310  23.482  22.657  1.00  0.00     0.222 C 
ATOM     12  O   UNL A   1      33.563  23.036  21.539  1.00  0.00    -0.275 OA
BRANCH  11  13
ATOM     13  C   UNL A   1      33.470  22.588  23.874  1.00  0.00     0.110 C 
BRANCH  13  14
ATOM     14  C   UNL A   1      32.152  21.894  24.230  1.00  0.00     0.107 C 
BRANCH  14  15
ATOM     15  C   UNL A   1      32.264  20.418  24.102  1.00  0.00     0.195 A 
ATOM     16  N   UNL A   1      32.613  19.720  23.040  1.00  0.00    -0.214 NA
ATOM     17  O   UNL A   1      32.171  19.692  25.262  1.00  0.00    -0.441 OA
ATOM     18  C   UNL A   1      32.898  18.481  23.544  1.00  0.00     0.109 A 
ATOM     19  C   UNL A   1      32.597  18.446  24.895  1.00  0.00     0.154 A 
ATOM     20  C   UNL A   1      33.472  17.355  22.942  1.00  0.00     0.032 A 
ATOM     21  C   UNL A   1      32.775  17.341  25.715  1.00  0.00     0.049 A 
ATOM     22  C   UNL A   1      33.714  16.233  23.748  1.00  0.00     0.003 A 
ATOM     23  C   UNL A   1      33.358  16.223  25.103  1.00  0.00     0.004 A 
ENDBRANCH  14  15
ENDBRANCH  13  14
ENDBRANCH  11  13
ENDBRANCH   9  11
ENDBRANCH   8   9
ENDBRANCH   6   8
ENDBRANCH   3   6
ENDBRANCH   1   2
BRANCH   1  24
ATOM     24  C   UNL A   1      32.175  29.119  27.137  1.00  0.00     0.023 C 
BRANCH  24  25
ATOM     25  C   UNL A   1      31.866  30.617  27.126  1.00  0.00     0.023 C 
BRANCH  25  26
ATOM     26  C   UNL A   1      32.994  31.498  26.600  1.00  0.00     0.116 C 
BRANCH  26  27
ATOM     27  N   UNL A   1      32.958  32.849  27.145  1.00  0.00    -0.352 N 
ATOM     28  C   UNL A   1      33.800  33.416  28.071  1.00  0.00     0.251 C 
ATOM     29  H   UNL A   1      32.240  33.430  26.806  1.00  0.00     0.163 HD
ATOM     30  O   UNL A   1      33.556  34.525  28.537  1.00  0.00    -0.269 OA
BRANCH  28  31
ATOM     31  C   UNL A   1      34.983  32.657  28.519  1.00  0.00     0.039 A 
ATOM     32  C   UNL A   1      36.247  33.238  28.398  1.00  0.00     0.014 A 
ATOM     33  C   UNL A   1      34.830  31.399  29.108  1.00  0.00     0.014 A 
ATOM     34  C   UNL A   1      37.356  32.580  28.929  1.00  0.00     0.010 A 
ATOM     35  C   UNL A   1      35.924  30.783  29.702  1.00  0.00     0.010 A 
ATOM     36  C   UNL A   1      37.199  31.364  29.616  1.00  0.00    -0.014 A 
BRANCH  36  37
ATOM     37  C   UNL A   1      38.351  30.690  30.265  1.00  0.00     0.031 A 
ATOM     38  C   UNL A   1      38.771  31.084  31.655  1.00  0.00     0.074 A 
ATOM     39  C   UNL A   1      39.075  29.792  29.567  1.00  0.00     0.049 A 
ATOM     40  N   UNL A   1      39.783  30.655  32.361  1.00  0.00    -0.248 NA
ATOM     41  C   UNL A   1      37.965  32.116  32.327  1.00  0.00     0.031 C 
ATOM     42  C   UNL A   1      38.821  29.394  28.181  1.00  0.00     0.029 A 
ATOM     43  N   UNL A   1      40.191  29.075  29.920  1.00  0.00    -0.354 N 
ATOM     44  C   UNL A   1      39.758  31.385  33.542  1.00  0.00     0.074 A 
ATOM     45  C   UNL A   1      38.654  32.314  33.442  1.00  0.00     0.031 C 
ATOM     46  C   UNL A   1      39.753  28.505  27.801  1.00  0.00     0.029 A 
ATOM     47  C   UNL A   1      40.684  28.288  28.905  1.00  0.00     0.049 A 
ATOM     48  H   UNL A   1      40.599  29.119  30.814  1.00  0.00     0.167 HD
ATOM     49  C   UNL A   1      40.560  31.272  34.628  1.00  0.00     0.034 A 
ATOM     50  C   UNL A   1      41.768  27.489  28.865  1.00  0.00     0.034 A 
ATOM     51  C   UNL A   1      41.628  30.317  34.742  1.00  0.00     0.049 A 
ATOM     52  C   UNL A   1      42.613  27.344  30.101  1.00  0.00     0.074 A 
ATOM     53  C   UNL A   1      42.441  30.062  35.831  1.00  0.00     0.029 A 
ATOM     54  N   UNL A   1      42.038  29.465  33.727  1.00  0.00    -0.354 N 
ATOM     55  N   UNL A   1      42.473  27.922  31.269  1.00  0.00    -0.248 NA
ATOM     56  C   UNL A   1      43.742  26.405  30.028  1.00  0.00     0.031 C 
ATOM     57  C   UNL A   1      43.356  29.067  35.469  1.00  0.00     0.029 A 
ATOM     58  C   UNL A   1      43.096  28.685  34.162  1.00  0.00     0.049 A 
ATOM     59  H   UNL A   1      41.635  29.420  32.830  1.00  0.00     0.167 HD
ATOM     60  C   UNL A   1      43.472  27.395  32.079  1.00  0.00     0.074 A 
ATOM     61  C   UNL A   1      44.197  26.434  31.274  1.00  0.00     0.031 C 
ATOM     62  C   UNL A   1      43.773  27.693  33.368  1.00  0.00     0.034 A 
BRANCH  49  63
ATOM     63  C   UNL A   1      40.266  32.165  35.806  1.00  0.00     0.023 A 
ATOM     64  C   UNL A   1      41.057  33.313  36.019  1.00  0.00     0.012 A 
ATOM     65  C   UNL A   1      39.185  31.901  36.670  1.00  0.00     0.148 A 
ATOM     66  C   UNL A   1      40.802  34.163  37.094  1.00  0.00     0.002 A 
ATOM     67  C   UNL A   1      38.909  32.778  37.712  1.00  0.00     0.091 A 
ATOM     68  F   UNL A   1      38.458  30.793  36.466  1.00  0.00    -0.205 F 
ATOM     69  C   UNL A   1      39.723  33.901  37.933  1.00  0.00     0.022 A 
BRANCH  67  70
ATOM     70  S   UNL A   1      37.494  32.574  38.800  1.00  0.00     0.127 S 
ATOM     71  O   UNL A   1      36.391  32.972  37.926  1.00  0.00    -0.237 OA
ATOM     72  O   UNL A   1      37.543  31.143  39.105  1.00  0.00    -0.237 OA
ATOM     73  O   UNL A   1      37.735  33.446  39.940  1.00  0.00    -0.744 OA
ENDBRANCH  67  70
ENDBRANCH  49  63
BRANCH  50  74
ATOM     74  C   UNL A   1      42.072  26.712  27.630  1.00  0.00     0.023 A 
ATOM     75  C   UNL A   1      42.671  27.362  26.533  1.00  0.00     0.012 A 
ATOM     76  C   UNL A   1      41.805  25.331  27.547  1.00  0.00     0.148 A 
ATOM     77  C   UNL A   1      42.969  26.660  25.366  1.00  0.00     0.002 A 
ATOM     78  C   UNL A   1      42.156  24.626  26.402  1.00  0.00     0.091 A 
ATOM     79  F   UNL A   1      41.225  24.733  28.597  1.00  0.00    -0.205 F 
ATOM     80  C   UNL A   1      42.722  25.291  25.304  1.00  0.00     0.022 A 
BRANCH  78  81
ATOM     81  S   UNL A   1      42.000  22.840  26.285  1.00  0.00     0.127 S 
ATOM     82  O   UNL A   1      42.772  22.396  27.442  1.00  0.00    -0.237 OA
ATOM     83  O   UNL A   1      40.553  22.654  26.399  1.00  0.00    -0.237 OA
ATOM     84  O   UNL A   1      42.548  22.484  24.983  1.00  0.00    -0.744 OA
ENDBRANCH  78  81
ENDBRANCH  50  74
BRANCH  62  85
ATOM     85  C   UNL A   1      44.913  26.948  34.009  1.00  0.00     0.023 A 
ATOM     86  C   UNL A   1      46.229  27.437  33.881  1.00  0.00     0.012 A 
ATOM     87  C   UNL A   1      44.673  25.810  34.803  1.00  0.00     0.148 A 
ATOM     88  C   UNL A   1      47.290  26.785  34.508  1.00  0.00     0.002 A 
ATOM     89  C   UNL A   1      45.728  25.194  35.465  1.00  0.00     0.091 A 
ATOM     90  F   UNL A   1      43.416  25.350  34.897  1.00  0.00    -0.205 F 
ATOM     91  C   UNL A   1      47.039  25.674  35.308  1.00  0.00     0.022 A 
BRANCH  89  92
ATOM     92  S   UNL A   1      45.485  23.817  36.592  1.00  0.00     0.127 S 
ATOM     93  O   UNL A   1      44.603  24.407  37.597  1.00  0.00    -0.237 OA
ATOM     94  O   UNL A   1      44.848  22.821  35.731  1.00  0.00    -0.237 OA
ATOM     95  O   UNL A   1      46.812  23.447  37.065  1.00  0.00    -0.744 OA
ENDBRANCH  89  92
ENDBRANCH  62  85
ENDBRANCH  36  37
ENDBRANCH  28  31
ENDBRANCH  26  27
ENDBRANCH  25  26
ENDBRANCH  24  25
ENDBRANCH   1  24
TORSDOF 20
ENDMDL
MODEL 3
REMARK VINA RESULT:     -10.9      1.984      3.937
REMARK SMILES C[C@H](CN(C)C(=O)CCc1nc2ccccc2o1)C(=O)NCCCCNC(=O)c1ccc(-c2c3nc(c(-c4cccc(S(=O)(=O)[O-])c4F)c4ccc([nH]4)c(-c4cccc(S(=O)(=O)[O-])c4F)c4nc(c(-c5cccc(S(=O)(=O)[O-])c5F)c5ccc2[nH]5)C=C4)C=C3)cc1
REMARK SMILES IDX 22 1 21 2 19 3 20 4 2 6 1 7 3 8 4 9 5 10 6 11 7 12 8 13 9 14
REMARK SMILES IDX 10 15 11 16 18 17 12 18 17 19 13 20 16 21 14 22 15 23 23 24
REMARK SMILES IDX 24 25 25 26 26 27 27 28 28 30 29 31 30 32 91 33 31 34 90 35
REMARK SMILES IDX 32 36 33 37 34 38 84 39 35 40 89 41 83 42 85 43 36 44 88 45
REMARK SMILES IDX 82 46 81 47 37 49 69 50 49 51 68 52 50 53 53 54 67 55 86 56
REMARK SMILES IDX 51 57 52 58 66 60 87 61 54 62 38 63 39 64 47 65 40 66 42 67
REMARK SMILES IDX 48 68 41 69 43 70 44 71 45 72 46 73 70 74 71 75 79 76 72 77
REMARK SMILES IDX 74 78 80 79 73 80 75 81 76 82 77 83 78 84 55 85 56 86 64 87
REMARK SMILES IDX 57 88 59 89 65 90 58 91 60 92 61 93 62 94 63 95
REMARK H PARENT 21 5 26 29 85 48 53 59
REMARK Flexibility Score: inf
ROOT
ATOM      1  C   UNL A   1      32.051  30.041  26.268  1.00  0.00     0.116 C 
ENDROOT
BRANCH   1   2
ATOM      2  N   UNL A   1      31.530  28.719  26.545  1.00  0.00    -0.356 N 
ATOM      3  C   UNL A   1      32.135  27.502  26.471  1.00  0.00     0.224 C 
ATOM      4  O   UNL A   1      31.448  26.507  26.710  1.00  0.00    -0.275 OA
ATOM      5  H   UNL A   1      30.589  28.696  26.834  1.00  0.00     0.163 HD
BRANCH   3   6
ATOM      6  C   UNL A   1      33.619  27.372  26.143  1.00  0.00     0.095 C 
ATOM      7  C   UNL A   1      34.390  28.505  26.826  1.00  0.00     0.020 C 
BRANCH   6   8
ATOM      8  C   UNL A   1      33.853  27.230  24.622  1.00  0.00     0.132 C 
BRANCH   8   9
ATOM      9  N   UNL A   1      34.069  25.860  24.138  1.00  0.00    -0.345 N 
ATOM     10  C   UNL A   1      34.670  24.932  25.087  1.00  0.00     0.146 C 
BRANCH   9  11
ATOM     11  C   UNL A   1      33.330  25.381  23.068  1.00  0.00     0.222 C 
ATOM     12  O   UNL A   1      33.821  24.686  22.180  1.00  0.00    -0.275 OA
BRANCH  11  13
ATOM     13  C   UNL A   1      31.839  25.670  23.055  1.00  0.00     0.110 C 
BRANCH  13  14
ATOM     14  C   UNL A   1      31.502  26.803  22.082  1.00  0.00     0.107 C 
BRANCH  14  15
ATOM     15  C   UNL A   1      30.647  27.835  22.725  1.00  0.00     0.195 A 
ATOM     16  N   UNL A   1      31.009  29.014  23.187  1.00  0.00    -0.214 NA
ATOM     17  O   UNL A   1      29.293  27.626  22.679  1.00  0.00    -0.441 OA
ATOM     18  C   UNL A   1      29.825  29.683  23.336  1.00  0.00     0.109 A 
ATOM     19  C   UNL A   1      28.771  28.830  23.061  1.00  0.00     0.154 A 
ATOM     20  C   UNL A   1      29.560  31.024  23.636  1.00  0.00     0.032 A 
ATOM     21  C   UNL A   1      27.431  29.190  23.109  1.00  0.00     0.049 A 
ATOM     22  C   UNL A   1      28.221  31.441  23.647  1.00  0.00     0.003 A 
ATOM     23  C   UNL A   1      27.179  30.537  23.401  1.00  0.00     0.004 A 
ENDBRANCH  14  15
ENDBRANCH  13  14
ENDBRANCH  11  13
ENDBRANCH   9  11
ENDBRANCH   8   9
ENDBRANCH   6   8
ENDBRANCH   3   6
ENDBRANCH   1   2
BRANCH   1  24
ATOM     24  C   UNL A   1      31.217  31.108  26.969  1.00  0.00     0.023 C 
BRANCH  24  25
ATOM     25  C   UNL A   1      31.516  32.531  26.496  1.00  0.00     0.023 C 
BRANCH  25  26
ATOM     26  C   UNL A   1      32.783  33.146  27.082  1.00  0.00     0.116 C 
BRANCH  26  27
ATOM     27  N   UNL A   1      32.525  34.372  27.825  1.00  0.00    -0.352 N 
ATOM     28  C   UNL A   1      33.134  34.815  28.974  1.00  0.00     0.251 C 
ATOM     29  H   UNL A   1      31.827  34.960  27.456  1.00  0.00     0.163 HD
ATOM     30  O   UNL A   1      32.709  35.805  29.562  1.00  0.00    -0.269 OA
BRANCH  28  31
ATOM     31  C   UNL A   1      34.286  34.062  29.507  1.00  0.00     0.039 A 
ATOM     32  C   UNL A   1      35.565  34.358  29.036  1.00  0.00     0.014 A 
ATOM     33  C   UNL A   1      34.098  33.109  30.512  1.00  0.00     0.014 A 
ATOM     34  C   UNL A   1      36.670  33.739  29.621  1.00  0.00     0.010 A 
ATOM     35  C   UNL A   1      35.204  32.552  31.143  1.00  0.00     0.010 A 
ATOM     36  C   UNL A   1      36.500  32.858  30.702  1.00  0.00    -0.014 A 
BRANCH  36  37
ATOM     37  C   UNL A   1      37.666  32.255  31.397  1.00  0.00     0.031 A 
ATOM     38  C   UNL A   1      38.412  31.112  30.766  1.00  0.00     0.074 A 
ATOM     39  C   UNL A   1      37.992  32.676  32.635  1.00  0.00     0.049 A 
ATOM     40  N   UNL A   1      39.412  30.419  31.243  1.00  0.00    -0.248 NA
ATOM     41  C   UNL A   1      37.956  30.671  29.438  1.00  0.00     0.031 C 
ATOM     42  C   UNL A   1      37.287  33.715  33.389  1.00  0.00     0.029 A 
ATOM     43  N   UNL A   1      38.980  32.258  33.490  1.00  0.00    -0.354 N 
ATOM     44  C   UNL A   1      39.682  29.442  30.294  1.00  0.00     0.074 A 
ATOM     45  C   UNL A   1      38.715  29.605  29.231  1.00  0.00     0.031 C 
ATOM     46  C   UNL A   1      37.866  33.854  34.593  1.00  0.00     0.029 A 
ATOM     47  C   UNL A   1      38.965  32.899  34.707  1.00  0.00     0.049 A 
ATOM     48  H   UNL A   1      39.639  31.566  33.255  1.00  0.00     0.167 HD
ATOM     49  C   UNL A   1      40.668  28.512  30.289  1.00  0.00     0.034 A 
ATOM     50  C   UNL A   1      39.741  32.732  35.795  1.00  0.00     0.034 A 
ATOM     51  C   UNL A   1      41.654  28.381  31.326  1.00  0.00     0.049 A 
ATOM     52  C   UNL A   1      40.860  31.726  35.745  1.00  0.00     0.074 A 
ATOM     53  C   UNL A   1      42.744  27.532  31.374  1.00  0.00     0.029 A 
ATOM     54  N   UNL A   1      41.667  29.116  32.502  1.00  0.00    -0.354 N 
ATOM     55  N   UNL A   1      41.203  30.923  34.768  1.00  0.00    -0.248 NA
ATOM     56  C   UNL A   1      41.723  31.632  36.931  1.00  0.00     0.031 C 
ATOM     57  C   UNL A   1      43.407  27.740  32.589  1.00  0.00     0.029 A 
ATOM     58  C   UNL A   1      42.742  28.737  33.286  1.00  0.00     0.049 A 
ATOM     59  H   UNL A   1      41.007  29.807  32.743  1.00  0.00     0.167 HD
ATOM     60  C   UNL A   1      42.339  30.252  35.206  1.00  0.00     0.074 A 
ATOM     61  C   UNL A   1      42.639  30.761  36.529  1.00  0.00     0.031 C 
ATOM     62  C   UNL A   1      43.060  29.291  34.577  1.00  0.00     0.034 A 
BRANCH  49  63
ATOM     63  C   UNL A   1      40.762  27.604  29.090  1.00  0.00     0.023 A 
ATOM     64  C   UNL A   1      39.918  26.477  29.006  1.00  0.00     0.012 A 
ATOM     65  C   UNL A   1      41.643  27.888  28.028  1.00  0.00     0.148 A 
ATOM     66  C   UNL A   1      39.976  25.626  27.903  1.00  0.00     0.002 A 
ATOM     67  C   UNL A   1      41.661  27.060  26.912  1.00  0.00     0.091 A 
ATOM     68  F   UNL A   1      42.453  28.950  28.134  1.00  0.00    -0.205 F 
ATOM     69  C   UNL A   1      40.839  25.923  26.854  1.00  0.00     0.022 A 
BRANCH  67  70
ATOM     70  S   UNL A   1      42.678  27.401  25.470  1.00  0.00     0.127 S 
ATOM     71  O   UNL A   1      42.036  28.600  24.933  1.00  0.00    -0.237 OA
ATOM     72  O   UNL A   1      43.994  27.631  26.069  1.00  0.00    -0.237 OA
ATOM     73  O   UNL A   1      42.593  26.215  24.630  1.00  0.00    -0.744 OA
ENDBRANCH  67  70
ENDBRANCH  49  63
BRANCH  50  74
ATOM     74  C   UNL A   1      39.529  33.586  36.998  1.00  0.00     0.023 A 
ATOM     75  C   UNL A   1      39.988  34.919  36.988  1.00  0.00     0.012 A 
ATOM     76  C   UNL A   1      38.849  33.103  38.132  1.00  0.00     0.148 A 
ATOM     77  C   UNL A   1      39.802  35.743  38.098  1.00  0.00     0.002 A 
ATOM     78  C   UNL A   1      38.618  33.946  39.212  1.00  0.00     0.091 A 
ATOM     79  F   UNL A   1      38.430  31.829  38.126  1.00  0.00    -0.205 F 
ATOM     80  C   UNL A   1      39.108  35.261  39.205  1.00  0.00     0.022 A 
BRANCH  78  81
ATOM     81  S   UNL A   1      37.617  33.455  40.622  1.00  0.00     0.127 S 
ATOM     82  O   UNL A   1      38.379  32.326  41.149  1.00  0.00    -0.237 OA
ATOM     83  O   UNL A   1      37.647  34.661  41.450  1.00  0.00    -0.237 OA
ATOM     84  O   UNL A   1      36.305  33.135  40.077  1.00  0.00    -0.744 OA
ENDBRANCH  78  81
ENDBRANCH  50  74
BRANCH  62  85
ATOM     85  C   UNL A   1      44.268  28.744  35.290  1.00  0.00     0.023 A 
ATOM     86  C   UNL A   1      45.540  29.297  35.039  1.00  0.00     0.012 A 
ATOM     87  C   UNL A   1      44.132  27.737  36.266  1.00  0.00     0.148 A 
ATOM     88  C   UNL A   1      46.662  28.834  35.725  1.00  0.00     0.002 A 
ATOM     89  C   UNL A   1      45.246  27.315  36.981  1.00  0.00     0.091 A 
ATOM     90  F   UNL A   1      42.917  27.210  36.477  1.00  0.00    -0.205 F 
ATOM     91  C   UNL A   1      46.513  27.853  36.703  1.00  0.00     0.022 A 
BRANCH  89  92
ATOM     92  S   UNL A   1      45.134  26.127  38.324  1.00  0.00     0.127 S 
ATOM     93  O   UNL A   1      46.506  26.118  38.829  1.00  0.00    -0.237 OA
ATOM     94  O   UNL A   1      44.161  26.758  39.216  1.00  0.00    -0.237 OA
ATOM     95  O   UNL A   1      44.682  24.881  37.721  1.00  0.00    -0.744 OA
ENDBRANCH  89  92
ENDBRANCH  62  85
ENDBRANCH  36  37
ENDBRANCH  28  31
ENDBRANCH  26  27
ENDBRANCH  25  26
ENDBRANCH  24  25
ENDBRANCH   1  24
TORSDOF 20
ENDMDL
