MODEL 1
REMARK VINA RESULT:     -12.4      0.000      0.000
REMARK SMILES C[NH+](C)CCc1nc(Nc2ccc(O)c(C(=O)NCCCCNC(=O)c3ccc(-c4c5nc(c(-c6cccc(S(=O)(=O)[O-])c6F)c6ccc([nH]6)c(-c6cccc(S(=O)(=O)[O-])c6F)c6nc(c(-c7cccc(S(=O)(=O)[O-])c7F)c7ccc4[nH]7)C=C6)C=C5)cc3)c2)c2ccccc2n1
REMARK SMILES IDX 19 1 18 2 16 3 17 4 15 6 10 7 11 8 89 9 12 10 13 11 9 12
REMARK SMILES IDX 8 14 6 15 7 16 96 17 95 18 90 19 94 20 91 21 93 22 92 23
REMARK SMILES IDX 5 24 4 25 2 26 1 27 3 28 14 30 20 32 21 33 22 34 23 35 24 36
REMARK SMILES IDX 25 38 26 39 27 40 88 41 28 42 87 43 29 44 30 45 31 46 81 47
REMARK SMILES IDX 32 48 86 49 80 50 82 51 33 52 85 53 79 54 78 55 34 57 66 58
REMARK SMILES IDX 46 59 65 60 47 61 50 62 64 63 83 64 48 65 49 66 63 68 84 69
REMARK SMILES IDX 51 70 35 71 36 72 44 73 37 74 39 75 45 76 38 77 40 78 41 79
REMARK SMILES IDX 42 80 43 81 67 82 68 83 76 84 69 85 71 86 77 87 70 88 72 89
REMARK SMILES IDX 73 90 74 91 75 92 52 93 53 94 61 95 54 96 56 97 62 98 55 99
REMARK SMILES IDX 57 100 58 101 59 102 60 103
REMARK H PARENT 18 5 9 13 2 29 14 31 23 37 82 56 50 67
REMARK Flexibility Score: inf
ROOT
ATOM      1  C   UNL A   1      34.070  28.268  23.012  1.00  0.00     0.116 C 
ENDROOT
BRANCH   1   2
ATOM      2  N   UNL A   1      33.596  27.371  21.986  1.00  0.00    -0.352 N 
ATOM      3  C   UNL A   1      32.763  26.287  22.031  1.00  0.00     0.255 C 
ATOM      4  O   UNL A   1      32.666  25.642  20.980  1.00  0.00    -0.269 OA
ATOM      5  H   UNL A   1      33.935  27.577  21.086  1.00  0.00     0.163 HD
BRANCH   3   6
ATOM      6  C   UNL A   1      31.904  25.876  23.188  1.00  0.00     0.083 A 
ATOM      7  C   UNL A   1      31.938  24.447  25.198  1.00  0.00     0.041 A 
ATOM      8  C   UNL A   1      30.628  24.827  25.479  1.00  0.00     0.030 A 
ATOM      9  C   UNL A   1      32.551  24.968  24.056  1.00  0.00     0.043 A 
ATOM     10  C   UNL A   1      29.969  25.742  24.664  1.00  0.00     0.049 A 
ATOM     11  C   UNL A   1      30.608  26.277  23.537  1.00  0.00     0.128 A 
BRANCH   7  12
ATOM     12  N   UNL A   1      32.631  23.521  25.991  1.00  0.00    -0.340 N 
ATOM     13  H   UNL A   1      32.609  23.671  26.963  1.00  0.00     0.168 HD
BRANCH  12  14
ATOM     14  C   UNL A   1      33.353  22.399  25.546  1.00  0.00     0.142 A 
ATOM     15  C   UNL A   1      33.327  20.247  24.732  1.00  0.00     0.137 A 
ATOM     16  N   UNL A   1      32.650  21.311  25.172  1.00  0.00    -0.215 NA
ATOM     17  N   UNL A   1      34.662  20.177  24.691  1.00  0.00    -0.233 NA
ATOM     18  C   UNL A   1      35.357  21.260  25.044  1.00  0.00     0.076 A 
ATOM     19  C   UNL A   1      34.754  22.434  25.503  1.00  0.00     0.043 A 
ATOM     20  C   UNL A   1      36.741  21.216  24.944  1.00  0.00     0.029 A 
ATOM     21  C   UNL A   1      35.566  23.534  25.886  1.00  0.00     0.014 A 
ATOM     22  C   UNL A   1      37.542  22.305  25.296  1.00  0.00     0.002 A 
ATOM     23  C   UNL A   1      36.953  23.466  25.776  1.00  0.00     0.001 A 
BRANCH  15  24
ATOM     24  C   UNL A   1      32.521  19.047  24.324  1.00  0.00     0.138 C 
BRANCH  24  25
ATOM     25  C   UNL A   1      33.325  17.749  24.135  1.00  0.00     0.269 C 
BRANCH  25  26
ATOM     26  N   UNL A   1      33.745  16.941  25.295  1.00  0.00    -0.339 N 
ATOM     27  C   UNL A   1      32.716  16.028  25.779  1.00  0.00     0.332 C 
ATOM     28  C   UNL A   1      35.009  16.240  25.095  1.00  0.00     0.332 C 
ATOM     29  H   UNL A   1      33.899  17.633  26.029  1.00  0.00     0.347 HD
ENDBRANCH  25  26
ENDBRANCH  24  25
ENDBRANCH  15  24
ENDBRANCH  12  14
ENDBRANCH   7  12
BRANCH  11  30
ATOM     30  O   UNL A   1      29.915  27.231  22.858  1.00  0.00    -0.507 OA
ATOM     31  H   UNL A   1      30.373  27.886  22.371  1.00  0.00     0.293 HD
ENDBRANCH  11  30
ENDBRANCH   3   6
ENDBRANCH   1   2
BRANCH   1  32
ATOM     32  C   UNL A   1      32.981  29.292  23.346  1.00  0.00     0.023 C 
BRANCH  32  33
ATOM     33  C   UNL A   1      32.342  29.118  24.723  1.00  0.00     0.023 C 
BRANCH  33  34
ATOM     34  C   UNL A   1      33.225  29.550  25.884  1.00  0.00     0.116 C 
BRANCH  34  35
ATOM     35  N   UNL A   1      32.881  30.864  26.412  1.00  0.00    -0.352 N 
ATOM     36  C   UNL A   1      33.587  31.624  27.312  1.00  0.00     0.251 C 
ATOM     37  H   UNL A   1      32.039  31.256  26.083  1.00  0.00     0.163 HD
ATOM     38  O   UNL A   1      33.126  32.681  27.735  1.00  0.00    -0.269 OA
BRANCH  36  39
ATOM     39  C   UNL A   1      34.886  31.121  27.795  1.00  0.00     0.039 A 
ATOM     40  C   UNL A   1      35.929  32.029  27.986  1.00  0.00     0.014 A 
ATOM     41  C   UNL A   1      35.042  29.773  28.126  1.00  0.00     0.014 A 
ATOM     42  C   UNL A   1      37.116  31.593  28.577  1.00  0.00     0.010 A 
ATOM     43  C   UNL A   1      36.195  29.358  28.780  1.00  0.00     0.010 A 
ATOM     44  C   UNL A   1      37.243  30.262  29.009  1.00  0.00    -0.014 A 
BRANCH  44  45
ATOM     45  C   UNL A   1      38.460  29.795  29.714  1.00  0.00     0.031 A 
ATOM     46  C   UNL A   1      38.790  30.334  31.078  1.00  0.00     0.074 A 
ATOM     47  C   UNL A   1      39.314  28.965  29.084  1.00  0.00     0.049 A 
ATOM     48  N   UNL A   1      39.835  30.096  31.826  1.00  0.00    -0.248 NA
ATOM     49  C   UNL A   1      37.837  31.290  31.668  1.00  0.00     0.031 C 
ATOM     50  C   UNL A   1      39.147  28.449  27.723  1.00  0.00     0.029 A 
ATOM     51  N   UNL A   1      40.510  28.431  29.495  1.00  0.00    -0.354 N 
ATOM     52  C   UNL A   1      39.687  30.899  32.950  1.00  0.00     0.074 A 
ATOM     53  C   UNL A   1      38.467  31.655  32.773  1.00  0.00     0.031 C 
ATOM     54  C   UNL A   1      40.198  27.673  27.415  1.00  0.00     0.029 A 
ATOM     55  C   UNL A   1      41.123  27.651  28.542  1.00  0.00     0.049 A 
ATOM     56  H   UNL A   1      40.892  28.592  30.388  1.00  0.00     0.167 HD
ATOM     57  C   UNL A   1      40.477  30.972  34.047  1.00  0.00     0.034 A 
ATOM     58  C   UNL A   1      42.298  26.994  28.578  1.00  0.00     0.034 A 
ATOM     59  C   UNL A   1      41.653  30.171  34.243  1.00  0.00     0.049 A 
ATOM     60  C   UNL A   1      43.119  27.039  29.838  1.00  0.00     0.074 A 
ATOM     61  C   UNL A   1      42.465  30.095  35.360  1.00  0.00     0.029 A 
ATOM     62  N   UNL A   1      42.186  29.306  33.301  1.00  0.00    -0.354 N 
ATOM     63  N   UNL A   1      42.872  27.667  30.961  1.00  0.00    -0.248 NA
ATOM     64  C   UNL A   1      44.362  26.252  29.851  1.00  0.00     0.031 C 
ATOM     65  C   UNL A   1      43.495  29.188  35.090  1.00  0.00     0.029 A 
ATOM     66  C   UNL A   1      43.316  28.691  33.809  1.00  0.00     0.049 A 
ATOM     67  H   UNL A   1      41.813  29.150  32.403  1.00  0.00     0.167 HD
ATOM     68  C   UNL A   1      43.905  27.325  31.826  1.00  0.00     0.074 A 
ATOM     69  C   UNL A   1      44.772  26.417  31.102  1.00  0.00     0.031 C 
ATOM     70  C   UNL A   1      44.129  27.740  33.097  1.00  0.00     0.034 A 
BRANCH  57  71
ATOM     71  C   UNL A   1      40.051  31.901  35.153  1.00  0.00     0.023 A 
ATOM     72  C   UNL A   1      40.517  33.232  35.152  1.00  0.00     0.012 A 
ATOM     73  C   UNL A   1      39.152  31.482  36.151  1.00  0.00     0.148 A 
ATOM     74  C   UNL A   1      40.118  34.124  36.146  1.00  0.00     0.002 A 
ATOM     75  C   UNL A   1      38.726  32.390  37.115  1.00  0.00     0.091 A 
ATOM     76  F   UNL A   1      38.739  30.206  36.148  1.00  0.00    -0.205 F 
ATOM     77  C   UNL A   1      39.215  33.707  37.119  1.00  0.00     0.022 A 
BRANCH  75  78
ATOM     78  S   UNL A   1      37.509  31.972  38.368  1.00  0.00     0.127 S 
ATOM     79  O   UNL A   1      36.455  32.947  38.092  1.00  0.00    -0.237 OA
ATOM     80  O   UNL A   1      37.168  30.591  38.019  1.00  0.00    -0.237 OA
ATOM     81  O   UNL A   1      38.183  32.124  39.649  1.00  0.00    -0.744 OA
ENDBRANCH  75  78
ENDBRANCH  57  71
BRANCH  58  82
ATOM     82  C   UNL A   1      42.723  26.164  27.415  1.00  0.00     0.023 A 
ATOM     83  C   UNL A   1      43.565  26.730  26.438  1.00  0.00     0.012 A 
ATOM     84  C   UNL A   1      42.326  24.819  27.283  1.00  0.00     0.148 A 
ATOM     85  C   UNL A   1      43.977  25.985  25.334  1.00  0.00     0.002 A 
ATOM     86  C   UNL A   1      42.783  24.066  26.206  1.00  0.00     0.091 A 
ATOM     87  F   UNL A   1      41.513  24.300  28.215  1.00  0.00    -0.205 F 
ATOM     88  C   UNL A   1      43.596  24.651  25.223  1.00  0.00     0.022 A 
BRANCH  86  89
ATOM     89  S   UNL A   1      42.444  22.308  26.058  1.00  0.00     0.127 S 
ATOM     90  O   UNL A   1      43.200  21.957  24.858  1.00  0.00    -0.237 OA
ATOM     91  O   UNL A   1      42.994  21.783  27.308  1.00  0.00    -0.237 OA
ATOM     92  O   UNL A   1      40.995  22.201  25.954  1.00  0.00    -0.744 OA
ENDBRANCH  86  89
ENDBRANCH  58  82
BRANCH  70  93
ATOM     93  C   UNL A   1      45.339  27.195  33.806  1.00  0.00     0.023 A 
ATOM     94  C   UNL A   1      46.553  27.910  33.762  1.00  0.00     0.012 A 
ATOM     95  C   UNL A   1      45.253  26.026  34.587  1.00  0.00     0.148 A 
ATOM     96  C   UNL A   1      47.669  27.455  34.461  1.00  0.00     0.002 A 
ATOM     97  C   UNL A   1      46.356  25.602  35.317  1.00  0.00     0.091 A 
ATOM     98  F   UNL A   1      44.095  25.349  34.599  1.00  0.00    -0.205 F 
ATOM     99  C   UNL A   1      47.568  26.310  35.247  1.00  0.00     0.022 A 
BRANCH  97 100
ATOM    100  S   UNL A   1      46.285  24.192  36.428  1.00  0.00     0.127 S 
ATOM    101  O   UNL A   1      46.070  23.088  35.496  1.00  0.00    -0.237 OA
ATOM    102  O   UNL A   1      47.610  24.216  37.050  1.00  0.00    -0.237 OA
ATOM    103  O   UNL A   1      45.186  24.465  37.346  1.00  0.00    -0.744 OA
ENDBRANCH  97 100
ENDBRANCH  70  93
ENDBRANCH  44  45
ENDBRANCH  36  39
ENDBRANCH  34  35
ENDBRANCH  33  34
ENDBRANCH  32  33
ENDBRANCH   1  32
TORSDOF 20
ENDMDL
MODEL 2
REMARK VINA RESULT:     -12.2      2.586      2.992
REMARK SMILES C[NH+](C)CCc1nc(Nc2ccc(O)c(C(=O)NCCCCNC(=O)c3ccc(-c4c5nc(c(-c6cccc(S(=O)(=O)[O-])c6F)c6ccc([nH]6)c(-c6cccc(S(=O)(=O)[O-])c6F)c6nc(c(-c7cccc(S(=O)(=O)[O-])c7F)c7ccc4[nH]7)C=C6)C=C5)cc3)c2)c2ccccc2n1
REMARK SMILES IDX 19 1 18 2 16 3 17 4 15 6 10 7 11 8 89 9 12 10 13 11 9 12
REMARK SMILES IDX 8 14 6 15 7 16 96 17 95 18 90 19 94 20 91 21 93 22 92 23
REMARK SMILES IDX 5 24 4 25 2 26 1 27 3 28 14 30 20 32 21 33 22 34 23 35 24 36
REMARK SMILES IDX 25 38 26 39 27 40 88 41 28 42 87 43 29 44 30 45 31 46 81 47
REMARK SMILES IDX 32 48 86 49 80 50 82 51 33 52 85 53 79 54 78 55 34 57 66 58
REMARK SMILES IDX 46 59 65 60 47 61 50 62 64 63 83 64 48 65 49 66 63 68 84 69
REMARK SMILES IDX 51 70 35 71 36 72 44 73 37 74 39 75 45 76 38 77 40 78 41 79
REMARK SMILES IDX 42 80 43 81 67 82 68 83 76 84 69 85 71 86 77 87 70 88 72 89
REMARK SMILES IDX 73 90 74 91 75 92 52 93 53 94 61 95 54 96 56 97 62 98 55 99
REMARK SMILES IDX 57 100 58 101 59 102 60 103
REMARK H PARENT 18 5 9 13 2 29 14 31 23 37 82 56 50 67
REMARK Flexibility Score: inf
ROOT
ATOM      1  C   UNL A   1      33.960  28.114  23.021  1.00  0.00     0.116 C 
ENDROOT
BRANCH   1   2
ATOM      2  N   UNL A   1      33.152  27.401  22.061  1.00  0.00    -0.352 N 
ATOM      3  C   UNL A   1      32.202  26.428  22.206  1.00  0.00     0.255 C 
ATOM      4  O   UNL A   1      31.790  25.921  21.156  1.00  0.00    -0.269 OA
ATOM      5  H   UNL A   1      33.316  27.664  21.126  1.00  0.00     0.163 HD
BRANCH   3   6
ATOM      6  C   UNL A   1      31.563  25.998  23.492  1.00  0.00     0.083 A 
ATOM      7  C   UNL A   1      32.007  24.640  25.501  1.00  0.00     0.041 A 
ATOM      8  C   UNL A   1      30.733  24.941  25.975  1.00  0.00     0.030 A 
ATOM      9  C   UNL A   1      32.398  25.164  24.266  1.00  0.00     0.043 A 
ATOM     10  C   UNL A   1      29.894  25.783  25.254  1.00  0.00     0.049 A 
ATOM     11  C   UNL A   1      30.312  26.324  24.030  1.00  0.00     0.128 A 
BRANCH   7  12
ATOM     12  N   UNL A   1      32.877  23.786  26.195  1.00  0.00    -0.340 N 
ATOM     13  H   UNL A   1      33.072  24.024  27.130  1.00  0.00     0.168 HD
BRANCH  12  14
ATOM     14  C   UNL A   1      33.500  22.627  25.699  1.00  0.00     0.142 A 
ATOM     15  C   UNL A   1      33.294  20.479  24.901  1.00  0.00     0.137 A 
ATOM     16  N   UNL A   1      32.713  21.578  25.388  1.00  0.00    -0.215 NA
ATOM     17  N   UNL A   1      34.616  20.338  24.753  1.00  0.00    -0.233 NA
ATOM     18  C   UNL A   1      35.394  21.382  25.044  1.00  0.00     0.076 A 
ATOM     19  C   UNL A   1      34.893  22.587  25.544  1.00  0.00     0.043 A 
ATOM     20  C   UNL A   1      36.761  21.264  24.834  1.00  0.00     0.029 A 
ATOM     21  C   UNL A   1      35.791  23.641  25.855  1.00  0.00     0.014 A 
ATOM     22  C   UNL A   1      37.645  22.308  25.115  1.00  0.00     0.002 A 
ATOM     23  C   UNL A   1      37.160  23.499  25.635  1.00  0.00     0.001 A 
BRANCH  15  24
ATOM     24  C   UNL A   1      32.395  19.324  24.564  1.00  0.00     0.138 C 
BRANCH  24  25
ATOM     25  C   UNL A   1      32.754  17.992  25.247  1.00  0.00     0.269 C 
BRANCH  25  26
ATOM     26  N   UNL A   1      32.761  16.728  24.488  1.00  0.00    -0.339 N 
ATOM     27  C   UNL A   1      33.824  16.645  23.493  1.00  0.00     0.332 C 
ATOM     28  C   UNL A   1      32.744  15.538  25.331  1.00  0.00     0.332 C 
ATOM     29  H   UNL A   1      31.877  16.747  23.978  1.00  0.00     0.347 HD
ENDBRANCH  25  26
ENDBRANCH  24  25
ENDBRANCH  15  24
ENDBRANCH  12  14
ENDBRANCH   7  12
BRANCH  11  30
ATOM     30  O   UNL A   1      29.457  27.208  23.448  1.00  0.00    -0.507 OA
ATOM     31  H   UNL A   1      29.513  27.379  22.529  1.00  0.00     0.293 HD
ENDBRANCH  11  30
ENDBRANCH   3   6
ENDBRANCH   1   2
BRANCH   1  32
ATOM     32  C   UNL A   1      33.106  29.168  23.731  1.00  0.00     0.023 C 
BRANCH  32  33
ATOM     33  C   UNL A   1      32.784  28.851  25.191  1.00  0.00     0.023 C 
BRANCH  33  34
ATOM     34  C   UNL A   1      33.914  29.152  26.163  1.00  0.00     0.116 C 
BRANCH  34  35
ATOM     35  N   UNL A   1      33.833  30.487  26.744  1.00  0.00    -0.352 N 
ATOM     36  C   UNL A   1      34.681  31.062  27.659  1.00  0.00     0.251 C 
ATOM     37  H   UNL A   1      33.079  31.044  26.445  1.00  0.00     0.163 HD
ATOM     38  O   UNL A   1      34.435  32.170  28.128  1.00  0.00    -0.269 OA
BRANCH  36  39
ATOM     39  C   UNL A   1      35.865  30.303  28.099  1.00  0.00     0.039 A 
ATOM     40  C   UNL A   1      37.026  30.359  27.326  1.00  0.00     0.014 A 
ATOM     41  C   UNL A   1      35.845  29.604  29.308  1.00  0.00     0.014 A 
ATOM     42  C   UNL A   1      38.196  29.766  27.803  1.00  0.00     0.010 A 
ATOM     43  C   UNL A   1      37.027  29.077  29.814  1.00  0.00     0.010 A 
ATOM     44  C   UNL A   1      38.212  29.151  29.066  1.00  0.00    -0.014 A 
BRANCH  44  45
ATOM     45  C   UNL A   1      39.460  28.586  29.630  1.00  0.00     0.031 A 
ATOM     46  C   UNL A   1      40.097  29.227  30.833  1.00  0.00     0.074 A 
ATOM     47  C   UNL A   1      40.068  27.561  29.003  1.00  0.00     0.049 A 
ATOM     48  N   UNL A   1      41.216  28.919  31.433  1.00  0.00    -0.248 NA
ATOM     49  C   UNL A   1      39.401  30.386  31.418  1.00  0.00     0.031 C 
ATOM     50  C   UNL A   1      39.594  26.917  27.775  1.00  0.00     0.029 A 
ATOM     51  N   UNL A   1      41.235  26.899  29.294  1.00  0.00    -0.354 N 
ATOM     52  C   UNL A   1      41.379  29.865  32.437  1.00  0.00     0.074 A 
ATOM     53  C   UNL A   1      40.261  30.778  32.346  1.00  0.00     0.031 C 
ATOM     54  C   UNL A   1      40.459  25.953  27.422  1.00  0.00     0.029 A 
ATOM     55  C   UNL A   1      41.558  25.923  28.380  1.00  0.00     0.049 A 
ATOM     56  H   UNL A   1      41.787  27.105  30.081  1.00  0.00     0.167 HD
ATOM     57  C   UNL A   1      42.354  29.945  33.373  1.00  0.00     0.034 A 
ATOM     58  C   UNL A   1      42.621  25.096  28.326  1.00  0.00     0.034 A 
ATOM     59  C   UNL A   1      43.427  28.998  33.497  1.00  0.00     0.049 A 
ATOM     60  C   UNL A   1      43.651  25.164  29.421  1.00  0.00     0.074 A 
ATOM     61  C   UNL A   1      44.406  28.931  34.471  1.00  0.00     0.029 A 
ATOM     62  N   UNL A   1      43.662  27.952  32.619  1.00  0.00    -0.354 N 
ATOM     63  N   UNL A   1      43.694  25.954  30.465  1.00  0.00    -0.248 NA
ATOM     64  C   UNL A   1      44.758  24.198  29.353  1.00  0.00     0.031 C 
ATOM     65  C   UNL A   1      45.240  27.847  34.177  1.00  0.00     0.029 A 
ATOM     66  C   UNL A   1      44.771  27.233  33.027  1.00  0.00     0.049 A 
ATOM     67  H   UNL A   1      43.118  27.750  31.823  1.00  0.00     0.167 HD
ATOM     68  C   UNL A   1      44.809  25.560  31.197  1.00  0.00     0.074 A 
ATOM     69  C   UNL A   1      45.402  24.446  30.486  1.00  0.00     0.031 C 
ATOM     70  C   UNL A   1      45.308  26.086  32.342  1.00  0.00     0.034 A 
BRANCH  57  71
ATOM     71  C   UNL A   1      42.261  31.056  34.384  1.00  0.00     0.023 A 
ATOM     72  C   UNL A   1      41.609  30.819  35.612  1.00  0.00     0.012 A 
ATOM     73  C   UNL A   1      42.865  32.307  34.151  1.00  0.00     0.148 A 
ATOM     74  C   UNL A   1      41.533  31.818  36.580  1.00  0.00     0.002 A 
ATOM     75  C   UNL A   1      42.819  33.285  35.139  1.00  0.00     0.091 A 
ATOM     76  F   UNL A   1      43.459  32.522  32.969  1.00  0.00    -0.205 F 
ATOM     77  C   UNL A   1      42.146  33.045  36.349  1.00  0.00     0.022 A 
BRANCH  75  78
ATOM     78  S   UNL A   1      43.642  34.873  34.968  1.00  0.00     0.127 S 
ATOM     79  O   UNL A   1      42.900  35.471  33.860  1.00  0.00    -0.237 OA
ATOM     80  O   UNL A   1      43.393  35.491  36.271  1.00  0.00    -0.237 OA
ATOM     81  O   UNL A   1      45.040  34.572  34.697  1.00  0.00    -0.744 OA
ENDBRANCH  75  78
ENDBRANCH  57  71
BRANCH  58  82
ATOM     82  C   UNL A   1      42.717  24.075  27.245  1.00  0.00     0.023 A 
ATOM     83  C   UNL A   1      43.462  24.369  26.086  1.00  0.00     0.012 A 
ATOM     84  C   UNL A   1      42.103  22.814  27.364  1.00  0.00     0.148 A 
ATOM     85  C   UNL A   1      43.568  23.439  25.052  1.00  0.00     0.002 A 
ATOM     86  C   UNL A   1      42.256  21.872  26.351  1.00  0.00     0.091 A 
ATOM     87  F   UNL A   1      41.386  22.556  28.467  1.00  0.00    -0.205 F 
ATOM     88  C   UNL A   1      42.975  22.188  25.189  1.00  0.00     0.022 A 
BRANCH  86  89
ATOM     89  S   UNL A   1      41.633  20.194  26.505  1.00  0.00     0.127 S 
ATOM     90  O   UNL A   1      40.188  20.407  26.481  1.00  0.00    -0.237 OA
ATOM     91  O   UNL A   1      42.182  19.552  25.310  1.00  0.00    -0.237 OA
ATOM     92  O   UNL A   1      42.184  19.690  27.757  1.00  0.00    -0.744 OA
ENDBRANCH  86  89
ENDBRANCH  58  82
BRANCH  70  93
ATOM     93  C   UNL A   1      46.540  25.447  32.924  1.00  0.00     0.023 A 
ATOM     94  C   UNL A   1      46.411  24.509  33.968  1.00  0.00     0.012 A 
ATOM     95  C   UNL A   1      47.814  25.708  32.381  1.00  0.00     0.148 A 
ATOM     96  C   UNL A   1      47.533  23.861  34.481  1.00  0.00     0.002 A 
ATOM     97  C   UNL A   1      48.922  25.026  32.867  1.00  0.00     0.091 A 
ATOM     98  F   UNL A   1      47.918  26.619  31.403  1.00  0.00    -0.205 F 
ATOM     99  C   UNL A   1      48.785  24.109  33.923  1.00  0.00     0.022 A 
BRANCH  97 100
ATOM    100  S   UNL A   1      50.556  25.214  32.144  1.00  0.00     0.127 S 
ATOM    101  O   UNL A   1      50.928  23.826  31.883  1.00  0.00    -0.237 OA
ATOM    102  O   UNL A   1      50.278  26.007  30.945  1.00  0.00    -0.237 OA
ATOM    103  O   UNL A   1      51.358  25.904  33.147  1.00  0.00    -0.744 OA
ENDBRANCH  97 100
ENDBRANCH  70  93
ENDBRANCH  44  45
ENDBRANCH  36  39
ENDBRANCH  34  35
ENDBRANCH  33  34
ENDBRANCH  32  33
ENDBRANCH   1  32
TORSDOF 20
ENDMDL
MODEL 3
REMARK VINA RESULT:     -12.0      1.359      7.441
REMARK SMILES C[NH+](C)CCc1nc(Nc2ccc(O)c(C(=O)NCCCCNC(=O)c3ccc(-c4c5nc(c(-c6cccc(S(=O)(=O)[O-])c6F)c6ccc([nH]6)c(-c6cccc(S(=O)(=O)[O-])c6F)c6nc(c(-c7cccc(S(=O)(=O)[O-])c7F)c7ccc4[nH]7)C=C6)C=C5)cc3)c2)c2ccccc2n1
REMARK SMILES IDX 19 1 18 2 16 3 17 4 15 6 10 7 11 8 89 9 12 10 13 11 9 12
REMARK SMILES IDX 8 14 6 15 7 16 96 17 95 18 90 19 94 20 91 21 93 22 92 23
REMARK SMILES IDX 5 24 4 25 2 26 1 27 3 28 14 30 20 32 21 33 22 34 23 35 24 36
REMARK SMILES IDX 25 38 26 39 27 40 88 41 28 42 87 43 29 44 30 45 31 46 81 47
REMARK SMILES IDX 32 48 86 49 80 50 82 51 33 52 85 53 79 54 78 55 34 57 66 58
REMARK SMILES IDX 46 59 65 60 47 61 50 62 64 63 83 64 48 65 49 66 63 68 84 69
REMARK SMILES IDX 51 70 35 71 36 72 44 73 37 74 39 75 45 76 38 77 40 78 41 79
REMARK SMILES IDX 42 80 43 81 67 82 68 83 76 84 69 85 71 86 77 87 70 88 72 89
REMARK SMILES IDX 73 90 74 91 75 92 52 93 53 94 61 95 54 96 56 97 62 98 55 99
REMARK SMILES IDX 57 100 58 101 59 102 60 103
REMARK H PARENT 18 5 9 13 2 29 14 31 23 37 82 56 50 67
REMARK Flexibility Score: inf
ROOT
ATOM      1  C   UNL A   1      32.142  27.537  26.899  1.00  0.00     0.116 C 
ENDROOT
BRANCH   1   2
ATOM      2  N   UNL A   1      31.117  26.527  27.005  1.00  0.00    -0.352 N 
ATOM      3  C   UNL A   1      30.515  25.732  26.068  1.00  0.00     0.255 C 
ATOM      4  O   UNL A   1      29.562  25.057  26.473  1.00  0.00    -0.269 OA
ATOM      5  H   UNL A   1      30.791  26.382  27.922  1.00  0.00     0.163 HD
BRANCH   3   6
ATOM      6  C   UNL A   1      30.959  25.542  24.650  1.00  0.00     0.083 A 
ATOM      7  C   UNL A   1      31.752  23.796  23.099  1.00  0.00     0.041 A 
ATOM      8  C   UNL A   1      31.877  24.755  22.098  1.00  0.00     0.030 A 
ATOM      9  C   UNL A   1      31.305  24.204  24.359  1.00  0.00     0.043 A 
ATOM     10  C   UNL A   1      31.518  26.077  22.339  1.00  0.00     0.049 A 
ATOM     11  C   UNL A   1      31.044  26.465  23.599  1.00  0.00     0.128 A 
BRANCH   7  12
ATOM     12  N   UNL A   1      32.114  22.456  22.897  1.00  0.00    -0.340 N 
ATOM     13  H   UNL A   1      31.748  22.019  22.095  1.00  0.00     0.168 HD
BRANCH  12  14
ATOM     14  C   UNL A   1      32.944  21.670  23.717  1.00  0.00     0.142 A 
ATOM     15  C   UNL A   1      33.173  19.846  25.100  1.00  0.00     0.137 A 
ATOM     16  N   UNL A   1      32.388  20.608  24.333  1.00  0.00    -0.215 NA
ATOM     17  N   UNL A   1      34.463  20.105  25.336  1.00  0.00    -0.233 NA
ATOM     18  C   UNL A   1      35.017  21.147  24.713  1.00  0.00     0.076 A 
ATOM     19  C   UNL A   1      34.297  22.001  23.873  1.00  0.00     0.043 A 
ATOM     20  C   UNL A   1      36.371  21.385  24.904  1.00  0.00     0.029 A 
ATOM     21  C   UNL A   1      34.955  23.105  23.269  1.00  0.00     0.014 A 
ATOM     22  C   UNL A   1      37.028  22.455  24.291  1.00  0.00     0.002 A 
ATOM     23  C   UNL A   1      36.315  23.323  23.477  1.00  0.00     0.001 A 
BRANCH  15  24
ATOM     24  C   UNL A   1      32.529  18.669  25.776  1.00  0.00     0.138 C 
BRANCH  24  25
ATOM     25  C   UNL A   1      32.836  17.300  25.143  1.00  0.00     0.269 C 
BRANCH  25  26
ATOM     26  N   UNL A   1      34.195  16.967  24.678  1.00  0.00    -0.339 N 
ATOM     27  C   UNL A   1      34.790  15.828  25.367  1.00  0.00     0.332 C 
ATOM     28  C   UNL A   1      34.298  16.811  23.231  1.00  0.00     0.332 C 
ATOM     29  H   UNL A   1      34.746  17.789  24.930  1.00  0.00     0.347 HD
ENDBRANCH  25  26
ENDBRANCH  24  25
ENDBRANCH  15  24
ENDBRANCH  12  14
ENDBRANCH   7  12
BRANCH  11  30
ATOM     30  O   UNL A   1      30.632  27.757  23.707  1.00  0.00    -0.507 OA
ATOM     31  H   UNL A   1      29.769  27.950  24.014  1.00  0.00     0.293 HD
ENDBRANCH  11  30
ENDBRANCH   3   6
ENDBRANCH   1   2
BRANCH   1  32
ATOM     32  C   UNL A   1      31.606  28.872  27.425  1.00  0.00     0.023 C 
BRANCH  32  33
ATOM     33  C   UNL A   1      31.615  30.010  26.405  1.00  0.00     0.023 C 
BRANCH  33  34
ATOM     34  C   UNL A   1      32.892  30.835  26.396  1.00  0.00     0.116 C 
BRANCH  34  35
ATOM     35  N   UNL A   1      32.695  32.207  26.849  1.00  0.00    -0.352 N 
ATOM     36  C   UNL A   1      33.499  32.944  27.683  1.00  0.00     0.251 C 
ATOM     37  H   UNL A   1      31.887  32.660  26.516  1.00  0.00     0.163 HD
ATOM     38  O   UNL A   1      33.157  34.065  28.051  1.00  0.00    -0.269 OA
BRANCH  36  39
ATOM     39  C   UNL A   1      34.756  32.344  28.165  1.00  0.00     0.039 A 
ATOM     40  C   UNL A   1      35.931  33.095  28.092  1.00  0.00     0.014 A 
ATOM     41  C   UNL A   1      34.753  31.076  28.752  1.00  0.00     0.014 A 
ATOM     42  C   UNL A   1      37.098  32.598  28.674  1.00  0.00     0.010 A 
ATOM     43  C   UNL A   1      35.896  30.617  29.393  1.00  0.00     0.010 A 
ATOM     44  C   UNL A   1      37.079  31.371  29.359  1.00  0.00    -0.014 A 
BRANCH  44  45
ATOM     45  C   UNL A   1      38.283  30.861  30.056  1.00  0.00     0.031 A 
ATOM     46  C   UNL A   1      39.142  29.814  29.401  1.00  0.00     0.074 A 
ATOM     47  C   UNL A   1      38.544  31.267  31.314  1.00  0.00     0.049 A 
ATOM     48  N   UNL A   1      40.194  29.201  29.873  1.00  0.00    -0.248 NA
ATOM     49  C   UNL A   1      38.747  29.375  28.051  1.00  0.00     0.031 C 
ATOM     50  C   UNL A   1      37.730  32.208  32.087  1.00  0.00     0.029 A 
ATOM     51  N   UNL A   1      39.553  30.916  32.176  1.00  0.00    -0.354 N 
ATOM     52  C   UNL A   1      40.563  28.280  28.900  1.00  0.00     0.074 A 
ATOM     53  C   UNL A   1      39.603  28.391  27.825  1.00  0.00     0.031 C 
ATOM     54  C   UNL A   1      38.273  32.361  33.305  1.00  0.00     0.029 A 
ATOM     55  C   UNL A   1      39.458  31.517  33.409  1.00  0.00     0.049 A 
ATOM     56  H   UNL A   1      40.275  30.293  31.933  1.00  0.00     0.167 HD
ATOM     57  C   UNL A   1      41.627  27.443  28.889  1.00  0.00     0.034 A 
ATOM     58  C   UNL A   1      40.240  31.398  34.500  1.00  0.00     0.034 A 
ATOM     59  C   UNL A   1      42.612  27.383  29.933  1.00  0.00     0.049 A 
ATOM     60  C   UNL A   1      41.455  30.513  34.431  1.00  0.00     0.074 A 
ATOM     61  C   UNL A   1      43.781  26.643  29.971  1.00  0.00     0.029 A 
ATOM     62  N   UNL A   1      42.545  28.089  31.123  1.00  0.00    -0.354 N 
ATOM     63  N   UNL A   1      41.886  29.781  33.432  1.00  0.00    -0.248 NA
ATOM     64  C   UNL A   1      42.314  30.467  35.624  1.00  0.00     0.031 C 
ATOM     65  C   UNL A   1      44.417  26.898  31.190  1.00  0.00     0.029 A 
ATOM     66  C   UNL A   1      43.651  27.804  31.904  1.00  0.00     0.049 A 
ATOM     67  H   UNL A   1      41.819  28.704  31.374  1.00  0.00     0.167 HD
ATOM     68  C   UNL A   1      43.082  29.217  33.861  1.00  0.00     0.074 A 
ATOM     69  C   UNL A   1      43.318  29.708  35.204  1.00  0.00     0.031 C 
ATOM     70  C   UNL A   1      43.901  28.354  33.212  1.00  0.00     0.034 A 
BRANCH  57  71
ATOM     71  C   UNL A   1      41.820  26.576  27.673  1.00  0.00     0.023 A 
ATOM     72  C   UNL A   1      42.375  27.139  26.506  1.00  0.00     0.012 A 
ATOM     73  C   UNL A   1      41.513  25.202  27.701  1.00  0.00     0.148 A 
ATOM     74  C   UNL A   1      42.593  26.356  25.374  1.00  0.00     0.002 A 
ATOM     75  C   UNL A   1      41.772  24.419  26.581  1.00  0.00     0.091 A 
ATOM     76  F   UNL A   1      40.964  24.690  28.812  1.00  0.00    -0.205 F 
ATOM     77  C   UNL A   1      42.303  24.996  25.415  1.00  0.00     0.022 A 
BRANCH  75  78
ATOM     78  S   UNL A   1      41.502  22.643  26.558  1.00  0.00     0.127 S 
ATOM     79  O   UNL A   1      42.214  22.252  25.343  1.00  0.00    -0.237 OA
ATOM     80  O   UNL A   1      42.142  22.217  27.804  1.00  0.00    -0.237 OA
ATOM     81  O   UNL A   1      40.058  22.457  26.526  1.00  0.00    -0.744 OA
ENDBRANCH  75  78
ENDBRANCH  57  71
BRANCH  58  82
ATOM     82  C   UNL A   1      39.950  32.206  35.717  1.00  0.00     0.023 A 
ATOM     83  C   UNL A   1      40.659  33.404  35.933  1.00  0.00     0.012 A 
ATOM     84  C   UNL A   1      38.964  31.817  36.645  1.00  0.00     0.148 A 
ATOM     85  C   UNL A   1      40.417  34.182  37.065  1.00  0.00     0.002 A 
ATOM     86  C   UNL A   1      38.691  32.624  37.745  1.00  0.00     0.091 A 
ATOM     87  F   UNL A   1      38.308  30.667  36.432  1.00  0.00    -0.205 F 
ATOM     88  C   UNL A   1      39.427  33.798  37.965  1.00  0.00     0.022 A 
BRANCH  86  89
ATOM     89  S   UNL A   1      37.346  32.269  38.880  1.00  0.00     0.127 S 
ATOM     90  O   UNL A   1      37.687  33.112  40.023  1.00  0.00    -0.237 OA
ATOM     91  O   UNL A   1      36.176  32.708  38.117  1.00  0.00    -0.237 OA
ATOM     92  O   UNL A   1      37.401  30.831  39.108  1.00  0.00    -0.744 OA
ENDBRANCH  86  89
ENDBRANCH  58  82
BRANCH  70  93
ATOM     93  C   UNL A   1      45.149  27.906  33.923  1.00  0.00     0.023 A 
ATOM     94  C   UNL A   1      46.339  28.645  33.775  1.00  0.00     0.012 A 
ATOM     95  C   UNL A   1      45.122  26.807  34.805  1.00  0.00     0.148 A 
ATOM     96  C   UNL A   1      47.490  28.283  34.471  1.00  0.00     0.002 A 
ATOM     97  C   UNL A   1      46.261  26.478  35.530  1.00  0.00     0.091 A 
ATOM     98  F   UNL A   1      43.985  26.104  34.916  1.00  0.00    -0.205 F 
ATOM     99  C   UNL A   1      47.448  27.209  35.357  1.00  0.00     0.022 A 
BRANCH  97 100
ATOM    100  S   UNL A   1      46.267  25.170  36.762  1.00  0.00     0.127 S 
ATOM    101  O   UNL A   1      47.597  25.319  37.348  1.00  0.00    -0.237 OA
ATOM    102  O   UNL A   1      45.165  25.563  37.642  1.00  0.00    -0.237 OA
ATOM    103  O   UNL A   1      46.037  23.932  36.028  1.00  0.00    -0.744 OA
ENDBRANCH  97 100
ENDBRANCH  70  93
ENDBRANCH  44  45
ENDBRANCH  36  39
ENDBRANCH  34  35
ENDBRANCH  33  34
ENDBRANCH  32  33
ENDBRANCH   1  32
TORSDOF 20
ENDMDL
