MODEL 1
REMARK VINA RESULT:     -12.4      0.000      0.000
REMARK SMILES Nc1cc(F)c(OCc2ccc(C(=O)NCCCCNC(=O)c3ccc(-c4c5nc(c(-c6cccc(S(=O)(=O)[O-])c6F)c6ccc([nH]6)c(-c6cccc(S(=O)(=O)[O-])c6F)c6nc(c(-c7cccc(S(=O)(=O)[O-])c7F)c7ccc4[nH]7)C=C6)C=C5)cc3)cc2)cc1F
REMARK SMILES IDX 17 1 16 2 15 3 13 4 14 5 12 7 9 8 10 9 87 10 11 11 86 12
REMARK SMILES IDX 8 13 7 14 6 15 2 16 3 17 89 18 4 19 88 20 90 21 5 22 1 23
REMARK SMILES IDX 18 26 19 27 20 28 21 29 22 31 23 32 24 33 85 34 25 35 84 36
REMARK SMILES IDX 26 37 27 38 28 39 78 40 29 41 83 42 77 43 79 44 30 45 82 46
REMARK SMILES IDX 76 47 75 48 31 50 63 51 43 52 62 53 44 54 47 55 61 56 80 57
REMARK SMILES IDX 45 58 46 59 60 61 81 62 48 63 32 64 33 65 41 66 34 67 36 68
REMARK SMILES IDX 42 69 35 70 37 71 38 72 39 73 40 74 64 75 65 76 73 77 66 78
REMARK SMILES IDX 68 79 74 80 67 81 69 82 70 83 71 84 72 85 49 86 50 87 58 88
REMARK SMILES IDX 51 89 53 90 59 91 52 92 54 93 55 94 56 95 57 96
REMARK H PARENT 15 6 1 24 1 25 20 30 79 49 47 60
REMARK Flexibility Score: inf
ROOT
ATOM      1  C   UNL A   1      32.951  29.177  25.165  1.00  0.00     0.023 C 
ENDROOT
BRANCH   1   2
ATOM      2  C   UNL A   1      33.057  28.966  23.658  1.00  0.00     0.116 C 
BRANCH   2   3
ATOM      3  N   UNL A   1      31.865  29.331  22.906  1.00  0.00    -0.352 N 
ATOM      4  C   UNL A   1      30.873  28.518  22.401  1.00  0.00     0.251 C 
ATOM      5  O   UNL A   1      29.946  28.998  21.756  1.00  0.00    -0.269 OA
ATOM      6  H   UNL A   1      31.752  30.294  22.735  1.00  0.00     0.163 HD
BRANCH   4   7
ATOM      7  C   UNL A   1      30.955  27.049  22.575  1.00  0.00     0.039 A 
ATOM      8  C   UNL A   1      31.488  24.340  23.135  1.00  0.00    -0.011 A 
ATOM      9  C   UNL A   1      32.054  24.966  22.013  1.00  0.00     0.008 A 
ATOM     10  C   UNL A   1      30.557  25.070  23.890  1.00  0.00     0.008 A 
ATOM     11  C   UNL A   1      31.788  26.312  21.731  1.00  0.00     0.014 A 
ATOM     12  C   UNL A   1      30.269  26.401  23.597  1.00  0.00     0.014 A 
BRANCH   8  13
ATOM     13  C   UNL A   1      32.002  22.974  23.569  1.00  0.00     0.265 C 
BRANCH  13  14
ATOM     14  O   UNL A   1      32.329  22.831  24.955  1.00  0.00    -0.486 OA
BRANCH  14  15
ATOM     15  C   UNL A   1      33.611  22.501  25.296  1.00  0.00     0.158 A 
ATOM     16  C   UNL A   1      36.379  22.195  25.745  1.00  0.00     0.071 A 
ATOM     17  C   UNL A   1      35.742  23.390  26.074  1.00  0.00     0.071 A 
ATOM     18  C   UNL A   1      35.586  21.127  25.298  1.00  0.00     0.149 A 
ATOM     19  C   UNL A   1      34.375  23.536  25.843  1.00  0.00     0.167 A 
ATOM     20  C   UNL A   1      34.214  21.263  25.080  1.00  0.00     0.091 A 
ATOM     21  F   UNL A   1      36.165  19.950  25.015  1.00  0.00    -0.205 F 
ATOM     22  F   UNL A   1      33.806  24.723  26.106  1.00  0.00    -0.203 F 
BRANCH  16  23
ATOM     23  N   UNL A   1      37.741  22.036  25.971  1.00  0.00    -0.396 N 
ATOM     24  H   UNL A   1      38.383  22.208  25.245  1.00  0.00     0.156 HD
ATOM     25  H   UNL A   1      38.063  21.750  26.856  1.00  0.00     0.156 HD
ENDBRANCH  16  23
ENDBRANCH  14  15
ENDBRANCH  13  14
ENDBRANCH   8  13
ENDBRANCH   4   7
ENDBRANCH   2   3
ENDBRANCH   1   2
BRANCH   1  26
ATOM     26  C   UNL A   1      31.905  30.181  25.633  1.00  0.00     0.023 C 
BRANCH  26  27
ATOM     27  C   UNL A   1      32.053  30.684  27.063  1.00  0.00     0.116 C 
BRANCH  27  28
ATOM     28  N   UNL A   1      32.207  32.130  27.172  1.00  0.00    -0.352 N 
ATOM     29  C   UNL A   1      33.302  32.875  27.559  1.00  0.00     0.251 C 
ATOM     30  H   UNL A   1      31.409  32.654  26.934  1.00  0.00     0.163 HD
ATOM     31  O   UNL A   1      33.210  34.097  27.646  1.00  0.00    -0.269 OA
BRANCH  29  32
ATOM     32  C   UNL A   1      34.562  32.193  27.925  1.00  0.00     0.039 A 
ATOM     33  C   UNL A   1      34.576  30.826  28.195  1.00  0.00     0.014 A 
ATOM     34  C   UNL A   1      35.727  32.950  28.083  1.00  0.00     0.014 A 
ATOM     35  C   UNL A   1      35.670  30.271  28.850  1.00  0.00     0.010 A 
ATOM     36  C   UNL A   1      36.864  32.361  28.645  1.00  0.00     0.010 A 
ATOM     37  C   UNL A   1      36.819  31.038  29.107  1.00  0.00    -0.014 A 
BRANCH  37  38
ATOM     38  C   UNL A   1      37.935  30.441  29.892  1.00  0.00     0.031 A 
ATOM     39  C   UNL A   1      38.920  29.497  29.248  1.00  0.00     0.074 A 
ATOM     40  C   UNL A   1      38.104  30.803  31.178  1.00  0.00     0.049 A 
ATOM     41  N   UNL A   1      39.968  28.917  29.778  1.00  0.00    -0.248 NA
ATOM     42  C   UNL A   1      38.708  29.153  27.831  1.00  0.00     0.031 C 
ATOM     43  C   UNL A   1      37.216  31.699  31.922  1.00  0.00     0.029 A 
ATOM     44  N   UNL A   1      39.088  30.486  32.080  1.00  0.00    -0.354 N 
ATOM     45  C   UNL A   1      40.507  28.110  28.784  1.00  0.00     0.074 A 
ATOM     46  C   UNL A   1      39.673  28.269  27.613  1.00  0.00     0.031 C 
ATOM     47  C   UNL A   1      37.725  31.906  33.145  1.00  0.00     0.029 A 
ATOM     48  C   UNL A   1      38.943  31.115  33.294  1.00  0.00     0.049 A 
ATOM     49  H   UNL A   1      39.828  29.869  31.877  1.00  0.00     0.167 HD
ATOM     50  C   UNL A   1      41.607  27.323  28.831  1.00  0.00     0.034 A 
ATOM     51  C   UNL A   1      39.696  31.062  34.408  1.00  0.00     0.034 A 
ATOM     52  C   UNL A   1      42.482  27.217  29.967  1.00  0.00     0.049 A 
ATOM     53  C   UNL A   1      40.926  30.205  34.427  1.00  0.00     0.074 A 
ATOM     54  C   UNL A   1      43.647  26.479  30.085  1.00  0.00     0.029 A 
ATOM     55  N   UNL A   1      42.298  27.872  31.173  1.00  0.00    -0.354 N 
ATOM     56  N   UNL A   1      41.447  29.497  33.455  1.00  0.00    -0.248 NA
ATOM     57  C   UNL A   1      41.677  30.140  35.689  1.00  0.00     0.031 C 
ATOM     58  C   UNL A   1      44.170  26.690  31.365  1.00  0.00     0.029 A 
ATOM     59  C   UNL A   1      43.328  27.558  32.042  1.00  0.00     0.049 A 
ATOM     60  H   UNL A   1      41.546  28.471  31.381  1.00  0.00     0.167 HD
ATOM     61  C   UNL A   1      42.587  28.906  33.984  1.00  0.00     0.074 A 
ATOM     62  C   UNL A   1      42.696  29.359  35.355  1.00  0.00     0.031 C 
ATOM     63  C   UNL A   1      43.449  28.048  33.390  1.00  0.00     0.034 A 
BRANCH  50  64
ATOM     64  C   UNL A   1      41.978  26.549  27.595  1.00  0.00     0.023 A 
ATOM     65  C   UNL A   1      42.652  27.207  26.548  1.00  0.00     0.012 A 
ATOM     66  C   UNL A   1      41.752  25.161  27.513  1.00  0.00     0.148 A 
ATOM     67  C   UNL A   1      43.089  26.497  25.431  1.00  0.00     0.002 A 
ATOM     68  C   UNL A   1      42.214  24.455  26.408  1.00  0.00     0.091 A 
ATOM     69  F   UNL A   1      41.095  24.560  28.516  1.00  0.00    -0.205 F 
ATOM     70  C   UNL A   1      42.879  25.121  25.365  1.00  0.00     0.022 A 
BRANCH  68  71
ATOM     71  S   UNL A   1      42.042  22.672  26.250  1.00  0.00     0.127 S 
ATOM     72  O   UNL A   1      42.729  22.204  27.453  1.00  0.00    -0.237 OA
ATOM     73  O   UNL A   1      40.589  22.500  26.272  1.00  0.00    -0.237 OA
ATOM     74  O   UNL A   1      42.680  22.316  24.991  1.00  0.00    -0.744 OA
ENDBRANCH  68  71
ENDBRANCH  50  64
BRANCH  51  75
ATOM     75  C   UNL A   1      39.315  31.902  35.575  1.00  0.00     0.023 A 
ATOM     76  C   UNL A   1      39.634  33.272  35.569  1.00  0.00     0.012 A 
ATOM     77  C   UNL A   1      38.548  31.373  36.631  1.00  0.00     0.148 A 
ATOM     78  C   UNL A   1      39.191  34.106  36.596  1.00  0.00     0.002 A 
ATOM     79  C   UNL A   1      38.071  32.217  37.625  1.00  0.00     0.091 A 
ATOM     80  F   UNL A   1      38.264  30.064  36.613  1.00  0.00    -0.205 F 
ATOM     81  C   UNL A   1      38.399  33.582  37.615  1.00  0.00     0.022 A 
BRANCH  79  82
ATOM     82  S   UNL A   1      36.939  31.661  38.905  1.00  0.00     0.127 S 
ATOM     83  O   UNL A   1      37.776  31.740  40.099  1.00  0.00    -0.237 OA
ATOM     84  O   UNL A   1      35.882  32.670  38.825  1.00  0.00    -0.237 OA
ATOM     85  O   UNL A   1      36.526  30.320  38.515  1.00  0.00    -0.744 OA
ENDBRANCH  79  82
ENDBRANCH  51  75
BRANCH  63  86
ATOM     86  C   UNL A   1      44.594  27.521  34.209  1.00  0.00     0.023 A 
ATOM     87  C   UNL A   1      45.791  28.259  34.263  1.00  0.00     0.012 A 
ATOM     88  C   UNL A   1      44.443  26.373  35.011  1.00  0.00     0.148 A 
ATOM     89  C   UNL A   1      46.829  27.858  35.102  1.00  0.00     0.002 A 
ATOM     90  C   UNL A   1      45.471  25.996  35.866  1.00  0.00     0.091 A 
ATOM     91  F   UNL A   1      43.295  25.685  34.930  1.00  0.00    -0.205 F 
ATOM     92  C   UNL A   1      46.665  26.735  35.910  1.00  0.00     0.022 A 
BRANCH  90  93
ATOM     93  S   UNL A   1      45.329  24.608  36.997  1.00  0.00     0.127 S 
ATOM     94  O   UNL A   1      45.160  23.488  36.074  1.00  0.00    -0.237 OA
ATOM     95  O   UNL A   1      46.618  24.640  37.688  1.00  0.00    -0.237 OA
ATOM     96  O   UNL A   1      44.179  24.893  37.845  1.00  0.00    -0.744 OA
ENDBRANCH  90  93
ENDBRANCH  63  86
ENDBRANCH  37  38
ENDBRANCH  29  32
ENDBRANCH  27  28
ENDBRANCH  26  27
ENDBRANCH   1  26
TORSDOF 18
ENDMDL
MODEL 2
REMARK VINA RESULT:     -12.1      1.052      7.524
REMARK SMILES Nc1cc(F)c(OCc2ccc(C(=O)NCCCCNC(=O)c3ccc(-c4c5nc(c(-c6cccc(S(=O)(=O)[O-])c6F)c6ccc([nH]6)c(-c6cccc(S(=O)(=O)[O-])c6F)c6nc(c(-c7cccc(S(=O)(=O)[O-])c7F)c7ccc4[nH]7)C=C6)C=C5)cc3)cc2)cc1F
REMARK SMILES IDX 17 1 16 2 15 3 13 4 14 5 12 7 9 8 10 9 87 10 11 11 86 12
REMARK SMILES IDX 8 13 7 14 6 15 2 16 3 17 89 18 4 19 88 20 90 21 5 22 1 23
REMARK SMILES IDX 18 26 19 27 20 28 21 29 22 31 23 32 24 33 85 34 25 35 84 36
REMARK SMILES IDX 26 37 27 38 28 39 78 40 29 41 83 42 77 43 79 44 30 45 82 46
REMARK SMILES IDX 76 47 75 48 31 50 63 51 43 52 62 53 44 54 47 55 61 56 80 57
REMARK SMILES IDX 45 58 46 59 60 61 81 62 48 63 32 64 33 65 41 66 34 67 36 68
REMARK SMILES IDX 42 69 35 70 37 71 38 72 39 73 40 74 64 75 65 76 73 77 66 78
REMARK SMILES IDX 68 79 74 80 67 81 69 82 70 83 71 84 72 85 49 86 50 87 58 88
REMARK SMILES IDX 51 89 53 90 59 91 52 92 54 93 55 94 56 95 57 96
REMARK H PARENT 15 6 1 24 1 25 20 30 79 49 47 60
REMARK Flexibility Score: inf
ROOT
ATOM      1  C   UNL A   1      31.806  29.846  26.644  1.00  0.00     0.023 C 
ENDROOT
BRANCH   1   2
ATOM      2  C   UNL A   1      32.033  29.355  25.218  1.00  0.00     0.116 C 
BRANCH   2   3
ATOM      3  N   UNL A   1      31.140  29.933  24.224  1.00  0.00    -0.352 N 
ATOM      4  C   UNL A   1      30.340  29.295  23.298  1.00  0.00     0.251 C 
ATOM      5  O   UNL A   1      29.667  29.948  22.507  1.00  0.00    -0.269 OA
ATOM      6  H   UNL A   1      31.101  30.916  24.212  1.00  0.00     0.163 HD
BRANCH   4   7
ATOM      7  C   UNL A   1      30.341  27.817  23.210  1.00  0.00     0.039 A 
ATOM      8  C   UNL A   1      30.694  25.023  23.315  1.00  0.00    -0.011 A 
ATOM      9  C   UNL A   1      31.400  25.802  22.383  1.00  0.00     0.008 A 
ATOM     10  C   UNL A   1      29.722  25.665  24.099  1.00  0.00     0.008 A 
ATOM     11  C   UNL A   1      31.223  27.190  22.328  1.00  0.00     0.014 A 
ATOM     12  C   UNL A   1      29.524  27.041  24.027  1.00  0.00     0.014 A 
BRANCH   8  13
ATOM     13  C   UNL A   1      31.101  23.574  23.539  1.00  0.00     0.265 C 
BRANCH  13  14
ATOM     14  O   UNL A   1      32.435  23.225  23.159  1.00  0.00    -0.486 OA
BRANCH  14  15
ATOM     15  C   UNL A   1      33.408  23.206  24.120  1.00  0.00     0.158 A 
ATOM     16  C   UNL A   1      35.712  23.108  25.744  1.00  0.00     0.071 A 
ATOM     17  C   UNL A   1      35.617  24.043  24.715  1.00  0.00     0.071 A 
ATOM     18  C   UNL A   1      34.591  22.308  26.013  1.00  0.00     0.149 A 
ATOM     19  C   UNL A   1      34.478  24.081  23.913  1.00  0.00     0.167 A 
ATOM     20  C   UNL A   1      33.442  22.352  25.222  1.00  0.00     0.091 A 
ATOM     21  F   UNL A   1      34.637  21.429  27.026  1.00  0.00    -0.205 F 
ATOM     22  F   UNL A   1      34.448  24.946  22.887  1.00  0.00    -0.203 F 
BRANCH  16  23
ATOM     23  N   UNL A   1      36.841  23.060  26.552  1.00  0.00    -0.396 N 
ATOM     24  H   UNL A   1      36.776  22.707  27.469  1.00  0.00     0.156 HD
ATOM     25  H   UNL A   1      37.707  23.377  26.207  1.00  0.00     0.156 HD
ENDBRANCH  16  23
ENDBRANCH  14  15
ENDBRANCH  13  14
ENDBRANCH   8  13
ENDBRANCH   4   7
ENDBRANCH   2   3
ENDBRANCH   1   2
BRANCH   1  26
ATOM     26  C   UNL A   1      31.318  31.283  26.792  1.00  0.00     0.023 C 
BRANCH  26  27
ATOM     27  C   UNL A   1      32.323  32.370  26.439  1.00  0.00     0.116 C 
BRANCH  27  28
ATOM     28  N   UNL A   1      32.264  33.540  27.309  1.00  0.00    -0.352 N 
ATOM     29  C   UNL A   1      33.152  33.968  28.275  1.00  0.00     0.251 C 
ATOM     30  H   UNL A   1      31.472  34.111  27.188  1.00  0.00     0.163 HD
ATOM     31  O   UNL A   1      32.888  34.959  28.951  1.00  0.00    -0.269 OA
BRANCH  29  32
ATOM     32  C   UNL A   1      34.387  33.195  28.532  1.00  0.00     0.039 A 
ATOM     33  C   UNL A   1      34.321  31.907  29.060  1.00  0.00     0.014 A 
ATOM     34  C   UNL A   1      35.628  33.804  28.320  1.00  0.00     0.014 A 
ATOM     35  C   UNL A   1      35.466  31.332  29.601  1.00  0.00     0.010 A 
ATOM     36  C   UNL A   1      36.793  33.173  28.771  1.00  0.00     0.010 A 
ATOM     37  C   UNL A   1      36.714  31.969  29.486  1.00  0.00    -0.014 A 
BRANCH  37  38
ATOM     38  C   UNL A   1      37.902  31.373  30.156  1.00  0.00     0.031 A 
ATOM     39  C   UNL A   1      38.234  31.705  31.589  1.00  0.00     0.074 A 
ATOM     40  C   UNL A   1      38.652  30.473  29.490  1.00  0.00     0.049 A 
ATOM     41  N   UNL A   1      39.210  31.247  32.334  1.00  0.00    -0.248 NA
ATOM     42  C   UNL A   1      37.368  32.675  32.282  1.00  0.00     0.031 C 
ATOM     43  C   UNL A   1      38.444  30.073  28.097  1.00  0.00     0.029 A 
ATOM     44  N   UNL A   1      39.719  29.714  29.899  1.00  0.00    -0.354 N 
ATOM     45  C   UNL A   1      39.106  31.903  33.554  1.00  0.00     0.074 A 
ATOM     46  C   UNL A   1      37.971  32.794  33.458  1.00  0.00     0.031 C 
ATOM     47  C   UNL A   1      39.315  29.103  27.784  1.00  0.00     0.029 A 
ATOM     48  C   UNL A   1      40.180  28.851  28.933  1.00  0.00     0.049 A 
ATOM     49  H   UNL A   1      40.116  29.780  30.797  1.00  0.00     0.167 HD
ATOM     50  C   UNL A   1      39.869  31.762  34.663  1.00  0.00     0.034 A 
ATOM     51  C   UNL A   1      41.188  27.959  28.958  1.00  0.00     0.034 A 
ATOM     52  C   UNL A   1      40.952  30.824  34.789  1.00  0.00     0.049 A 
ATOM     53  C   UNL A   1      42.002  27.801  30.207  1.00  0.00     0.074 A 
ATOM     54  C   UNL A   1      41.749  30.581  35.895  1.00  0.00     0.029 A 
ATOM     55  N   UNL A   1      41.382  29.969  33.788  1.00  0.00    -0.354 N 
ATOM     56  N   UNL A   1      41.846  28.390  31.368  1.00  0.00    -0.248 NA
ATOM     57  C   UNL A   1      43.126  26.855  30.158  1.00  0.00     0.031 C 
ATOM     58  C   UNL A   1      42.662  29.576  35.562  1.00  0.00     0.029 A 
ATOM     59  C   UNL A   1      42.432  29.196  34.249  1.00  0.00     0.049 A 
ATOM     60  H   UNL A   1      40.998  29.921  32.884  1.00  0.00     0.167 HD
ATOM     61  C   UNL A   1      42.847  27.885  32.187  1.00  0.00     0.074 A 
ATOM     62  C   UNL A   1      43.589  26.922  31.400  1.00  0.00     0.031 C 
ATOM     63  C   UNL A   1      43.135  28.211  33.469  1.00  0.00     0.034 A 
BRANCH  50  64
ATOM     64  C   UNL A   1      39.531  32.599  35.867  1.00  0.00     0.023 A 
ATOM     65  C   UNL A   1      40.064  33.898  35.971  1.00  0.00     0.012 A 
ATOM     66  C   UNL A   1      38.616  32.142  36.835  1.00  0.00     0.148 A 
ATOM     67  C   UNL A   1      39.699  34.730  37.029  1.00  0.00     0.002 A 
ATOM     68  C   UNL A   1      38.236  32.986  37.872  1.00  0.00     0.091 A 
ATOM     69  F   UNL A   1      38.135  30.896  36.721  1.00  0.00    -0.205 F 
ATOM     70  C   UNL A   1      38.778  34.279  37.972  1.00  0.00     0.022 A 
BRANCH  68  71
ATOM     71  S   UNL A   1      37.017  32.522  39.109  1.00  0.00     0.127 S 
ATOM     72  O   UNL A   1      37.375  31.127  39.363  1.00  0.00    -0.237 OA
ATOM     73  O   UNL A   1      37.326  33.441  40.205  1.00  0.00    -0.237 OA
ATOM     74  O   UNL A   1      35.716  32.728  38.489  1.00  0.00    -0.744 OA
ENDBRANCH  68  71
ENDBRANCH  50  64
BRANCH  51  75
ATOM     75  C   UNL A   1      41.430  27.114  27.759  1.00  0.00     0.023 A 
ATOM     76  C   UNL A   1      42.102  27.667  26.653  1.00  0.00     0.012 A 
ATOM     77  C   UNL A   1      41.097  25.745  27.754  1.00  0.00     0.148 A 
ATOM     78  C   UNL A   1      42.443  26.869  25.561  1.00  0.00     0.002 A 
ATOM     79  C   UNL A   1      41.480  24.947  26.685  1.00  0.00     0.091 A 
ATOM     80  F   UNL A   1      40.451  25.248  28.818  1.00  0.00    -0.205 F 
ATOM     81  C   UNL A   1      42.145  25.508  25.583  1.00  0.00     0.022 A 
BRANCH  79  82
ATOM     82  S   UNL A   1      41.256  23.165  26.679  1.00  0.00     0.127 S 
ATOM     83  O   UNL A   1      41.906  22.785  25.428  1.00  0.00    -0.237 OA
ATOM     84  O   UNL A   1      41.973  22.771  27.893  1.00  0.00    -0.237 OA
ATOM     85  O   UNL A   1      39.817  22.945  26.730  1.00  0.00    -0.744 OA
ENDBRANCH  79  82
ENDBRANCH  51  75
BRANCH  63  86
ATOM     86  C   UNL A   1      44.310  27.535  34.119  1.00  0.00     0.023 A 
ATOM     87  C   UNL A   1      45.586  28.113  33.992  1.00  0.00     0.012 A 
ATOM     88  C   UNL A   1      44.131  26.409  34.946  1.00  0.00     0.148 A 
ATOM     89  C   UNL A   1      46.676  27.575  34.675  1.00  0.00     0.002 A 
ATOM     90  C   UNL A   1      45.216  25.895  35.647  1.00  0.00     0.091 A 
ATOM     91  F   UNL A   1      42.906  25.874  35.039  1.00  0.00    -0.205 F 
ATOM     92  C   UNL A   1      46.489  26.475  35.509  1.00  0.00     0.022 A 
BRANCH  90  93
ATOM     93  S   UNL A   1      45.064  24.527  36.800  1.00  0.00     0.127 S 
ATOM     94  O   UNL A   1      44.703  23.426  35.909  1.00  0.00    -0.237 OA
ATOM     95  O   UNL A   1      46.413  24.444  37.360  1.00  0.00    -0.237 OA
ATOM     96  O   UNL A   1      44.034  24.916  37.755  1.00  0.00    -0.744 OA
ENDBRANCH  90  93
ENDBRANCH  63  86
ENDBRANCH  37  38
ENDBRANCH  29  32
ENDBRANCH  27  28
ENDBRANCH  26  27
ENDBRANCH   1  26
TORSDOF 18
ENDMDL
MODEL 3
REMARK VINA RESULT:     -12.1      5.157      8.429
REMARK SMILES Nc1cc(F)c(OCc2ccc(C(=O)NCCCCNC(=O)c3ccc(-c4c5nc(c(-c6cccc(S(=O)(=O)[O-])c6F)c6ccc([nH]6)c(-c6cccc(S(=O)(=O)[O-])c6F)c6nc(c(-c7cccc(S(=O)(=O)[O-])c7F)c7ccc4[nH]7)C=C6)C=C5)cc3)cc2)cc1F
REMARK SMILES IDX 17 1 16 2 15 3 13 4 14 5 12 7 9 8 10 9 87 10 11 11 86 12
REMARK SMILES IDX 8 13 7 14 6 15 2 16 3 17 89 18 4 19 88 20 90 21 5 22 1 23
REMARK SMILES IDX 18 26 19 27 20 28 21 29 22 31 23 32 24 33 85 34 25 35 84 36
REMARK SMILES IDX 26 37 27 38 28 39 78 40 29 41 83 42 77 43 79 44 30 45 82 46
REMARK SMILES IDX 76 47 75 48 31 50 63 51 43 52 62 53 44 54 47 55 61 56 80 57
REMARK SMILES IDX 45 58 46 59 60 61 81 62 48 63 32 64 33 65 41 66 34 67 36 68
REMARK SMILES IDX 42 69 35 70 37 71 38 72 39 73 40 74 64 75 65 76 73 77 66 78
REMARK SMILES IDX 68 79 74 80 67 81 69 82 70 83 71 84 72 85 49 86 50 87 58 88
REMARK SMILES IDX 51 89 53 90 59 91 52 92 54 93 55 94 56 95 57 96
REMARK H PARENT 15 6 1 24 1 25 20 30 79 49 47 60
REMARK Flexibility Score: inf
ROOT
ATOM      1  C   UNL A   1      35.831  21.347  24.615  1.00  0.00     0.023 C 
ENDROOT
BRANCH   1   2
ATOM      2  C   UNL A   1      34.956  21.118  25.843  1.00  0.00     0.116 C 
BRANCH   2   3
ATOM      3  N   UNL A   1      34.030  20.000  25.732  1.00  0.00    -0.352 N 
ATOM      4  C   UNL A   1      32.754  19.977  25.209  1.00  0.00     0.251 C 
ATOM      5  O   UNL A   1      32.096  18.941  25.226  1.00  0.00    -0.269 OA
ATOM      6  H   UNL A   1      34.362  19.140  26.078  1.00  0.00     0.163 HD
BRANCH   4   7
ATOM      7  C   UNL A   1      32.143  21.220  24.685  1.00  0.00     0.039 A 
ATOM      8  C   UNL A   1      31.347  23.788  23.842  1.00  0.00    -0.011 A 
ATOM      9  C   UNL A   1      31.070  23.342  25.145  1.00  0.00     0.008 A 
ATOM     10  C   UNL A   1      31.917  22.871  22.945  1.00  0.00     0.008 A 
ATOM     11  C   UNL A   1      31.462  22.064  25.564  1.00  0.00     0.014 A 
ATOM     12  C   UNL A   1      32.284  21.590  23.351  1.00  0.00     0.014 A 
BRANCH   8  13
ATOM     13  C   UNL A   1      31.159  25.259  23.500  1.00  0.00     0.265 C 
BRANCH  13  14
ATOM     14  O   UNL A   1      32.316  26.091  23.626  1.00  0.00    -0.486 OA
BRANCH  14  15
ATOM     15  C   UNL A   1      32.332  27.051  24.600  1.00  0.00     0.158 A 
ATOM     16  C   UNL A   1      32.815  28.909  26.666  1.00  0.00     0.071 A 
ATOM     17  C   UNL A   1      33.600  28.919  25.516  1.00  0.00     0.071 A 
ATOM     18  C   UNL A   1      31.719  28.032  26.709  1.00  0.00     0.149 A 
ATOM     19  C   UNL A   1      33.360  27.994  24.501  1.00  0.00     0.167 A 
ATOM     20  C   UNL A   1      31.465  27.114  25.690  1.00  0.00     0.091 A 
ATOM     21  F   UNL A   1      30.919  28.030  27.787  1.00  0.00    -0.205 F 
ATOM     22  F   UNL A   1      34.178  27.985  23.437  1.00  0.00    -0.203 F 
BRANCH  16  23
ATOM     23  N   UNL A   1      33.043  29.826  27.685  1.00  0.00    -0.396 N 
ATOM     24  H   UNL A   1      33.567  29.563  28.476  1.00  0.00     0.156 HD
ATOM     25  H   UNL A   1      32.680  30.739  27.616  1.00  0.00     0.156 HD
ENDBRANCH  16  23
ENDBRANCH  14  15
ENDBRANCH  13  14
ENDBRANCH   8  13
ENDBRANCH   4   7
ENDBRANCH   2   3
ENDBRANCH   1   2
BRANCH   1  26
ATOM     26  C   UNL A   1      37.215  20.711  24.646  1.00  0.00     0.023 C 
BRANCH  26  27
ATOM     27  C   UNL A   1      38.232  21.366  25.572  1.00  0.00     0.116 C 
BRANCH  27  28
ATOM     28  N   UNL A   1      39.388  20.529  25.873  1.00  0.00    -0.352 N 
ATOM     29  C   UNL A   1      40.532  20.826  26.587  1.00  0.00     0.251 C 
ATOM     30  H   UNL A   1      39.347  19.614  25.513  1.00  0.00     0.163 HD
ATOM     31  O   UNL A   1      41.429  19.992  26.677  1.00  0.00    -0.269 OA
BRANCH  29  32
ATOM     32  C   UNL A   1      40.695  22.167  27.187  1.00  0.00     0.039 A 
ATOM     33  C   UNL A   1      40.051  23.274  26.636  1.00  0.00     0.014 A 
ATOM     34  C   UNL A   1      41.573  22.331  28.263  1.00  0.00     0.014 A 
ATOM     35  C   UNL A   1      40.466  24.552  26.993  1.00  0.00     0.010 A 
ATOM     36  C   UNL A   1      41.909  23.620  28.691  1.00  0.00     0.010 A 
ATOM     37  C   UNL A   1      41.421  24.742  28.007  1.00  0.00    -0.014 A 
BRANCH  37  38
ATOM     38  C   UNL A   1      41.912  26.116  28.299  1.00  0.00     0.031 A 
ATOM     39  C   UNL A   1      43.264  26.577  27.814  1.00  0.00     0.074 A 
ATOM     40  C   UNL A   1      41.108  26.980  28.949  1.00  0.00     0.049 A 
ATOM     41  N   UNL A   1      43.829  27.752  27.951  1.00  0.00    -0.248 NA
ATOM     42  C   UNL A   1      44.095  25.603  27.085  1.00  0.00     0.031 C 
ATOM     43  C   UNL A   1      39.782  26.657  29.479  1.00  0.00     0.029 A 
ATOM     44  N   UNL A   1      41.272  28.309  29.250  1.00  0.00    -0.354 N 
ATOM     45  C   UNL A   1      45.088  27.644  27.374  1.00  0.00     0.074 A 
ATOM     46  C   UNL A   1      45.213  26.290  26.883  1.00  0.00     0.031 C 
ATOM     47  C   UNL A   1      39.230  27.767  29.989  1.00  0.00     0.029 A 
ATOM     48  C   UNL A   1      40.182  28.868  29.875  1.00  0.00     0.049 A 
ATOM     49  H   UNL A   1      42.091  28.813  29.040  1.00  0.00     0.167 HD
ATOM     50  C   UNL A   1      46.047  28.590  27.243  1.00  0.00     0.034 A 
ATOM     51  C   UNL A   1      39.967  30.122  30.313  1.00  0.00     0.034 A 
ATOM     52  C   UNL A   1      45.901  29.957  27.664  1.00  0.00     0.049 A 
ATOM     53  C   UNL A   1      41.034  31.160  30.133  1.00  0.00     0.074 A 
ATOM     54  C   UNL A   1      46.806  30.996  27.526  1.00  0.00     0.029 A 
ATOM     55  N   UNL A   1      44.781  30.480  28.288  1.00  0.00    -0.354 N 
ATOM     56  N   UNL A   1      42.193  31.048  29.531  1.00  0.00    -0.248 NA
ATOM     57  C   UNL A   1      40.766  32.497  30.683  1.00  0.00     0.031 C 
ATOM     58  C   UNL A   1      46.231  32.151  28.068  1.00  0.00     0.029 A 
ATOM     59  C   UNL A   1      44.969  31.827  28.542  1.00  0.00     0.049 A 
ATOM     60  H   UNL A   1      43.973  29.969  28.517  1.00  0.00     0.167 HD
ATOM     61  C   UNL A   1      42.792  32.298  29.626  1.00  0.00     0.074 A 
ATOM     62  C   UNL A   1      41.858  33.159  30.321  1.00  0.00     0.031 C 
ATOM     63  C   UNL A   1      44.016  32.684  29.196  1.00  0.00     0.034 A 
BRANCH  50  64
ATOM     64  C   UNL A   1      47.334  28.207  26.563  1.00  0.00     0.023 A 
ATOM     65  C   UNL A   1      48.466  27.916  27.348  1.00  0.00     0.012 A 
ATOM     66  C   UNL A   1      47.393  28.038  25.166  1.00  0.00     0.148 A 
ATOM     67  C   UNL A   1      49.645  27.471  26.752  1.00  0.00     0.002 A 
ATOM     68  C   UNL A   1      48.564  27.569  24.581  1.00  0.00     0.091 A 
ATOM     69  F   UNL A   1      46.306  28.336  24.439  1.00  0.00    -0.205 F 
ATOM     70  C   UNL A   1      49.691  27.288  25.372  1.00  0.00     0.022 A 
BRANCH  68  71
ATOM     71  S   UNL A   1      48.711  27.247  22.819  1.00  0.00     0.127 S 
ATOM     72  O   UNL A   1      48.332  25.837  22.745  1.00  0.00    -0.237 OA
ATOM     73  O   UNL A   1      47.730  28.174  22.254  1.00  0.00    -0.237 OA
ATOM     74  O   UNL A   1      50.095  27.538  22.470  1.00  0.00    -0.744 OA
ENDBRANCH  68  71
ENDBRANCH  50  64
BRANCH  51  75
ATOM     75  C   UNL A   1      38.650  30.457  30.918  1.00  0.00     0.023 A 
ATOM     76  C   UNL A   1      38.446  30.225  32.291  1.00  0.00     0.012 A 
ATOM     77  C   UNL A   1      37.647  31.098  30.166  1.00  0.00     0.148 A 
ATOM     78  C   UNL A   1      37.263  30.632  32.908  1.00  0.00     0.002 A 
ATOM     79  C   UNL A   1      36.492  31.542  30.797  1.00  0.00     0.091 A 
ATOM     80  F   UNL A   1      37.867  31.299  28.860  1.00  0.00    -0.205 F 
ATOM     81  C   UNL A   1      36.294  31.302  32.165  1.00  0.00     0.022 A 
BRANCH  79  82
ATOM     82  S   UNL A   1      35.247  32.525  29.954  1.00  0.00     0.127 S 
ATOM     83  O   UNL A   1      34.283  32.769  31.024  1.00  0.00    -0.237 OA
ATOM     84  O   UNL A   1      36.022  33.697  29.543  1.00  0.00    -0.237 OA
ATOM     85  O   UNL A   1      34.768  31.701  28.853  1.00  0.00    -0.744 OA
ENDBRANCH  79  82
ENDBRANCH  51  75
BRANCH  63  86
ATOM     86  C   UNL A   1      44.440  34.101  29.463  1.00  0.00     0.023 A 
ATOM     87  C   UNL A   1      45.133  34.393  30.653  1.00  0.00     0.012 A 
ATOM     88  C   UNL A   1      44.261  35.106  28.493  1.00  0.00     0.148 A 
ATOM     89  C   UNL A   1      45.639  35.673  30.879  1.00  0.00     0.002 A 
ATOM     90  C   UNL A   1      44.793  36.371  28.712  1.00  0.00     0.091 A 
ATOM     91  F   UNL A   1      43.588  34.801  27.375  1.00  0.00    -0.205 F 
ATOM     92  C   UNL A   1      45.479  36.657  29.905  1.00  0.00     0.022 A 
BRANCH  90  93
ATOM     93  S   UNL A   1      44.702  37.685  27.490  1.00  0.00     0.127 S 
ATOM     94  O   UNL A   1      44.980  38.867  28.304  1.00  0.00    -0.237 OA
ATOM     95  O   UNL A   1      45.771  37.317  26.562  1.00  0.00    -0.237 OA
ATOM     96  O   UNL A   1      43.361  37.620  26.927  1.00  0.00    -0.744 OA
ENDBRANCH  90  93
ENDBRANCH  63  86
ENDBRANCH  37  38
ENDBRANCH  29  32
ENDBRANCH  27  28
ENDBRANCH  26  27
ENDBRANCH   1  26
TORSDOF 18
ENDMDL
