MODEL 1
REMARK VINA RESULT:     -13.0      0.000      0.000
REMARK SMILES Cc1cc(C(=O)NCCCCNC(=O)c2ccc(-c3c4nc(c(-c5cccc(S(=O)(=O)[O-])c5F)c5ccc([nH]5)c(-c5cccc(S(=O)(=O)[O-])c5F)c5nc(c(-c6cccc(S(=O)(=O)[O-])c6F)c6ccc3[nH]6)C=C5)C=C4)cc2)c(C)n1[C@@H]1C[N@H+]2CC[C@@H]1CC2
REMARK SMILES IDX 10 1 9 2 8 3 7 4 5 5 6 6 4 8 1 9 2 10 3 11 80 12 78 13 79 14
REMARK SMILES IDX 81 15 82 16 86 17 83 18 87 19 85 20 88 21 84 22 11 24 12 25
REMARK SMILES IDX 13 26 14 28 15 29 16 30 77 31 17 32 76 33 18 34 19 35 20 36
REMARK SMILES IDX 70 37 21 38 75 39 69 40 71 41 22 42 74 43 68 44 67 45 23 47
REMARK SMILES IDX 55 48 35 49 54 50 36 51 39 52 53 53 72 54 37 55 38 56 52 58
REMARK SMILES IDX 73 59 40 60 24 61 25 62 33 63 26 64 28 65 34 66 27 67 29 68
REMARK SMILES IDX 30 69 31 70 32 71 56 72 57 73 65 74 58 75 60 76 66 77 59 78
REMARK SMILES IDX 61 79 62 80 63 81 64 82 41 83 42 84 50 85 43 86 45 87 51 88
REMARK SMILES IDX 44 89 46 90 47 91 48 92 49 93
REMARK H PARENT 7 7 83 23 12 27 71 46 39 57
REMARK Flexibility Score: inf
ROOT
ATOM      1  C   UNL A   1      33.148  27.798  25.844  1.00  0.00     0.023 C 
ENDROOT
BRANCH   1   2
ATOM      2  C   UNL A   1      32.375  26.604  26.442  1.00  0.00     0.023 C 
BRANCH   2   3
ATOM      3  C   UNL A   1      30.949  26.408  25.922  1.00  0.00     0.116 C 
BRANCH   3   4
ATOM      4  N   UNL A   1      30.295  25.277  26.567  1.00  0.00    -0.352 N 
ATOM      5  C   UNL A   1      30.459  23.921  26.490  1.00  0.00     0.253 C 
ATOM      6  O   UNL A   1      29.775  23.242  27.283  1.00  0.00    -0.269 OA
ATOM      7  H   UNL A   1      29.583  25.545  27.192  1.00  0.00     0.163 HD
BRANCH   5   8
ATOM      8  C   UNL A   1      31.411  23.293  25.571  1.00  0.00     0.060 A 
ATOM      9  C   UNL A   1      32.666  22.617  22.197  1.00  0.00     0.064 C 
ATOM     10  C   UNL A   1      32.445  22.641  23.667  1.00  0.00     0.016 A 
ATOM     11  C   UNL A   1      31.211  22.842  24.250  1.00  0.00     0.037 A 
ATOM     12  N   UNL A   1      33.371  22.527  24.694  1.00  0.00    -0.339 N 
ATOM     13  C   UNL A   1      32.749  22.989  25.863  1.00  0.00     0.028 A 
ATOM     14  C   UNL A   1      33.418  23.170  27.196  1.00  0.00     0.065 C 
BRANCH  12  15
ATOM     15  C   UNL A   1      34.735  21.986  24.632  1.00  0.00     0.145 C 
ATOM     16  C   UNL A   1      35.337  21.388  25.926  1.00  0.00     0.288 C 
ATOM     17  C   UNL A   1      35.794  22.918  23.975  1.00  0.00     0.029 C 
ATOM     18  N   UNL A   1      36.724  21.872  26.179  1.00  0.00    -0.333 N 
ATOM     19  C   UNL A   1      37.055  22.060  23.706  1.00  0.00     0.067 C 
ATOM     20  C   UNL A   1      36.258  24.005  24.955  1.00  0.00     0.067 C 
ATOM     21  C   UNL A   1      37.584  21.491  25.036  1.00  0.00     0.262 C 
ATOM     22  C   UNL A   1      36.709  23.349  26.273  1.00  0.00     0.262 C 
ATOM     23  H   UNL A   1      37.079  21.464  27.044  1.00  0.00     0.348 HD
ENDBRANCH  12  15
ENDBRANCH   5   8
ENDBRANCH   3   4
ENDBRANCH   2   3
ENDBRANCH   1   2
BRANCH   1  24
ATOM     24  C   UNL A   1      34.223  28.487  26.708  1.00  0.00     0.116 C 
BRANCH  24  25
ATOM     25  N   UNL A   1      34.055  29.912  26.864  1.00  0.00    -0.352 N 
ATOM     26  C   UNL A   1      34.904  30.793  27.516  1.00  0.00     0.251 C 
ATOM     27  H   UNL A   1      33.245  30.301  26.462  1.00  0.00     0.163 HD
ATOM     28  O   UNL A   1      34.493  31.942  27.683  1.00  0.00    -0.269 OA
BRANCH  26  29
ATOM     29  C   UNL A   1      36.212  30.344  28.126  1.00  0.00     0.039 A 
ATOM     30  C   UNL A   1      37.317  30.242  27.293  1.00  0.00     0.014 A 
ATOM     31  C   UNL A   1      36.354  29.806  29.417  1.00  0.00     0.014 A 
ATOM     32  C   UNL A   1      38.531  29.654  27.756  1.00  0.00     0.010 A 
ATOM     33  C   UNL A   1      37.569  29.126  29.854  1.00  0.00     0.010 A 
ATOM     34  C   UNL A   1      38.701  28.991  29.027  1.00  0.00    -0.014 A 
BRANCH  34  35
ATOM     35  C   UNL A   1      39.774  27.785  29.038  1.00  0.00     0.031 A 
ATOM     36  C   UNL A   1      40.776  28.280  30.027  1.00  0.00     0.074 A 
ATOM     37  C   UNL A   1      40.139  26.583  28.423  1.00  0.00     0.049 A 
ATOM     38  N   UNL A   1      41.273  29.483  29.915  1.00  0.00    -0.248 NA
ATOM     39  C   UNL A   1      40.948  27.690  31.357  1.00  0.00     0.031 C 
ATOM     40  C   UNL A   1      39.529  25.933  27.252  1.00  0.00     0.029 A 
ATOM     41  N   UNL A   1      41.172  25.623  28.710  1.00  0.00    -0.354 N 
ATOM     42  C   UNL A   1      42.162  29.607  30.935  1.00  0.00     0.074 A 
ATOM     43  C   UNL A   1      41.680  28.656  31.926  1.00  0.00     0.031 C 
ATOM     44  C   UNL A   1      40.055  24.690  27.025  1.00  0.00     0.029 A 
ATOM     45  C   UNL A   1      41.124  24.379  27.976  1.00  0.00     0.049 A 
ATOM     46  H   UNL A   1      41.878  25.806  29.371  1.00  0.00     0.167 HD
ATOM     47  C   UNL A   1      43.445  29.881  30.559  1.00  0.00     0.034 A 
ATOM     48  C   UNL A   1      41.913  23.228  28.050  1.00  0.00     0.034 A 
ATOM     49  C   UNL A   1      44.347  28.794  30.818  1.00  0.00     0.049 A 
ATOM     50  C   UNL A   1      43.208  23.667  28.594  1.00  0.00     0.074 A 
ATOM     51  C   UNL A   1      44.461  27.861  31.832  1.00  0.00     0.029 A 
ATOM     52  N   UNL A   1      44.985  28.260  29.723  1.00  0.00    -0.354 N 
ATOM     53  N   UNL A   1      44.089  24.250  27.837  1.00  0.00    -0.248 NA
ATOM     54  C   UNL A   1      43.666  23.308  29.932  1.00  0.00     0.031 C 
ATOM     55  C   UNL A   1      44.646  26.629  31.163  1.00  0.00     0.029 A 
ATOM     56  C   UNL A   1      45.013  26.885  29.851  1.00  0.00     0.049 A 
ATOM     57  H   UNL A   1      45.360  28.774  28.971  1.00  0.00     0.167 HD
ATOM     58  C   UNL A   1      44.963  24.773  28.738  1.00  0.00     0.074 A 
ATOM     59  C   UNL A   1      44.836  23.950  29.925  1.00  0.00     0.031 C 
ATOM     60  C   UNL A   1      45.186  26.104  28.649  1.00  0.00     0.034 A 
BRANCH  47  61
ATOM     61  C   UNL A   1      43.585  30.848  29.398  1.00  0.00     0.023 A 
ATOM     62  C   UNL A   1      44.004  30.323  28.167  1.00  0.00     0.012 A 
ATOM     63  C   UNL A   1      43.451  32.258  29.523  1.00  0.00     0.148 A 
ATOM     64  C   UNL A   1      44.342  31.175  27.111  1.00  0.00     0.002 A 
ATOM     65  C   UNL A   1      43.899  33.102  28.513  1.00  0.00     0.091 A 
ATOM     66  F   UNL A   1      42.868  32.765  30.622  1.00  0.00    -0.205 F 
ATOM     67  C   UNL A   1      44.331  32.559  27.297  1.00  0.00     0.022 A 
BRANCH  65  68
ATOM     68  S   UNL A   1      44.169  34.864  28.795  1.00  0.00     0.127 S 
ATOM     69  O   UNL A   1      45.374  34.874  29.633  1.00  0.00    -0.237 OA
ATOM     70  O   UNL A   1      44.371  35.394  27.450  1.00  0.00    -0.237 OA
ATOM     71  O   UNL A   1      42.983  35.354  29.486  1.00  0.00    -0.744 OA
ENDBRANCH  65  68
ENDBRANCH  47  61
BRANCH  48  72
ATOM     72  C   UNL A   1      42.108  21.738  27.591  1.00  0.00     0.023 A 
ATOM     73  C   UNL A   1      40.941  20.891  27.556  1.00  0.00     0.012 A 
ATOM     74  C   UNL A   1      43.173  21.291  26.774  1.00  0.00     0.148 A 
ATOM     75  C   UNL A   1      40.779  19.793  26.691  1.00  0.00     0.002 A 
ATOM     76  C   UNL A   1      43.024  20.148  25.937  1.00  0.00     0.091 A 
ATOM     77  F   UNL A   1      44.288  22.031  26.726  1.00  0.00    -0.205 F 
ATOM     78  C   UNL A   1      41.821  19.427  25.869  1.00  0.00     0.022 A 
BRANCH  76  79
ATOM     79  S   UNL A   1      44.307  19.544  24.814  1.00  0.00     0.127 S 
ATOM     80  O   UNL A   1      44.349  20.585  23.785  1.00  0.00    -0.237 OA
ATOM     81  O   UNL A   1      45.480  19.508  25.684  1.00  0.00    -0.237 OA
ATOM     82  O   UNL A   1      43.826  18.252  24.342  1.00  0.00    -0.744 OA
ENDBRANCH  76  79
ENDBRANCH  48  72
BRANCH  60  83
ATOM     83  C   UNL A   1      45.310  26.715  27.266  1.00  0.00     0.023 A 
ATOM     84  C   UNL A   1      44.256  27.309  26.537  1.00  0.00     0.012 A 
ATOM     85  C   UNL A   1      46.587  26.721  26.688  1.00  0.00     0.148 A 
ATOM     86  C   UNL A   1      44.475  27.877  25.276  1.00  0.00     0.002 A 
ATOM     87  C   UNL A   1      46.819  27.342  25.466  1.00  0.00     0.091 A 
ATOM     88  F   UNL A   1      47.579  26.119  27.363  1.00  0.00    -0.205 F 
ATOM     89  C   UNL A   1      45.764  27.918  24.750  1.00  0.00     0.022 A 
BRANCH  87  90
ATOM     90  S   UNL A   1      48.488  27.462  24.824  1.00  0.00     0.127 S 
ATOM     91  O   UNL A   1      48.936  26.071  24.882  1.00  0.00    -0.237 OA
ATOM     92  O   UNL A   1      48.300  27.988  23.474  1.00  0.00    -0.237 OA
ATOM     93  O   UNL A   1      49.179  28.377  25.727  1.00  0.00    -0.744 OA
ENDBRANCH  87  90
ENDBRANCH  60  83
ENDBRANCH  34  35
ENDBRANCH  26  29
ENDBRANCH  24  25
ENDBRANCH   1  24
TORSDOF 15
ENDMDL
MODEL 2
REMARK VINA RESULT:     -12.8      1.283      2.006
REMARK SMILES Cc1cc(C(=O)NCCCCNC(=O)c2ccc(-c3c4nc(c(-c5cccc(S(=O)(=O)[O-])c5F)c5ccc([nH]5)c(-c5cccc(S(=O)(=O)[O-])c5F)c5nc(c(-c6cccc(S(=O)(=O)[O-])c6F)c6ccc3[nH]6)C=C5)C=C4)cc2)c(C)n1[C@@H]1C[N@H+]2CC[C@@H]1CC2
REMARK SMILES IDX 10 1 9 2 8 3 7 4 5 5 6 6 4 8 1 9 2 10 3 11 80 12 78 13 79 14
REMARK SMILES IDX 81 15 82 16 86 17 83 18 87 19 85 20 88 21 84 22 11 24 12 25
REMARK SMILES IDX 13 26 14 28 15 29 16 30 77 31 17 32 76 33 18 34 19 35 20 36
REMARK SMILES IDX 70 37 21 38 75 39 69 40 71 41 22 42 74 43 68 44 67 45 23 47
REMARK SMILES IDX 55 48 35 49 54 50 36 51 39 52 53 53 72 54 37 55 38 56 52 58
REMARK SMILES IDX 73 59 40 60 24 61 25 62 33 63 26 64 28 65 34 66 27 67 29 68
REMARK SMILES IDX 30 69 31 70 32 71 56 72 57 73 65 74 58 75 60 76 66 77 59 78
REMARK SMILES IDX 61 79 62 80 63 81 64 82 41 83 42 84 50 85 43 86 45 87 51 88
REMARK SMILES IDX 44 89 46 90 47 91 48 92 49 93
REMARK H PARENT 7 7 83 23 12 27 71 46 39 57
REMARK Flexibility Score: inf
ROOT
ATOM      1  C   UNL A   1      34.143  27.925  25.358  1.00  0.00     0.023 C 
ENDROOT
BRANCH   1   2
ATOM      2  C   UNL A   1      33.722  28.955  24.289  1.00  0.00     0.023 C 
BRANCH   2   3
ATOM      3  C   UNL A   1      33.713  28.448  22.845  1.00  0.00     0.116 C 
BRANCH   3   4
ATOM      4  N   UNL A   1      32.356  28.310  22.334  1.00  0.00    -0.352 N 
ATOM      5  C   UNL A   1      31.333  27.440  22.593  1.00  0.00     0.253 C 
ATOM      6  O   UNL A   1      30.248  27.690  22.030  1.00  0.00    -0.269 OA
ATOM      7  H   UNL A   1      32.125  28.988  21.658  1.00  0.00     0.163 HD
BRANCH   5   8
ATOM      8  C   UNL A   1      31.475  26.307  23.511  1.00  0.00     0.060 A 
ATOM      9  C   UNL A   1      30.290  24.253  26.303  1.00  0.00     0.064 C 
ATOM     10  C   UNL A   1      31.082  24.844  25.191  1.00  0.00     0.016 A 
ATOM     11  C   UNL A   1      31.033  26.178  24.844  1.00  0.00     0.037 A 
ATOM     12  N   UNL A   1      31.937  24.217  24.296  1.00  0.00    -0.339 N 
ATOM     13  C   UNL A   1      32.132  25.101  23.225  1.00  0.00     0.028 A 
ATOM     14  C   UNL A   1      32.882  24.791  21.961  1.00  0.00     0.065 C 
BRANCH  12  15
ATOM     15  C   UNL A   1      32.582  22.903  24.422  1.00  0.00     0.145 C 
ATOM     16  C   UNL A   1      31.821  21.794  25.188  1.00  0.00     0.288 C 
ATOM     17  C   UNL A   1      34.057  22.928  24.917  1.00  0.00     0.029 C 
ATOM     18  N   UNL A   1      32.694  21.087  26.169  1.00  0.00    -0.333 N 
ATOM     19  C   UNL A   1      34.647  21.518  24.667  1.00  0.00     0.067 C 
ATOM     20  C   UNL A   1      34.127  23.121  26.438  1.00  0.00     0.067 C 
ATOM     21  C   UNL A   1      33.830  20.472  25.448  1.00  0.00     0.262 C 
ATOM     22  C   UNL A   1      33.236  22.074  27.131  1.00  0.00     0.262 C 
ATOM     23  H   UNL A   1      32.153  20.373  26.659  1.00  0.00     0.348 HD
ENDBRANCH  12  15
ENDBRANCH   5   8
ENDBRANCH   3   4
ENDBRANCH   2   3
ENDBRANCH   1   2
BRANCH   1  24
ATOM     24  C   UNL A   1      34.080  28.337  26.843  1.00  0.00     0.116 C 
BRANCH  24  25
ATOM     25  N   UNL A   1      33.832  29.740  27.074  1.00  0.00    -0.352 N 
ATOM     26  C   UNL A   1      34.664  30.648  27.711  1.00  0.00     0.251 C 
ATOM     27  H   UNL A   1      32.974  30.090  26.743  1.00  0.00     0.163 HD
ATOM     28  O   UNL A   1      34.192  31.759  27.956  1.00  0.00    -0.269 OA
BRANCH  26  29
ATOM     29  C   UNL A   1      36.036  30.262  28.215  1.00  0.00     0.039 A 
ATOM     30  C   UNL A   1      37.036  30.046  27.277  1.00  0.00     0.014 A 
ATOM     31  C   UNL A   1      36.330  29.887  29.537  1.00  0.00     0.014 A 
ATOM     32  C   UNL A   1      38.298  29.507  27.665  1.00  0.00     0.010 A 
ATOM     33  C   UNL A   1      37.590  29.251  29.910  1.00  0.00     0.010 A 
ATOM     34  C   UNL A   1      38.617  29.003  28.980  1.00  0.00    -0.014 A 
BRANCH  34  35
ATOM     35  C   UNL A   1      39.688  27.795  29.014  1.00  0.00     0.031 A 
ATOM     36  C   UNL A   1      40.669  28.290  30.025  1.00  0.00     0.074 A 
ATOM     37  C   UNL A   1      40.065  26.594  28.407  1.00  0.00     0.049 A 
ATOM     38  N   UNL A   1      41.171  29.493  29.923  1.00  0.00    -0.248 NA
ATOM     39  C   UNL A   1      40.812  27.700  31.358  1.00  0.00     0.031 C 
ATOM     40  C   UNL A   1      39.480  25.944  27.224  1.00  0.00     0.029 A 
ATOM     41  N   UNL A   1      41.091  25.632  28.717  1.00  0.00    -0.354 N 
ATOM     42  C   UNL A   1      42.038  29.615  30.963  1.00  0.00     0.074 A 
ATOM     43  C   UNL A   1      41.533  28.665  31.942  1.00  0.00     0.031 C 
ATOM     44  C   UNL A   1      40.010  24.700  27.008  1.00  0.00     0.029 A 
ATOM     45  C   UNL A   1      41.057  24.388  27.983  1.00  0.00     0.049 A 
ATOM     46  H   UNL A   1      41.782  25.814  29.394  1.00  0.00     0.167 HD
ATOM     47  C   UNL A   1      43.328  29.887  30.614  1.00  0.00     0.034 A 
ATOM     48  C   UNL A   1      41.843  23.236  28.074  1.00  0.00     0.034 A 
ATOM     49  C   UNL A   1      44.223  28.800  30.893  1.00  0.00     0.049 A 
ATOM     50  C   UNL A   1      43.126  23.673  28.645  1.00  0.00     0.074 A 
ATOM     51  C   UNL A   1      44.314  27.867  31.910  1.00  0.00     0.029 A 
ATOM     52  N   UNL A   1      44.884  28.264  29.812  1.00  0.00    -0.354 N 
ATOM     53  N   UNL A   1      44.024  24.255  27.908  1.00  0.00    -0.248 NA
ATOM     54  C   UNL A   1      43.555  23.314  29.994  1.00  0.00     0.031 C 
ATOM     55  C   UNL A   1      44.512  26.634  31.245  1.00  0.00     0.029 A 
ATOM     56  C   UNL A   1      44.907  26.889  29.941  1.00  0.00     0.049 A 
ATOM     57  H   UNL A   1      45.276  28.777  29.068  1.00  0.00     0.167 HD
ATOM     58  C   UNL A   1      44.880  24.778  28.828  1.00  0.00     0.074 A 
ATOM     59  C   UNL A   1      44.726  23.955  30.012  1.00  0.00     0.031 C 
ATOM     60  C   UNL A   1      45.106  26.108  28.743  1.00  0.00     0.034 A 
BRANCH  47  61
ATOM     61  C   UNL A   1      43.495  30.854  29.456  1.00  0.00     0.023 A 
ATOM     62  C   UNL A   1      43.886  30.320  28.220  1.00  0.00     0.012 A 
ATOM     63  C   UNL A   1      43.412  32.268  29.588  1.00  0.00     0.148 A 
ATOM     64  C   UNL A   1      44.247  31.164  27.166  1.00  0.00     0.002 A 
ATOM     65  C   UNL A   1      43.883  33.099  28.579  1.00  0.00     0.091 A 
ATOM     66  F   UNL A   1      42.855  32.790  30.694  1.00  0.00    -0.205 F 
ATOM     67  C   UNL A   1      44.287  32.547  27.357  1.00  0.00     0.022 A 
BRANCH  65  68
ATOM     68  S   UNL A   1      44.217  34.850  28.866  1.00  0.00     0.127 S 
ATOM     69  O   UNL A   1      45.027  34.825  30.090  1.00  0.00    -0.237 OA
ATOM     70  O   UNL A   1      44.951  35.253  27.671  1.00  0.00    -0.237 OA
ATOM     71  O   UNL A   1      42.921  35.489  29.048  1.00  0.00    -0.744 OA
ENDBRANCH  65  68
ENDBRANCH  47  61
BRANCH  48  72
ATOM     72  C   UNL A   1      42.046  21.746  27.619  1.00  0.00     0.023 A 
ATOM     73  C   UNL A   1      40.884  20.891  27.590  1.00  0.00     0.012 A 
ATOM     74  C   UNL A   1      43.112  21.302  26.802  1.00  0.00     0.148 A 
ATOM     75  C   UNL A   1      40.726  19.789  26.729  1.00  0.00     0.002 A 
ATOM     76  C   UNL A   1      42.968  20.156  25.969  1.00  0.00     0.091 A 
ATOM     77  F   UNL A   1      44.222  22.049  26.749  1.00  0.00    -0.205 F 
ATOM     78  C   UNL A   1      41.769  19.427  25.906  1.00  0.00     0.022 A 
BRANCH  76  79
ATOM     79  S   UNL A   1      44.252  19.556  24.845  1.00  0.00     0.127 S 
ATOM     80  O   UNL A   1      44.356  20.641  23.868  1.00  0.00    -0.237 OA
ATOM     81  O   UNL A   1      45.404  19.434  25.737  1.00  0.00    -0.237 OA
ATOM     82  O   UNL A   1      43.734  18.306  24.303  1.00  0.00    -0.744 OA
ENDBRANCH  76  79
ENDBRANCH  48  72
BRANCH  60  83
ATOM     83  C   UNL A   1      45.261  26.719  27.363  1.00  0.00     0.023 A 
ATOM     84  C   UNL A   1      44.231  27.342  26.624  1.00  0.00     0.012 A 
ATOM     85  C   UNL A   1      46.544  26.692  26.798  1.00  0.00     0.148 A 
ATOM     86  C   UNL A   1      44.478  27.907  25.368  1.00  0.00     0.002 A 
ATOM     87  C   UNL A   1      46.805  27.309  25.581  1.00  0.00     0.091 A 
ATOM     88  F   UNL A   1      47.512  26.062  27.483  1.00  0.00    -0.205 F 
ATOM     89  C   UNL A   1      45.773  27.914  24.855  1.00  0.00     0.022 A 
BRANCH  87  90
ATOM     90  S   UNL A   1      48.483  27.386  24.956  1.00  0.00     0.127 S 
ATOM     91  O   UNL A   1      48.311  28.144  23.718  1.00  0.00    -0.237 OA
ATOM     92  O   UNL A   1      49.210  28.090  26.009  1.00  0.00    -0.237 OA
ATOM     93  O   UNL A   1      48.889  25.994  24.784  1.00  0.00    -0.744 OA
ENDBRANCH  87  90
ENDBRANCH  60  83
ENDBRANCH  34  35
ENDBRANCH  26  29
ENDBRANCH  24  25
ENDBRANCH   1  24
TORSDOF 15
ENDMDL
MODEL 3
REMARK VINA RESULT:     -12.6      4.504     10.017
REMARK SMILES Cc1cc(C(=O)NCCCCNC(=O)c2ccc(-c3c4nc(c(-c5cccc(S(=O)(=O)[O-])c5F)c5ccc([nH]5)c(-c5cccc(S(=O)(=O)[O-])c5F)c5nc(c(-c6cccc(S(=O)(=O)[O-])c6F)c6ccc3[nH]6)C=C5)C=C4)cc2)c(C)n1[C@@H]1C[N@H+]2CC[C@@H]1CC2
REMARK SMILES IDX 10 1 9 2 8 3 7 4 5 5 6 6 4 8 1 9 2 10 3 11 80 12 78 13 79 14
REMARK SMILES IDX 81 15 82 16 86 17 83 18 87 19 85 20 88 21 84 22 11 24 12 25
REMARK SMILES IDX 13 26 14 28 15 29 16 30 77 31 17 32 76 33 18 34 19 35 20 36
REMARK SMILES IDX 70 37 21 38 75 39 69 40 71 41 22 42 74 43 68 44 67 45 23 47
REMARK SMILES IDX 55 48 35 49 54 50 36 51 39 52 53 53 72 54 37 55 38 56 52 58
REMARK SMILES IDX 73 59 40 60 24 61 25 62 33 63 26 64 28 65 34 66 27 67 29 68
REMARK SMILES IDX 30 69 31 70 32 71 56 72 57 73 65 74 58 75 60 76 66 77 59 78
REMARK SMILES IDX 61 79 62 80 63 81 64 82 41 83 42 84 50 85 43 86 45 87 51 88
REMARK SMILES IDX 44 89 46 90 47 91 48 92 49 93
REMARK H PARENT 7 7 83 23 12 27 71 46 39 57
REMARK Flexibility Score: inf
ROOT
ATOM      1  C   UNL A   1      35.586  23.671  26.002  1.00  0.00     0.023 C 
ENDROOT
BRANCH   1   2
ATOM      2  C   UNL A   1      35.219  22.192  26.242  1.00  0.00     0.023 C 
BRANCH   2   3
ATOM      3  C   UNL A   1      35.365  21.267  25.030  1.00  0.00     0.116 C 
BRANCH   3   4
ATOM      4  N   UNL A   1      34.080  20.715  24.621  1.00  0.00    -0.352 N 
ATOM      5  C   UNL A   1      32.984  21.239  23.992  1.00  0.00     0.253 C 
ATOM      6  O   UNL A   1      32.081  20.429  23.702  1.00  0.00    -0.269 OA
ATOM      7  H   UNL A   1      33.978  19.762  24.844  1.00  0.00     0.163 HD
BRANCH   5   8
ATOM      8  C   UNL A   1      32.884  22.656  23.632  1.00  0.00     0.060 A 
ATOM      9  C   UNL A   1      32.828  25.356  21.157  1.00  0.00     0.064 C 
ATOM     10  C   UNL A   1      32.833  24.562  22.414  1.00  0.00     0.016 A 
ATOM     11  C   UNL A   1      33.465  23.343  22.546  1.00  0.00     0.037 A 
ATOM     12  N   UNL A   1      32.205  24.832  23.622  1.00  0.00    -0.339 N 
ATOM     13  C   UNL A   1      32.183  23.635  24.351  1.00  0.00     0.028 A 
ATOM     14  C   UNL A   1      31.485  23.424  25.665  1.00  0.00     0.065 C 
BRANCH  12  15
ATOM     15  C   UNL A   1      31.690  26.118  24.112  1.00  0.00     0.145 C 
ATOM     16  C   UNL A   1      30.972  27.043  23.100  1.00  0.00     0.288 C 
ATOM     17  C   UNL A   1      32.698  26.970  24.938  1.00  0.00     0.029 C 
ATOM     18  N   UNL A   1      31.446  28.454  23.192  1.00  0.00    -0.333 N 
ATOM     19  C   UNL A   1      31.887  28.094  25.628  1.00  0.00     0.067 C 
ATOM     20  C   UNL A   1      33.685  27.702  24.019  1.00  0.00     0.067 C 
ATOM     21  C   UNL A   1      31.193  28.959  24.559  1.00  0.00     0.262 C 
ATOM     22  C   UNL A   1      32.906  28.489  22.949  1.00  0.00     0.262 C 
ATOM     23  H   UNL A   1      30.957  29.027  22.503  1.00  0.00     0.348 HD
ENDBRANCH  12  15
ENDBRANCH   5   8
ENDBRANCH   3   4
ENDBRANCH   2   3
ENDBRANCH   1   2
BRANCH   1  24
ATOM     24  C   UNL A   1      37.059  24.030  25.725  1.00  0.00     0.116 C 
BRANCH  24  25
ATOM     25  N   UNL A   1      37.994  22.947  25.915  1.00  0.00    -0.352 N 
ATOM     26  C   UNL A   1      39.243  23.008  26.513  1.00  0.00     0.251 C 
ATOM     27  H   UNL A   1      37.712  22.065  25.581  1.00  0.00     0.163 HD
ATOM     28  O   UNL A   1      39.955  22.007  26.422  1.00  0.00    -0.269 OA
BRANCH  26  29
ATOM     29  C   UNL A   1      39.778  24.283  27.125  1.00  0.00     0.039 A 
ATOM     30  C   UNL A   1      39.244  24.697  28.336  1.00  0.00     0.014 A 
ATOM     31  C   UNL A   1      40.612  25.203  26.464  1.00  0.00     0.014 A 
ATOM     32  C   UNL A   1      39.567  25.975  28.879  1.00  0.00     0.010 A 
ATOM     33  C   UNL A   1      40.865  26.544  26.983  1.00  0.00     0.010 A 
ATOM     34  C   UNL A   1      40.324  27.000  28.200  1.00  0.00    -0.014 A 
BRANCH  34  35
ATOM     35  C   UNL A   1      39.925  28.518  28.577  1.00  0.00     0.031 A 
ATOM     36  C   UNL A   1      41.255  29.105  28.917  1.00  0.00     0.074 A 
ATOM     37  C   UNL A   1      38.854  29.391  28.794  1.00  0.00     0.049 A 
ATOM     38  N   UNL A   1      42.047  28.498  29.761  1.00  0.00    -0.248 NA
ATOM     39  C   UNL A   1      41.932  30.093  28.074  1.00  0.00     0.031 C 
ATOM     40  C   UNL A   1      37.414  29.088  28.797  1.00  0.00     0.029 A 
ATOM     41  N   UNL A   1      38.796  30.803  29.066  1.00  0.00    -0.354 N 
ATOM     42  C   UNL A   1      43.141  29.296  29.872  1.00  0.00     0.074 A 
ATOM     43  C   UNL A   1      43.155  30.034  28.617  1.00  0.00     0.031 C 
ATOM     44  C   UNL A   1      36.653  30.222  28.894  1.00  0.00     0.029 A 
ATOM     45  C   UNL A   1      37.488  31.417  29.030  1.00  0.00     0.049 A 
ATOM     46  H   UNL A   1      39.606  31.324  29.268  1.00  0.00     0.167 HD
ATOM     47  C   UNL A   1      43.412  29.740  31.133  1.00  0.00     0.034 A 
ATOM     48  C   UNL A   1      37.084  32.746  29.179  1.00  0.00     0.034 A 
ATOM     49  C   UNL A   1      43.217  31.155  31.281  1.00  0.00     0.049 A 
ATOM     50  C   UNL A   1      38.137  33.396  29.974  1.00  0.00     0.074 A 
ATOM     51  C   UNL A   1      43.437  32.246  30.460  1.00  0.00     0.029 A 
ATOM     52  N   UNL A   1      42.275  31.545  32.205  1.00  0.00    -0.354 N 
ATOM     53  N   UNL A   1      38.193  33.245  31.263  1.00  0.00    -0.248 NA
ATOM     54  C   UNL A   1      39.047  34.393  29.417  1.00  0.00     0.031 C 
ATOM     55  C   UNL A   1      42.255  33.014  30.564  1.00  0.00     0.029 A 
ATOM     56  C   UNL A   1      41.548  32.597  31.682  1.00  0.00     0.049 A 
ATOM     57  H   UNL A   1      42.142  31.141  33.093  1.00  0.00     0.167 HD
ATOM     58  C   UNL A   1      39.437  33.705  31.569  1.00  0.00     0.074 A 
ATOM     59  C   UNL A   1      39.779  34.631  30.507  1.00  0.00     0.031 C 
ATOM     60  C   UNL A   1      40.240  32.849  32.240  1.00  0.00     0.034 A 
BRANCH  47  61
ATOM     61  C   UNL A   1      43.179  28.726  32.239  1.00  0.00     0.023 A 
ATOM     62  C   UNL A   1      41.876  28.608  32.742  1.00  0.00     0.012 A 
ATOM     63  C   UNL A   1      44.222  28.001  32.878  1.00  0.00     0.148 A 
ATOM     64  C   UNL A   1      41.625  27.842  33.885  1.00  0.00     0.002 A 
ATOM     65  C   UNL A   1      43.988  27.339  34.078  1.00  0.00     0.091 A 
ATOM     66  F   UNL A   1      45.432  27.946  32.297  1.00  0.00    -0.205 F 
ATOM     67  C   UNL A   1      42.682  27.246  34.575  1.00  0.00     0.022 A 
BRANCH  65  68
ATOM     68  S   UNL A   1      45.339  26.796  35.145  1.00  0.00     0.127 S 
ATOM     69  O   UNL A   1      44.653  26.514  36.412  1.00  0.00    -0.237 OA
ATOM     70  O   UNL A   1      45.851  25.612  34.464  1.00  0.00    -0.237 OA
ATOM     71  O   UNL A   1      46.267  27.916  35.230  1.00  0.00    -0.744 OA
ENDBRANCH  65  68
ENDBRANCH  47  61
BRANCH  48  72
ATOM     72  C   UNL A   1      35.903  33.778  29.081  1.00  0.00     0.023 A 
ATOM     73  C   UNL A   1      35.018  33.676  27.946  1.00  0.00     0.012 A 
ATOM     74  C   UNL A   1      35.347  34.458  30.189  1.00  0.00     0.148 A 
ATOM     75  C   UNL A   1      33.667  34.071  27.951  1.00  0.00     0.002 A 
ATOM     76  C   UNL A   1      33.994  34.903  30.173  1.00  0.00     0.091 A 
ATOM     77  F   UNL A   1      36.090  34.578  31.297  1.00  0.00    -0.205 F 
ATOM     78  C   UNL A   1      33.149  34.676  29.074  1.00  0.00     0.022 A 
BRANCH  76  79
ATOM     79  S   UNL A   1      33.181  35.720  31.567  1.00  0.00     0.127 S 
ATOM     80  O   UNL A   1      32.079  36.436  30.922  1.00  0.00    -0.237 OA
ATOM     81  O   UNL A   1      32.766  34.583  32.386  1.00  0.00    -0.237 OA
ATOM     82  O   UNL A   1      34.199  36.585  32.151  1.00  0.00    -0.744 OA
ENDBRANCH  76  79
ENDBRANCH  48  72
BRANCH  60  83
ATOM     83  C   UNL A   1      39.624  32.006  33.339  1.00  0.00     0.023 A 
ATOM     84  C   UNL A   1      39.143  30.686  33.187  1.00  0.00     0.012 A 
ATOM     85  C   UNL A   1      39.567  32.576  34.619  1.00  0.00     0.148 A 
ATOM     86  C   UNL A   1      38.619  29.974  34.272  1.00  0.00     0.002 A 
ATOM     87  C   UNL A   1      39.107  31.848  35.710  1.00  0.00     0.091 A 
ATOM     88  F   UNL A   1      39.986  33.844  34.754  1.00  0.00    -0.205 F 
ATOM     89  C   UNL A   1      38.624  30.545  35.541  1.00  0.00     0.022 A 
BRANCH  87  90
ATOM     90  S   UNL A   1      39.184  32.553  37.356  1.00  0.00     0.127 S 
ATOM     91  O   UNL A   1      38.281  31.679  38.103  1.00  0.00    -0.237 OA
ATOM     92  O   UNL A   1      40.593  32.429  37.717  1.00  0.00    -0.237 OA
ATOM     93  O   UNL A   1      38.729  33.932  37.201  1.00  0.00    -0.744 OA
ENDBRANCH  87  90
ENDBRANCH  60  83
ENDBRANCH  34  35
ENDBRANCH  26  29
ENDBRANCH  24  25
ENDBRANCH   1  24
TORSDOF 15
ENDMDL
