MODEL 1
REMARK VINA RESULT:     -11.3      0.000      0.000
REMARK SMILES C[C@@](NC(=O)CSCc1ccccc1)(C(=O)NCCCCNC(=O)c1ccc(-c2c3nc(c(-c4cccc(S(=O)(=O)[O-])c4F)c4ccc([nH]4)c(-c4cccc(S(=O)(=O)[O-])c4F)c4nc(c(-c5cccc(S(=O)(=O)[O-])c5F)c5ccc2[nH]5)C=C4)C=C3)cc1)C1CC1
REMARK SMILES IDX 18 1 17 2 15 3 16 4 2 6 1 7 3 8 4 9 5 11 6 12 7 13 8 14 9 15
REMARK SMILES IDX 10 16 14 17 11 18 13 19 12 20 88 21 89 22 90 23 19 24 20 25
REMARK SMILES IDX 21 26 22 27 23 28 24 30 25 31 26 32 87 33 27 34 86 35 28 36
REMARK SMILES IDX 29 37 30 38 80 39 31 40 85 41 79 42 81 43 32 44 84 45 78 46
REMARK SMILES IDX 77 47 33 49 65 50 45 51 64 52 46 53 49 54 63 55 82 56 47 57
REMARK SMILES IDX 48 58 62 60 83 61 50 62 34 63 35 64 43 65 36 66 38 67 44 68
REMARK SMILES IDX 37 69 39 70 40 71 41 72 42 73 66 74 67 75 75 76 68 77 70 78
REMARK SMILES IDX 76 79 69 80 71 81 72 82 73 83 74 84 51 85 52 86 60 87 53 88
REMARK SMILES IDX 55 89 61 90 54 91 56 92 57 93 58 94 59 95
REMARK H PARENT 17 5 3 10 22 29 81 48 49 59
REMARK Flexibility Score: inf
ROOT
ATOM      1  C   UNL A   1      31.882  26.131  26.744  1.00  0.00     0.116 C 
ENDROOT
BRANCH   1   2
ATOM      2  N   UNL A   1      31.315  24.987  26.061  1.00  0.00    -0.354 N 
ATOM      3  C   UNL A   1      31.895  23.903  25.465  1.00  0.00     0.245 C 
ATOM      4  O   UNL A   1      31.107  23.009  25.146  1.00  0.00    -0.272 OA
ATOM      5  H   UNL A   1      30.331  24.991  26.018  1.00  0.00     0.163 HD
BRANCH   3   6
ATOM      6  C   UNL A   1      33.439  23.799  25.187  1.00  0.00     0.119 C 
ATOM      7  C   UNL A   1      33.687  22.702  24.113  1.00  0.00     0.046 C 
BRANCH   6   8
ATOM      8  N   UNL A   1      33.996  25.050  24.623  1.00  0.00    -0.341 N 
ATOM      9  C   UNL A   1      33.527  25.909  23.683  1.00  0.00     0.230 C 
ATOM     10  H   UNL A   1      34.868  25.307  25.001  1.00  0.00     0.164 HD
ATOM     11  O   UNL A   1      33.995  27.053  23.711  1.00  0.00    -0.274 OA
BRANCH   9  12
ATOM     12  C   UNL A   1      32.530  25.503  22.619  1.00  0.00     0.169 C 
BRANCH  12  13
ATOM     13  S   UNL A   1      31.560  26.903  21.959  1.00  0.00    -0.147 SA
BRANCH  13  14
ATOM     14  C   UNL A   1      30.165  26.983  23.128  1.00  0.00     0.105 C 
BRANCH  14  15
ATOM     15  C   UNL A   1      29.349  28.254  23.156  1.00  0.00    -0.038 A 
ATOM     16  C   UNL A   1      27.955  28.310  23.033  1.00  0.00     0.004 A 
ATOM     17  C   UNL A   1      30.043  29.456  23.393  1.00  0.00     0.004 A 
ATOM     18  C   UNL A   1      27.278  29.529  23.143  1.00  0.00     0.000 A 
ATOM     19  C   UNL A   1      29.367  30.671  23.508  1.00  0.00     0.000 A 
ATOM     20  C   UNL A   1      27.983  30.706  23.385  1.00  0.00     0.000 A 
ENDBRANCH  14  15
ENDBRANCH  13  14
ENDBRANCH  12  13
ENDBRANCH   9  12
ENDBRANCH   6   8
BRANCH   6  21
ATOM     21  C   UNL A   1      34.335  23.412  26.391  1.00  0.00     0.024 C 
ATOM     22  C   UNL A   1      33.976  22.601  27.625  1.00  0.00     0.007 C 
ATOM     23  C   UNL A   1      34.786  21.966  26.542  1.00  0.00     0.007 C 
ENDBRANCH   6  21
ENDBRANCH   3   6
ENDBRANCH   1   2
BRANCH   1  24
ATOM     24  C   UNL A   1      31.171  27.451  26.442  1.00  0.00     0.023 C 
BRANCH  24  25
ATOM     25  C   UNL A   1      31.747  28.730  27.056  1.00  0.00     0.023 C 
BRANCH  25  26
ATOM     26  C   UNL A   1      32.481  29.696  26.127  1.00  0.00     0.116 C 
BRANCH  26  27
ATOM     27  N   UNL A   1      32.356  31.095  26.505  1.00  0.00    -0.352 N 
ATOM     28  C   UNL A   1      33.200  31.893  27.250  1.00  0.00     0.251 C 
ATOM     29  H   UNL A   1      31.540  31.542  26.180  1.00  0.00     0.163 HD
ATOM     30  O   UNL A   1      32.869  33.043  27.502  1.00  0.00    -0.269 OA
BRANCH  28  31
ATOM     31  C   UNL A   1      34.474  31.355  27.790  1.00  0.00     0.039 A 
ATOM     32  C   UNL A   1      35.515  32.249  28.067  1.00  0.00     0.014 A 
ATOM     33  C   UNL A   1      34.654  29.992  28.030  1.00  0.00     0.014 A 
ATOM     34  C   UNL A   1      36.693  31.789  28.668  1.00  0.00     0.010 A 
ATOM     35  C   UNL A   1      35.808  29.539  28.671  1.00  0.00     0.010 A 
ATOM     36  C   UNL A   1      36.831  30.435  29.015  1.00  0.00    -0.014 A 
BRANCH  36  37
ATOM     37  C   UNL A   1      37.989  29.958  29.815  1.00  0.00     0.031 A 
ATOM     38  C   UNL A   1      38.237  30.473  31.205  1.00  0.00     0.074 A 
ATOM     39  C   UNL A   1      38.885  29.134  29.235  1.00  0.00     0.049 A 
ATOM     40  N   UNL A   1      39.209  30.178  32.030  1.00  0.00    -0.248 NA
ATOM     41  C   UNL A   1      37.283  31.462  31.731  1.00  0.00     0.031 C 
ATOM     42  C   UNL A   1      38.808  28.640  27.859  1.00  0.00     0.029 A 
ATOM     43  N   UNL A   1      40.052  28.592  29.715  1.00  0.00    -0.354 N 
ATOM     44  C   UNL A   1      39.003  30.959  33.160  1.00  0.00     0.074 A 
ATOM     45  C   UNL A   1      37.825  31.762  32.904  1.00  0.00     0.031 C 
ATOM     46  C   UNL A   1      39.880  27.874  27.603  1.00  0.00     0.029 A 
ATOM     47  C   UNL A   1      40.732  27.835  28.788  1.00  0.00     0.049 A 
ATOM     48  H   UNL A   1      40.373  28.733  30.634  1.00  0.00     0.167 HD
ATOM     49  C   UNL A   1      39.715  30.989  34.313  1.00  0.00     0.034 A 
ATOM     50  C   UNL A   1      41.907  27.182  28.879  1.00  0.00     0.034 A 
ATOM     51  C   UNL A   1      40.869  30.167  34.572  1.00  0.00     0.049 A 
ATOM     52  C   UNL A   1      42.652  27.197  30.187  1.00  0.00     0.074 A 
ATOM     53  C   UNL A   1      41.594  30.049  35.745  1.00  0.00     0.029 A 
ATOM     54  N   UNL A   1      41.476  29.338  33.642  1.00  0.00    -0.354 N 
ATOM     55  N   UNL A   1      42.331  27.788  31.311  1.00  0.00    -0.248 NA
ATOM     56  C   UNL A   1      43.898  26.419  30.251  1.00  0.00     0.031 C 
ATOM     57  C   UNL A   1      42.655  29.165  35.517  1.00  0.00     0.029 A 
ATOM     58  C   UNL A   1      42.575  28.715  34.209  1.00  0.00     0.049 A 
ATOM     59  H   UNL A   1      41.171  29.211  32.715  1.00  0.00     0.167 HD
ATOM     60  C   UNL A   1      43.313  27.424  32.227  1.00  0.00     0.074 A 
ATOM     61  C   UNL A   1      44.228  26.544  31.529  1.00  0.00     0.031 C 
ATOM     62  C   UNL A   1      43.449  27.797  33.523  1.00  0.00     0.034 A 
BRANCH  49  63
ATOM     63  C   UNL A   1      39.233  31.899  35.415  1.00  0.00     0.023 A 
ATOM     64  C   UNL A   1      38.277  31.424  36.335  1.00  0.00     0.012 A 
ATOM     65  C   UNL A   1      39.777  33.187  35.588  1.00  0.00     0.148 A 
ATOM     66  C   UNL A   1      37.846  32.225  37.391  1.00  0.00     0.002 A 
ATOM     67  C   UNL A   1      39.373  33.965  36.668  1.00  0.00     0.091 A 
ATOM     68  F   UNL A   1      40.673  33.630  34.694  1.00  0.00    -0.205 F 
ATOM     69  C   UNL A   1      38.400  33.490  37.563  1.00  0.00     0.022 A 
BRANCH  67  70
ATOM     70  S   UNL A   1      40.082  35.577  37.022  1.00  0.00     0.127 S 
ATOM     71  O   UNL A   1      39.651  36.352  35.860  1.00  0.00    -0.237 OA
ATOM     72  O   UNL A   1      39.417  35.939  38.275  1.00  0.00    -0.237 OA
ATOM     73  O   UNL A   1      41.518  35.367  37.138  1.00  0.00    -0.744 OA
ENDBRANCH  67  70
ENDBRANCH  49  63
BRANCH  50  74
ATOM     74  C   UNL A   1      42.408  26.387  27.723  1.00  0.00     0.023 A 
ATOM     75  C   UNL A   1      43.306  26.984  26.816  1.00  0.00     0.012 A 
ATOM     76  C   UNL A   1      42.031  25.043  27.530  1.00  0.00     0.148 A 
ATOM     77  C   UNL A   1      43.795  26.270  25.722  1.00  0.00     0.002 A 
ATOM     78  C   UNL A   1      42.564  24.321  26.468  1.00  0.00     0.091 A 
ATOM     79  F   UNL A   1      41.167  24.495  28.395  1.00  0.00    -0.205 F 
ATOM     80  C   UNL A   1      43.433  24.938  25.554  1.00  0.00     0.022 A 
BRANCH  78  81
ATOM     81  S   UNL A   1      42.257  22.564  26.248  1.00  0.00     0.127 S 
ATOM     82  O   UNL A   1      42.970  22.289  25.005  1.00  0.00    -0.237 OA
ATOM     83  O   UNL A   1      42.872  21.996  27.449  1.00  0.00    -0.237 OA
ATOM     84  O   UNL A   1      40.809  22.424  26.197  1.00  0.00    -0.744 OA
ENDBRANCH  78  81
ENDBRANCH  50  74
BRANCH  62  85
ATOM     85  C   UNL A   1      44.614  27.232  34.294  1.00  0.00     0.023 A 
ATOM     86  C   UNL A   1      45.807  27.973  34.404  1.00  0.00     0.012 A 
ATOM     87  C   UNL A   1      44.501  26.000  34.970  1.00  0.00     0.148 A 
ATOM     88  C   UNL A   1      46.880  27.483  35.147  1.00  0.00     0.002 A 
ATOM     89  C   UNL A   1      45.558  25.542  35.748  1.00  0.00     0.091 A 
ATOM     90  F   UNL A   1      43.365  25.299  34.836  1.00  0.00    -0.205 F 
ATOM     91  C   UNL A   1      46.751  26.276  35.828  1.00  0.00     0.022 A 
BRANCH  89  92
ATOM     92  S   UNL A   1      45.445  24.044  36.735  1.00  0.00     0.127 S 
ATOM     93  O   UNL A   1      44.561  23.214  35.920  1.00  0.00    -0.237 OA
ATOM     94  O   UNL A   1      46.836  23.593  36.777  1.00  0.00    -0.237 OA
ATOM     95  O   UNL A   1      44.906  24.455  38.025  1.00  0.00    -0.744 OA
ENDBRANCH  89  92
ENDBRANCH  62  85
ENDBRANCH  36  37
ENDBRANCH  28  31
ENDBRANCH  26  27
ENDBRANCH  25  26
ENDBRANCH  24  25
ENDBRANCH   1  24
TORSDOF 20
ENDMDL
MODEL 2
REMARK VINA RESULT:     -11.3      4.815     10.249
REMARK SMILES C[C@@](NC(=O)CSCc1ccccc1)(C(=O)NCCCCNC(=O)c1ccc(-c2c3nc(c(-c4cccc(S(=O)(=O)[O-])c4F)c4ccc([nH]4)c(-c4cccc(S(=O)(=O)[O-])c4F)c4nc(c(-c5cccc(S(=O)(=O)[O-])c5F)c5ccc2[nH]5)C=C4)C=C3)cc1)C1CC1
REMARK SMILES IDX 18 1 17 2 15 3 16 4 2 6 1 7 3 8 4 9 5 11 6 12 7 13 8 14 9 15
REMARK SMILES IDX 10 16 14 17 11 18 13 19 12 20 88 21 89 22 90 23 19 24 20 25
REMARK SMILES IDX 21 26 22 27 23 28 24 30 25 31 26 32 87 33 27 34 86 35 28 36
REMARK SMILES IDX 29 37 30 38 80 39 31 40 85 41 79 42 81 43 32 44 84 45 78 46
REMARK SMILES IDX 77 47 33 49 65 50 45 51 64 52 46 53 49 54 63 55 82 56 47 57
REMARK SMILES IDX 48 58 62 60 83 61 50 62 34 63 35 64 43 65 36 66 38 67 44 68
REMARK SMILES IDX 37 69 39 70 40 71 41 72 42 73 66 74 67 75 75 76 68 77 70 78
REMARK SMILES IDX 76 79 69 80 71 81 72 82 73 83 74 84 51 85 52 86 60 87 53 88
REMARK SMILES IDX 55 89 61 90 54 91 56 92 57 93 58 94 59 95
REMARK H PARENT 17 5 3 10 22 29 81 48 49 59
REMARK Flexibility Score: inf
ROOT
ATOM      1  C   UNL A   1      34.805  24.219  24.240  1.00  0.00     0.116 C 
ENDROOT
BRANCH   1   2
ATOM      2  N   UNL A   1      33.713  24.294  23.292  1.00  0.00    -0.354 N 
ATOM      3  C   UNL A   1      32.582  25.061  23.266  1.00  0.00     0.245 C 
ATOM      4  O   UNL A   1      31.955  25.014  22.205  1.00  0.00    -0.272 OA
ATOM      5  H   UNL A   1      33.802  23.681  22.527  1.00  0.00     0.163 HD
BRANCH   3   6
ATOM      6  C   UNL A   1      32.099  25.922  24.489  1.00  0.00     0.119 C 
ATOM      7  C   UNL A   1      31.494  27.255  23.963  1.00  0.00     0.046 C 
BRANCH   6   8
ATOM      8  N   UNL A   1      31.016  25.260  25.252  1.00  0.00    -0.341 N 
ATOM      9  C   UNL A   1      31.029  24.240  26.147  1.00  0.00     0.230 C 
ATOM     10  H   UNL A   1      30.120  25.629  25.079  1.00  0.00     0.164 HD
ATOM     11  O   UNL A   1      30.059  24.176  26.911  1.00  0.00    -0.274 OA
BRANCH   9  12
ATOM     12  C   UNL A   1      32.126  23.198  26.193  1.00  0.00     0.169 C 
BRANCH  12  13
ATOM     13  S   UNL A   1      31.734  21.687  25.245  1.00  0.00    -0.147 SA
BRANCH  13  14
ATOM     14  C   UNL A   1      33.240  20.691  25.478  1.00  0.00     0.105 C 
BRANCH  14  15
ATOM     15  C   UNL A   1      33.423  19.481  24.591  1.00  0.00    -0.038 A 
ATOM     16  C   UNL A   1      34.474  18.563  24.702  1.00  0.00     0.004 A 
ATOM     17  C   UNL A   1      32.422  19.233  23.632  1.00  0.00     0.004 A 
ATOM     18  C   UNL A   1      34.522  17.432  23.880  1.00  0.00     0.000 A 
ATOM     19  C   UNL A   1      32.467  18.102  22.817  1.00  0.00     0.000 A 
ATOM     20  C   UNL A   1      33.518  17.200  22.943  1.00  0.00     0.000 A 
ENDBRANCH  14  15
ENDBRANCH  13  14
ENDBRANCH  12  13
ENDBRANCH   9  12
ENDBRANCH   6   8
BRANCH   6  21
ATOM     21  C   UNL A   1      33.183  26.335  25.517  1.00  0.00     0.024 C 
ATOM     22  C   UNL A   1      33.875  27.677  25.686  1.00  0.00     0.007 C 
ATOM     23  C   UNL A   1      32.805  27.278  26.651  1.00  0.00     0.007 C 
ENDBRANCH   6  21
ENDBRANCH   3   6
ENDBRANCH   1   2
BRANCH   1  24
ATOM     24  C   UNL A   1      36.039  23.488  23.710  1.00  0.00     0.023 C 
BRANCH  24  25
ATOM     25  C   UNL A   1      36.240  22.028  24.128  1.00  0.00     0.023 C 
BRANCH  25  26
ATOM     26  C   UNL A   1      36.751  21.758  25.542  1.00  0.00     0.116 C 
BRANCH  26  27
ATOM     27  N   UNL A   1      37.860  20.820  25.605  1.00  0.00    -0.352 N 
ATOM     28  C   UNL A   1      39.155  21.002  26.044  1.00  0.00     0.251 C 
ATOM     29  H   UNL A   1      37.654  19.912  25.282  1.00  0.00     0.163 HD
ATOM     30  O   UNL A   1      39.953  20.081  25.953  1.00  0.00    -0.269 OA
BRANCH  28  31
ATOM     31  C   UNL A   1      39.600  22.317  26.573  1.00  0.00     0.039 A 
ATOM     32  C   UNL A   1      40.606  22.341  27.547  1.00  0.00     0.014 A 
ATOM     33  C   UNL A   1      39.045  23.516  26.124  1.00  0.00     0.014 A 
ATOM     34  C   UNL A   1      41.116  23.566  27.996  1.00  0.00     0.010 A 
ATOM     35  C   UNL A   1      39.585  24.736  26.535  1.00  0.00     0.010 A 
ATOM     36  C   UNL A   1      40.639  24.773  27.460  1.00  0.00    -0.014 A 
BRANCH  36  37
ATOM     37  C   UNL A   1      41.289  26.070  27.784  1.00  0.00     0.031 A 
ATOM     38  C   UNL A   1      42.714  26.343  27.392  1.00  0.00     0.074 A 
ATOM     39  C   UNL A   1      40.616  26.965  28.536  1.00  0.00     0.049 A 
ATOM     40  N   UNL A   1      43.437  27.411  27.614  1.00  0.00    -0.248 NA
ATOM     41  C   UNL A   1      43.427  25.274  26.677  1.00  0.00     0.031 C 
ATOM     42  C   UNL A   1      39.262  26.776  29.060  1.00  0.00     0.029 A 
ATOM     43  N   UNL A   1      40.988  28.195  29.018  1.00  0.00    -0.354 N 
ATOM     44  C   UNL A   1      44.695  27.137  27.092  1.00  0.00     0.074 A 
ATOM     45  C   UNL A   1      44.644  25.790  26.563  1.00  0.00     0.031 C 
ATOM     46  C   UNL A   1      38.919  27.847  29.793  1.00  0.00     0.029 A 
ATOM     47  C   UNL A   1      40.032  28.791  29.808  1.00  0.00     0.049 A 
ATOM     48  H   UNL A   1      41.857  28.612  28.819  1.00  0.00     0.167 HD
ATOM     49  C   UNL A   1      45.785  27.941  27.037  1.00  0.00     0.034 A 
ATOM     50  C   UNL A   1      40.046  29.964  30.472  1.00  0.00     0.034 A 
ATOM     51  C   UNL A   1      45.821  29.290  27.540  1.00  0.00     0.049 A 
ATOM     52  C   UNL A   1      41.253  30.855  30.354  1.00  0.00     0.074 A 
ATOM     53  C   UNL A   1      46.842  30.218  27.438  1.00  0.00     0.029 A 
ATOM     54  N   UNL A   1      44.799  29.898  28.252  1.00  0.00    -0.354 N 
ATOM     55  N   UNL A   1      42.362  30.656  29.686  1.00  0.00    -0.248 NA
ATOM     56  C   UNL A   1      41.194  32.151  31.048  1.00  0.00     0.031 C 
ATOM     57  C   UNL A   1      46.447  31.381  28.110  1.00  0.00     0.029 A 
ATOM     58  C   UNL A   1      45.169  31.183  28.610  1.00  0.00     0.049 A 
ATOM     59  H   UNL A   1      43.937  29.477  28.473  1.00  0.00     0.167 HD
ATOM     60  C   UNL A   1      43.116  31.814  29.845  1.00  0.00     0.074 A 
ATOM     61  C   UNL A   1      42.327  32.717  30.657  1.00  0.00     0.031 C 
ATOM     62  C   UNL A   1      44.355  32.096  29.372  1.00  0.00     0.034 A 
BRANCH  49  63
ATOM     63  C   UNL A   1      47.020  27.407  26.356  1.00  0.00     0.023 A 
ATOM     64  C   UNL A   1      47.255  27.728  25.003  1.00  0.00     0.012 A 
ATOM     65  C   UNL A   1      47.981  26.660  27.065  1.00  0.00     0.148 A 
ATOM     66  C   UNL A   1      48.410  27.288  24.358  1.00  0.00     0.002 A 
ATOM     67  C   UNL A   1      49.150  26.260  26.427  1.00  0.00     0.091 A 
ATOM     68  F   UNL A   1      47.733  26.350  28.346  1.00  0.00    -0.205 F 
ATOM     69  C   UNL A   1      49.361  26.563  25.071  1.00  0.00     0.022 A 
BRANCH  67  70
ATOM     70  S   UNL A   1      50.471  25.390  27.278  1.00  0.00     0.127 S 
ATOM     71  O   UNL A   1      50.882  26.377  28.274  1.00  0.00    -0.237 OA
ATOM     72  O   UNL A   1      49.773  24.226  27.826  1.00  0.00    -0.237 OA
ATOM     73  O   UNL A   1      51.465  25.075  26.261  1.00  0.00    -0.744 OA
ENDBRANCH  67  70
ENDBRANCH  49  63
BRANCH  50  74
ATOM     74  C   UNL A   1      38.843  30.402  31.234  1.00  0.00     0.023 A 
ATOM     75  C   UNL A   1      38.793  30.181  32.625  1.00  0.00     0.012 A 
ATOM     76  C   UNL A   1      37.768  31.060  30.605  1.00  0.00     0.148 A 
ATOM     77  C   UNL A   1      37.683  30.578  33.370  1.00  0.00     0.002 A 
ATOM     78  C   UNL A   1      36.689  31.501  31.363  1.00  0.00     0.091 A 
ATOM     79  F   UNL A   1      37.827  31.252  29.280  1.00  0.00    -0.205 F 
ATOM     80  C   UNL A   1      36.637  31.246  32.743  1.00  0.00     0.022 A 
BRANCH  78  81
ATOM     81  S   UNL A   1      35.358  32.485  30.662  1.00  0.00     0.127 S 
ATOM     82  O   UNL A   1      34.339  32.395  31.702  1.00  0.00    -0.237 OA
ATOM     83  O   UNL A   1      35.989  33.800  30.531  1.00  0.00    -0.237 OA
ATOM     84  O   UNL A   1      35.031  31.851  29.392  1.00  0.00    -0.744 OA
ENDBRANCH  78  81
ENDBRANCH  50  74
BRANCH  62  85
ATOM     85  C   UNL A   1      44.932  33.451  29.688  1.00  0.00     0.023 A 
ATOM     86  C   UNL A   1      45.635  33.649  30.893  1.00  0.00     0.012 A 
ATOM     87  C   UNL A   1      44.841  34.508  28.760  1.00  0.00     0.148 A 
ATOM     88  C   UNL A   1      46.211  34.885  31.183  1.00  0.00     0.002 A 
ATOM     89  C   UNL A   1      45.458  35.722  29.036  1.00  0.00     0.091 A 
ATOM     90  F   UNL A   1      44.149  34.307  27.628  1.00  0.00    -0.205 F 
ATOM     91  C   UNL A   1      46.133  35.916  30.251  1.00  0.00     0.022 A 
BRANCH  89  92
ATOM     92  S   UNL A   1      45.490  37.075  27.852  1.00  0.00     0.127 S 
ATOM     93  O   UNL A   1      44.167  37.666  28.038  1.00  0.00    -0.237 OA
ATOM     94  O   UNL A   1      46.598  37.893  28.344  1.00  0.00    -0.237 OA
ATOM     95  O   UNL A   1      45.725  36.462  26.552  1.00  0.00    -0.744 OA
ENDBRANCH  89  92
ENDBRANCH  62  85
ENDBRANCH  36  37
ENDBRANCH  28  31
ENDBRANCH  26  27
ENDBRANCH  25  26
ENDBRANCH  24  25
ENDBRANCH   1  24
TORSDOF 20
ENDMDL
MODEL 3
REMARK VINA RESULT:     -11.2      0.955      7.791
REMARK SMILES C[C@@](NC(=O)CSCc1ccccc1)(C(=O)NCCCCNC(=O)c1ccc(-c2c3nc(c(-c4cccc(S(=O)(=O)[O-])c4F)c4ccc([nH]4)c(-c4cccc(S(=O)(=O)[O-])c4F)c4nc(c(-c5cccc(S(=O)(=O)[O-])c5F)c5ccc2[nH]5)C=C4)C=C3)cc1)C1CC1
REMARK SMILES IDX 18 1 17 2 15 3 16 4 2 6 1 7 3 8 4 9 5 11 6 12 7 13 8 14 9 15
REMARK SMILES IDX 10 16 14 17 11 18 13 19 12 20 88 21 89 22 90 23 19 24 20 25
REMARK SMILES IDX 21 26 22 27 23 28 24 30 25 31 26 32 87 33 27 34 86 35 28 36
REMARK SMILES IDX 29 37 30 38 80 39 31 40 85 41 79 42 81 43 32 44 84 45 78 46
REMARK SMILES IDX 77 47 33 49 65 50 45 51 64 52 46 53 49 54 63 55 82 56 47 57
REMARK SMILES IDX 48 58 62 60 83 61 50 62 34 63 35 64 43 65 36 66 38 67 44 68
REMARK SMILES IDX 37 69 39 70 40 71 41 72 42 73 66 74 67 75 75 76 68 77 70 78
REMARK SMILES IDX 76 79 69 80 71 81 72 82 73 83 74 84 51 85 52 86 60 87 53 88
REMARK SMILES IDX 55 89 61 90 54 91 56 92 57 93 58 94 59 95
REMARK H PARENT 17 5 3 10 22 29 81 48 49 59
REMARK Flexibility Score: inf
ROOT
ATOM      1  C   UNL A   1      32.994  26.535  25.897  1.00  0.00     0.116 C 
ENDROOT
BRANCH   1   2
ATOM      2  N   UNL A   1      31.868  25.727  25.478  1.00  0.00    -0.354 N 
ATOM      3  C   UNL A   1      31.796  24.579  24.741  1.00  0.00     0.245 C 
ATOM      4  O   UNL A   1      30.685  24.042  24.734  1.00  0.00    -0.272 OA
ATOM      5  H   UNL A   1      30.994  26.068  25.778  1.00  0.00     0.163 HD
BRANCH   3   6
ATOM      6  C   UNL A   1      33.018  23.988  23.948  1.00  0.00     0.119 C 
ATOM      7  C   UNL A   1      33.044  22.444  24.133  1.00  0.00     0.046 C 
BRANCH   6   8
ATOM      8  N   UNL A   1      32.907  24.219  22.489  1.00  0.00    -0.341 N 
ATOM      9  C   UNL A   1      33.011  25.345  21.738  1.00  0.00     0.230 C 
ATOM     10  H   UNL A   1      32.726  23.404  21.967  1.00  0.00     0.164 HD
ATOM     11  O   UNL A   1      33.277  25.176  20.542  1.00  0.00    -0.274 OA
BRANCH   9  12
ATOM     12  C   UNL A   1      32.767  26.731  22.293  1.00  0.00     0.169 C 
BRANCH  12  13
ATOM     13  S   UNL A   1      31.005  27.216  22.290  1.00  0.00    -0.147 SA
BRANCH  13  14
ATOM     14  C   UNL A   1      31.087  28.946  22.853  1.00  0.00     0.105 C 
BRANCH  14  15
ATOM     15  C   UNL A   1      29.782  29.647  23.150  1.00  0.00    -0.038 A 
ATOM     16  C   UNL A   1      29.670  30.973  23.587  1.00  0.00     0.004 A 
ATOM     17  C   UNL A   1      28.597  28.927  22.901  1.00  0.00     0.004 A 
ATOM     18  C   UNL A   1      28.414  31.559  23.769  1.00  0.00     0.000 A 
ATOM     19  C   UNL A   1      27.344  29.515  23.078  1.00  0.00     0.000 A 
ATOM     20  C   UNL A   1      27.253  30.833  23.510  1.00  0.00     0.000 A 
ENDBRANCH  14  15
ENDBRANCH  13  14
ENDBRANCH  12  13
ENDBRANCH   9  12
ENDBRANCH   6   8
BRANCH   6  21
ATOM     21  C   UNL A   1      34.424  24.482  24.375  1.00  0.00     0.024 C 
ATOM     22  C   UNL A   1      35.386  23.869  25.378  1.00  0.00     0.007 C 
ATOM     23  C   UNL A   1      35.651  23.704  23.916  1.00  0.00     0.007 C 
ENDBRANCH   6  21
ENDBRANCH   3   6
ENDBRANCH   1   2
BRANCH   1  24
ATOM     24  C   UNL A   1      32.643  27.600  26.937  1.00  0.00     0.023 C 
BRANCH  24  25
ATOM     25  C   UNL A   1      31.885  28.842  26.460  1.00  0.00     0.023 C 
BRANCH  25  26
ATOM     26  C   UNL A   1      32.696  29.967  25.820  1.00  0.00     0.116 C 
BRANCH  26  27
ATOM     27  N   UNL A   1      32.438  31.282  26.384  1.00  0.00    -0.352 N 
ATOM     28  C   UNL A   1      33.191  32.035  27.262  1.00  0.00     0.251 C 
ATOM     29  H   UNL A   1      31.594  31.700  26.097  1.00  0.00     0.163 HD
ATOM     30  O   UNL A   1      32.754  33.105  27.660  1.00  0.00    -0.269 OA
BRANCH  28  31
ATOM     31  C   UNL A   1      34.496  31.535  27.766  1.00  0.00     0.039 A 
ATOM     32  C   UNL A   1      35.560  32.438  27.881  1.00  0.00     0.014 A 
ATOM     33  C   UNL A   1      34.682  30.201  28.128  1.00  0.00     0.014 A 
ATOM     34  C   UNL A   1      36.773  32.023  28.444  1.00  0.00     0.010 A 
ATOM     35  C   UNL A   1      35.874  29.797  28.732  1.00  0.00     0.010 A 
ATOM     36  C   UNL A   1      36.924  30.708  28.915  1.00  0.00    -0.014 A 
BRANCH  36  37
ATOM     37  C   UNL A   1      38.131  30.298  29.678  1.00  0.00     0.031 A 
ATOM     38  C   UNL A   1      39.091  29.282  29.127  1.00  0.00     0.074 A 
ATOM     39  C   UNL A   1      38.299  30.770  30.931  1.00  0.00     0.049 A 
ATOM     40  N   UNL A   1      40.179  28.799  29.671  1.00  0.00    -0.248 NA
ATOM     41  C   UNL A   1      38.781  28.719  27.804  1.00  0.00     0.031 C 
ATOM     42  C   UNL A   1      37.386  31.687  31.616  1.00  0.00     0.029 A 
ATOM     43  N   UNL A   1      39.276  30.519  31.863  1.00  0.00    -0.354 N 
ATOM     44  C   UNL A   1      40.671  27.858  28.773  1.00  0.00     0.074 A 
ATOM     45  C   UNL A   1      39.747  27.821  27.659  1.00  0.00     0.031 C 
ATOM     46  C   UNL A   1      37.841  31.918  32.857  1.00  0.00     0.029 A 
ATOM     47  C   UNL A   1      39.067  31.155  33.066  1.00  0.00     0.049 A 
ATOM     48  H   UNL A   1      40.052  29.941  31.689  1.00  0.00     0.167 HD
ATOM     49  C   UNL A   1      41.799  27.112  28.859  1.00  0.00     0.034 A 
ATOM     50  C   UNL A   1      39.780  31.127  34.210  1.00  0.00     0.034 A 
ATOM     51  C   UNL A   1      42.729  27.175  29.957  1.00  0.00     0.049 A 
ATOM     52  C   UNL A   1      41.052  30.325  34.258  1.00  0.00     0.074 A 
ATOM     53  C   UNL A   1      43.950  26.538  30.087  1.00  0.00     0.029 A 
ATOM     54  N   UNL A   1      42.533  27.903  31.120  1.00  0.00    -0.354 N 
ATOM     55  N   UNL A   1      41.603  29.595  33.320  1.00  0.00    -0.248 NA
ATOM     56  C   UNL A   1      41.824  30.377  35.509  1.00  0.00     0.031 C 
ATOM     57  C   UNL A   1      44.483  26.862  31.339  1.00  0.00     0.029 A 
ATOM     58  C   UNL A   1      43.604  27.721  31.979  1.00  0.00     0.049 A 
ATOM     59  H   UNL A   1      41.749  28.467  31.308  1.00  0.00     0.167 HD
ATOM     60  C   UNL A   1      42.802  29.133  33.851  1.00  0.00     0.074 A 
ATOM     61  C   UNL A   1      42.906  29.682  35.187  1.00  0.00     0.031 C 
ATOM     62  C   UNL A   1      43.725  28.316  33.286  1.00  0.00     0.034 A 
BRANCH  49  63
ATOM     63  C   UNL A   1      42.130  26.202  27.704  1.00  0.00     0.023 A 
ATOM     64  C   UNL A   1      42.882  26.704  26.622  1.00  0.00     0.012 A 
ATOM     65  C   UNL A   1      41.769  24.840  27.720  1.00  0.00     0.148 A 
ATOM     66  C   UNL A   1      43.243  25.875  25.561  1.00  0.00     0.002 A 
ATOM     67  C   UNL A   1      42.168  24.010  26.678  1.00  0.00     0.091 A 
ATOM     68  F   UNL A   1      41.040  24.383  28.748  1.00  0.00    -0.205 F 
ATOM     69  C   UNL A   1      42.895  24.528  25.593  1.00  0.00     0.022 A 
BRANCH  67  70
ATOM     70  S   UNL A   1      41.838  22.244  26.663  1.00  0.00     0.127 S 
ATOM     71  O   UNL A   1      42.506  21.829  25.431  1.00  0.00    -0.237 OA
ATOM     72  O   UNL A   1      42.494  21.796  27.892  1.00  0.00    -0.237 OA
ATOM     73  O   UNL A   1      40.388  22.107  26.666  1.00  0.00    -0.744 OA
ENDBRANCH  67  70
ENDBRANCH  49  63
BRANCH  50  74
ATOM     74  C   UNL A   1      39.352  31.953  35.373  1.00  0.00     0.023 A 
ATOM     75  C   UNL A   1      38.512  31.381  36.350  1.00  0.00     0.012 A 
ATOM     76  C   UNL A   1      39.790  33.282  35.538  1.00  0.00     0.148 A 
ATOM     77  C   UNL A   1      38.092  32.125  37.452  1.00  0.00     0.002 A 
ATOM     78  C   UNL A   1      39.410  34.000  36.667  1.00  0.00     0.091 A 
ATOM     79  F   UNL A   1      40.578  33.814  34.594  1.00  0.00    -0.205 F 
ATOM     80  C   UNL A   1      38.548  33.429  37.616  1.00  0.00     0.022 A 
BRANCH  78  81
ATOM     81  S   UNL A   1      40.054  35.639  37.027  1.00  0.00     0.127 S 
ATOM     82  O   UNL A   1      41.489  35.384  37.113  1.00  0.00    -0.237 OA
ATOM     83  O   UNL A   1      39.634  36.396  35.847  1.00  0.00    -0.237 OA
ATOM     84  O   UNL A   1      39.405  36.051  38.263  1.00  0.00    -0.744 OA
ENDBRANCH  78  81
ENDBRANCH  50  74
BRANCH  62  85
ATOM     85  C   UNL A   1      44.954  27.986  34.094  1.00  0.00     0.023 A 
ATOM     86  C   UNL A   1      46.081  28.829  34.030  1.00  0.00     0.012 A 
ATOM     87  C   UNL A   1      44.965  26.884  34.972  1.00  0.00     0.148 A 
ATOM     88  C   UNL A   1      47.210  28.563  34.802  1.00  0.00     0.002 A 
ATOM     89  C   UNL A   1      46.076  26.652  35.774  1.00  0.00     0.091 A 
ATOM     90  F   UNL A   1      43.891  26.080  35.004  1.00  0.00    -0.205 F 
ATOM     91  C   UNL A   1      47.204  27.483  35.681  1.00  0.00     0.022 A 
BRANCH  89  92
ATOM     92  S   UNL A   1      46.119  25.342  37.003  1.00  0.00     0.127 S 
ATOM     93  O   UNL A   1      45.255  25.885  38.048  1.00  0.00    -0.237 OA
ATOM     94  O   UNL A   1      45.551  24.209  36.270  1.00  0.00    -0.237 OA
ATOM     95  O   UNL A   1      47.520  25.181  37.367  1.00  0.00    -0.744 OA
ENDBRANCH  89  92
ENDBRANCH  62  85
ENDBRANCH  36  37
ENDBRANCH  28  31
ENDBRANCH  26  27
ENDBRANCH  25  26
ENDBRANCH  24  25
ENDBRANCH   1  24
TORSDOF 20
ENDMDL
