MODEL 1
REMARK VINA RESULT:     -12.8      0.000      0.000
REMARK SMILES Cc1ccccc1NC(=O)NC[C@@H]1CC[C@@H](C(=O)NCCCCNC(=O)c2ccc(-c3c4nc(c(-c5cccc(S(=O)(=O)[O-])c5F)c5ccc([nH]5)c(-c5cccc(S(=O)(=O)[O-])c5F)c5nc(c(-c6cccc(S(=O)(=O)[O-])c6F)c6ccc3[nH]6)C=C5)C=C4)cc2)O1
REMARK SMILES IDX 21 1 20 2 19 3 17 4 18 5 16 7 13 8 14 9 90 10 15 11 12 12
REMARK SMILES IDX 11 13 8 14 9 15 10 17 7 19 1 20 2 21 3 22 4 23 6 24 5 25
REMARK SMILES IDX 22 26 23 27 24 28 25 29 26 31 27 32 28 33 89 34 29 35 88 36
REMARK SMILES IDX 30 37 31 38 32 39 82 40 33 41 87 42 81 43 83 44 34 45 86 46
REMARK SMILES IDX 80 47 79 48 35 50 67 51 47 52 66 53 48 54 51 55 65 56 84 57
REMARK SMILES IDX 49 58 50 59 64 61 85 62 52 63 36 64 37 65 45 66 38 67 40 68
REMARK SMILES IDX 46 69 39 70 41 71 42 72 43 73 44 74 68 75 69 76 77 77 70 78
REMARK SMILES IDX 72 79 78 80 71 81 73 82 74 83 75 84 76 85 53 86 54 87 62 88
REMARK SMILES IDX 55 89 57 90 63 91 56 92 58 93 59 94 60 95 61 96
REMARK H PARENT 19 6 8 16 11 18 24 30 83 49 51 60
REMARK Flexibility Score: inf
ROOT
ATOM      1  C   UNL A   1      36.644  20.871  24.771  1.00  0.00     0.023 C 
ENDROOT
BRANCH   1   2
ATOM      2  C   UNL A   1      35.471  21.119  25.742  1.00  0.00     0.116 C 
BRANCH   2   3
ATOM      3  N   UNL A   1      34.233  20.493  25.296  1.00  0.00    -0.354 N 
ATOM      4  C   UNL A   1      32.948  20.943  25.184  1.00  0.00     0.249 C 
ATOM      5  O   UNL A   1      32.103  20.113  24.835  1.00  0.00    -0.272 OA
ATOM      6  H   UNL A   1      34.345  19.556  25.019  1.00  0.00     0.163 HD
BRANCH   4   7
ATOM      7  C   UNL A   1      32.564  22.426  25.419  1.00  0.00     0.207 C 
ATOM      8  C   UNL A   1      30.911  23.611  24.236  1.00  0.00     0.138 C 
ATOM      9  C   UNL A   1      30.696  23.852  25.714  1.00  0.00     0.037 C 
ATOM     10  O   UNL A   1      32.273  23.139  24.179  1.00  0.00    -0.363 OA
ATOM     11  C   UNL A   1      31.347  22.639  26.295  1.00  0.00     0.045 C 
BRANCH   8  12
ATOM     12  C   UNL A   1      30.661  24.872  23.384  1.00  0.00     0.149 C 
BRANCH  12  13
ATOM     13  N   UNL A   1      31.548  24.935  22.222  1.00  0.00    -0.335 N 
ATOM     14  N   UNL A   1      33.544  26.225  22.645  1.00  0.00    -0.308 N 
ATOM     15  C   UNL A   1      32.767  25.395  21.933  1.00  0.00     0.319 C 
ATOM     16  H   UNL A   1      34.467  26.202  22.303  1.00  0.00     0.171 HD
ATOM     17  O   UNL A   1      33.273  24.962  20.887  1.00  0.00    -0.249 OA
ATOM     18  H   UNL A   1      31.129  24.523  21.432  1.00  0.00     0.165 HD
BRANCH  14  19
ATOM     19  C   UNL A   1      33.448  27.118  23.726  1.00  0.00     0.045 A 
ATOM     20  C   UNL A   1      34.357  25.375  25.403  1.00  0.00     0.046 C 
ATOM     21  C   UNL A   1      33.726  26.694  25.045  1.00  0.00    -0.027 A 
ATOM     22  C   UNL A   1      33.521  27.586  26.124  1.00  0.00     0.005 A 
ATOM     23  C   UNL A   1      33.076  28.884  25.913  1.00  0.00     0.000 A 
ATOM     24  C   UNL A   1      33.155  28.458  23.546  1.00  0.00     0.026 A 
ATOM     25  C   UNL A   1      32.923  29.332  24.614  1.00  0.00     0.002 A 
ENDBRANCH  14  19
ENDBRANCH  12  13
ENDBRANCH   8  12
ENDBRANCH   4   7
ENDBRANCH   2   3
ENDBRANCH   1   2
BRANCH   1  26
ATOM     26  C   UNL A   1      38.033  20.845  25.418  1.00  0.00     0.023 C 
BRANCH  26  27
ATOM     27  C   UNL A   1      38.520  22.213  25.861  1.00  0.00     0.116 C 
BRANCH  27  28
ATOM     28  N   UNL A   1      39.651  22.183  26.771  1.00  0.00    -0.352 N 
ATOM     29  C   UNL A   1      40.407  23.238  27.278  1.00  0.00     0.251 C 
ATOM     30  H   UNL A   1      39.923  21.287  27.074  1.00  0.00     0.163 HD
ATOM     31  O   UNL A   1      41.473  22.999  27.799  1.00  0.00    -0.269 OA
BRANCH  29  32
ATOM     32  C   UNL A   1      39.809  24.604  27.321  1.00  0.00     0.039 A 
ATOM     33  C   UNL A   1      40.317  25.536  26.406  1.00  0.00     0.014 A 
ATOM     34  C   UNL A   1      39.076  25.035  28.418  1.00  0.00     0.014 A 
ATOM     35  C   UNL A   1      40.392  26.876  26.769  1.00  0.00     0.010 A 
ATOM     36  C   UNL A   1      39.244  26.335  28.833  1.00  0.00     0.010 A 
ATOM     37  C   UNL A   1      39.987  27.224  28.048  1.00  0.00    -0.014 A 
BRANCH  37  38
ATOM     38  C   UNL A   1      40.287  28.478  28.709  1.00  0.00     0.031 A 
ATOM     39  C   UNL A   1      39.281  29.552  28.675  1.00  0.00     0.074 A 
ATOM     40  C   UNL A   1      41.328  28.510  29.578  1.00  0.00     0.049 A 
ATOM     41  N   UNL A   1      39.451  30.692  29.237  1.00  0.00    -0.248 NA
ATOM     42  C   UNL A   1      37.999  29.430  27.984  1.00  0.00     0.031 C 
ATOM     43  C   UNL A   1      41.526  29.430  30.694  1.00  0.00     0.029 A 
ATOM     44  N   UNL A   1      42.549  27.827  29.496  1.00  0.00    -0.354 N 
ATOM     45  C   UNL A   1      38.228  31.312  29.272  1.00  0.00     0.074 A 
ATOM     46  C   UNL A   1      37.396  30.561  28.367  1.00  0.00     0.031 C 
ATOM     47  C   UNL A   1      42.833  29.473  30.994  1.00  0.00     0.029 A 
ATOM     48  C   UNL A   1      43.520  28.747  29.944  1.00  0.00     0.049 A 
ATOM     49  H   UNL A   1      42.696  26.903  29.192  1.00  0.00     0.167 HD
ATOM     50  C   UNL A   1      38.048  32.311  30.175  1.00  0.00     0.034 A 
ATOM     51  C   UNL A   1      44.468  29.283  29.113  1.00  0.00     0.034 A 
ATOM     52  C   UNL A   1      39.342  32.763  30.713  1.00  0.00     0.049 A 
ATOM     53  C   UNL A   1      44.354  30.802  28.961  1.00  0.00     0.074 A 
ATOM     54  C   UNL A   1      40.018  32.652  31.914  1.00  0.00     0.029 A 
ATOM     55  N   UNL A   1      40.273  33.236  29.801  1.00  0.00    -0.354 N 
ATOM     56  N   UNL A   1      43.539  31.566  29.643  1.00  0.00    -0.248 NA
ATOM     57  C   UNL A   1      45.099  31.566  27.959  1.00  0.00     0.031 C 
ATOM     58  C   UNL A   1      41.392  32.999  31.680  1.00  0.00     0.029 A 
ATOM     59  C   UNL A   1      41.533  33.371  30.354  1.00  0.00     0.049 A 
ATOM     60  H   UNL A   1      40.061  33.452  28.864  1.00  0.00     0.167 HD
ATOM     61  C   UNL A   1      43.515  32.827  29.099  1.00  0.00     0.074 A 
ATOM     62  C   UNL A   1      44.543  32.785  28.071  1.00  0.00     0.031 C 
ATOM     63  C   UNL A   1      42.614  33.795  29.469  1.00  0.00     0.034 A 
BRANCH  50  64
ATOM     64  C   UNL A   1      36.711  32.836  30.654  1.00  0.00     0.023 A 
ATOM     65  C   UNL A   1      36.254  32.383  31.911  1.00  0.00     0.012 A 
ATOM     66  C   UNL A   1      35.813  33.656  29.922  1.00  0.00     0.148 A 
ATOM     67  C   UNL A   1      34.990  32.717  32.412  1.00  0.00     0.002 A 
ATOM     68  C   UNL A   1      34.581  34.046  30.454  1.00  0.00     0.091 A 
ATOM     69  F   UNL A   1      36.088  33.990  28.658  1.00  0.00    -0.205 F 
ATOM     70  C   UNL A   1      34.159  33.563  31.694  1.00  0.00     0.022 A 
BRANCH  68  71
ATOM     71  S   UNL A   1      33.478  35.187  29.596  1.00  0.00     0.127 S 
ATOM     72  O   UNL A   1      32.520  34.276  28.971  1.00  0.00    -0.237 OA
ATOM     73  O   UNL A   1      32.931  35.986  30.693  1.00  0.00    -0.237 OA
ATOM     74  O   UNL A   1      34.316  35.939  28.670  1.00  0.00    -0.744 OA
ENDBRANCH  68  71
ENDBRANCH  50  64
BRANCH  51  75
ATOM     75  C   UNL A   1      44.914  28.317  28.061  1.00  0.00     0.023 A 
ATOM     76  C   UNL A   1      43.989  28.055  27.017  1.00  0.00     0.012 A 
ATOM     77  C   UNL A   1      46.271  28.026  27.846  1.00  0.00     0.148 A 
ATOM     78  C   UNL A   1      44.430  27.700  25.742  1.00  0.00     0.002 A 
ATOM     79  C   UNL A   1      46.701  27.646  26.574  1.00  0.00     0.091 A 
ATOM     80  F   UNL A   1      47.136  28.205  28.852  1.00  0.00    -0.205 F 
ATOM     81  C   UNL A   1      45.791  27.538  25.511  1.00  0.00     0.022 A 
BRANCH  79  82
ATOM     82  S   UNL A   1      48.442  27.395  26.209  1.00  0.00     0.127 S 
ATOM     83  O   UNL A   1      48.375  26.373  25.169  1.00  0.00    -0.237 OA
ATOM     84  O   UNL A   1      48.861  28.717  25.748  1.00  0.00    -0.237 OA
ATOM     85  O   UNL A   1      49.033  26.990  27.477  1.00  0.00    -0.744 OA
ENDBRANCH  79  82
ENDBRANCH  51  75
BRANCH  63  86
ATOM     86  C   UNL A   1      42.646  35.227  28.946  1.00  0.00     0.023 A 
ATOM     87  C   UNL A   1      42.132  35.538  27.670  1.00  0.00     0.012 A 
ATOM     88  C   UNL A   1      43.292  36.289  29.637  1.00  0.00     0.148 A 
ATOM     89  C   UNL A   1      42.155  36.840  27.155  1.00  0.00     0.002 A 
ATOM     90  C   UNL A   1      43.369  37.571  29.098  1.00  0.00     0.091 A 
ATOM     91  F   UNL A   1      43.843  36.073  30.834  1.00  0.00    -0.205 F 
ATOM     92  C   UNL A   1      42.771  37.858  27.870  1.00  0.00     0.022 A 
BRANCH  90  93
ATOM     93  S   UNL A   1      44.282  38.905  29.892  1.00  0.00     0.127 S 
ATOM     94  O   UNL A   1      45.637  38.351  29.930  1.00  0.00    -0.237 OA
ATOM     95  O   UNL A   1      44.098  39.999  28.939  1.00  0.00    -0.237 OA
ATOM     96  O   UNL A   1      43.670  39.106  31.195  1.00  0.00    -0.744 OA
ENDBRANCH  90  93
ENDBRANCH  63  86
ENDBRANCH  37  38
ENDBRANCH  29  32
ENDBRANCH  27  28
ENDBRANCH  26  27
ENDBRANCH   1  26
TORSDOF 17
ENDMDL
MODEL 2
REMARK VINA RESULT:     -12.5      4.185     10.158
REMARK SMILES Cc1ccccc1NC(=O)NC[C@@H]1CC[C@@H](C(=O)NCCCCNC(=O)c2ccc(-c3c4nc(c(-c5cccc(S(=O)(=O)[O-])c5F)c5ccc([nH]5)c(-c5cccc(S(=O)(=O)[O-])c5F)c5nc(c(-c6cccc(S(=O)(=O)[O-])c6F)c6ccc3[nH]6)C=C5)C=C4)cc2)O1
REMARK SMILES IDX 21 1 20 2 19 3 17 4 18 5 16 7 13 8 14 9 90 10 15 11 12 12
REMARK SMILES IDX 11 13 8 14 9 15 10 17 7 19 1 20 2 21 3 22 4 23 6 24 5 25
REMARK SMILES IDX 22 26 23 27 24 28 25 29 26 31 27 32 28 33 89 34 29 35 88 36
REMARK SMILES IDX 30 37 31 38 32 39 82 40 33 41 87 42 81 43 83 44 34 45 86 46
REMARK SMILES IDX 80 47 79 48 35 50 67 51 47 52 66 53 48 54 51 55 65 56 84 57
REMARK SMILES IDX 49 58 50 59 64 61 85 62 52 63 36 64 37 65 45 66 38 67 40 68
REMARK SMILES IDX 46 69 39 70 41 71 42 72 43 73 44 74 68 75 69 76 77 77 70 78
REMARK SMILES IDX 72 79 78 80 71 81 73 82 74 83 75 84 76 85 53 86 54 87 62 88
REMARK SMILES IDX 55 89 57 90 63 91 56 92 58 93 59 94 60 95 61 96
REMARK H PARENT 19 6 8 16 11 18 24 30 83 49 51 60
REMARK Flexibility Score: inf
ROOT
ATOM      1  C   UNL A   1      33.044  29.650  25.143  1.00  0.00     0.023 C 
ENDROOT
BRANCH   1   2
ATOM      2  C   UNL A   1      31.513  29.481  25.055  1.00  0.00     0.116 C 
BRANCH   2   3
ATOM      3  N   UNL A   1      30.975  29.907  23.770  1.00  0.00    -0.354 N 
ATOM      4  C   UNL A   1      30.424  29.230  22.718  1.00  0.00     0.249 C 
ATOM      5  O   UNL A   1      30.131  29.902  21.724  1.00  0.00    -0.272 OA
ATOM      6  H   UNL A   1      31.016  30.880  23.631  1.00  0.00     0.163 HD
BRANCH   4   7
ATOM      7  C   UNL A   1      30.121  27.711  22.776  1.00  0.00     0.207 C 
ATOM      8  C   UNL A   1      30.660  26.280  24.565  1.00  0.00     0.138 C 
ATOM      9  C   UNL A   1      29.216  26.036  24.185  1.00  0.00     0.037 C 
ATOM     10  O   UNL A   1      31.194  26.943  23.400  1.00  0.00    -0.363 OA
ATOM     11  C   UNL A   1      28.869  27.340  23.542  1.00  0.00     0.045 C 
BRANCH   8  12
ATOM     12  C   UNL A   1      31.408  24.983  24.931  1.00  0.00     0.149 C 
BRANCH  12  13
ATOM     13  N   UNL A   1      30.536  24.015  25.598  1.00  0.00    -0.335 N 
ATOM     14  N   UNL A   1      31.769  22.322  26.797  1.00  0.00    -0.308 N 
ATOM     15  C   UNL A   1      30.660  22.988  26.440  1.00  0.00     0.319 C 
ATOM     16  H   UNL A   1      31.594  21.776  27.597  1.00  0.00     0.171 HD
ATOM     17  O   UNL A   1      29.619  22.626  27.008  1.00  0.00    -0.249 OA
ATOM     18  H   UNL A   1      29.592  24.164  25.358  1.00  0.00     0.165 HD
BRANCH  14  19
ATOM     19  C   UNL A   1      33.102  22.161  26.381  1.00  0.00     0.045 A 
ATOM     20  C   UNL A   1      32.534  20.083  24.955  1.00  0.00     0.046 C 
ATOM     21  C   UNL A   1      33.491  21.048  25.602  1.00  0.00    -0.027 A 
ATOM     22  C   UNL A   1      34.856  20.858  25.286  1.00  0.00     0.005 A 
ATOM     23  C   UNL A   1      35.826  21.760  25.704  1.00  0.00     0.000 A 
ATOM     24  C   UNL A   1      34.072  23.111  26.647  1.00  0.00     0.026 A 
ATOM     25  C   UNL A   1      35.427  22.909  26.361  1.00  0.00     0.002 A 
ENDBRANCH  14  19
ENDBRANCH  12  13
ENDBRANCH   8  12
ENDBRANCH   4   7
ENDBRANCH   2   3
ENDBRANCH   1   2
BRANCH   1  26
ATOM     26  C   UNL A   1      33.629  29.568  26.556  1.00  0.00     0.023 C 
BRANCH  26  27
ATOM     27  C   UNL A   1      33.225  30.729  27.447  1.00  0.00     0.116 C 
BRANCH  27  28
ATOM     28  N   UNL A   1      34.229  31.770  27.571  1.00  0.00    -0.352 N 
ATOM     29  C   UNL A   1      35.508  31.706  28.119  1.00  0.00     0.251 C 
ATOM     30  H   UNL A   1      33.967  32.651  27.216  1.00  0.00     0.163 HD
ATOM     31  O   UNL A   1      36.088  32.736  28.381  1.00  0.00    -0.269 OA
BRANCH  29  32
ATOM     32  C   UNL A   1      36.194  30.384  28.207  1.00  0.00     0.039 A 
ATOM     33  C   UNL A   1      36.214  29.774  29.468  1.00  0.00     0.014 A 
ATOM     34  C   UNL A   1      37.067  29.958  27.215  1.00  0.00     0.014 A 
ATOM     35  C   UNL A   1      37.312  29.006  29.837  1.00  0.00     0.010 A 
ATOM     36  C   UNL A   1      38.207  29.294  27.604  1.00  0.00     0.010 A 
ATOM     37  C   UNL A   1      38.364  28.907  28.939  1.00  0.00    -0.014 A 
BRANCH  37  38
ATOM     38  C   UNL A   1      39.697  28.439  29.259  1.00  0.00     0.031 A 
ATOM     39  C   UNL A   1      40.045  27.041  28.954  1.00  0.00     0.074 A 
ATOM     40  C   UNL A   1      40.650  29.361  29.537  1.00  0.00     0.049 A 
ATOM     41  N   UNL A   1      41.201  26.537  29.192  1.00  0.00    -0.248 NA
ATOM     42  C   UNL A   1      39.106  26.089  28.365  1.00  0.00     0.031 C 
ATOM     43  C   UNL A   1      42.096  29.216  29.396  1.00  0.00     0.029 A 
ATOM     44  N   UNL A   1      40.508  30.581  30.213  1.00  0.00    -0.354 N 
ATOM     45  C   UNL A   1      41.269  25.345  28.516  1.00  0.00     0.074 A 
ATOM     46  C   UNL A   1      39.912  25.045  28.138  1.00  0.00     0.031 C 
ATOM     47  C   UNL A   1      42.701  30.108  30.195  1.00  0.00     0.029 A 
ATOM     48  C   UNL A   1      41.662  30.696  31.017  1.00  0.00     0.049 A 
ATOM     49  H   UNL A   1      39.763  31.219  30.142  1.00  0.00     0.167 HD
ATOM     50  C   UNL A   1      42.500  24.835  28.251  1.00  0.00     0.034 A 
ATOM     51  C   UNL A   1      41.618  30.636  32.384  1.00  0.00     0.034 A 
ATOM     52  C   UNL A   1      43.527  25.512  29.061  1.00  0.00     0.049 A 
ATOM     53  C   UNL A   1      42.389  29.448  32.966  1.00  0.00     0.074 A 
ATOM     54  C   UNL A   1      44.545  26.418  28.829  1.00  0.00     0.029 A 
ATOM     55  N   UNL A   1      43.379  25.458  30.439  1.00  0.00    -0.354 N 
ATOM     56  N   UNL A   1      43.139  28.629  32.275  1.00  0.00    -0.248 NA
ATOM     57  C   UNL A   1      42.298  29.043  34.370  1.00  0.00     0.031 C 
ATOM     58  C   UNL A   1      44.951  26.959  30.097  1.00  0.00     0.029 A 
ATOM     59  C   UNL A   1      44.217  26.341  31.094  1.00  0.00     0.049 A 
ATOM     60  H   UNL A   1      42.749  24.859  30.899  1.00  0.00     0.167 HD
ATOM     61  C   UNL A   1      43.484  27.546  33.047  1.00  0.00     0.074 A 
ATOM     62  C   UNL A   1      42.966  27.876  34.365  1.00  0.00     0.031 C 
ATOM     63  C   UNL A   1      44.101  26.426  32.548  1.00  0.00     0.034 A 
BRANCH  50  64
ATOM     64  C   UNL A   1      42.813  23.788  27.204  1.00  0.00     0.023 A 
ATOM     65  C   UNL A   1      43.594  24.194  26.100  1.00  0.00     0.012 A 
ATOM     66  C   UNL A   1      42.313  22.460  27.159  1.00  0.00     0.148 A 
ATOM     67  C   UNL A   1      43.863  23.345  25.020  1.00  0.00     0.002 A 
ATOM     68  C   UNL A   1      42.639  21.591  26.114  1.00  0.00     0.091 A 
ATOM     69  F   UNL A   1      41.429  22.045  28.071  1.00  0.00    -0.205 F 
ATOM     70  C   UNL A   1      43.401  22.037  25.033  1.00  0.00     0.022 A 
BRANCH  68  71
ATOM     71  S   UNL A   1      42.118  19.864  26.098  1.00  0.00     0.127 S 
ATOM     72  O   UNL A   1      42.533  19.406  27.423  1.00  0.00    -0.237 OA
ATOM     73  O   UNL A   1      40.670  19.971  25.918  1.00  0.00    -0.237 OA
ATOM     74  O   UNL A   1      42.815  19.243  24.978  1.00  0.00    -0.744 OA
ENDBRANCH  68  71
ENDBRANCH  50  64
BRANCH  51  75
ATOM     75  C   UNL A   1      40.367  31.241  32.941  1.00  0.00     0.023 A 
ATOM     76  C   UNL A   1      39.292  30.346  33.183  1.00  0.00     0.012 A 
ATOM     77  C   UNL A   1      40.369  32.483  33.597  1.00  0.00     0.148 A 
ATOM     78  C   UNL A   1      38.359  30.603  34.187  1.00  0.00     0.002 A 
ATOM     79  C   UNL A   1      39.416  32.743  34.581  1.00  0.00     0.091 A 
ATOM     80  F   UNL A   1      41.343  33.357  33.316  1.00  0.00    -0.205 F 
ATOM     81  C   UNL A   1      38.448  31.783  34.916  1.00  0.00     0.022 A 
BRANCH  79  82
ATOM     82  S   UNL A   1      39.455  34.258  35.546  1.00  0.00     0.127 S 
ATOM     83  O   UNL A   1      38.554  33.924  36.645  1.00  0.00    -0.237 OA
ATOM     84  O   UNL A   1      40.866  34.361  35.915  1.00  0.00    -0.237 OA
ATOM     85  O   UNL A   1      39.001  35.294  34.629  1.00  0.00    -0.744 OA
ENDBRANCH  79  82
ENDBRANCH  51  75
BRANCH  63  86
ATOM     86  C   UNL A   1      44.580  25.265  33.413  1.00  0.00     0.023 A 
ATOM     87  C   UNL A   1      43.659  24.342  33.952  1.00  0.00     0.012 A 
ATOM     88  C   UNL A   1      45.933  25.115  33.827  1.00  0.00     0.148 A 
ATOM     89  C   UNL A   1      44.064  23.272  34.759  1.00  0.00     0.002 A 
ATOM     90  C   UNL A   1      46.325  24.086  34.680  1.00  0.00     0.091 A 
ATOM     91  F   UNL A   1      46.864  25.970  33.398  1.00  0.00    -0.205 F 
ATOM     92  C   UNL A   1      45.397  23.141  35.121  1.00  0.00     0.022 A 
BRANCH  90  93
ATOM     93  S   UNL A   1      48.004  23.940  35.317  1.00  0.00     0.127 S 
ATOM     94  O   UNL A   1      47.896  22.744  36.154  1.00  0.00    -0.237 OA
ATOM     95  O   UNL A   1      48.772  23.755  34.087  1.00  0.00    -0.237 OA
ATOM     96  O   UNL A   1      48.279  25.169  36.043  1.00  0.00    -0.744 OA
ENDBRANCH  90  93
ENDBRANCH  63  86
ENDBRANCH  37  38
ENDBRANCH  29  32
ENDBRANCH  27  28
ENDBRANCH  26  27
ENDBRANCH   1  26
TORSDOF 17
ENDMDL
MODEL 3
REMARK VINA RESULT:     -12.5      4.263      9.836
REMARK SMILES Cc1ccccc1NC(=O)NC[C@@H]1CC[C@@H](C(=O)NCCCCNC(=O)c2ccc(-c3c4nc(c(-c5cccc(S(=O)(=O)[O-])c5F)c5ccc([nH]5)c(-c5cccc(S(=O)(=O)[O-])c5F)c5nc(c(-c6cccc(S(=O)(=O)[O-])c6F)c6ccc3[nH]6)C=C5)C=C4)cc2)O1
REMARK SMILES IDX 21 1 20 2 19 3 17 4 18 5 16 7 13 8 14 9 90 10 15 11 12 12
REMARK SMILES IDX 11 13 8 14 9 15 10 17 7 19 1 20 2 21 3 22 4 23 6 24 5 25
REMARK SMILES IDX 22 26 23 27 24 28 25 29 26 31 27 32 28 33 89 34 29 35 88 36
REMARK SMILES IDX 30 37 31 38 32 39 82 40 33 41 87 42 81 43 83 44 34 45 86 46
REMARK SMILES IDX 80 47 79 48 35 50 67 51 47 52 66 53 48 54 51 55 65 56 84 57
REMARK SMILES IDX 49 58 50 59 64 61 85 62 52 63 36 64 37 65 45 66 38 67 40 68
REMARK SMILES IDX 46 69 39 70 41 71 42 72 43 73 44 74 68 75 69 76 77 77 70 78
REMARK SMILES IDX 72 79 78 80 71 81 73 82 74 83 75 84 76 85 53 86 54 87 62 88
REMARK SMILES IDX 55 89 57 90 63 91 56 92 58 93 59 94 60 95 61 96
REMARK H PARENT 19 6 8 16 11 18 24 30 83 49 51 60
REMARK Flexibility Score: inf
ROOT
ATOM      1  C   UNL A   1      32.362  29.834  25.670  1.00  0.00     0.023 C 
ENDROOT
BRANCH   1   2
ATOM      2  C   UNL A   1      32.555  29.310  24.232  1.00  0.00     0.116 C 
BRANCH   2   3
ATOM      3  N   UNL A   1      31.407  28.550  23.754  1.00  0.00    -0.354 N 
ATOM      4  C   UNL A   1      31.158  27.212  23.635  1.00  0.00     0.249 C 
ATOM      5  O   UNL A   1      30.086  26.897  23.108  1.00  0.00    -0.272 OA
ATOM      6  H   UNL A   1      30.660  29.116  23.456  1.00  0.00     0.163 HD
BRANCH   4   7
ATOM      7  C   UNL A   1      32.130  26.136  24.182  1.00  0.00     0.207 C 
ATOM      8  C   UNL A   1      31.568  23.894  24.630  1.00  0.00     0.138 C 
ATOM      9  C   UNL A   1      32.847  23.907  23.822  1.00  0.00     0.037 C 
ATOM     10  O   UNL A   1      31.497  25.240  25.146  1.00  0.00    -0.363 OA
ATOM     11  C   UNL A   1      32.731  25.227  23.130  1.00  0.00     0.045 C 
BRANCH   8  12
ATOM     12  C   UNL A   1      31.568  22.813  25.729  1.00  0.00     0.149 C 
BRANCH  12  13
ATOM     13  N   UNL A   1      31.656  21.463  25.172  1.00  0.00    -0.335 N 
ATOM     14  N   UNL A   1      33.916  20.617  25.134  1.00  0.00    -0.308 N 
ATOM     15  C   UNL A   1      32.584  20.518  25.014  1.00  0.00     0.319 C 
ATOM     16  H   UNL A   1      34.320  19.721  25.190  1.00  0.00     0.171 HD
ATOM     17  O   UNL A   1      32.158  19.380  24.767  1.00  0.00    -0.249 OA
ATOM     18  H   UNL A   1      30.787  21.170  24.814  1.00  0.00     0.165 HD
BRANCH  14  19
ATOM     19  C   UNL A   1      34.915  21.605  25.204  1.00  0.00     0.045 A 
ATOM     20  C   UNL A   1      34.356  22.166  27.664  1.00  0.00     0.046 C 
ATOM     21  C   UNL A   1      35.057  22.413  26.355  1.00  0.00    -0.027 A 
ATOM     22  C   UNL A   1      36.001  23.467  26.357  1.00  0.00     0.005 A 
ATOM     23  C   UNL A   1      36.814  23.710  25.257  1.00  0.00     0.000 A 
ATOM     24  C   UNL A   1      35.843  21.782  24.194  1.00  0.00     0.026 A 
ATOM     25  C   UNL A   1      36.756  22.842  24.183  1.00  0.00     0.002 A 
ENDBRANCH  14  19
ENDBRANCH  12  13
ENDBRANCH   8  12
ENDBRANCH   4   7
ENDBRANCH   2   3
ENDBRANCH   1   2
BRANCH   1  26
ATOM     26  C   UNL A   1      33.648  29.984  26.489  1.00  0.00     0.023 C 
BRANCH  26  27
ATOM     27  C   UNL A   1      33.496  30.895  27.694  1.00  0.00     0.116 C 
BRANCH  27  28
ATOM     28  N   UNL A   1      34.488  31.952  27.778  1.00  0.00    -0.352 N 
ATOM     29  C   UNL A   1      35.773  31.920  28.318  1.00  0.00     0.251 C 
ATOM     30  H   UNL A   1      34.213  32.817  27.398  1.00  0.00     0.163 HD
ATOM     31  O   UNL A   1      36.341  32.964  28.544  1.00  0.00    -0.269 OA
BRANCH  29  32
ATOM     32  C   UNL A   1      36.475  30.610  28.441  1.00  0.00     0.039 A 
ATOM     33  C   UNL A   1      36.696  30.140  29.743  1.00  0.00     0.014 A 
ATOM     34  C   UNL A   1      37.187  30.071  27.378  1.00  0.00     0.014 A 
ATOM     35  C   UNL A   1      37.845  29.408  30.018  1.00  0.00     0.010 A 
ATOM     36  C   UNL A   1      38.379  29.444  27.655  1.00  0.00     0.010 A 
ATOM     37  C   UNL A   1      38.745  29.202  28.984  1.00  0.00    -0.014 A 
BRANCH  37  38
ATOM     38  C   UNL A   1      40.116  28.761  29.142  1.00  0.00     0.031 A 
ATOM     39  C   UNL A   1      40.425  27.337  28.936  1.00  0.00     0.074 A 
ATOM     40  C   UNL A   1      41.092  29.701  29.170  1.00  0.00     0.049 A 
ATOM     41  N   UNL A   1      41.608  26.852  29.045  1.00  0.00    -0.248 NA
ATOM     42  C   UNL A   1      39.415  26.334  28.603  1.00  0.00     0.031 C 
ATOM     43  C   UNL A   1      42.500  29.530  28.825  1.00  0.00     0.029 A 
ATOM     44  N   UNL A   1      41.045  30.986  29.728  1.00  0.00    -0.354 N 
ATOM     45  C   UNL A   1      41.582  25.594  28.496  1.00  0.00     0.074 A 
ATOM     46  C   UNL A   1      40.185  25.267  28.365  1.00  0.00     0.031 C 
ATOM     47  C   UNL A   1      43.213  30.497  29.422  1.00  0.00     0.029 A 
ATOM     48  C   UNL A   1      42.308  31.177  30.327  1.00  0.00     0.049 A 
ATOM     49  H   UNL A   1      40.292  31.618  29.705  1.00  0.00     0.167 HD
ATOM     50  C   UNL A   1      42.762  25.050  28.100  1.00  0.00     0.034 A 
ATOM     51  C   UNL A   1      42.476  31.262  31.684  1.00  0.00     0.034 A 
ATOM     52  C   UNL A   1      43.895  25.801  28.666  1.00  0.00     0.049 A 
ATOM     53  C   UNL A   1      43.338  30.136  32.262  1.00  0.00     0.074 A 
ATOM     54  C   UNL A   1      44.857  26.670  28.185  1.00  0.00     0.029 A 
ATOM     55  N   UNL A   1      43.962  25.894  30.048  1.00  0.00    -0.354 N 
ATOM     56  N   UNL A   1      43.980  29.243  31.554  1.00  0.00    -0.248 NA
ATOM     57  C   UNL A   1      43.468  29.882  33.698  1.00  0.00     0.031 C 
ATOM     58  C   UNL A   1      45.449  27.339  29.311  1.00  0.00     0.029 A 
ATOM     59  C   UNL A   1      44.883  26.835  30.469  1.00  0.00     0.049 A 
ATOM     60  H   UNL A   1      43.416  25.352  30.661  1.00  0.00     0.167 HD
ATOM     61  C   UNL A   1      44.449  28.245  32.373  1.00  0.00     0.074 A 
ATOM     62  C   UNL A   1      44.137  28.716  33.713  1.00  0.00     0.031 C 
ATOM     63  C   UNL A   1      44.991  27.074  31.906  1.00  0.00     0.034 A 
BRANCH  50  64
ATOM     64  C   UNL A   1      42.919  23.896  27.133  1.00  0.00     0.023 A 
ATOM     65  C   UNL A   1      43.679  24.132  25.967  1.00  0.00     0.012 A 
ATOM     66  C   UNL A   1      42.292  22.626  27.224  1.00  0.00     0.148 A 
ATOM     67  C   UNL A   1      43.809  23.175  24.953  1.00  0.00     0.002 A 
ATOM     68  C   UNL A   1      42.480  21.646  26.244  1.00  0.00     0.091 A 
ATOM     69  F   UNL A   1      41.420  22.376  28.204  1.00  0.00    -0.205 F 
ATOM     70  C   UNL A   1      43.225  21.925  25.097  1.00  0.00     0.022 A 
BRANCH  68  71
ATOM     71  S   UNL A   1      41.795  19.984  26.398  1.00  0.00     0.127 S 
ATOM     72  O   UNL A   1      42.217  19.602  27.744  1.00  0.00    -0.237 OA
ATOM     73  O   UNL A   1      40.358  20.219  26.254  1.00  0.00    -0.237 OA
ATOM     74  O   UNL A   1      42.383  19.204  25.315  1.00  0.00    -0.744 OA
ENDBRANCH  68  71
ENDBRANCH  50  64
BRANCH  51  75
ATOM     75  C   UNL A   1      41.320  31.931  32.360  1.00  0.00     0.023 A 
ATOM     76  C   UNL A   1      41.033  33.257  31.943  1.00  0.00     0.012 A 
ATOM     77  C   UNL A   1      40.317  31.200  33.016  1.00  0.00     0.148 A 
ATOM     78  C   UNL A   1      39.734  33.762  32.007  1.00  0.00     0.002 A 
ATOM     79  C   UNL A   1      39.026  31.722  33.099  1.00  0.00     0.091 A 
ATOM     80  F   UNL A   1      40.607  29.976  33.474  1.00  0.00    -0.205 F 
ATOM     81  C   UNL A   1      38.722  32.976  32.545  1.00  0.00     0.022 A 
BRANCH  79  82
ATOM     82  S   UNL A   1      37.673  30.774  33.805  1.00  0.00     0.127 S 
ATOM     83  O   UNL A   1      36.534  31.292  33.055  1.00  0.00    -0.237 OA
ATOM     84  O   UNL A   1      38.051  29.399  33.482  1.00  0.00    -0.237 OA
ATOM     85  O   UNL A   1      37.706  31.083  35.228  1.00  0.00    -0.744 OA
ENDBRANCH  79  82
ENDBRANCH  51  75
BRANCH  63  86
ATOM     86  C   UNL A   1      45.609  26.007  32.805  1.00  0.00     0.023 A 
ATOM     87  C   UNL A   1      46.998  25.768  32.787  1.00  0.00     0.012 A 
ATOM     88  C   UNL A   1      44.830  25.123  33.603  1.00  0.00     0.148 A 
ATOM     89  C   UNL A   1      47.595  24.790  33.591  1.00  0.00     0.002 A 
ATOM     90  C   UNL A   1      45.419  24.110  34.356  1.00  0.00     0.091 A 
ATOM     91  F   UNL A   1      43.503  25.252  33.646  1.00  0.00    -0.205 F 
ATOM     92  C   UNL A   1      46.807  23.962  34.379  1.00  0.00     0.022 A 
BRANCH  90  93
ATOM     93  S   UNL A   1      44.455  22.902  35.280  1.00  0.00     0.127 S 
ATOM     94  O   UNL A   1      44.799  21.659  34.586  1.00  0.00    -0.237 OA
ATOM     95  O   UNL A   1      45.026  23.029  36.620  1.00  0.00    -0.237 OA
ATOM     96  O   UNL A   1      43.063  23.303  35.157  1.00  0.00    -0.744 OA
ENDBRANCH  90  93
ENDBRANCH  63  86
ENDBRANCH  37  38
ENDBRANCH  29  32
ENDBRANCH  27  28
ENDBRANCH  26  27
ENDBRANCH   1  26
TORSDOF 17
ENDMDL
