MODEL 1
REMARK VINA RESULT:     -11.0      0.000      0.000
REMARK SMILES CC(C)N(c1cc2c(cc1Cl)C=C(C(=O)NCCCCNC(=O)c1ccc(-c3c4nc(c(-c5cccc(S(=O)(=O)[O-])c5F)c5ccc([nH]5)c(-c5cccc(S(=O)(=O)[O-])c5F)c5nc(c(-c6cccc(S(=O)(=O)[O-])c6F)c6ccc3[nH]6)C=C5)C=C4)cc1)[C@@H](C(F)(F)F)O2)C(C)C
REMARK SMILES IDX 19 1 18 2 17 3 16 4 14 5 15 6 13 8 5 9 6 10 10 11 7 12 9 13
REMARK SMILES IDX 11 14 8 15 92 16 12 17 87 18 4 19 2 20 1 21 3 22 93 23 94 24
REMARK SMILES IDX 95 25 88 26 89 27 90 28 91 29 20 30 21 31 22 32 23 34 24 35
REMARK SMILES IDX 25 36 86 37 26 38 85 39 27 40 28 41 29 42 79 43 30 44 84 45
REMARK SMILES IDX 78 46 80 47 31 48 83 49 77 50 76 51 32 53 64 54 44 55 63 56
REMARK SMILES IDX 45 57 48 58 62 59 81 60 46 61 47 62 61 64 82 65 49 66 33 67
REMARK SMILES IDX 34 68 42 69 35 70 37 71 43 72 36 73 38 74 39 75 40 76 41 77
REMARK SMILES IDX 65 78 66 79 74 80 67 81 69 82 75 83 68 84 70 85 71 86 72 87
REMARK SMILES IDX 73 88 50 89 51 90 59 91 52 92 54 93 60 94 53 95 55 96 56 97
REMARK SMILES IDX 57 98 58 99
REMARK H PARENT 16 7 21 33 80 52 48 63
REMARK Flexibility Score: inf
ROOT
ATOM      1  C   UNL A   1      37.753  22.618  25.498  1.00  0.00     0.023 C 
ENDROOT
BRANCH   1   2
ATOM      2  C   UNL A   1      36.763  21.501  25.840  1.00  0.00     0.023 C 
BRANCH   2   3
ATOM      3  C   UNL A   1      36.608  20.445  24.748  1.00  0.00     0.116 C 
BRANCH   3   4
ATOM      4  N   UNL A   1      35.363  19.708  24.877  1.00  0.00    -0.352 N 
ATOM      5  C   UNL A   1      34.050  20.000  25.024  1.00  0.00     0.251 C 
ATOM      6  O   UNL A   1      33.295  19.025  25.094  1.00  0.00    -0.270 OA
ATOM      7  H   UNL A   1      35.515  18.735  24.849  1.00  0.00     0.163 HD
BRANCH   5   8
ATOM      8  C   UNL A   1      33.477  21.377  25.109  1.00  0.00     0.067 C 
ATOM      9  C   UNL A   1      32.066  26.146  24.087  1.00  0.00     0.060 A 
ATOM     10  C   UNL A   1      31.670  25.160  25.008  1.00  0.00     0.074 A 
ATOM     11  C   UNL A   1      33.080  25.788  23.166  1.00  0.00     0.065 A 
ATOM     12  C   UNL A   1      32.253  23.892  25.017  1.00  0.00     0.130 A 
ATOM     13  C   UNL A   1      33.629  24.496  23.148  1.00  0.00     0.034 A 
ATOM     14  Cl  UNL A   1      33.769  26.924  22.051  1.00  0.00    -0.082 Cl
ATOM     15  C   UNL A   1      33.213  23.542  24.074  1.00  0.00     0.019 A 
ATOM     16  O   UNL A   1      31.801  23.014  25.961  1.00  0.00    -0.475 OA
ATOM     17  C   UNL A   1      33.732  22.180  24.059  1.00  0.00     0.025 C 
ATOM     18  C   UNL A   1      32.695  21.907  26.278  1.00  0.00     0.314 C 
BRANCH   9  19
ATOM     19  N   UNL A   1      31.446  27.411  24.123  1.00  0.00    -0.365 N 
BRANCH  19  20
ATOM     20  C   UNL A   1      31.989  28.378  25.103  1.00  0.00     0.076 C 
ATOM     21  C   UNL A   1      31.457  28.156  26.518  1.00  0.00     0.030 C 
ATOM     22  C   UNL A   1      33.513  28.450  25.096  1.00  0.00     0.030 C 
ENDBRANCH  19  20
BRANCH  19  23
ATOM     23  C   UNL A   1      30.474  27.701  23.047  1.00  0.00     0.076 C 
ATOM     24  C   UNL A   1      29.037  27.394  23.461  1.00  0.00     0.030 C 
ATOM     25  C   UNL A   1      30.594  29.107  22.469  1.00  0.00     0.030 C 
ENDBRANCH  19  23
ENDBRANCH   9  19
BRANCH  18  26
ATOM     26  C   UNL A   1      33.604  22.297  27.461  1.00  0.00     0.429 C 
ATOM     27  F   UNL A   1      34.400  23.343  27.124  1.00  0.00    -0.167 F 
ATOM     28  F   UNL A   1      32.900  22.683  28.550  1.00  0.00    -0.167 F 
ATOM     29  F   UNL A   1      34.412  21.285  27.853  1.00  0.00    -0.167 F 
ENDBRANCH  18  26
ENDBRANCH   5   8
ENDBRANCH   3   4
ENDBRANCH   2   3
ENDBRANCH   1   2
BRANCH   1  30
ATOM     30  C   UNL A   1      39.000  22.683  26.377  1.00  0.00     0.116 C 
BRANCH  30  31
ATOM     31  N   UNL A   1      40.037  21.727  26.016  1.00  0.00    -0.352 N 
ATOM     32  C   UNL A   1      41.402  21.868  26.131  1.00  0.00     0.251 C 
ATOM     33  H   UNL A   1      39.723  20.872  25.642  1.00  0.00     0.163 HD
ATOM     34  O   UNL A   1      42.152  20.992  25.711  1.00  0.00    -0.269 OA
BRANCH  32  35
ATOM     35  C   UNL A   1      41.946  23.111  26.717  1.00  0.00     0.039 A 
ATOM     36  C   UNL A   1      42.190  23.193  28.088  1.00  0.00     0.014 A 
ATOM     37  C   UNL A   1      42.133  24.228  25.898  1.00  0.00     0.014 A 
ATOM     38  C   UNL A   1      42.438  24.431  28.665  1.00  0.00     0.010 A 
ATOM     39  C   UNL A   1      42.470  25.457  26.473  1.00  0.00     0.010 A 
ATOM     40  C   UNL A   1      42.565  25.582  27.867  1.00  0.00    -0.014 A 
BRANCH  40  41
ATOM     41  C   UNL A   1      42.794  26.890  28.533  1.00  0.00     0.031 A 
ATOM     42  C   UNL A   1      44.172  27.492  28.618  1.00  0.00     0.074 A 
ATOM     43  C   UNL A   1      41.730  27.577  28.994  1.00  0.00     0.049 A 
ATOM     44  N   UNL A   1      44.519  28.677  29.054  1.00  0.00    -0.248 NA
ATOM     45  C   UNL A   1      45.307  26.671  28.165  1.00  0.00     0.031 C 
ATOM     46  C   UNL A   1      40.351  27.081  29.001  1.00  0.00     0.029 A 
ATOM     47  N   UNL A   1      41.630  28.842  29.512  1.00  0.00    -0.354 N 
ATOM     48  C   UNL A   1      45.904  28.727  28.969  1.00  0.00     0.074 A 
ATOM     49  C   UNL A   1      46.342  27.455  28.440  1.00  0.00     0.031 C 
ATOM     50  C   UNL A   1      39.538  28.053  29.436  1.00  0.00     0.029 A 
ATOM     51  C   UNL A   1      40.336  29.225  29.779  1.00  0.00     0.049 A 
ATOM     52  H   UNL A   1      42.410  29.421  29.677  1.00  0.00     0.167 HD
ATOM     53  C   UNL A   1      46.734  29.750  29.279  1.00  0.00     0.034 A 
ATOM     54  C   UNL A   1      39.841  30.391  30.237  1.00  0.00     0.034 A 
ATOM     55  C   UNL A   1      46.294  31.040  29.732  1.00  0.00     0.049 A 
ATOM     56  C   UNL A   1      40.780  31.524  30.526  1.00  0.00     0.074 A 
ATOM     57  C   UNL A   1      47.063  32.161  29.996  1.00  0.00     0.029 A 
ATOM     58  N   UNL A   1      44.978  31.386  29.984  1.00  0.00    -0.354 N 
ATOM     59  N   UNL A   1      42.075  31.585  30.334  1.00  0.00    -0.248 NA
ATOM     60  C   UNL A   1      40.195  32.753  31.085  1.00  0.00     0.031 C 
ATOM     61  C   UNL A   1      46.208  33.187  30.408  1.00  0.00     0.029 A 
ATOM     62  C   UNL A   1      44.911  32.702  30.404  1.00  0.00     0.049 A 
ATOM     63  H   UNL A   1      44.205  30.785  29.879  1.00  0.00     0.167 HD
ATOM     64  C   UNL A   1      42.461  32.854  30.743  1.00  0.00     0.074 A 
ATOM     65  C   UNL A   1      41.260  33.541  31.172  1.00  0.00     0.031 C 
ATOM     66  C   UNL A   1      43.704  33.388  30.784  1.00  0.00     0.034 A 
BRANCH  53  67
ATOM     67  C   UNL A   1      48.212  29.559  29.078  1.00  0.00     0.023 A 
ATOM     68  C   UNL A   1      48.993  29.099  30.156  1.00  0.00     0.012 A 
ATOM     69  C   UNL A   1      48.796  29.705  27.805  1.00  0.00     0.148 A 
ATOM     70  C   UNL A   1      50.340  28.789  29.971  1.00  0.00     0.002 A 
ATOM     71  C   UNL A   1      50.133  29.370  27.623  1.00  0.00     0.091 A 
ATOM     72  F   UNL A   1      48.031  30.152  26.800  1.00  0.00    -0.205 F 
ATOM     73  C   UNL A   1      50.905  28.914  28.705  1.00  0.00     0.022 A 
BRANCH  71  74
ATOM     74  S   UNL A   1      50.947  29.441  26.023  1.00  0.00     0.127 S 
ATOM     75  O   UNL A   1      50.942  30.880  25.755  1.00  0.00    -0.237 OA
ATOM     76  O   UNL A   1      52.265  28.882  26.325  1.00  0.00    -0.237 OA
ATOM     77  O   UNL A   1      50.133  28.642  25.119  1.00  0.00    -0.744 OA
ENDBRANCH  71  74
ENDBRANCH  53  67
BRANCH  54  78
ATOM     78  C   UNL A   1      38.369  30.544  30.378  1.00  0.00     0.023 A 
ATOM     79  C   UNL A   1      37.776  30.365  31.642  1.00  0.00     0.012 A 
ATOM     80  C   UNL A   1      37.573  30.964  29.294  1.00  0.00     0.148 A 
ATOM     81  C   UNL A   1      36.414  30.603  31.826  1.00  0.00     0.002 A 
ATOM     82  C   UNL A   1      36.228  31.244  29.494  1.00  0.00     0.091 A 
ATOM     83  F   UNL A   1      38.161  31.114  28.099  1.00  0.00    -0.205 F 
ATOM     84  C   UNL A   1      35.644  31.057  30.757  1.00  0.00     0.022 A 
BRANCH  82  85
ATOM     85  S   UNL A   1      35.192  31.956  28.210  1.00  0.00     0.127 S 
ATOM     86  O   UNL A   1      34.973  30.809  27.334  1.00  0.00    -0.237 OA
ATOM     87  O   UNL A   1      34.020  32.385  28.972  1.00  0.00    -0.237 OA
ATOM     88  O   UNL A   1      35.970  33.048  27.640  1.00  0.00    -0.744 OA
ENDBRANCH  82  85
ENDBRANCH  54  78
BRANCH  66  89
ATOM     89  C   UNL A   1      43.861  34.782  31.320  1.00  0.00     0.023 A 
ATOM     90  C   UNL A   1      44.121  34.956  32.692  1.00  0.00     0.012 A 
ATOM     91  C   UNL A   1      43.910  35.889  30.451  1.00  0.00     0.148 A 
ATOM     92  C   UNL A   1      44.432  36.217  33.196  1.00  0.00     0.002 A 
ATOM     93  C   UNL A   1      44.250  37.139  30.956  1.00  0.00     0.091 A 
ATOM     94  F   UNL A   1      43.660  35.689  29.149  1.00  0.00    -0.205 F 
ATOM     95  C   UNL A   1      44.508  37.304  32.327  1.00  0.00     0.022 A 
BRANCH  93  96
ATOM     96  S   UNL A   1      44.444  38.588  29.914  1.00  0.00     0.127 S 
ATOM     97  O   UNL A   1      43.105  38.728  29.344  1.00  0.00    -0.237 OA
ATOM     98  O   UNL A   1      44.805  39.618  30.887  1.00  0.00    -0.237 OA
ATOM     99  O   UNL A   1      45.488  38.260  28.952  1.00  0.00    -0.744 OA
ENDBRANCH  93  96
ENDBRANCH  66  89
ENDBRANCH  40  41
ENDBRANCH  32  35
ENDBRANCH  30  31
ENDBRANCH   1  30
TORSDOF 18
ENDMDL
MODEL 2
REMARK VINA RESULT:     -11.0      1.839      2.317
REMARK SMILES CC(C)N(c1cc2c(cc1Cl)C=C(C(=O)NCCCCNC(=O)c1ccc(-c3c4nc(c(-c5cccc(S(=O)(=O)[O-])c5F)c5ccc([nH]5)c(-c5cccc(S(=O)(=O)[O-])c5F)c5nc(c(-c6cccc(S(=O)(=O)[O-])c6F)c6ccc3[nH]6)C=C5)C=C4)cc1)[C@@H](C(F)(F)F)O2)C(C)C
REMARK SMILES IDX 19 1 18 2 17 3 16 4 14 5 15 6 13 8 5 9 6 10 10 11 7 12 9 13
REMARK SMILES IDX 11 14 8 15 92 16 12 17 87 18 4 19 2 20 1 21 3 22 93 23 94 24
REMARK SMILES IDX 95 25 88 26 89 27 90 28 91 29 20 30 21 31 22 32 23 34 24 35
REMARK SMILES IDX 25 36 86 37 26 38 85 39 27 40 28 41 29 42 79 43 30 44 84 45
REMARK SMILES IDX 78 46 80 47 31 48 83 49 77 50 76 51 32 53 64 54 44 55 63 56
REMARK SMILES IDX 45 57 48 58 62 59 81 60 46 61 47 62 61 64 82 65 49 66 33 67
REMARK SMILES IDX 34 68 42 69 35 70 37 71 43 72 36 73 38 74 39 75 40 76 41 77
REMARK SMILES IDX 65 78 66 79 74 80 67 81 69 82 75 83 68 84 70 85 71 86 72 87
REMARK SMILES IDX 73 88 50 89 51 90 59 91 52 92 54 93 60 94 53 95 55 96 56 97
REMARK SMILES IDX 57 98 58 99
REMARK H PARENT 16 7 21 33 80 52 48 63
REMARK Flexibility Score: inf
ROOT
ATOM      1  C   UNL A   1      38.909  21.347  25.487  1.00  0.00     0.023 C 
ENDROOT
BRANCH   1   2
ATOM      2  C   UNL A   1      37.387  21.505  25.518  1.00  0.00     0.023 C 
BRANCH   2   3
ATOM      3  C   UNL A   1      36.635  20.504  24.643  1.00  0.00     0.116 C 
BRANCH   3   4
ATOM      4  N   UNL A   1      35.388  20.078  25.252  1.00  0.00    -0.352 N 
ATOM      5  C   UNL A   1      34.128  20.559  25.369  1.00  0.00     0.251 C 
ATOM      6  O   UNL A   1      33.344  19.840  25.996  1.00  0.00    -0.270 OA
ATOM      7  H   UNL A   1      35.484  19.206  25.699  1.00  0.00     0.163 HD
BRANCH   5   8
ATOM      8  C   UNL A   1      33.645  21.858  24.812  1.00  0.00     0.067 C 
ATOM      9  C   UNL A   1      32.016  26.639  24.293  1.00  0.00     0.060 A 
ATOM     10  C   UNL A   1      32.593  25.679  23.442  1.00  0.00     0.074 A 
ATOM     11  C   UNL A   1      31.842  26.267  25.648  1.00  0.00     0.065 A 
ATOM     12  C   UNL A   1      32.970  24.420  23.911  1.00  0.00     0.130 A 
ATOM     13  C   UNL A   1      32.266  25.017  26.125  1.00  0.00     0.034 A 
ATOM     14  Cl  UNL A   1      31.031  27.284  26.796  1.00  0.00    -0.082 Cl
ATOM     15  C   UNL A   1      32.836  24.090  25.254  1.00  0.00     0.019 A 
ATOM     16  O   UNL A   1      33.511  23.561  22.997  1.00  0.00    -0.475 OA
ATOM     17  C   UNL A   1      33.325  22.799  25.722  1.00  0.00     0.025 C 
ATOM     18  C   UNL A   1      33.464  22.147  23.349  1.00  0.00     0.314 C 
BRANCH   9  19
ATOM     19  N   UNL A   1      31.652  27.895  23.768  1.00  0.00    -0.365 N 
BRANCH  19  20
ATOM     20  C   UNL A   1      32.682  28.955  23.832  1.00  0.00     0.076 C 
ATOM     21  C   UNL A   1      32.685  29.704  25.164  1.00  0.00     0.030 C 
ATOM     22  C   UNL A   1      34.081  28.456  23.482  1.00  0.00     0.030 C 
ENDBRANCH  19  20
BRANCH  19  23
ATOM     23  C   UNL A   1      30.372  27.955  23.027  1.00  0.00     0.076 C 
ATOM     24  C   UNL A   1      29.356  26.937  23.538  1.00  0.00     0.030 C 
ATOM     25  C   UNL A   1      29.766  29.352  22.955  1.00  0.00     0.030 C 
ENDBRANCH  19  23
ENDBRANCH   9  19
BRANCH  18  26
ATOM     26  C   UNL A   1      32.177  21.514  22.783  1.00  0.00     0.429 C 
ATOM     27  F   UNL A   1      32.071  20.221  23.177  1.00  0.00    -0.167 F 
ATOM     28  F   UNL A   1      31.058  22.142  23.215  1.00  0.00    -0.167 F 
ATOM     29  F   UNL A   1      32.139  21.530  21.431  1.00  0.00    -0.167 F 
ENDBRANCH  18  26
ENDBRANCH   5   8
ENDBRANCH   3   4
ENDBRANCH   2   3
ENDBRANCH   1   2
BRANCH   1  30
ATOM     30  C   UNL A   1      39.481  20.302  26.443  1.00  0.00     0.116 C 
BRANCH  30  31
ATOM     31  N   UNL A   1      40.799  19.805  26.068  1.00  0.00    -0.352 N 
ATOM     32  C   UNL A   1      42.007  20.463  26.132  1.00  0.00     0.251 C 
ATOM     33  H   UNL A   1      40.829  18.882  25.725  1.00  0.00     0.163 HD
ATOM     34  O   UNL A   1      43.025  19.928  25.706  1.00  0.00    -0.269 OA
BRANCH  32  35
ATOM     35  C   UNL A   1      42.044  21.839  26.670  1.00  0.00     0.039 A 
ATOM     36  C   UNL A   1      41.949  22.932  25.808  1.00  0.00     0.014 A 
ATOM     37  C   UNL A   1      42.258  22.034  28.037  1.00  0.00     0.014 A 
ATOM     38  C   UNL A   1      42.254  24.202  26.279  1.00  0.00     0.010 A 
ATOM     39  C   UNL A   1      42.478  23.326  28.524  1.00  0.00     0.010 A 
ATOM     40  C   UNL A   1      42.539  24.413  27.640  1.00  0.00    -0.014 A 
BRANCH  40  41
ATOM     41  C   UNL A   1      42.895  25.783  28.091  1.00  0.00     0.031 A 
ATOM     42  C   UNL A   1      44.281  26.337  27.886  1.00  0.00     0.074 A 
ATOM     43  C   UNL A   1      41.932  26.563  28.621  1.00  0.00     0.049 A 
ATOM     44  N   UNL A   1      44.715  27.551  28.109  1.00  0.00    -0.248 NA
ATOM     45  C   UNL A   1      45.313  25.423  27.370  1.00  0.00     0.031 C 
ATOM     46  C   UNL A   1      40.562  26.124  28.904  1.00  0.00     0.029 A 
ATOM     47  N   UNL A   1      41.940  27.884  28.984  1.00  0.00    -0.354 N 
ATOM     48  C   UNL A   1      46.070  27.536  27.805  1.00  0.00     0.074 A 
ATOM     49  C   UNL A   1      46.394  26.193  27.381  1.00  0.00     0.031 C 
ATOM     50  C   UNL A   1      39.846  27.173  29.333  1.00  0.00     0.029 A 
ATOM     51  C   UNL A   1      40.712  28.347  29.398  1.00  0.00     0.049 A 
ATOM     52  H   UNL A   1      42.747  28.448  28.952  1.00  0.00     0.167 HD
ATOM     53  C   UNL A   1      46.958  28.556  27.851  1.00  0.00     0.034 A 
ATOM     54  C   UNL A   1      40.318  29.578  29.775  1.00  0.00     0.034 A 
ATOM     55  C   UNL A   1      46.621  29.908  28.200  1.00  0.00     0.049 A 
ATOM     56  C   UNL A   1      41.313  30.701  29.770  1.00  0.00     0.074 A 
ATOM     57  C   UNL A   1      47.444  31.022  28.198  1.00  0.00     0.029 A 
ATOM     58  N   UNL A   1      45.368  30.333  28.606  1.00  0.00    -0.354 N 
ATOM     59  N   UNL A   1      42.561  30.687  29.374  1.00  0.00    -0.248 NA
ATOM     60  C   UNL A   1      40.848  32.010  30.252  1.00  0.00     0.031 C 
ATOM     61  C   UNL A   1      46.685  32.123  28.604  1.00  0.00     0.029 A 
ATOM     62  C   UNL A   1      45.394  31.692  28.862  1.00  0.00     0.049 A 
ATOM     63  H   UNL A   1      44.577  29.755  28.699  1.00  0.00     0.167 HD
ATOM     64  C   UNL A   1      43.032  31.980  29.554  1.00  0.00     0.074 A 
ATOM     65  C   UNL A   1      41.928  32.761  30.073  1.00  0.00     0.031 C 
ATOM     66  C   UNL A   1      44.277  32.467  29.334  1.00  0.00     0.034 A 
BRANCH  53  67
ATOM     67  C   UNL A   1      48.382  28.284  27.450  1.00  0.00     0.023 A 
ATOM     68  C   UNL A   1      49.339  28.041  28.454  1.00  0.00     0.012 A 
ATOM     69  C   UNL A   1      48.739  28.140  26.096  1.00  0.00     0.148 A 
ATOM     70  C   UNL A   1      50.637  27.660  28.115  1.00  0.00     0.002 A 
ATOM     71  C   UNL A   1      50.028  27.736  25.767  1.00  0.00     0.091 A 
ATOM     72  F   UNL A   1      47.811  28.386  25.162  1.00  0.00    -0.205 F 
ATOM     73  C   UNL A   1      50.977  27.497  26.775  1.00  0.00     0.022 A 
BRANCH  71  74
ATOM     74  S   UNL A   1      50.557  27.443  24.075  1.00  0.00     0.127 S 
ATOM     75  O   UNL A   1      51.808  26.712  24.281  1.00  0.00    -0.237 OA
ATOM     76  O   UNL A   1      49.459  26.635  23.546  1.00  0.00    -0.237 OA
ATOM     77  O   UNL A   1      50.703  28.756  23.464  1.00  0.00    -0.744 OA
ENDBRANCH  71  74
ENDBRANCH  53  67
BRANCH  54  78
ATOM     78  C   UNL A   1      38.890  29.805  30.122  1.00  0.00     0.023 A 
ATOM     79  C   UNL A   1      38.455  29.565  31.438  1.00  0.00     0.012 A 
ATOM     80  C   UNL A   1      37.991  30.352  29.185  1.00  0.00     0.148 A 
ATOM     81  C   UNL A   1      37.147  29.866  31.818  1.00  0.00     0.002 A 
ATOM     82  C   UNL A   1      36.705  30.693  29.581  1.00  0.00     0.091 A 
ATOM     83  F   UNL A   1      38.429  30.559  27.935  1.00  0.00    -0.205 F 
ATOM     84  C   UNL A   1      36.278  30.443  30.895  1.00  0.00     0.022 A 
BRANCH  82  85
ATOM     85  S   UNL A   1      35.563  31.559  28.498  1.00  0.00     0.127 S 
ATOM     86  O   UNL A   1      35.260  30.535  27.503  1.00  0.00    -0.237 OA
ATOM     87  O   UNL A   1      34.465  31.878  29.411  1.00  0.00    -0.237 OA
ATOM     88  O   UNL A   1      36.292  32.722  28.009  1.00  0.00    -0.744 OA
ENDBRANCH  82  85
ENDBRANCH  54  78
BRANCH  66  89
ATOM     89  C   UNL A   1      44.544  33.908  29.658  1.00  0.00     0.023 A 
ATOM     90  C   UNL A   1      45.119  34.228  30.902  1.00  0.00     0.012 A 
ATOM     91  C   UNL A   1      44.376  34.911  28.684  1.00  0.00     0.148 A 
ATOM     92  C   UNL A   1      45.529  35.531  31.175  1.00  0.00     0.002 A 
ATOM     93  C   UNL A   1      44.815  36.203  28.952  1.00  0.00     0.091 A 
ATOM     94  F   UNL A   1      43.827  34.573  27.509  1.00  0.00    -0.205 F 
ATOM     95  C   UNL A   1      45.388  36.514  30.196  1.00  0.00     0.022 A 
BRANCH  93  96
ATOM     96  S   UNL A   1      44.744  37.523  27.738  1.00  0.00     0.127 S 
ATOM     97  O   UNL A   1      45.259  38.660  28.502  1.00  0.00    -0.237 OA
ATOM     98  O   UNL A   1      45.644  37.029  26.696  1.00  0.00    -0.237 OA
ATOM     99  O   UNL A   1      43.347  37.635  27.340  1.00  0.00    -0.744 OA
ENDBRANCH  93  96
ENDBRANCH  66  89
ENDBRANCH  40  41
ENDBRANCH  32  35
ENDBRANCH  30  31
ENDBRANCH   1  30
TORSDOF 18
ENDMDL
MODEL 3
REMARK VINA RESULT:     -10.9      1.747      2.449
REMARK SMILES CC(C)N(c1cc2c(cc1Cl)C=C(C(=O)NCCCCNC(=O)c1ccc(-c3c4nc(c(-c5cccc(S(=O)(=O)[O-])c5F)c5ccc([nH]5)c(-c5cccc(S(=O)(=O)[O-])c5F)c5nc(c(-c6cccc(S(=O)(=O)[O-])c6F)c6ccc3[nH]6)C=C5)C=C4)cc1)[C@@H](C(F)(F)F)O2)C(C)C
REMARK SMILES IDX 19 1 18 2 17 3 16 4 14 5 15 6 13 8 5 9 6 10 10 11 7 12 9 13
REMARK SMILES IDX 11 14 8 15 92 16 12 17 87 18 4 19 2 20 1 21 3 22 93 23 94 24
REMARK SMILES IDX 95 25 88 26 89 27 90 28 91 29 20 30 21 31 22 32 23 34 24 35
REMARK SMILES IDX 25 36 86 37 26 38 85 39 27 40 28 41 29 42 79 43 30 44 84 45
REMARK SMILES IDX 78 46 80 47 31 48 83 49 77 50 76 51 32 53 64 54 44 55 63 56
REMARK SMILES IDX 45 57 48 58 62 59 81 60 46 61 47 62 61 64 82 65 49 66 33 67
REMARK SMILES IDX 34 68 42 69 35 70 37 71 43 72 36 73 38 74 39 75 40 76 41 77
REMARK SMILES IDX 65 78 66 79 74 80 67 81 69 82 75 83 68 84 70 85 71 86 72 87
REMARK SMILES IDX 73 88 50 89 51 90 59 91 52 92 54 93 60 94 53 95 55 96 56 97
REMARK SMILES IDX 57 98 58 99
REMARK H PARENT 16 7 21 33 80 52 48 63
REMARK Flexibility Score: inf
ROOT
ATOM      1  C   UNL A   1      39.205  21.692  25.857  1.00  0.00     0.023 C 
ENDROOT
BRANCH   1   2
ATOM      2  C   UNL A   1      37.681  21.822  25.783  1.00  0.00     0.023 C 
BRANCH   2   3
ATOM      3  C   UNL A   1      37.085  21.455  24.426  1.00  0.00     0.116 C 
BRANCH   3   4
ATOM      4  N   UNL A   1      35.945  20.565  24.555  1.00  0.00    -0.352 N 
ATOM      5  C   UNL A   1      34.616  20.685  24.783  1.00  0.00     0.251 C 
ATOM      6  O   UNL A   1      33.987  19.622  24.814  1.00  0.00    -0.270 OA
ATOM      7  H   UNL A   1      36.208  19.622  24.448  1.00  0.00     0.163 HD
BRANCH   5   8
ATOM      8  C   UNL A   1      33.890  21.972  24.997  1.00  0.00     0.067 C 
ATOM      9  C   UNL A   1      32.156  26.725  24.568  1.00  0.00     0.060 A 
ATOM     10  C   UNL A   1      31.722  25.555  25.218  1.00  0.00     0.074 A 
ATOM     11  C   UNL A   1      33.341  26.626  23.800  1.00  0.00     0.065 A 
ATOM     12  C   UNL A   1      32.431  24.357  25.115  1.00  0.00     0.130 A 
ATOM     13  C   UNL A   1      34.024  25.407  23.662  1.00  0.00     0.034 A 
ATOM     14  Cl  UNL A   1      34.077  28.002  23.043  1.00  0.00    -0.082 Cl
ATOM     15  C   UNL A   1      33.566  24.267  24.318  1.00  0.00     0.019 A 
ATOM     16  O   UNL A   1      31.927  23.285  25.796  1.00  0.00    -0.475 OA
ATOM     17  C   UNL A   1      34.226  22.976  24.164  1.00  0.00     0.025 C 
ATOM     18  C   UNL A   1      32.871  22.211  26.076  1.00  0.00     0.314 C 
BRANCH   9  19
ATOM     19  N   UNL A   1      31.403  27.909  24.706  1.00  0.00    -0.365 N 
BRANCH  19  20
ATOM     20  C   UNL A   1      30.305  28.104  23.734  1.00  0.00     0.076 C 
ATOM     21  C   UNL A   1      29.899  29.568  23.578  1.00  0.00     0.030 C 
ATOM     22  C   UNL A   1      30.583  27.465  22.377  1.00  0.00     0.030 C 
ENDBRANCH  19  20
BRANCH  19  23
ATOM     23  C   UNL A   1      31.655  28.712  25.923  1.00  0.00     0.076 C 
ATOM     24  C   UNL A   1      31.756  27.851  27.179  1.00  0.00     0.030 C 
ATOM     25  C   UNL A   1      32.848  29.656  25.803  1.00  0.00     0.030 C 
ENDBRANCH  19  23
ENDBRANCH   9  19
BRANCH  18  26
ATOM     26  C   UNL A   1      33.523  22.440  27.454  1.00  0.00     0.429 C 
ATOM     27  F   UNL A   1      34.071  21.289  27.917  1.00  0.00    -0.167 F 
ATOM     28  F   UNL A   1      34.523  23.352  27.410  1.00  0.00    -0.167 F 
ATOM     29  F   UNL A   1      32.640  22.870  28.384  1.00  0.00    -0.167 F 
ENDBRANCH  18  26
ENDBRANCH   5   8
ENDBRANCH   3   4
ENDBRANCH   2   3
ENDBRANCH   1   2
BRANCH   1  30
ATOM     30  C   UNL A   1      39.726  20.572  26.754  1.00  0.00     0.116 C 
BRANCH  30  31
ATOM     31  N   UNL A   1      40.673  19.676  26.105  1.00  0.00    -0.352 N 
ATOM     32  C   UNL A   1      41.997  19.908  25.806  1.00  0.00     0.251 C 
ATOM     33  H   UNL A   1      40.322  18.793  25.846  1.00  0.00     0.163 HD
ATOM     34  O   UNL A   1      42.646  19.071  25.185  1.00  0.00    -0.269 OA
BRANCH  32  35
ATOM     35  C   UNL A   1      42.603  21.198  26.196  1.00  0.00     0.039 A 
ATOM     36  C   UNL A   1      42.964  21.430  27.523  1.00  0.00     0.014 A 
ATOM     37  C   UNL A   1      42.733  22.209  25.241  1.00  0.00     0.014 A 
ATOM     38  C   UNL A   1      43.275  22.721  27.930  1.00  0.00     0.010 A 
ATOM     39  C   UNL A   1      43.132  23.489  25.639  1.00  0.00     0.010 A 
ATOM     40  C   UNL A   1      43.347  23.770  26.996  1.00  0.00    -0.014 A 
BRANCH  40  41
ATOM     41  C   UNL A   1      43.647  25.141  27.484  1.00  0.00     0.031 A 
ATOM     42  C   UNL A   1      44.997  25.770  27.264  1.00  0.00     0.074 A 
ATOM     43  C   UNL A   1      42.660  25.853  28.064  1.00  0.00     0.049 A 
ATOM     44  N   UNL A   1      45.376  26.997  27.517  1.00  0.00    -0.248 NA
ATOM     45  C   UNL A   1      46.060  24.927  26.692  1.00  0.00     0.031 C 
ATOM     46  C   UNL A   1      41.322  25.338  28.365  1.00  0.00     0.029 A 
ATOM     47  N   UNL A   1      42.612  27.161  28.470  1.00  0.00    -0.354 N 
ATOM     48  C   UNL A   1      46.722  27.060  27.179  1.00  0.00     0.074 A 
ATOM     49  C   UNL A   1      47.102  25.750  26.702  1.00  0.00     0.031 C 
ATOM     50  C   UNL A   1      40.566  26.335  28.847  1.00  0.00     0.029 A 
ATOM     51  C   UNL A   1      41.374  27.548  28.929  1.00  0.00     0.049 A 
ATOM     52  H   UNL A   1      43.389  27.766  28.437  1.00  0.00     0.167 HD
ATOM     53  C   UNL A   1      47.560  28.122  27.238  1.00  0.00     0.034 A 
ATOM     54  C   UNL A   1      40.930  28.745  29.358  1.00  0.00     0.034 A 
ATOM     55  C   UNL A   1      47.165  29.444  27.640  1.00  0.00     0.049 A 
ATOM     56  C   UNL A   1      41.867  29.916  29.365  1.00  0.00     0.074 A 
ATOM     57  C   UNL A   1      47.931  30.597  27.655  1.00  0.00     0.029 A 
ATOM     58  N   UNL A   1      45.903  29.791  28.091  1.00  0.00    -0.354 N 
ATOM     59  N   UNL A   1      43.104  29.978  28.938  1.00  0.00    -0.248 NA
ATOM     60  C   UNL A   1      41.350  31.184  29.903  1.00  0.00     0.031 C 
ATOM     61  C   UNL A   1      47.130  31.644  28.116  1.00  0.00     0.029 A 
ATOM     62  C   UNL A   1      45.869  31.141  28.392  1.00  0.00     0.049 A 
ATOM     63  H   UNL A   1      45.144  29.171  28.184  1.00  0.00     0.167 HD
ATOM     64  C   UNL A   1      43.514  31.287  29.151  1.00  0.00     0.074 A 
ATOM     65  C   UNL A   1      42.386  31.994  29.722  1.00  0.00     0.031 C 
ATOM     66  C   UNL A   1      44.727  31.842  28.917  1.00  0.00     0.034 A 
BRANCH  53  67
ATOM     67  C   UNL A   1      48.984  27.936  26.793  1.00  0.00     0.023 A 
ATOM     68  C   UNL A   1      49.962  27.614  27.754  1.00  0.00     0.012 A 
ATOM     69  C   UNL A   1      49.325  27.948  25.427  1.00  0.00     0.148 A 
ATOM     70  C   UNL A   1      51.265  27.309  27.361  1.00  0.00     0.002 A 
ATOM     71  C   UNL A   1      50.619  27.618  25.042  1.00  0.00     0.091 A 
ATOM     72  F   UNL A   1      48.376  28.265  24.536  1.00  0.00    -0.205 F 
ATOM     73  C   UNL A   1      51.589  27.300  26.007  1.00  0.00     0.022 A 
BRANCH  71  74
ATOM     74  S   UNL A   1      51.131  27.523  23.322  1.00  0.00     0.127 S 
ATOM     75  O   UNL A   1      51.139  28.936  22.940  1.00  0.00    -0.237 OA
ATOM     76  O   UNL A   1      52.456  26.912  23.429  1.00  0.00    -0.237 OA
ATOM     77  O   UNL A   1      50.131  26.708  22.647  1.00  0.00    -0.744 OA
ENDBRANCH  71  74
ENDBRANCH  53  67
BRANCH  54  78
ATOM     78  C   UNL A   1      39.501  28.888  29.746  1.00  0.00     0.023 A 
ATOM     79  C   UNL A   1      39.105  28.538  31.050  1.00  0.00     0.012 A 
ATOM     80  C   UNL A   1      38.561  29.462  28.868  1.00  0.00     0.148 A 
ATOM     81  C   UNL A   1      37.795  28.758  31.475  1.00  0.00     0.002 A 
ATOM     82  C   UNL A   1      37.271  29.721  29.311  1.00  0.00     0.091 A 
ATOM     83  F   UNL A   1      38.963  29.773  27.628  1.00  0.00    -0.205 F 
ATOM     84  C   UNL A   1      36.883  29.362  30.612  1.00  0.00     0.022 A 
BRANCH  82  85
ATOM     85  S   UNL A   1      36.072  30.613  28.315  1.00  0.00     0.127 S 
ATOM     86  O   UNL A   1      36.802  31.836  27.994  1.00  0.00    -0.237 OA
ATOM     87  O   UNL A   1      35.874  29.698  27.191  1.00  0.00    -0.237 OA
ATOM     88  O   UNL A   1      34.901  30.778  29.166  1.00  0.00    -0.744 OA
ENDBRANCH  82  85
ENDBRANCH  54  78
BRANCH  66  89
ATOM     89  C   UNL A   1      44.930  33.284  29.282  1.00  0.00     0.023 A 
ATOM     90  C   UNL A   1      45.433  33.595  30.560  1.00  0.00     0.012 A 
ATOM     91  C   UNL A   1      44.779  34.302  28.322  1.00  0.00     0.148 A 
ATOM     92  C   UNL A   1      45.786  34.904  30.878  1.00  0.00     0.002 A 
ATOM     93  C   UNL A   1      45.161  35.601  28.636  1.00  0.00     0.091 A 
ATOM     94  F   UNL A   1      44.300  33.972  27.114  1.00  0.00    -0.205 F 
ATOM     95  C   UNL A   1      45.662  35.903  29.914  1.00  0.00     0.022 A 
BRANCH  93  96
ATOM     96  S   UNL A   1      45.108  36.944  27.447  1.00  0.00     0.127 S 
ATOM     97  O   UNL A   1      43.696  36.950  27.064  1.00  0.00    -0.237 OA
ATOM     98  O   UNL A   1      45.526  38.087  28.258  1.00  0.00    -0.237 OA
ATOM     99  O   UNL A   1      46.030  36.580  26.380  1.00  0.00    -0.744 OA
ENDBRANCH  93  96
ENDBRANCH  66  89
ENDBRANCH  40  41
ENDBRANCH  32  35
ENDBRANCH  30  31
ENDBRANCH   1  30
TORSDOF 18
ENDMDL
