MODEL 1
REMARK VINA RESULT:     -13.0      0.000      0.000
REMARK SMILES O=C(NCCCCNC(=O)c1ccc(-c2c3nc(c(-c4cccc(S(=O)(=O)[O-])c4F)c4ccc([nH]4)c(-c4cccc(S(=O)(=O)[O-])c4F)c4nc(c(-c5cccc(S(=O)(=O)[O-])c5F)c5ccc2[nH]5)C=C4)C=C3)cc1)C1=Cc2cc(S(F)(F)(F)(F)F)ccc2O[C@@H]1C(F)(F)F
REMARK SMILES IDX 6 1 5 2 4 3 3 4 1 5 2 6 74 8 75 9 89 10 76 11 88 12 77 13
REMARK SMILES IDX 87 14 78 15 86 16 85 17 90 18 91 19 92 20 93 21 79 22 80 23
REMARK SMILES IDX 81 24 82 25 83 26 84 27 7 28 8 29 9 30 10 32 11 33 12 34
REMARK SMILES IDX 73 35 13 36 72 37 14 38 15 39 16 40 66 41 17 42 71 43 65 44
REMARK SMILES IDX 67 45 18 46 70 47 64 48 63 49 19 51 51 52 31 53 50 54 32 55
REMARK SMILES IDX 35 56 49 57 68 58 33 59 34 60 48 62 69 63 36 64 20 65 21 66
REMARK SMILES IDX 29 67 22 68 24 69 30 70 23 71 25 72 26 73 27 74 28 75 52 76
REMARK SMILES IDX 53 77 61 78 54 79 56 80 62 81 55 82 57 83 58 84 59 85 60 86
REMARK SMILES IDX 37 87 38 88 46 89 39 90 41 91 47 92 40 93 42 94 43 95 44 96
REMARK SMILES IDX 45 97
REMARK H PARENT 3 7 8 31 67 50 35 61
REMARK Flexibility Score: inf
ROOT
ATOM      1  C   UNL A   1      33.534  27.880  26.296  1.00  0.00     0.023 C 
ENDROOT
BRANCH   1   2
ATOM      2  C   UNL A   1      33.287  26.934  25.132  1.00  0.00     0.023 C 
BRANCH   2   3
ATOM      3  C   UNL A   1      33.673  25.521  25.536  1.00  0.00     0.116 C 
BRANCH   3   4
ATOM      4  N   UNL A   1      34.111  24.775  24.347  1.00  0.00    -0.352 N 
ATOM      5  O   UNL A   1      33.700  22.987  22.837  1.00  0.00    -0.270 OA
ATOM      6  C   UNL A   1      33.322  23.632  23.865  1.00  0.00     0.251 C 
ATOM      7  H   UNL A   1      34.933  25.039  23.874  1.00  0.00     0.163 HD
BRANCH   6   8
ATOM      8  C   UNL A   1      32.053  23.222  24.596  1.00  0.00     0.067 C 
ATOM      9  C   UNL A   1      31.946  21.974  25.124  1.00  0.00     0.025 C 
ATOM     10  C   UNL A   1      30.905  24.208  24.737  1.00  0.00     0.314 C 
ATOM     11  C   UNL A   1      33.095  20.988  24.984  1.00  0.00     0.019 A 
ATOM     12  O   UNL A   1      34.673  22.675  25.540  1.00  0.00    -0.475 OA
ATOM     13  C   UNL A   1      32.766  19.731  24.503  1.00  0.00     0.036 A 
ATOM     14  C   UNL A   1      34.359  21.333  25.202  1.00  0.00     0.128 A 
ATOM     15  C   UNL A   1      33.830  18.801  24.556  1.00  0.00     0.107 A 
ATOM     16  C   UNL A   1      35.365  20.402  25.104  1.00  0.00     0.048 A 
ATOM     17  C   UNL A   1      35.103  19.125  24.691  1.00  0.00     0.028 A 
BRANCH  10  18
ATOM     18  C   UNL A   1      30.627  24.455  26.210  1.00  0.00     0.429 C 
ATOM     19  F   UNL A   1      29.574  23.737  26.589  1.00  0.00    -0.167 F 
ATOM     20  F   UNL A   1      31.688  24.098  26.928  1.00  0.00    -0.167 F 
ATOM     21  F   UNL A   1      30.376  25.747  26.403  1.00  0.00    -0.167 F 
ENDBRANCH  10  18
BRANCH  15  22
ATOM     22  S   UNL A   1      33.419  17.042  24.430  1.00  0.00     0.310 S 
ATOM     23  F   UNL A   1      34.951  16.629  24.450  1.00  0.00    -0.094 F 
ATOM     24  F   UNL A   1      33.538  17.143  22.862  1.00  0.00    -0.094 F 
ATOM     25  F   UNL A   1      33.076  15.529  24.335  1.00  0.00    -0.094 F 
ATOM     26  F   UNL A   1      33.443  16.931  26.004  1.00  0.00    -0.094 F 
ATOM     27  F   UNL A   1      33.878  18.551  24.544  1.00  0.00    -0.094 F 
ENDBRANCH  15  22
ENDBRANCH   6   8
ENDBRANCH   3   4
ENDBRANCH   2   3
ENDBRANCH   1   2
BRANCH   1  28
ATOM     28  C   UNL A   1      34.217  29.140  25.790  1.00  0.00     0.116 C 
BRANCH  28  29
ATOM     29  N   UNL A   1      33.700  30.304  26.523  1.00  0.00    -0.352 N 
ATOM     30  C   UNL A   1      34.469  30.870  27.641  1.00  0.00     0.251 C 
ATOM     31  H   UNL A   1      32.839  30.705  26.266  1.00  0.00     0.163 HD
ATOM     32  O   UNL A   1      34.022  31.877  28.275  1.00  0.00    -0.269 OA
BRANCH  30  33
ATOM     33  C   UNL A   1      35.799  30.251  28.039  1.00  0.00     0.039 A 
ATOM     34  C   UNL A   1      36.953  30.445  27.298  1.00  0.00     0.014 A 
ATOM     35  C   UNL A   1      35.825  29.603  29.198  1.00  0.00     0.014 A 
ATOM     36  C   UNL A   1      38.049  29.661  27.730  1.00  0.00     0.010 A 
ATOM     37  C   UNL A   1      36.970  28.973  29.622  1.00  0.00     0.010 A 
ATOM     38  C   UNL A   1      38.133  29.074  28.910  1.00  0.00    -0.014 A 
BRANCH  38  39
ATOM     39  C   UNL A   1      39.450  28.539  29.447  1.00  0.00     0.031 A 
ATOM     40  C   UNL A   1      40.120  29.376  30.342  1.00  0.00     0.074 A 
ATOM     41  C   UNL A   1      39.958  27.339  28.981  1.00  0.00     0.049 A 
ATOM     42  N   UNL A   1      41.306  29.169  30.916  1.00  0.00    -0.248 NA
ATOM     43  C   UNL A   1      39.597  30.667  30.810  1.00  0.00     0.031 C 
ATOM     44  C   UNL A   1      39.285  26.486  28.085  1.00  0.00     0.029 A 
ATOM     45  N   UNL A   1      41.171  26.760  29.283  1.00  0.00    -0.354 N 
ATOM     46  C   UNL A   1      41.608  30.185  31.727  1.00  0.00     0.074 A 
ATOM     47  C   UNL A   1      40.516  31.165  31.667  1.00  0.00     0.031 C 
ATOM     48  C   UNL A   1      40.085  25.414  27.842  1.00  0.00     0.029 A 
ATOM     49  C   UNL A   1      41.270  25.578  28.582  1.00  0.00     0.049 A 
ATOM     50  H   UNL A   1      41.850  27.127  29.894  1.00  0.00     0.167 HD
ATOM     51  C   UNL A   1      42.750  30.329  32.517  1.00  0.00     0.034 A 
ATOM     52  C   UNL A   1      42.329  24.684  28.574  1.00  0.00     0.034 A 
ATOM     53  C   UNL A   1      43.789  29.413  32.541  1.00  0.00     0.049 A 
ATOM     54  C   UNL A   1      43.497  24.858  29.318  1.00  0.00     0.074 A 
ATOM     55  C   UNL A   1      44.944  29.540  33.336  1.00  0.00     0.029 A 
ATOM     56  N   UNL A   1      43.899  28.244  31.821  1.00  0.00    -0.354 N 
ATOM     57  N   UNL A   1      43.782  25.853  30.159  1.00  0.00    -0.248 NA
ATOM     58  C   UNL A   1      44.638  23.932  29.292  1.00  0.00     0.031 C 
ATOM     59  C   UNL A   1      45.744  28.469  33.093  1.00  0.00     0.029 A 
ATOM     60  C   UNL A   1      45.103  27.654  32.141  1.00  0.00     0.049 A 
ATOM     61  H   UNL A   1      43.234  27.891  31.188  1.00  0.00     0.167 HD
ATOM     62  C   UNL A   1      44.987  25.667  30.702  1.00  0.00     0.074 A 
ATOM     63  C   UNL A   1      45.558  24.432  30.147  1.00  0.00     0.031 C 
ATOM     64  C   UNL A   1      45.631  26.474  31.641  1.00  0.00     0.034 A 
BRANCH  51  65
ATOM     65  C   UNL A   1      42.860  31.563  33.399  1.00  0.00     0.023 A 
ATOM     66  C   UNL A   1      43.332  32.783  32.943  1.00  0.00     0.012 A 
ATOM     67  C   UNL A   1      42.336  31.437  34.612  1.00  0.00     0.148 A 
ATOM     68  C   UNL A   1      43.472  33.758  33.959  1.00  0.00     0.002 A 
ATOM     69  C   UNL A   1      42.387  32.476  35.508  1.00  0.00     0.091 A 
ATOM     70  F   UNL A   1      41.756  30.292  34.963  1.00  0.00    -0.205 F 
ATOM     71  C   UNL A   1      42.894  33.693  35.145  1.00  0.00     0.022 A 
BRANCH  69  72
ATOM     72  S   UNL A   1      41.774  32.233  37.193  1.00  0.00     0.127 S 
ATOM     73  O   UNL A   1      40.262  32.003  37.158  1.00  0.00    -0.237 OA
ATOM     74  O   UNL A   1      42.461  31.014  37.814  1.00  0.00    -0.237 OA
ATOM     75  O   UNL A   1      42.118  33.620  38.131  1.00  0.00    -0.744 OA
ENDBRANCH  69  72
ENDBRANCH  51  65
BRANCH  52  76
ATOM     76  C   UNL A   1      42.211  23.442  27.704  1.00  0.00     0.023 A 
ATOM     77  C   UNL A   1      41.397  22.400  28.115  1.00  0.00     0.012 A 
ATOM     78  C   UNL A   1      43.013  23.316  26.654  1.00  0.00     0.148 A 
ATOM     79  C   UNL A   1      41.717  21.155  27.523  1.00  0.00     0.002 A 
ATOM     80  C   UNL A   1      43.174  22.099  26.038  1.00  0.00     0.091 A 
ATOM     81  F   UNL A   1      43.667  24.379  26.193  1.00  0.00    -0.205 F 
ATOM     82  C   UNL A   1      42.446  21.010  26.432  1.00  0.00     0.022 A 
BRANCH  80  83
ATOM     83  S   UNL A   1      44.367  21.933  24.688  1.00  0.00     0.127 S 
ATOM     84  O   UNL A   1      44.494  20.459  24.297  1.00  0.00    -0.237 OA
ATOM     85  O   UNL A   1      43.887  22.741  23.480  1.00  0.00    -0.237 OA
ATOM     86  O   UNL A   1      45.890  22.520  25.197  1.00  0.00    -0.744 OA
ENDBRANCH  80  83
ENDBRANCH  52  76
BRANCH  64  87
ATOM     87  C   UNL A   1      46.995  26.032  32.147  1.00  0.00     0.023 A 
ATOM     88  C   UNL A   1      48.158  26.434  31.512  1.00  0.00     0.012 A 
ATOM     89  C   UNL A   1      47.032  25.307  33.259  1.00  0.00     0.148 A 
ATOM     90  C   UNL A   1      49.321  25.773  31.972  1.00  0.00     0.002 A 
ATOM     91  C   UNL A   1      48.223  24.806  33.726  1.00  0.00     0.091 A 
ATOM     92  F   UNL A   1      45.908  25.064  33.925  1.00  0.00    -0.205 F 
ATOM     93  C   UNL A   1      49.405  25.114  33.114  1.00  0.00     0.022 A 
BRANCH  91  94
ATOM     94  S   UNL A   1      48.226  23.721  35.175  1.00  0.00     0.127 S 
ATOM     95  O   UNL A   1      49.643  23.193  35.415  1.00  0.00    -0.237 OA
ATOM     96  O   UNL A   1      47.760  24.507  36.403  1.00  0.00    -0.237 OA
ATOM     97  O   UNL A   1      47.167  22.406  34.905  1.00  0.00    -0.744 OA
ENDBRANCH  91  94
ENDBRANCH  64  87
ENDBRANCH  38  39
ENDBRANCH  30  33
ENDBRANCH  28  29
ENDBRANCH   1  28
TORSDOF 16
ENDMDL
MODEL 2
REMARK VINA RESULT:     -12.9      1.576      7.352
REMARK SMILES O=C(NCCCCNC(=O)c1ccc(-c2c3nc(c(-c4cccc(S(=O)(=O)[O-])c4F)c4ccc([nH]4)c(-c4cccc(S(=O)(=O)[O-])c4F)c4nc(c(-c5cccc(S(=O)(=O)[O-])c5F)c5ccc2[nH]5)C=C4)C=C3)cc1)C1=Cc2cc(S(F)(F)(F)(F)F)ccc2O[C@@H]1C(F)(F)F
REMARK SMILES IDX 6 1 5 2 4 3 3 4 1 5 2 6 74 8 75 9 89 10 76 11 88 12 77 13
REMARK SMILES IDX 87 14 78 15 86 16 85 17 90 18 91 19 92 20 93 21 79 22 80 23
REMARK SMILES IDX 81 24 82 25 83 26 84 27 7 28 8 29 9 30 10 32 11 33 12 34
REMARK SMILES IDX 73 35 13 36 72 37 14 38 15 39 16 40 66 41 17 42 71 43 65 44
REMARK SMILES IDX 67 45 18 46 70 47 64 48 63 49 19 51 51 52 31 53 50 54 32 55
REMARK SMILES IDX 35 56 49 57 68 58 33 59 34 60 48 62 69 63 36 64 20 65 21 66
REMARK SMILES IDX 29 67 22 68 24 69 30 70 23 71 25 72 26 73 27 74 28 75 52 76
REMARK SMILES IDX 53 77 61 78 54 79 56 80 62 81 55 82 57 83 58 84 59 85 60 86
REMARK SMILES IDX 37 87 38 88 46 89 39 90 41 91 47 92 40 93 42 94 43 95 44 96
REMARK SMILES IDX 45 97
REMARK H PARENT 3 7 8 31 67 50 35 61
REMARK Flexibility Score: inf
ROOT
ATOM      1  C   UNL A   1      33.290  27.844  26.127  1.00  0.00     0.023 C 
ENDROOT
BRANCH   1   2
ATOM      2  C   UNL A   1      33.274  26.911  24.927  1.00  0.00     0.023 C 
BRANCH   2   3
ATOM      3  C   UNL A   1      33.676  25.513  25.367  1.00  0.00     0.116 C 
BRANCH   3   4
ATOM      4  N   UNL A   1      34.045  24.716  24.188  1.00  0.00    -0.352 N 
ATOM      5  O   UNL A   1      33.565  22.851  22.797  1.00  0.00    -0.270 OA
ATOM      6  C   UNL A   1      33.246  23.540  23.816  1.00  0.00     0.251 C 
ATOM      7  H   UNL A   1      34.827  24.970  23.647  1.00  0.00     0.163 HD
BRANCH   6   8
ATOM      8  C   UNL A   1      32.038  23.147  24.651  1.00  0.00     0.067 C 
ATOM      9  C   UNL A   1      31.979  21.914  25.223  1.00  0.00     0.025 C 
ATOM     10  C   UNL A   1      30.897  24.131  24.848  1.00  0.00     0.314 C 
ATOM     11  C   UNL A   1      33.120  20.930  25.028  1.00  0.00     0.019 A 
ATOM     12  O   UNL A   1      34.724  22.640  25.414  1.00  0.00    -0.475 OA
ATOM     13  C   UNL A   1      32.764  19.658  24.611  1.00  0.00     0.036 A 
ATOM     14  C   UNL A   1      34.394  21.286  25.140  1.00  0.00     0.128 A 
ATOM     15  C   UNL A   1      33.835  18.734  24.612  1.00  0.00     0.107 A 
ATOM     16  C   UNL A   1      35.397  20.357  24.995  1.00  0.00     0.048 A 
ATOM     17  C   UNL A   1      35.113  19.067  24.642  1.00  0.00     0.028 A 
BRANCH  10  18
ATOM     18  C   UNL A   1      30.728  24.422  26.330  1.00  0.00     0.429 C 
ATOM     19  F   UNL A   1      30.497  25.721  26.503  1.00  0.00    -0.167 F 
ATOM     20  F   UNL A   1      29.701  23.723  26.805  1.00  0.00    -0.167 F 
ATOM     21  F   UNL A   1      31.836  24.078  26.979  1.00  0.00    -0.167 F 
ENDBRANCH  10  18
BRANCH  15  22
ATOM     22  S   UNL A   1      33.427  16.970  24.570  1.00  0.00     0.310 S 
ATOM     23  F   UNL A   1      31.879  17.279  24.412  1.00  0.00    -0.094 F 
ATOM     24  F   UNL A   1      33.203  17.000  26.129  1.00  0.00    -0.094 F 
ATOM     25  F   UNL A   1      33.069  15.459  24.519  1.00  0.00    -0.094 F 
ATOM     26  F   UNL A   1      33.519  16.994  22.994  1.00  0.00    -0.094 F 
ATOM     27  F   UNL A   1      33.682  18.531  24.593  1.00  0.00    -0.094 F 
ENDBRANCH  15  22
ENDBRANCH   6   8
ENDBRANCH   3   4
ENDBRANCH   2   3
ENDBRANCH   1   2
BRANCH   1  28
ATOM     28  C   UNL A   1      34.307  28.949  25.897  1.00  0.00     0.116 C 
BRANCH  28  29
ATOM     29  N   UNL A   1      33.813  30.200  26.489  1.00  0.00    -0.352 N 
ATOM     30  C   UNL A   1      34.595  30.878  27.533  1.00  0.00     0.251 C 
ATOM     31  H   UNL A   1      32.959  30.584  26.187  1.00  0.00     0.163 HD
ATOM     32  O   UNL A   1      34.168  31.960  28.045  1.00  0.00    -0.269 OA
BRANCH  30  33
ATOM     33  C   UNL A   1      35.915  30.285  28.001  1.00  0.00     0.039 A 
ATOM     34  C   UNL A   1      37.094  30.471  27.299  1.00  0.00     0.014 A 
ATOM     35  C   UNL A   1      35.902  29.672  29.179  1.00  0.00     0.014 A 
ATOM     36  C   UNL A   1      38.181  29.711  27.796  1.00  0.00     0.010 A 
ATOM     37  C   UNL A   1      37.036  29.068  29.665  1.00  0.00     0.010 A 
ATOM     38  C   UNL A   1      38.224  29.160  28.995  1.00  0.00    -0.014 A 
BRANCH  38  39
ATOM     39  C   UNL A   1      39.525  28.656  29.598  1.00  0.00     0.031 A 
ATOM     40  C   UNL A   1      40.117  27.578  28.938  1.00  0.00     0.074 A 
ATOM     41  C   UNL A   1      40.004  29.199  30.778  1.00  0.00     0.049 A 
ATOM     42  N   UNL A   1      41.224  26.921  29.285  1.00  0.00    -0.248 NA
ATOM     43  C   UNL A   1      39.590  26.978  27.704  1.00  0.00     0.031 C 
ATOM     44  C   UNL A   1      39.417  30.291  31.446  1.00  0.00     0.029 A 
ATOM     45  N   UNL A   1      41.102  28.800  31.508  1.00  0.00    -0.354 N 
ATOM     46  C   UNL A   1      41.488  25.961  28.396  1.00  0.00     0.074 A 
ATOM     47  C   UNL A   1      40.438  25.980  27.369  1.00  0.00     0.031 C 
ATOM     48  C   UNL A   1      40.143  30.540  32.568  1.00  0.00     0.029 A 
ATOM     49  C   UNL A   1      41.197  29.608  32.619  1.00  0.00     0.049 A 
ATOM     50  H   UNL A   1      41.713  28.064  31.275  1.00  0.00     0.167 HD
ATOM     51  C   UNL A   1      42.565  25.073  28.400  1.00  0.00     0.034 A 
ATOM     52  C   UNL A   1      42.140  29.549  33.633  1.00  0.00     0.034 A 
ATOM     53  C   UNL A   1      43.533  25.042  29.391  1.00  0.00     0.049 A 
ATOM     54  C   UNL A   1      43.184  28.622  33.668  1.00  0.00     0.074 A 
ATOM     55  C   UNL A   1      44.629  24.159  29.407  1.00  0.00     0.029 A 
ATOM     56  N   UNL A   1      43.613  25.834  30.515  1.00  0.00    -0.354 N 
ATOM     57  N   UNL A   1      43.470  27.689  32.759  1.00  0.00    -0.248 NA
ATOM     58  C   UNL A   1      44.170  28.530  34.753  1.00  0.00     0.031 C 
ATOM     59  C   UNL A   1      45.355  24.406  30.528  1.00  0.00     0.029 A 
ATOM     60  C   UNL A   1      44.724  25.449  31.233  1.00  0.00     0.049 A 
ATOM     61  H   UNL A   1      42.986  26.552  30.763  1.00  0.00     0.167 HD
ATOM     62  C   UNL A   1      44.555  27.003  33.127  1.00  0.00     0.074 A 
ATOM     63  C   UNL A   1      45.016  27.530  34.419  1.00  0.00     0.031 C 
ATOM     64  C   UNL A   1      45.180  25.964  32.437  1.00  0.00     0.034 A 
BRANCH  51  65
ATOM     65  C   UNL A   1      42.682  24.082  27.252  1.00  0.00     0.023 A 
ATOM     66  C   UNL A   1      43.589  24.225  26.215  1.00  0.00     0.012 A 
ATOM     67  C   UNL A   1      41.949  22.982  27.381  1.00  0.00     0.148 A 
ATOM     68  C   UNL A   1      43.441  23.262  25.188  1.00  0.00     0.002 A 
ATOM     69  C   UNL A   1      41.957  22.019  26.402  1.00  0.00     0.091 A 
ATOM     70  F   UNL A   1      41.201  22.813  28.467  1.00  0.00    -0.205 F 
ATOM     71  C   UNL A   1      42.785  22.123  25.319  1.00  0.00     0.022 A 
BRANCH  69  72
ATOM     72  S   UNL A   1      40.855  20.590  26.549  1.00  0.00     0.127 S 
ATOM     73  O   UNL A   1      40.831  20.111  28.002  1.00  0.00    -0.237 OA
ATOM     74  O   UNL A   1      39.442  20.990  26.120  1.00  0.00    -0.237 OA
ATOM     75  O   UNL A   1      41.421  19.329  25.543  1.00  0.00    -0.744 OA
ENDBRANCH  69  72
ENDBRANCH  51  65
BRANCH  52  76
ATOM     76  C   UNL A   1      42.032  30.550  34.772  1.00  0.00     0.023 A 
ATOM     77  C   UNL A   1      41.215  30.262  35.853  1.00  0.00     0.012 A 
ATOM     78  C   UNL A   1      42.592  31.745  34.632  1.00  0.00     0.148 A 
ATOM     79  C   UNL A   1      40.813  31.403  36.588  1.00  0.00     0.002 A 
ATOM     80  C   UNL A   1      42.255  32.778  35.472  1.00  0.00     0.091 A 
ATOM     81  F   UNL A   1      43.489  31.943  33.669  1.00  0.00    -0.205 F 
ATOM     82  C   UNL A   1      41.407  32.581  36.525  1.00  0.00     0.022 A 
BRANCH  80  83
ATOM     83  S   UNL A   1      42.944  34.426  35.178  1.00  0.00     0.127 S 
ATOM     84  O   UNL A   1      42.511  34.922  33.797  1.00  0.00    -0.237 OA
ATOM     85  O   UNL A   1      42.433  35.392  36.250  1.00  0.00    -0.237 OA
ATOM     86  O   UNL A   1      44.651  34.352  35.247  1.00  0.00    -0.744 OA
ENDBRANCH  80  83
ENDBRANCH  52  76
BRANCH  64  87
ATOM     87  C   UNL A   1      46.437  25.360  33.041  1.00  0.00     0.023 A 
ATOM     88  C   UNL A   1      47.684  25.915  32.805  1.00  0.00     0.012 A 
ATOM     89  C   UNL A   1      46.288  24.325  33.860  1.00  0.00     0.148 A 
ATOM     90  C   UNL A   1      48.761  25.119  33.259  1.00  0.00     0.002 A 
ATOM     91  C   UNL A   1      47.385  23.678  34.377  1.00  0.00     0.091 A 
ATOM     92  F   UNL A   1      45.066  23.911  34.182  1.00  0.00    -0.205 F 
ATOM     93  C   UNL A   1      48.650  24.137  34.136  1.00  0.00     0.022 A 
BRANCH  91  94
ATOM     94  S   UNL A   1      47.151  22.197  35.391  1.00  0.00     0.127 S 
ATOM     95  O   UNL A   1      46.692  21.038  34.503  1.00  0.00    -0.237 OA
ATOM     96  O   UNL A   1      48.474  21.829  36.067  1.00  0.00    -0.237 OA
ATOM     97  O   UNL A   1      45.966  22.505  36.584  1.00  0.00    -0.744 OA
ENDBRANCH  91  94
ENDBRANCH  64  87
ENDBRANCH  38  39
ENDBRANCH  30  33
ENDBRANCH  28  29
ENDBRANCH   1  28
TORSDOF 16
ENDMDL
MODEL 3
REMARK VINA RESULT:     -12.9      2.477      7.691
REMARK SMILES O=C(NCCCCNC(=O)c1ccc(-c2c3nc(c(-c4cccc(S(=O)(=O)[O-])c4F)c4ccc([nH]4)c(-c4cccc(S(=O)(=O)[O-])c4F)c4nc(c(-c5cccc(S(=O)(=O)[O-])c5F)c5ccc2[nH]5)C=C4)C=C3)cc1)C1=Cc2cc(S(F)(F)(F)(F)F)ccc2O[C@@H]1C(F)(F)F
REMARK SMILES IDX 6 1 5 2 4 3 3 4 1 5 2 6 74 8 75 9 89 10 76 11 88 12 77 13
REMARK SMILES IDX 87 14 78 15 86 16 85 17 90 18 91 19 92 20 93 21 79 22 80 23
REMARK SMILES IDX 81 24 82 25 83 26 84 27 7 28 8 29 9 30 10 32 11 33 12 34
REMARK SMILES IDX 73 35 13 36 72 37 14 38 15 39 16 40 66 41 17 42 71 43 65 44
REMARK SMILES IDX 67 45 18 46 70 47 64 48 63 49 19 51 51 52 31 53 50 54 32 55
REMARK SMILES IDX 35 56 49 57 68 58 33 59 34 60 48 62 69 63 36 64 20 65 21 66
REMARK SMILES IDX 29 67 22 68 24 69 30 70 23 71 25 72 26 73 27 74 28 75 52 76
REMARK SMILES IDX 53 77 61 78 54 79 56 80 62 81 55 82 57 83 58 84 59 85 60 86
REMARK SMILES IDX 37 87 38 88 46 89 39 90 41 91 47 92 40 93 42 94 43 95 44 96
REMARK SMILES IDX 45 97
REMARK H PARENT 3 7 8 31 67 50 35 61
REMARK Flexibility Score: inf
ROOT
ATOM      1  C   UNL A   1      33.163  27.647  25.175  1.00  0.00     0.023 C 
ENDROOT
BRANCH   1   2
ATOM      2  C   UNL A   1      34.207  26.547  25.267  1.00  0.00     0.023 C 
BRANCH   2   3
ATOM      3  C   UNL A   1      33.515  25.197  25.354  1.00  0.00     0.116 C 
BRANCH   3   4
ATOM      4  N   UNL A   1      33.865  24.391  24.175  1.00  0.00    -0.352 N 
ATOM      5  O   UNL A   1      33.366  22.511  22.810  1.00  0.00    -0.270 OA
ATOM      6  C   UNL A   1      33.063  23.208  23.829  1.00  0.00     0.251 C 
ATOM      7  H   UNL A   1      34.636  24.642  23.617  1.00  0.00     0.163 HD
BRANCH   6   8
ATOM      8  C   UNL A   1      31.873  22.819  24.690  1.00  0.00     0.067 C 
ATOM      9  C   UNL A   1      31.825  21.588  25.267  1.00  0.00     0.025 C 
ATOM     10  C   UNL A   1      30.737  23.805  24.907  1.00  0.00     0.314 C 
ATOM     11  C   UNL A   1      32.961  20.602  25.051  1.00  0.00     0.019 A 
ATOM     12  O   UNL A   1      34.574  22.312  25.399  1.00  0.00    -0.475 OA
ATOM     13  C   UNL A   1      32.596  19.329  24.645  1.00  0.00     0.036 A 
ATOM     14  C   UNL A   1      34.237  20.958  25.137  1.00  0.00     0.128 A 
ATOM     15  C   UNL A   1      33.666  18.405  24.628  1.00  0.00     0.107 A 
ATOM     16  C   UNL A   1      35.236  20.028  24.974  1.00  0.00     0.048 A 
ATOM     17  C   UNL A   1      34.945  18.737  24.630  1.00  0.00     0.028 A 
BRANCH  10  18
ATOM     18  C   UNL A   1      30.598  24.100  26.391  1.00  0.00     0.429 C 
ATOM     19  F   UNL A   1      30.375  25.400  26.565  1.00  0.00    -0.167 F 
ATOM     20  F   UNL A   1      29.578  23.406  26.888  1.00  0.00    -0.167 F 
ATOM     21  F   UNL A   1      31.718  23.754  27.019  1.00  0.00    -0.167 F 
ENDBRANCH  10  18
BRANCH  15  22
ATOM     22  S   UNL A   1      33.256  16.641  24.599  1.00  0.00     0.310 S 
ATOM     23  F   UNL A   1      34.788  16.233  24.519  1.00  0.00    -0.094 F 
ATOM     24  F   UNL A   1      33.257  16.683  23.024  1.00  0.00    -0.094 F 
ATOM     25  F   UNL A   1      32.915  15.124  24.587  1.00  0.00    -0.094 F 
ATOM     26  F   UNL A   1      33.399  16.590  26.170  1.00  0.00    -0.094 F 
ATOM     27  F   UNL A   1      33.715  18.154  24.622  1.00  0.00    -0.094 F 
ENDBRANCH  15  22
ENDBRANCH   6   8
ENDBRANCH   3   4
ENDBRANCH   2   3
ENDBRANCH   1   2
BRANCH   1  28
ATOM     28  C   UNL A   1      33.854  29.001  25.162  1.00  0.00     0.116 C 
BRANCH  28  29
ATOM     29  N   UNL A   1      32.900  30.041  25.575  1.00  0.00    -0.352 N 
ATOM     30  C   UNL A   1      33.206  30.906  26.723  1.00  0.00     0.251 C 
ATOM     31  H   UNL A   1      32.056  30.158  25.082  1.00  0.00     0.163 HD
ATOM     32  O   UNL A   1      32.382  31.805  27.079  1.00  0.00    -0.269 OA
BRANCH  30  33
ATOM     33  C   UNL A   1      34.510  30.726  27.484  1.00  0.00     0.039 A 
ATOM     34  C   UNL A   1      35.399  31.770  27.679  1.00  0.00     0.014 A 
ATOM     35  C   UNL A   1      34.703  29.541  28.051  1.00  0.00     0.014 A 
ATOM     36  C   UNL A   1      36.626  31.375  28.264  1.00  0.00     0.010 A 
ATOM     37  C   UNL A   1      35.870  29.269  28.723  1.00  0.00     0.010 A 
ATOM     38  C   UNL A   1      36.820  30.237  28.904  1.00  0.00    -0.014 A 
BRANCH  38  39
ATOM     39  C   UNL A   1      38.031  30.013  29.793  1.00  0.00     0.031 A 
ATOM     40  C   UNL A   1      38.977  29.107  29.307  1.00  0.00     0.074 A 
ATOM     41  C   UNL A   1      38.107  30.617  31.036  1.00  0.00     0.049 A 
ATOM     42  N   UNL A   1      40.095  28.699  29.907  1.00  0.00    -0.248 NA
ATOM     43  C   UNL A   1      38.881  28.438  28.002  1.00  0.00     0.031 C 
ATOM     44  C   UNL A   1      37.162  31.538  31.530  1.00  0.00     0.029 A 
ATOM     45  N   UNL A   1      39.075  30.449  32.001  1.00  0.00    -0.354 N 
ATOM     46  C   UNL A   1      40.753  27.843  29.123  1.00  0.00     0.074 A 
ATOM     47  C   UNL A   1      39.978  27.659  27.888  1.00  0.00     0.031 C 
ATOM     48  C   UNL A   1      37.549  31.910  32.779  1.00  0.00     0.029 A 
ATOM     49  C   UNL A   1      38.742  31.230  33.086  1.00  0.00     0.049 A 
ATOM     50  H   UNL A   1      39.868  29.870  31.928  1.00  0.00     0.167 HD
ATOM     51  C   UNL A   1      41.969  27.212  29.387  1.00  0.00     0.034 A 
ATOM     52  C   UNL A   1      39.427  31.353  34.284  1.00  0.00     0.034 A 
ATOM     53  C   UNL A   1      42.676  27.368  30.569  1.00  0.00     0.049 A 
ATOM     54  C   UNL A   1      40.613  30.675  34.573  1.00  0.00     0.074 A 
ATOM     55  C   UNL A   1      43.907  26.744  30.849  1.00  0.00     0.029 A 
ATOM     56  N   UNL A   1      42.330  28.130  31.663  1.00  0.00    -0.354 N 
ATOM     57  N   UNL A   1      41.291  29.851  33.773  1.00  0.00    -0.248 NA
ATOM     58  C   UNL A   1      41.329  30.773  35.852  1.00  0.00     0.031 C 
ATOM     59  C   UNL A   1      44.294  27.117  32.097  1.00  0.00     0.029 A 
ATOM     60  C   UNL A   1      43.310  27.978  32.619  1.00  0.00     0.049 A 
ATOM     61  H   UNL A   1      41.522  28.686  31.748  1.00  0.00     0.167 HD
ATOM     62  C   UNL A   1      42.389  29.410  34.390  1.00  0.00     0.074 A 
ATOM     63  C   UNL A   1      42.426  29.991  35.739  1.00  0.00     0.031 C 
ATOM     64  C   UNL A   1      43.364  28.550  33.881  1.00  0.00     0.034 A 
BRANCH  51  65
ATOM     65  C   UNL A   1      42.551  26.300  28.318  1.00  0.00     0.023 A 
ATOM     66  C   UNL A   1      42.058  25.034  28.049  1.00  0.00     0.012 A 
ATOM     67  C   UNL A   1      43.484  26.854  27.552  1.00  0.00     0.148 A 
ATOM     68  C   UNL A   1      42.826  24.309  27.107  1.00  0.00     0.002 A 
ATOM     69  C   UNL A   1      44.097  26.127  26.561  1.00  0.00     0.091 A 
ATOM     70  F   UNL A   1      43.827  28.124  27.746  1.00  0.00    -0.205 F 
ATOM     71  C   UNL A   1      43.701  24.849  26.278  1.00  0.00     0.022 A 
BRANCH  69  72
ATOM     72  S   UNL A   1      45.449  26.872  25.615  1.00  0.00     0.127 S 
ATOM     73  O   UNL A   1      46.009  25.843  24.630  1.00  0.00    -0.237 OA
ATOM     74  O   UNL A   1      44.923  28.084  24.843  1.00  0.00    -0.237 OA
ATOM     75  O   UNL A   1      46.686  27.369  26.685  1.00  0.00    -0.744 OA
ENDBRANCH  69  72
ENDBRANCH  51  65
BRANCH  52  76
ATOM     76  C   UNL A   1      38.852  32.277  35.346  1.00  0.00     0.023 A 
ATOM     77  C   UNL A   1      39.186  33.621  35.329  1.00  0.00     0.012 A 
ATOM     78  C   UNL A   1      38.177  31.748  36.359  1.00  0.00     0.148 A 
ATOM     79  C   UNL A   1      39.012  34.271  36.574  1.00  0.00     0.002 A 
ATOM     80  C   UNL A   1      37.923  32.485  37.491  1.00  0.00     0.091 A 
ATOM     81  F   UNL A   1      37.741  30.494  36.278  1.00  0.00    -0.205 F 
ATOM     82  C   UNL A   1      38.279  33.803  37.567  1.00  0.00     0.022 A 
BRANCH  80  83
ATOM     83  S   UNL A   1      37.108  31.698  38.903  1.00  0.00     0.127 S 
ATOM     84  O   UNL A   1      37.986  31.848  40.147  1.00  0.00    -0.237 OA
ATOM     85  O   UNL A   1      35.755  32.369  39.150  1.00  0.00    -0.237 OA
ATOM     86  O   UNL A   1      36.869  30.038  38.571  1.00  0.00    -0.744 OA
ENDBRANCH  80  83
ENDBRANCH  52  76
BRANCH  64  87
ATOM     87  C   UNL A   1      44.556  28.219  34.764  1.00  0.00     0.023 A 
ATOM     88  C   UNL A   1      45.666  29.047  34.808  1.00  0.00     0.012 A 
ATOM     89  C   UNL A   1      44.465  27.147  35.543  1.00  0.00     0.148 A 
ATOM     90  C   UNL A   1      46.765  28.496  35.508  1.00  0.00     0.002 A 
ATOM     91  C   UNL A   1      45.535  26.743  36.304  1.00  0.00     0.091 A 
ATOM     92  F   UNL A   1      43.328  26.459  35.585  1.00  0.00    -0.205 F 
ATOM     93  C   UNL A   1      46.684  27.482  36.350  1.00  0.00     0.022 A 
BRANCH  91  94
ATOM     94  S   UNL A   1      45.420  25.211  37.261  1.00  0.00     0.127 S 
ATOM     95  O   UNL A   1      44.234  25.299  38.224  1.00  0.00    -0.237 OA
ATOM     96  O   UNL A   1      45.218  24.029  36.310  1.00  0.00    -0.237 OA
ATOM     97  O   UNL A   1      46.862  24.986  38.152  1.00  0.00    -0.744 OA
ENDBRANCH  91  94
ENDBRANCH  64  87
ENDBRANCH  38  39
ENDBRANCH  30  33
ENDBRANCH  28  29
ENDBRANCH   1  28
TORSDOF 16
ENDMDL
