MODEL 1
REMARK VINA RESULT:     -12.4      0.000      0.000
REMARK SMILES O=C(NCCCCNC(=O)C1(Cc2ccncc2)Cc2ccccc2C1)c1ccc(-c2c3nc(c(-c4cccc(S(=O)(=O)[O-])c4F)c4ccc([nH]4)c(-c4cccc(S(=O)(=O)[O-])c4F)c4nc(c(-c5cccc(S(=O)(=O)[O-])c5F)c5ccc2[nH]5)C=C4)C=C3)cc1
REMARK SMILES IDX 5 1 4 2 3 3 1 4 2 5 27 7 28 8 89 9 29 10 88 11 30 12 31 13
REMARK SMILES IDX 32 14 82 15 33 16 87 17 81 18 83 19 34 20 86 21 80 22 79 23
REMARK SMILES IDX 35 25 67 26 47 27 66 28 48 29 51 30 65 31 84 32 49 33 50 34
REMARK SMILES IDX 64 36 85 37 52 38 36 39 37 40 45 41 38 42 40 43 46 44 39 45
REMARK SMILES IDX 41 46 42 47 43 48 44 49 68 50 69 51 77 52 70 53 72 54 78 55
REMARK SMILES IDX 71 56 73 57 74 58 75 59 76 60 53 61 54 62 62 63 55 64 57 65
REMARK SMILES IDX 63 66 56 67 58 68 59 69 60 70 61 71 6 72 7 73 8 74 9 75
REMARK SMILES IDX 10 77 11 78 19 79 26 80 20 81 25 82 21 83 24 84 22 85 23 86
REMARK SMILES IDX 12 87 13 88 14 89 18 90 15 91 17 92 16 93
REMARK H PARENT 3 6 83 24 51 35 8 76
REMARK Flexibility Score: inf
ROOT
ATOM      1  C   UNL A   1      32.569  28.955  23.872  1.00  0.00     0.023 C 
ENDROOT
BRANCH   1   2
ATOM      2  C   UNL A   1      33.199  29.331  25.210  1.00  0.00     0.116 C 
BRANCH   2   3
ATOM      3  N   UNL A   1      32.543  30.433  25.900  1.00  0.00    -0.352 N 
ATOM      4  O   UNL A   1      32.354  32.043  27.481  1.00  0.00    -0.269 OA
ATOM      5  C   UNL A   1      33.036  31.179  26.952  1.00  0.00     0.251 C 
ATOM      6  H   UNL A   1      31.644  30.674  25.580  1.00  0.00     0.163 HD
BRANCH   5   7
ATOM      7  C   UNL A   1      34.394  30.863  27.446  1.00  0.00     0.039 A 
ATOM      8  C   UNL A   1      34.696  29.562  27.847  1.00  0.00     0.014 A 
ATOM      9  C   UNL A   1      35.319  31.896  27.615  1.00  0.00     0.014 A 
ATOM     10  C   UNL A   1      35.851  29.328  28.577  1.00  0.00     0.010 A 
ATOM     11  C   UNL A   1      36.526  31.635  28.270  1.00  0.00     0.010 A 
ATOM     12  C   UNL A   1      36.781  30.361  28.798  1.00  0.00    -0.014 A 
BRANCH  12  13
ATOM     13  C   UNL A   1      38.029  30.045  29.539  1.00  0.00     0.031 A 
ATOM     14  C   UNL A   1      38.272  30.550  30.935  1.00  0.00     0.074 A 
ATOM     15  C   UNL A   1      38.928  29.238  28.944  1.00  0.00     0.049 A 
ATOM     16  N   UNL A   1      39.269  30.283  31.739  1.00  0.00    -0.248 NA
ATOM     17  C   UNL A   1      37.280  31.478  31.504  1.00  0.00     0.031 C 
ATOM     18  C   UNL A   1      38.821  28.736  27.571  1.00  0.00     0.029 A 
ATOM     19  N   UNL A   1      40.089  28.681  29.412  1.00  0.00    -0.354 N 
ATOM     20  C   UNL A   1      39.049  31.030  32.890  1.00  0.00     0.074 A 
ATOM     21  C   UNL A   1      37.823  31.772  32.679  1.00  0.00     0.031 C 
ATOM     22  C   UNL A   1      39.844  27.907  27.325  1.00  0.00     0.029 A 
ATOM     23  C   UNL A   1      40.704  27.856  28.501  1.00  0.00     0.049 A 
ATOM     24  H   UNL A   1      40.447  28.854  30.313  1.00  0.00     0.167 HD
ATOM     25  C   UNL A   1      39.790  31.079  34.023  1.00  0.00     0.034 A 
ATOM     26  C   UNL A   1      41.838  27.134  28.597  1.00  0.00     0.034 A 
ATOM     27  C   UNL A   1      40.987  30.307  34.240  1.00  0.00     0.049 A 
ATOM     28  C   UNL A   1      42.596  27.151  29.891  1.00  0.00     0.074 A 
ATOM     29  C   UNL A   1      41.793  30.265  35.365  1.00  0.00     0.029 A 
ATOM     30  N   UNL A   1      41.547  29.437  33.317  1.00  0.00    -0.354 N 
ATOM     31  N   UNL A   1      42.309  27.783  31.003  1.00  0.00    -0.248 NA
ATOM     32  C   UNL A   1      43.815  26.335  29.955  1.00  0.00     0.031 C 
ATOM     33  C   UNL A   1      42.840  29.369  35.122  1.00  0.00     0.029 A 
ATOM     34  C   UNL A   1      42.683  28.847  33.847  1.00  0.00     0.049 A 
ATOM     35  H   UNL A   1      41.190  29.263  32.417  1.00  0.00     0.167 HD
ATOM     36  C   UNL A   1      43.312  27.445  31.901  1.00  0.00     0.074 A 
ATOM     37  C   UNL A   1      44.185  26.510  31.217  1.00  0.00     0.031 C 
ATOM     38  C   UNL A   1      43.515  27.891  33.164  1.00  0.00     0.034 A 
BRANCH  25  39
ATOM     39  C   UNL A   1      39.301  31.950  35.151  1.00  0.00     0.023 A 
ATOM     40  C   UNL A   1      38.375  31.425  36.075  1.00  0.00     0.012 A 
ATOM     41  C   UNL A   1      39.813  33.249  35.349  1.00  0.00     0.148 A 
ATOM     42  C   UNL A   1      37.954  32.182  37.168  1.00  0.00     0.002 A 
ATOM     43  C   UNL A   1      39.413  33.984  36.461  1.00  0.00     0.091 A 
ATOM     44  F   UNL A   1      40.676  33.740  34.449  1.00  0.00    -0.205 F 
ATOM     45  C   UNL A   1      38.479  33.456  37.367  1.00  0.00     0.022 A 
BRANCH  43  46
ATOM     46  S   UNL A   1      40.084  35.608  36.841  1.00  0.00     0.127 S 
ATOM     47  O   UNL A   1      39.629  36.391  35.694  1.00  0.00    -0.237 OA
ATOM     48  O   UNL A   1      39.416  35.932  38.103  1.00  0.00    -0.237 OA
ATOM     49  O   UNL A   1      41.525  35.430  36.948  1.00  0.00    -0.744 OA
ENDBRANCH  43  46
ENDBRANCH  25  39
BRANCH  26  50
ATOM     50  C   UNL A   1      42.272  26.300  27.443  1.00  0.00     0.023 A 
ATOM     51  C   UNL A   1      43.154  26.837  26.487  1.00  0.00     0.012 A 
ATOM     52  C   UNL A   1      41.881  24.952  27.335  1.00  0.00     0.148 A 
ATOM     53  C   UNL A   1      43.625  26.049  25.435  1.00  0.00     0.002 A 
ATOM     54  C   UNL A   1      42.407  24.156  26.325  1.00  0.00     0.091 A 
ATOM     55  F   UNL A   1      41.022  24.459  28.240  1.00  0.00    -0.205 F 
ATOM     56  C   UNL A   1      43.267  24.705  25.363  1.00  0.00     0.022 A 
BRANCH  54  57
ATOM     57  S   UNL A   1      42.118  22.383  26.297  1.00  0.00     0.127 S 
ATOM     58  O   UNL A   1      42.885  21.968  25.127  1.00  0.00    -0.237 OA
ATOM     59  O   UNL A   1      42.671  21.952  27.582  1.00  0.00    -0.237 OA
ATOM     60  O   UNL A   1      40.670  22.245  26.203  1.00  0.00    -0.744 OA
ENDBRANCH  54  57
ENDBRANCH  26  50
BRANCH  38  61
ATOM     61  C   UNL A   1      44.737  27.383  33.878  1.00  0.00     0.023 A 
ATOM     62  C   UNL A   1      45.928  28.137  33.823  1.00  0.00     0.012 A 
ATOM     63  C   UNL A   1      44.705  26.191  34.626  1.00  0.00     0.148 A 
ATOM     64  C   UNL A   1      47.077  27.694  34.474  1.00  0.00     0.002 A 
ATOM     65  C   UNL A   1      45.845  25.777  35.305  1.00  0.00     0.091 A 
ATOM     66  F   UNL A   1      43.572  25.476  34.645  1.00  0.00    -0.205 F 
ATOM     67  C   UNL A   1      47.033  26.520  35.223  1.00  0.00     0.022 A 
BRANCH  65  68
ATOM     68  S   UNL A   1      45.844  24.317  36.351  1.00  0.00     0.127 S 
ATOM     69  O   UNL A   1      46.647  24.761  37.487  1.00  0.00    -0.237 OA
ATOM     70  O   UNL A   1      44.421  24.136  36.643  1.00  0.00    -0.237 OA
ATOM     71  O   UNL A   1      46.425  23.255  35.539  1.00  0.00    -0.744 OA
ENDBRANCH  65  68
ENDBRANCH  38  61
ENDBRANCH  12  13
ENDBRANCH   5   7
ENDBRANCH   2   3
ENDBRANCH   1   2
BRANCH   1  72
ATOM     72  C   UNL A   1      31.354  28.034  23.952  1.00  0.00     0.023 C 
BRANCH  72  73
ATOM     73  C   UNL A   1      31.017  27.317  22.654  1.00  0.00     0.116 C 
BRANCH  73  74
ATOM     74  N   UNL A   1      32.187  26.929  21.886  1.00  0.00    -0.356 N 
ATOM     75  C   UNL A   1      32.683  25.689  21.624  1.00  0.00     0.227 C 
ATOM     76  H   UNL A   1      32.697  27.675  21.495  1.00  0.00     0.163 HD
ATOM     77  O   UNL A   1      33.062  25.514  20.459  1.00  0.00    -0.274 OA
BRANCH  75  78
ATOM     78  C   UNL A   1      32.980  24.624  22.699  1.00  0.00     0.061 C 
ATOM     79  C   UNL A   1      34.017  23.536  22.329  1.00  0.00     0.053 C 
ATOM     80  C   UNL A   1      33.631  25.351  23.924  1.00  0.00     0.053 C 
ATOM     81  C   UNL A   1      34.721  23.254  23.618  1.00  0.00    -0.044 A 
ATOM     82  C   UNL A   1      34.548  24.316  24.502  1.00  0.00    -0.044 A 
ATOM     83  C   UNL A   1      35.609  22.225  23.881  1.00  0.00     0.004 A 
ATOM     84  C   UNL A   1      35.281  24.383  25.674  1.00  0.00     0.004 A 
ATOM     85  C   UNL A   1      36.345  22.279  25.064  1.00  0.00     0.000 A 
ATOM     86  C   UNL A   1      36.187  23.355  25.952  1.00  0.00     0.000 A 
BRANCH  78  87
ATOM     87  C   UNL A   1      31.635  23.905  23.052  1.00  0.00     0.053 C 
BRANCH  87  88
ATOM     88  C   UNL A   1      31.242  23.784  24.511  1.00  0.00    -0.044 A 
ATOM     89  C   UNL A   1      30.616  24.832  25.188  1.00  0.00     0.024 A 
ATOM     90  C   UNL A   1      31.489  22.603  25.220  1.00  0.00     0.024 A 
ATOM     91  C   UNL A   1      30.284  24.666  26.526  1.00  0.00     0.111 A 
ATOM     92  C   UNL A   1      31.117  22.529  26.555  1.00  0.00     0.111 A 
ATOM     93  N   UNL A   1      30.516  23.533  27.226  1.00  0.00    -0.265 NA
ENDBRANCH  87  88
ENDBRANCH  78  87
ENDBRANCH  75  78
ENDBRANCH  73  74
ENDBRANCH  72  73
ENDBRANCH   1  72
TORSDOF 16
ENDMDL
MODEL 2
REMARK VINA RESULT:     -12.3      1.146      1.989
REMARK SMILES O=C(NCCCCNC(=O)C1(Cc2ccncc2)Cc2ccccc2C1)c1ccc(-c2c3nc(c(-c4cccc(S(=O)(=O)[O-])c4F)c4ccc([nH]4)c(-c4cccc(S(=O)(=O)[O-])c4F)c4nc(c(-c5cccc(S(=O)(=O)[O-])c5F)c5ccc2[nH]5)C=C4)C=C3)cc1
REMARK SMILES IDX 5 1 4 2 3 3 1 4 2 5 27 7 28 8 89 9 29 10 88 11 30 12 31 13
REMARK SMILES IDX 32 14 82 15 33 16 87 17 81 18 83 19 34 20 86 21 80 22 79 23
REMARK SMILES IDX 35 25 67 26 47 27 66 28 48 29 51 30 65 31 84 32 49 33 50 34
REMARK SMILES IDX 64 36 85 37 52 38 36 39 37 40 45 41 38 42 40 43 46 44 39 45
REMARK SMILES IDX 41 46 42 47 43 48 44 49 68 50 69 51 77 52 70 53 72 54 78 55
REMARK SMILES IDX 71 56 73 57 74 58 75 59 76 60 53 61 54 62 62 63 55 64 57 65
REMARK SMILES IDX 63 66 56 67 58 68 59 69 60 70 61 71 6 72 7 73 8 74 9 75
REMARK SMILES IDX 10 77 11 78 19 79 26 80 20 81 25 82 21 83 24 84 22 85 23 86
REMARK SMILES IDX 12 87 13 88 14 89 18 90 15 91 17 92 16 93
REMARK H PARENT 3 6 83 24 51 35 8 76
REMARK Flexibility Score: inf
ROOT
ATOM      1  C   UNL A   1      31.970  28.642  24.966  1.00  0.00     0.023 C 
ENDROOT
BRANCH   1   2
ATOM      2  C   UNL A   1      33.015  29.585  25.555  1.00  0.00     0.116 C 
BRANCH   2   3
ATOM      3  N   UNL A   1      32.469  30.797  26.151  1.00  0.00    -0.352 N 
ATOM      4  O   UNL A   1      32.461  32.564  27.567  1.00  0.00    -0.269 OA
ATOM      5  C   UNL A   1      33.058  31.603  27.104  1.00  0.00     0.251 C 
ATOM      6  H   UNL A   1      31.576  31.071  25.839  1.00  0.00     0.163 HD
BRANCH   5   7
ATOM      7  C   UNL A   1      34.409  31.237  27.581  1.00  0.00     0.039 A 
ATOM      8  C   UNL A   1      34.664  29.928  27.988  1.00  0.00     0.014 A 
ATOM      9  C   UNL A   1      35.377  32.233  27.728  1.00  0.00     0.014 A 
ATOM     10  C   UNL A   1      35.820  29.653  28.703  1.00  0.00     0.010 A 
ATOM     11  C   UNL A   1      36.582  31.928  28.367  1.00  0.00     0.010 A 
ATOM     12  C   UNL A   1      36.794  30.649  28.902  1.00  0.00    -0.014 A 
BRANCH  12  13
ATOM     13  C   UNL A   1      38.039  30.289  29.626  1.00  0.00     0.031 A 
ATOM     14  C   UNL A   1      38.304  30.759  31.031  1.00  0.00     0.074 A 
ATOM     15  C   UNL A   1      38.915  29.474  29.008  1.00  0.00     0.049 A 
ATOM     16  N   UNL A   1      39.300  30.453  31.822  1.00  0.00    -0.248 NA
ATOM     17  C   UNL A   1      37.338  31.698  31.626  1.00  0.00     0.031 C 
ATOM     18  C   UNL A   1      38.787  29.003  27.626  1.00  0.00     0.029 A 
ATOM     19  N   UNL A   1      40.066  28.880  29.456  1.00  0.00    -0.354 N 
ATOM     20  C   UNL A   1      39.106  31.181  32.989  1.00  0.00     0.074 A 
ATOM     21  C   UNL A   1      37.896  31.955  32.803  1.00  0.00     0.031 C 
ATOM     22  C   UNL A   1      39.788  28.156  27.356  1.00  0.00     0.029 A 
ATOM     23  C   UNL A   1      40.655  28.060  28.524  1.00  0.00     0.049 A 
ATOM     24  H   UNL A   1      40.434  29.026  30.357  1.00  0.00     0.167 HD
ATOM     25  C   UNL A   1      39.856  31.188  34.118  1.00  0.00     0.034 A 
ATOM     26  C   UNL A   1      41.772  27.311  28.596  1.00  0.00     0.034 A 
ATOM     27  C   UNL A   1      41.036  30.385  34.310  1.00  0.00     0.049 A 
ATOM     28  C   UNL A   1      42.539  27.282  29.884  1.00  0.00     0.074 A 
ATOM     29  C   UNL A   1      41.848  30.300  35.427  1.00  0.00     0.029 A 
ATOM     30  N   UNL A   1      41.569  29.521  33.365  1.00  0.00    -0.354 N 
ATOM     31  N   UNL A   1      42.275  27.898  31.011  1.00  0.00    -0.248 NA
ATOM     32  C   UNL A   1      43.740  26.437  29.922  1.00  0.00     0.031 C 
ATOM     33  C   UNL A   1      42.873  29.385  35.158  1.00  0.00     0.029 A 
ATOM     34  C   UNL A   1      42.695  28.894  33.874  1.00  0.00     0.049 A 
ATOM     35  H   UNL A   1      41.202  29.374  32.463  1.00  0.00     0.167 HD
ATOM     36  C   UNL A   1      43.277  27.518  31.894  1.00  0.00     0.074 A 
ATOM     37  C   UNL A   1      44.123  26.577  31.185  1.00  0.00     0.031 C 
ATOM     38  C   UNL A   1      43.498  27.933  33.165  1.00  0.00     0.034 A 
BRANCH  25  39
ATOM     39  C   UNL A   1      39.395  32.048  35.266  1.00  0.00     0.023 A 
ATOM     40  C   UNL A   1      38.551  31.490  36.247  1.00  0.00     0.012 A 
ATOM     41  C   UNL A   1      39.859  33.370  35.425  1.00  0.00     0.148 A 
ATOM     42  C   UNL A   1      38.161  32.237  37.358  1.00  0.00     0.002 A 
ATOM     43  C   UNL A   1      39.493  34.097  36.554  1.00  0.00     0.091 A 
ATOM     44  F   UNL A   1      40.644  33.891  34.472  1.00  0.00    -0.205 F 
ATOM     45  C   UNL A   1      38.639  33.535  37.517  1.00  0.00     0.022 A 
BRANCH  43  46
ATOM     46  S   UNL A   1      40.110  35.753  36.883  1.00  0.00     0.127 S 
ATOM     47  O   UNL A   1      39.596  36.493  35.733  1.00  0.00    -0.237 OA
ATOM     48  O   UNL A   1      39.463  36.078  38.155  1.00  0.00    -0.237 OA
ATOM     49  O   UNL A   1      41.560  35.631  36.955  1.00  0.00    -0.744 OA
ENDBRANCH  43  46
ENDBRANCH  25  39
BRANCH  26  50
ATOM     50  C   UNL A   1      42.179  26.491  27.422  1.00  0.00     0.023 A 
ATOM     51  C   UNL A   1      43.027  27.044  26.445  1.00  0.00     0.012 A 
ATOM     52  C   UNL A   1      41.795  25.140  27.312  1.00  0.00     0.148 A 
ATOM     53  C   UNL A   1      43.474  26.269  25.373  1.00  0.00     0.002 A 
ATOM     54  C   UNL A   1      42.297  24.358  26.280  1.00  0.00     0.091 A 
ATOM     55  F   UNL A   1      40.966  24.632  28.238  1.00  0.00    -0.205 F 
ATOM     56  C   UNL A   1      43.124  24.923  25.299  1.00  0.00     0.022 A 
BRANCH  54  57
ATOM     57  S   UNL A   1      42.020  22.583  26.243  1.00  0.00     0.127 S 
ATOM     58  O   UNL A   1      42.771  22.183  25.058  1.00  0.00    -0.237 OA
ATOM     59  O   UNL A   1      42.598  22.147  27.516  1.00  0.00    -0.237 OA
ATOM     60  O   UNL A   1      40.572  22.435  26.173  1.00  0.00    -0.744 OA
ENDBRANCH  54  57
ENDBRANCH  26  50
BRANCH  38  61
ATOM     61  C   UNL A   1      44.714  27.382  33.858  1.00  0.00     0.023 A 
ATOM     62  C   UNL A   1      45.934  28.083  33.769  1.00  0.00     0.012 A 
ATOM     63  C   UNL A   1      44.648  26.202  34.622  1.00  0.00     0.148 A 
ATOM     64  C   UNL A   1      47.077  27.600  34.401  1.00  0.00     0.002 A 
ATOM     65  C   UNL A   1      45.783  25.748  35.282  1.00  0.00     0.091 A 
ATOM     66  F   UNL A   1      43.486  25.536  34.675  1.00  0.00    -0.205 F 
ATOM     67  C   UNL A   1      47.000  26.438  35.165  1.00  0.00     0.022 A 
BRANCH  65  68
ATOM     68  S   UNL A   1      45.743  24.302  36.347  1.00  0.00     0.127 S 
ATOM     69  O   UNL A   1      47.125  24.237  36.817  1.00  0.00    -0.237 OA
ATOM     70  O   UNL A   1      44.768  24.686  37.369  1.00  0.00    -0.237 OA
ATOM     71  O   UNL A   1      45.311  23.201  35.494  1.00  0.00    -0.744 OA
ENDBRANCH  65  68
ENDBRANCH  38  61
ENDBRANCH  12  13
ENDBRANCH   5   7
ENDBRANCH   2   3
ENDBRANCH   1   2
BRANCH   1  72
ATOM     72  C   UNL A   1      31.261  27.736  25.971  1.00  0.00     0.023 C 
BRANCH  72  73
ATOM     73  C   UNL A   1      32.129  26.626  26.543  1.00  0.00     0.116 C 
BRANCH  73  74
ATOM     74  N   UNL A   1      31.418  25.375  26.737  1.00  0.00    -0.356 N 
ATOM     75  C   UNL A   1      31.891  24.098  26.746  1.00  0.00     0.227 C 
ATOM     76  H   UNL A   1      30.449  25.464  26.883  1.00  0.00     0.163 HD
ATOM     77  O   UNL A   1      31.426  23.377  27.638  1.00  0.00    -0.274 OA
BRANCH  75  78
ATOM     78  C   UNL A   1      32.762  23.484  25.633  1.00  0.00     0.061 C 
ATOM     79  C   UNL A   1      34.035  24.271  25.235  1.00  0.00     0.053 C 
ATOM     80  C   UNL A   1      33.323  22.120  26.162  1.00  0.00     0.053 C 
ATOM     81  C   UNL A   1      35.029  23.205  24.899  1.00  0.00    -0.044 A 
ATOM     82  C   UNL A   1      34.651  21.996  25.478  1.00  0.00    -0.044 A 
ATOM     83  C   UNL A   1      36.267  23.370  24.302  1.00  0.00     0.004 A 
ATOM     84  C   UNL A   1      35.520  20.919  25.489  1.00  0.00     0.004 A 
ATOM     85  C   UNL A   1      37.146  22.288  24.300  1.00  0.00     0.000 A 
ATOM     86  C   UNL A   1      36.777  21.071  24.896  1.00  0.00     0.000 A 
BRANCH  78  87
ATOM     87  C   UNL A   1      31.874  23.329  24.352  1.00  0.00     0.053 C 
BRANCH  87  88
ATOM     88  C   UNL A   1      32.242  24.127  23.117  1.00  0.00    -0.044 A 
ATOM     89  C   UNL A   1      31.875  25.467  22.977  1.00  0.00     0.024 A 
ATOM     90  C   UNL A   1      32.978  23.538  22.083  1.00  0.00     0.024 A 
ATOM     91  C   UNL A   1      32.236  26.145  21.821  1.00  0.00     0.111 A 
ATOM     92  C   UNL A   1      33.295  24.300  20.966  1.00  0.00     0.111 A 
ATOM     93  N   UNL A   1      32.944  25.593  20.812  1.00  0.00    -0.265 NA
ENDBRANCH  87  88
ENDBRANCH  78  87
ENDBRANCH  75  78
ENDBRANCH  73  74
ENDBRANCH  72  73
ENDBRANCH   1  72
TORSDOF 16
ENDMDL
MODEL 3
REMARK VINA RESULT:     -12.3      1.438      2.351
REMARK SMILES O=C(NCCCCNC(=O)C1(Cc2ccncc2)Cc2ccccc2C1)c1ccc(-c2c3nc(c(-c4cccc(S(=O)(=O)[O-])c4F)c4ccc([nH]4)c(-c4cccc(S(=O)(=O)[O-])c4F)c4nc(c(-c5cccc(S(=O)(=O)[O-])c5F)c5ccc2[nH]5)C=C4)C=C3)cc1
REMARK SMILES IDX 5 1 4 2 3 3 1 4 2 5 27 7 28 8 89 9 29 10 88 11 30 12 31 13
REMARK SMILES IDX 32 14 82 15 33 16 87 17 81 18 83 19 34 20 86 21 80 22 79 23
REMARK SMILES IDX 35 25 67 26 47 27 66 28 48 29 51 30 65 31 84 32 49 33 50 34
REMARK SMILES IDX 64 36 85 37 52 38 36 39 37 40 45 41 38 42 40 43 46 44 39 45
REMARK SMILES IDX 41 46 42 47 43 48 44 49 68 50 69 51 77 52 70 53 72 54 78 55
REMARK SMILES IDX 71 56 73 57 74 58 75 59 76 60 53 61 54 62 62 63 55 64 57 65
REMARK SMILES IDX 63 66 56 67 58 68 59 69 60 70 61 71 6 72 7 73 8 74 9 75
REMARK SMILES IDX 10 77 11 78 19 79 26 80 20 81 25 82 21 83 24 84 22 85 23 86
REMARK SMILES IDX 12 87 13 88 14 89 18 90 15 91 17 92 16 93
REMARK H PARENT 3 6 83 24 51 35 8 76
REMARK Flexibility Score: inf
ROOT
ATOM      1  C   UNL A   1      32.120  28.059  25.497  1.00  0.00     0.023 C 
ENDROOT
BRANCH   1   2
ATOM      2  C   UNL A   1      33.067  29.256  25.516  1.00  0.00     0.116 C 
BRANCH   2   3
ATOM      3  N   UNL A   1      32.486  30.478  26.057  1.00  0.00    -0.352 N 
ATOM      4  O   UNL A   1      32.425  32.305  27.392  1.00  0.00    -0.269 OA
ATOM      5  C   UNL A   1      33.049  31.342  26.975  1.00  0.00     0.251 C 
ATOM      6  H   UNL A   1      31.588  30.715  25.730  1.00  0.00     0.163 HD
BRANCH   5   7
ATOM      7  C   UNL A   1      34.407  31.033  27.472  1.00  0.00     0.039 A 
ATOM      8  C   UNL A   1      34.734  29.721  27.814  1.00  0.00     0.014 A 
ATOM      9  C   UNL A   1      35.306  32.077  27.702  1.00  0.00     0.014 A 
ATOM     10  C   UNL A   1      35.885  29.478  28.548  1.00  0.00     0.010 A 
ATOM     11  C   UNL A   1      36.511  31.811  28.360  1.00  0.00     0.010 A 
ATOM     12  C   UNL A   1      36.788  30.519  28.830  1.00  0.00    -0.014 A 
BRANCH  12  13
ATOM     13  C   UNL A   1      38.034  30.196  29.571  1.00  0.00     0.031 A 
ATOM     14  C   UNL A   1      38.258  30.659  30.985  1.00  0.00     0.074 A 
ATOM     15  C   UNL A   1      38.949  29.420  28.959  1.00  0.00     0.049 A 
ATOM     16  N   UNL A   1      39.252  30.380  31.789  1.00  0.00    -0.248 NA
ATOM     17  C   UNL A   1      37.249  31.556  31.574  1.00  0.00     0.031 C 
ATOM     18  C   UNL A   1      38.860  28.961  27.571  1.00  0.00     0.029 A 
ATOM     19  N   UNL A   1      40.113  28.864  29.419  1.00  0.00    -0.354 N 
ATOM     20  C   UNL A   1      39.012  31.087  32.961  1.00  0.00     0.074 A 
ATOM     21  C   UNL A   1      37.778  31.819  32.763  1.00  0.00     0.031 C 
ATOM     22  C   UNL A   1      39.896  28.154  27.308  1.00  0.00     0.029 A 
ATOM     23  C   UNL A   1      40.747  28.076  28.489  1.00  0.00     0.049 A 
ATOM     24  H   UNL A   1      40.461  29.012  30.329  1.00  0.00     0.167 HD
ATOM     25  C   UNL A   1      39.743  31.109  34.102  1.00  0.00     0.034 A 
ATOM     26  C   UNL A   1      41.889  27.367  28.572  1.00  0.00     0.034 A 
ATOM     27  C   UNL A   1      40.948  30.346  34.305  1.00  0.00     0.049 A 
ATOM     28  C   UNL A   1      42.635  27.352  29.872  1.00  0.00     0.074 A 
ATOM     29  C   UNL A   1      41.745  30.279  35.435  1.00  0.00     0.029 A 
ATOM     30  N   UNL A   1      41.528  29.513  33.360  1.00  0.00    -0.354 N 
ATOM     31  N   UNL A   1      42.331  27.945  31.001  1.00  0.00    -0.248 NA
ATOM     32  C   UNL A   1      43.865  26.550  29.921  1.00  0.00     0.031 C 
ATOM     33  C   UNL A   1      42.806  29.405  35.173  1.00  0.00     0.029 A 
ATOM     34  C   UNL A   1      42.667  28.922  33.881  1.00  0.00     0.049 A 
ATOM     35  H   UNL A   1      41.181  29.364  32.451  1.00  0.00     0.167 HD
ATOM     36  C   UNL A   1      43.331  27.591  31.897  1.00  0.00     0.074 A 
ATOM     37  C   UNL A   1      44.222  26.689  31.192  1.00  0.00     0.031 C 
ATOM     38  C   UNL A   1      43.517  27.999  33.175  1.00  0.00     0.034 A 
BRANCH  25  39
ATOM     39  C   UNL A   1      39.232  31.938  35.252  1.00  0.00     0.023 A 
ATOM     40  C   UNL A   1      38.317  31.366  36.159  1.00  0.00     0.012 A 
ATOM     41  C   UNL A   1      39.716  33.242  35.488  1.00  0.00     0.148 A 
ATOM     42  C   UNL A   1      37.877  32.083  37.272  1.00  0.00     0.002 A 
ATOM     43  C   UNL A   1      39.298  33.937  36.619  1.00  0.00     0.091 A 
ATOM     44  F   UNL A   1      40.569  33.777  34.604  1.00  0.00    -0.205 F 
ATOM     45  C   UNL A   1      38.374  33.362  37.507  1.00  0.00     0.022 A 
BRANCH  43  46
ATOM     46  S   UNL A   1      39.932  35.564  37.046  1.00  0.00     0.127 S 
ATOM     47  O   UNL A   1      39.245  35.825  38.309  1.00  0.00    -0.237 OA
ATOM     48  O   UNL A   1      41.368  35.313  37.174  1.00  0.00    -0.237 OA
ATOM     49  O   UNL A   1      39.566  36.438  35.940  1.00  0.00    -0.744 OA
ENDBRANCH  43  46
ENDBRANCH  25  39
BRANCH  26  50
ATOM     50  C   UNL A   1      42.344  26.576  27.395  1.00  0.00     0.023 A 
ATOM     51  C   UNL A   1      43.167  27.178  26.426  1.00  0.00     0.012 A 
ATOM     52  C   UNL A   1      42.033  25.207  27.277  1.00  0.00     0.148 A 
ATOM     53  C   UNL A   1      43.660  26.434  25.353  1.00  0.00     0.002 A 
ATOM     54  C   UNL A   1      42.581  24.458  26.243  1.00  0.00     0.091 A 
ATOM     55  F   UNL A   1      41.228  24.652  28.196  1.00  0.00    -0.205 F 
ATOM     56  C   UNL A   1      43.381  25.071  25.270  1.00  0.00     0.022 A 
BRANCH  54  57
ATOM     57  S   UNL A   1      42.399  22.672  26.197  1.00  0.00     0.127 S 
ATOM     58  O   UNL A   1      43.110  22.262  27.403  1.00  0.00    -0.237 OA
ATOM     59  O   UNL A   1      40.945  22.500  26.250  1.00  0.00    -0.237 OA
ATOM     60  O   UNL A   1      42.992  22.271  24.927  1.00  0.00    -0.744 OA
ENDBRANCH  54  57
ENDBRANCH  26  50
BRANCH  38  61
ATOM     61  C   UNL A   1      44.740  27.484  33.883  1.00  0.00     0.023 A 
ATOM     62  C   UNL A   1      45.942  28.216  33.798  1.00  0.00     0.012 A 
ATOM     63  C   UNL A   1      44.697  26.309  34.655  1.00  0.00     0.148 A 
ATOM     64  C   UNL A   1      47.092  27.767  34.443  1.00  0.00     0.002 A 
ATOM     65  C   UNL A   1      45.839  25.888  35.328  1.00  0.00     0.091 A 
ATOM     66  F   UNL A   1      43.552  25.613  34.704  1.00  0.00    -0.205 F 
ATOM     67  C   UNL A   1      47.038  26.609  35.216  1.00  0.00     0.022 A 
BRANCH  65  68
ATOM     68  S   UNL A   1      45.827  24.450  36.403  1.00  0.00     0.127 S 
ATOM     69  O   UNL A   1      44.805  24.815  37.381  1.00  0.00    -0.237 OA
ATOM     70  O   UNL A   1      45.440  23.373  35.490  1.00  0.00    -0.237 OA
ATOM     71  O   UNL A   1      47.186  24.336  36.917  1.00  0.00    -0.744 OA
ENDBRANCH  65  68
ENDBRANCH  38  61
ENDBRANCH  12  13
ENDBRANCH   5   7
ENDBRANCH   2   3
ENDBRANCH   1   2
BRANCH   1  72
ATOM     72  C   UNL A   1      32.446  26.947  26.492  1.00  0.00     0.023 C 
BRANCH  72  73
ATOM     73  C   UNL A   1      32.347  25.541  25.922  1.00  0.00     0.116 C 
BRANCH  73  74
ATOM     74  N   UNL A   1      32.212  25.509  24.477  1.00  0.00    -0.356 N 
ATOM     75  C   UNL A   1      31.996  24.452  23.646  1.00  0.00     0.227 C 
ATOM     76  H   UNL A   1      32.286  26.384  24.031  1.00  0.00     0.163 HD
ATOM     77  O   UNL A   1      31.171  24.655  22.747  1.00  0.00    -0.274 OA
BRANCH  75  78
ATOM     78  C   UNL A   1      32.841  23.162  23.641  1.00  0.00     0.061 C 
ATOM     79  C   UNL A   1      32.980  22.419  24.992  1.00  0.00     0.053 C 
ATOM     80  C   UNL A   1      32.118  22.121  22.721  1.00  0.00     0.053 C 
ATOM     81  C   UNL A   1      33.014  20.974  24.608  1.00  0.00    -0.044 A 
ATOM     82  C   UNL A   1      32.469  20.801  23.339  1.00  0.00    -0.044 A 
ATOM     83  C   UNL A   1      33.318  19.896  25.423  1.00  0.00     0.004 A 
ATOM     84  C   UNL A   1      32.195  19.533  22.857  1.00  0.00     0.004 A 
ATOM     85  C   UNL A   1      33.055  18.614  24.943  1.00  0.00     0.000 A 
ATOM     86  C   UNL A   1      32.490  18.434  23.670  1.00  0.00     0.000 A 
BRANCH  78  87
ATOM     87  C   UNL A   1      34.281  23.528  23.145  1.00  0.00     0.053 C 
BRANCH  87  88
ATOM     88  C   UNL A   1      35.450  23.280  24.076  1.00  0.00    -0.044 A 
ATOM     89  C   UNL A   1      35.680  24.089  25.191  1.00  0.00     0.024 A 
ATOM     90  C   UNL A   1      36.330  22.217  23.847  1.00  0.00     0.024 A 
ATOM     91  C   UNL A   1      36.770  23.817  26.006  1.00  0.00     0.111 A 
ATOM     92  C   UNL A   1      37.391  22.021  24.721  1.00  0.00     0.111 A 
ATOM     93  N   UNL A   1      37.631  22.796  25.800  1.00  0.00    -0.265 NA
ENDBRANCH  87  88
ENDBRANCH  78  87
ENDBRANCH  75  78
ENDBRANCH  73  74
ENDBRANCH  72  73
ENDBRANCH   1  72
TORSDOF 16
ENDMDL
