MODEL 1
REMARK VINA RESULT:     -11.4      0.000      0.000
REMARK SMILES O=C(NCCCCNC(=O)c1cn2ccnc2s1)c1ccc(-c2c3nc(c(-c4cccc(S(=O)(=O)[O-])c4F)c4ccc([nH]4)c(-c4cccc(S(=O)(=O)[O-])c4F)c4nc(c(-c5cccc(S(=O)(=O)[O-])c5F)c5ccc2[nH]5)C=C4)C=C3)cc1
REMARK SMILES IDX 4 1 3 2 1 3 2 4 19 6 20 7 81 8 21 9 80 10 22 11 23 12 24 13
REMARK SMILES IDX 74 14 25 15 79 16 73 17 75 18 26 19 78 20 72 21 71 22 27 24
REMARK SMILES IDX 59 25 39 26 58 27 40 28 43 29 57 30 76 31 41 32 42 33 56 35
REMARK SMILES IDX 77 36 44 37 28 38 29 39 37 40 30 41 32 42 38 43 31 44 33 45
REMARK SMILES IDX 34 46 35 47 36 48 60 49 61 50 69 51 62 52 64 53 70 54 63 55
REMARK SMILES IDX 65 56 66 57 67 58 68 59 45 60 46 61 54 62 47 63 49 64 55 65
REMARK SMILES IDX 48 66 50 67 51 68 52 69 53 70 5 71 6 72 7 73 8 74 9 75 10 77
REMARK SMILES IDX 11 78 12 79 18 80 13 81 17 82 14 83 16 84 15 85
REMARK H PARENT 3 5 75 23 43 34 8 76
REMARK Flexibility Score: inf
ROOT
ATOM      1  C   UNL A   1      32.717  29.534  25.799  1.00  0.00     0.116 C 
ENDROOT
BRANCH   1   2
ATOM      2  N   UNL A   1      32.344  30.888  26.180  1.00  0.00    -0.352 N 
ATOM      3  O   UNL A   1      32.472  32.828  27.320  1.00  0.00    -0.269 OA
ATOM      4  C   UNL A   1      32.993  31.756  27.029  1.00  0.00     0.251 C 
ATOM      5  H   UNL A   1      31.514  31.231  25.774  1.00  0.00     0.163 HD
BRANCH   4   6
ATOM      6  C   UNL A   1      34.297  31.368  27.615  1.00  0.00     0.039 A 
ATOM      7  C   UNL A   1      34.524  30.057  28.032  1.00  0.00     0.014 A 
ATOM      8  C   UNL A   1      35.291  32.338  27.778  1.00  0.00     0.014 A 
ATOM      9  C   UNL A   1      35.668  29.754  28.760  1.00  0.00     0.010 A 
ATOM     10  C   UNL A   1      36.484  32.007  28.431  1.00  0.00     0.010 A 
ATOM     11  C   UNL A   1      36.665  30.724  28.967  1.00  0.00    -0.014 A 
BRANCH  11  12
ATOM     12  C   UNL A   1      37.902  30.335  29.695  1.00  0.00     0.031 A 
ATOM     13  C   UNL A   1      38.165  30.785  31.106  1.00  0.00     0.074 A 
ATOM     14  C   UNL A   1      38.777  29.518  29.074  1.00  0.00     0.049 A 
ATOM     15  N   UNL A   1      39.147  30.448  31.903  1.00  0.00    -0.248 NA
ATOM     16  C   UNL A   1      37.216  31.739  31.702  1.00  0.00     0.031 C 
ATOM     17  C   UNL A   1      38.660  29.065  27.686  1.00  0.00     0.029 A 
ATOM     18  N   UNL A   1      39.921  28.912  29.526  1.00  0.00    -0.354 N 
ATOM     19  C   UNL A   1      38.955  31.164  33.079  1.00  0.00     0.074 A 
ATOM     20  C   UNL A   1      37.766  31.969  32.888  1.00  0.00     0.031 C 
ATOM     21  C   UNL A   1      39.664  28.222  27.412  1.00  0.00     0.029 A 
ATOM     22  C   UNL A   1      40.519  28.104  28.589  1.00  0.00     0.049 A 
ATOM     23  H   UNL A   1      40.279  29.044  30.434  1.00  0.00     0.167 HD
ATOM     24  C   UNL A   1      39.685  31.135  34.219  1.00  0.00     0.034 A 
ATOM     25  C   UNL A   1      41.631  27.348  28.663  1.00  0.00     0.034 A 
ATOM     26  C   UNL A   1      40.845  30.306  34.419  1.00  0.00     0.049 A 
ATOM     27  C   UNL A   1      42.382  27.287  29.961  1.00  0.00     0.074 A 
ATOM     28  C   UNL A   1      41.632  30.185  35.552  1.00  0.00     0.029 A 
ATOM     29  N   UNL A   1      41.384  29.453  33.468  1.00  0.00    -0.354 N 
ATOM     30  N   UNL A   1      42.109  27.879  31.099  1.00  0.00    -0.248 NA
ATOM     31  C   UNL A   1      43.575  26.429  29.998  1.00  0.00     0.031 C 
ATOM     32  C   UNL A   1      42.647  29.258  35.285  1.00  0.00     0.029 A 
ATOM     33  C   UNL A   1      42.487  28.798  33.988  1.00  0.00     0.049 A 
ATOM     34  H   UNL A   1      41.033  29.332  32.556  1.00  0.00     0.167 HD
ATOM     35  C   UNL A   1      43.090  27.462  31.988  1.00  0.00     0.074 A 
ATOM     36  C   UNL A   1      43.937  26.531  31.269  1.00  0.00     0.031 C 
ATOM     37  C   UNL A   1      43.292  27.841  33.274  1.00  0.00     0.034 A 
BRANCH  24  38
ATOM     38  C   UNL A   1      39.217  31.980  35.377  1.00  0.00     0.023 A 
ATOM     39  C   UNL A   1      38.330  31.421  36.318  1.00  0.00     0.012 A 
ATOM     40  C   UNL A   1      39.710  33.284  35.581  1.00  0.00     0.148 A 
ATOM     41  C   UNL A   1      37.926  32.151  37.436  1.00  0.00     0.002 A 
ATOM     42  C   UNL A   1      39.329  33.994  36.716  1.00  0.00     0.091 A 
ATOM     43  F   UNL A   1      40.537  33.808  34.664  1.00  0.00    -0.205 F 
ATOM     44  C   UNL A   1      38.433  33.432  37.640  1.00  0.00     0.022 A 
BRANCH  42  45
ATOM     45  S   UNL A   1      39.981  35.624  37.104  1.00  0.00     0.127 S 
ATOM     46  O   UNL A   1      39.268  35.939  38.341  1.00  0.00    -0.237 OA
ATOM     47  O   UNL A   1      41.409  35.355  37.276  1.00  0.00    -0.237 OA
ATOM     48  O   UNL A   1      39.657  36.465  35.961  1.00  0.00    -0.744 OA
ENDBRANCH  42  45
ENDBRANCH  24  38
BRANCH  25  49
ATOM     49  C   UNL A   1      42.050  26.544  27.481  1.00  0.00     0.023 A 
ATOM     50  C   UNL A   1      42.844  27.136  26.482  1.00  0.00     0.012 A 
ATOM     51  C   UNL A   1      41.725  25.178  27.379  1.00  0.00     0.148 A 
ATOM     52  C   UNL A   1      43.290  26.387  25.392  1.00  0.00     0.002 A 
ATOM     53  C   UNL A   1      42.224  24.423  26.325  1.00  0.00     0.091 A 
ATOM     54  F   UNL A   1      40.948  24.632  28.326  1.00  0.00    -0.205 F 
ATOM     55  C   UNL A   1      42.993  25.028  25.321  1.00  0.00     0.022 A 
BRANCH  53  56
ATOM     56  S   UNL A   1      42.016  22.639  26.277  1.00  0.00     0.127 S 
ATOM     57  O   UNL A   1      42.673  22.292  25.021  1.00  0.00    -0.237 OA
ATOM     58  O   UNL A   1      42.725  22.207  27.483  1.00  0.00    -0.237 OA
ATOM     59  O   UNL A   1      40.575  22.430  26.334  1.00  0.00    -0.744 OA
ENDBRANCH  53  56
ENDBRANCH  25  49
BRANCH  37  60
ATOM     60  C   UNL A   1      44.481  27.250  33.982  1.00  0.00     0.023 A 
ATOM     61  C   UNL A   1      45.733  27.884  33.872  1.00  0.00     0.012 A 
ATOM     62  C   UNL A   1      44.354  26.102  34.787  1.00  0.00     0.148 A 
ATOM     63  C   UNL A   1      46.851  27.367  34.525  1.00  0.00     0.002 A 
ATOM     64  C   UNL A   1      45.465  25.614  35.468  1.00  0.00     0.091 A 
ATOM     65  F   UNL A   1      43.159  25.496  34.860  1.00  0.00    -0.205 F 
ATOM     66  C   UNL A   1      46.715  26.239  35.330  1.00  0.00     0.022 A 
BRANCH  64  67
ATOM     67  S   UNL A   1      45.352  24.211  36.583  1.00  0.00     0.127 S 
ATOM     68  O   UNL A   1      46.746  24.033  36.984  1.00  0.00    -0.237 OA
ATOM     69  O   UNL A   1      44.474  24.716  37.640  1.00  0.00    -0.237 OA
ATOM     70  O   UNL A   1      44.776  23.129  35.795  1.00  0.00    -0.744 OA
ENDBRANCH  64  67
ENDBRANCH  37  60
ENDBRANCH  11  12
ENDBRANCH   4   6
ENDBRANCH   1   2
BRANCH   1  71
ATOM     71  C   UNL A   1      31.704  28.481  26.230  1.00  0.00     0.023 C 
BRANCH  71  72
ATOM     72  C   UNL A   1      32.195  27.037  26.182  1.00  0.00     0.023 C 
BRANCH  72  73
ATOM     73  C   UNL A   1      31.101  25.977  26.277  1.00  0.00     0.116 C 
BRANCH  73  74
ATOM     74  N   UNL A   1      31.147  25.025  25.178  1.00  0.00    -0.351 N 
ATOM     75  C   UNL A   1      30.680  25.148  23.899  1.00  0.00     0.263 C 
ATOM     76  H   UNL A   1      31.579  24.165  25.386  1.00  0.00     0.163 HD
ATOM     77  O   UNL A   1      30.726  24.198  23.125  1.00  0.00    -0.268 OA
BRANCH  75  78
ATOM     78  C   UNL A   1      30.134  26.452  23.481  1.00  0.00     0.112 A 
ATOM     79  C   UNL A   1      28.899  26.911  23.745  1.00  0.00     0.118 A 
ATOM     80  S   UNL A   1      31.116  27.547  22.507  1.00  0.00    -0.091 S 
ATOM     81  N   UNL A   1      28.688  28.114  23.120  1.00  0.00    -0.297 N 
ATOM     82  C   UNL A   1      29.743  28.608  22.413  1.00  0.00     0.194 A 
ATOM     83  C   UNL A   1      27.648  28.975  22.952  1.00  0.00     0.114 A 
ATOM     84  N   UNL A   1      29.479  29.721  21.791  1.00  0.00    -0.227 NA
ATOM     85  C   UNL A   1      28.158  29.962  22.123  1.00  0.00     0.133 A 
ENDBRANCH  75  78
ENDBRANCH  73  74
ENDBRANCH  72  73
ENDBRANCH  71  72
ENDBRANCH   1  71
TORSDOF 14
ENDMDL
MODEL 2
REMARK VINA RESULT:     -11.2      1.170      2.330
REMARK SMILES O=C(NCCCCNC(=O)c1cn2ccnc2s1)c1ccc(-c2c3nc(c(-c4cccc(S(=O)(=O)[O-])c4F)c4ccc([nH]4)c(-c4cccc(S(=O)(=O)[O-])c4F)c4nc(c(-c5cccc(S(=O)(=O)[O-])c5F)c5ccc2[nH]5)C=C4)C=C3)cc1
REMARK SMILES IDX 4 1 3 2 1 3 2 4 19 6 20 7 81 8 21 9 80 10 22 11 23 12 24 13
REMARK SMILES IDX 74 14 25 15 79 16 73 17 75 18 26 19 78 20 72 21 71 22 27 24
REMARK SMILES IDX 59 25 39 26 58 27 40 28 43 29 57 30 76 31 41 32 42 33 56 35
REMARK SMILES IDX 77 36 44 37 28 38 29 39 37 40 30 41 32 42 38 43 31 44 33 45
REMARK SMILES IDX 34 46 35 47 36 48 60 49 61 50 69 51 62 52 64 53 70 54 63 55
REMARK SMILES IDX 65 56 66 57 67 58 68 59 45 60 46 61 54 62 47 63 49 64 55 65
REMARK SMILES IDX 48 66 50 67 51 68 52 69 53 70 5 71 6 72 7 73 8 74 9 75 10 77
REMARK SMILES IDX 11 78 12 79 18 80 13 81 17 82 14 83 16 84 15 85
REMARK H PARENT 3 5 75 23 43 34 8 76
REMARK Flexibility Score: inf
ROOT
ATOM      1  C   UNL A   1      33.284  29.275  25.074  1.00  0.00     0.116 C 
ENDROOT
BRANCH   1   2
ATOM      2  N   UNL A   1      32.648  30.420  25.706  1.00  0.00    -0.352 N 
ATOM      3  O   UNL A   1      32.347  32.029  27.256  1.00  0.00    -0.269 OA
ATOM      4  C   UNL A   1      33.073  31.156  26.790  1.00  0.00     0.251 C 
ATOM      5  H   UNL A   1      31.796  30.710  25.304  1.00  0.00     0.163 HD
BRANCH   4   6
ATOM      6  C   UNL A   1      34.386  30.858  27.406  1.00  0.00     0.039 A 
ATOM      7  C   UNL A   1      34.707  29.557  27.795  1.00  0.00     0.014 A 
ATOM      8  C   UNL A   1      35.293  31.900  27.626  1.00  0.00     0.014 A 
ATOM      9  C   UNL A   1      35.851  29.328  28.551  1.00  0.00     0.010 A 
ATOM     10  C   UNL A   1      36.489  31.648  28.308  1.00  0.00     0.010 A 
ATOM     11  C   UNL A   1      36.759  30.369  28.815  1.00  0.00    -0.014 A 
BRANCH  11  12
ATOM     12  C   UNL A   1      38.001  30.060  29.570  1.00  0.00     0.031 A 
ATOM     13  C   UNL A   1      38.235  30.589  30.960  1.00  0.00     0.074 A 
ATOM     14  C   UNL A   1      38.910  29.245  28.998  1.00  0.00     0.049 A 
ATOM     15  N   UNL A   1      39.221  30.326  31.780  1.00  0.00    -0.248 NA
ATOM     16  C   UNL A   1      37.247  31.537  31.500  1.00  0.00     0.031 C 
ATOM     17  C   UNL A   1      38.822  28.720  27.633  1.00  0.00     0.029 A 
ATOM     18  N   UNL A   1      40.070  28.703  29.489  1.00  0.00    -0.354 N 
ATOM     19  C   UNL A   1      38.992  31.093  32.917  1.00  0.00     0.074 A 
ATOM     20  C   UNL A   1      37.778  31.845  32.677  1.00  0.00     0.031 C 
ATOM     21  C   UNL A   1      39.858  27.900  27.410  1.00  0.00     0.029 A 
ATOM     22  C   UNL A   1      40.705  27.871  28.598  1.00  0.00     0.049 A 
ATOM     23  H   UNL A   1      40.415  28.892  30.391  1.00  0.00     0.167 HD
ATOM     24  C   UNL A   1      39.713  31.147  34.063  1.00  0.00     0.034 A 
ATOM     25  C   UNL A   1      41.842  27.159  28.718  1.00  0.00     0.034 A 
ATOM     26  C   UNL A   1      40.899  30.370  34.313  1.00  0.00     0.049 A 
ATOM     27  C   UNL A   1      42.582  27.189  30.023  1.00  0.00     0.074 A 
ATOM     28  C   UNL A   1      41.679  30.333  35.457  1.00  0.00     0.029 A 
ATOM     29  N   UNL A   1      41.476  29.490  33.410  1.00  0.00    -0.354 N 
ATOM     30  N   UNL A   1      42.278  27.827  31.128  1.00  0.00    -0.248 NA
ATOM     31  C   UNL A   1      43.804  26.377  30.112  1.00  0.00     0.031 C 
ATOM     32  C   UNL A   1      42.727  29.430  35.244  1.00  0.00     0.029 A 
ATOM     33  C   UNL A   1      42.597  28.901  33.970  1.00  0.00     0.049 A 
ATOM     34  H   UNL A   1      41.138  29.311  32.503  1.00  0.00     0.167 HD
ATOM     35  C   UNL A   1      43.264  27.489  32.044  1.00  0.00     0.074 A 
ATOM     36  C   UNL A   1      44.150  26.555  31.380  1.00  0.00     0.031 C 
ATOM     37  C   UNL A   1      43.441  27.938  33.311  1.00  0.00     0.034 A 
BRANCH  24  38
ATOM     38  C   UNL A   1      39.204  32.031  35.173  1.00  0.00     0.023 A 
ATOM     39  C   UNL A   1      38.224  31.530  36.053  1.00  0.00     0.012 A 
ATOM     40  C   UNL A   1      39.745  33.311  35.398  1.00  0.00     0.148 A 
ATOM     41  C   UNL A   1      37.777  32.296  37.130  1.00  0.00     0.002 A 
ATOM     42  C   UNL A   1      39.319  34.056  36.494  1.00  0.00     0.091 A 
ATOM     43  F   UNL A   1      40.662  33.780  34.538  1.00  0.00    -0.205 F 
ATOM     44  C   UNL A   1      38.331  33.553  37.356  1.00  0.00     0.022 A 
BRANCH  42  45
ATOM     45  S   UNL A   1      40.021  35.658  36.910  1.00  0.00     0.127 S 
ATOM     46  O   UNL A   1      39.653  36.453  35.740  1.00  0.00    -0.237 OA
ATOM     47  O   UNL A   1      39.300  36.005  38.135  1.00  0.00    -0.237 OA
ATOM     48  O   UNL A   1      41.448  35.432  37.092  1.00  0.00    -0.744 OA
ENDBRANCH  42  45
ENDBRANCH  24  38
BRANCH  25  49
ATOM     49  C   UNL A   1      42.300  26.313  27.581  1.00  0.00     0.023 A 
ATOM     50  C   UNL A   1      43.221  26.832  26.653  1.00  0.00     0.012 A 
ATOM     51  C   UNL A   1      41.881  24.974  27.456  1.00  0.00     0.148 A 
ATOM     52  C   UNL A   1      43.702  26.040  25.610  1.00  0.00     0.002 A 
ATOM     53  C   UNL A   1      42.412  24.173  26.453  1.00  0.00     0.091 A 
ATOM     54  F   UNL A   1      40.985  24.500  28.334  1.00  0.00    -0.205 F 
ATOM     55  C   UNL A   1      43.310  24.706  25.518  1.00  0.00     0.022 A 
BRANCH  53  56
ATOM     56  S   UNL A   1      42.073  22.409  26.395  1.00  0.00     0.127 S 
ATOM     57  O   UNL A   1      42.807  22.000  25.202  1.00  0.00    -0.237 OA
ATOM     58  O   UNL A   1      42.639  21.938  27.660  1.00  0.00    -0.237 OA
ATOM     59  O   UNL A   1      40.621  22.310  26.327  1.00  0.00    -0.744 OA
ENDBRANCH  53  56
ENDBRANCH  25  49
BRANCH  37  60
ATOM     60  C   UNL A   1      44.643  27.426  34.058  1.00  0.00     0.023 A 
ATOM     61  C   UNL A   1      45.856  28.138  33.981  1.00  0.00     0.012 A 
ATOM     62  C   UNL A   1      44.565  26.275  34.864  1.00  0.00     0.148 A 
ATOM     63  C   UNL A   1      46.983  27.694  34.670  1.00  0.00     0.002 A 
ATOM     64  C   UNL A   1      45.683  25.860  35.579  1.00  0.00     0.091 A 
ATOM     65  F   UNL A   1      43.408  25.594  34.904  1.00  0.00    -0.205 F 
ATOM     66  C   UNL A   1      46.895  26.562  35.476  1.00  0.00     0.022 A 
BRANCH  64  67
ATOM     67  S   UNL A   1      45.625  24.455  36.698  1.00  0.00     0.127 S 
ATOM     68  O   UNL A   1      45.358  23.351  35.779  1.00  0.00    -0.237 OA
ATOM     69  O   UNL A   1      46.969  24.455  37.277  1.00  0.00    -0.237 OA
ATOM     70  O   UNL A   1      44.565  24.758  37.651  1.00  0.00    -0.744 OA
ENDBRANCH  64  67
ENDBRANCH  37  60
ENDBRANCH  11  12
ENDBRANCH   4   6
ENDBRANCH   1   2
BRANCH   1  71
ATOM     71  C   UNL A   1      32.728  28.957  23.692  1.00  0.00     0.023 C 
BRANCH  71  72
ATOM     72  C   UNL A   1      31.206  28.917  23.588  1.00  0.00     0.023 C 
BRANCH  72  73
ATOM     73  C   UNL A   1      30.643  27.771  22.752  1.00  0.00     0.116 C 
BRANCH  73  74
ATOM     74  N   UNL A   1      31.641  27.170  21.881  1.00  0.00    -0.351 N 
ATOM     75  C   UNL A   1      32.417  26.062  22.079  1.00  0.00     0.263 C 
ATOM     76  H   UNL A   1      31.777  27.629  21.020  1.00  0.00     0.163 HD
ATOM     77  O   UNL A   1      33.278  25.751  21.263  1.00  0.00    -0.268 OA
BRANCH  75  78
ATOM     78  C   UNL A   1      32.180  25.254  23.288  1.00  0.00     0.112 A 
ATOM     79  C   UNL A   1      32.938  25.253  24.398  1.00  0.00     0.118 A 
ATOM     80  S   UNL A   1      30.820  24.132  23.345  1.00  0.00    -0.091 S 
ATOM     81  N   UNL A   1      32.490  24.309  25.287  1.00  0.00    -0.297 N 
ATOM     82  C   UNL A   1      31.383  23.612  24.904  1.00  0.00     0.194 A 
ATOM     83  C   UNL A   1      32.891  23.807  26.485  1.00  0.00     0.114 A 
ATOM     84  N   UNL A   1      31.028  22.689  25.752  1.00  0.00    -0.227 NA
ATOM     85  C   UNL A   1      31.974  22.802  26.754  1.00  0.00     0.133 A 
ENDBRANCH  75  78
ENDBRANCH  73  74
ENDBRANCH  72  73
ENDBRANCH  71  72
ENDBRANCH   1  71
TORSDOF 14
ENDMDL
MODEL 3
REMARK VINA RESULT:     -11.2      1.759      2.894
REMARK SMILES O=C(NCCCCNC(=O)c1cn2ccnc2s1)c1ccc(-c2c3nc(c(-c4cccc(S(=O)(=O)[O-])c4F)c4ccc([nH]4)c(-c4cccc(S(=O)(=O)[O-])c4F)c4nc(c(-c5cccc(S(=O)(=O)[O-])c5F)c5ccc2[nH]5)C=C4)C=C3)cc1
REMARK SMILES IDX 4 1 3 2 1 3 2 4 19 6 20 7 81 8 21 9 80 10 22 11 23 12 24 13
REMARK SMILES IDX 74 14 25 15 79 16 73 17 75 18 26 19 78 20 72 21 71 22 27 24
REMARK SMILES IDX 59 25 39 26 58 27 40 28 43 29 57 30 76 31 41 32 42 33 56 35
REMARK SMILES IDX 77 36 44 37 28 38 29 39 37 40 30 41 32 42 38 43 31 44 33 45
REMARK SMILES IDX 34 46 35 47 36 48 60 49 61 50 69 51 62 52 64 53 70 54 63 55
REMARK SMILES IDX 65 56 66 57 67 58 68 59 45 60 46 61 54 62 47 63 49 64 55 65
REMARK SMILES IDX 48 66 50 67 51 68 52 69 53 70 5 71 6 72 7 73 8 74 9 75 10 77
REMARK SMILES IDX 11 78 12 79 18 80 13 81 17 82 14 83 16 84 15 85
REMARK H PARENT 3 5 75 23 43 34 8 76
REMARK Flexibility Score: inf
ROOT
ATOM      1  C   UNL A   1      32.839  28.928  25.703  1.00  0.00     0.116 C 
ENDROOT
BRANCH   1   2
ATOM      2  N   UNL A   1      32.393  30.263  26.072  1.00  0.00    -0.352 N 
ATOM      3  O   UNL A   1      32.415  32.216  27.195  1.00  0.00    -0.269 OA
ATOM      4  C   UNL A   1      32.993  31.172  26.914  1.00  0.00     0.251 C 
ATOM      5  H   UNL A   1      31.547  30.557  25.663  1.00  0.00     0.163 HD
BRANCH   4   6
ATOM      6  C   UNL A   1      34.316  30.860  27.503  1.00  0.00     0.039 A 
ATOM      7  C   UNL A   1      34.611  29.567  27.936  1.00  0.00     0.014 A 
ATOM      8  C   UNL A   1      35.258  31.882  27.655  1.00  0.00     0.014 A 
ATOM      9  C   UNL A   1      35.770  29.334  28.668  1.00  0.00     0.010 A 
ATOM     10  C   UNL A   1      36.467  31.622  28.311  1.00  0.00     0.010 A 
ATOM     11  C   UNL A   1      36.715  30.357  28.863  1.00  0.00    -0.014 A 
BRANCH  11  12
ATOM     12  C   UNL A   1      37.970  30.042  29.594  1.00  0.00     0.031 A 
ATOM     13  C   UNL A   1      38.224  30.552  30.987  1.00  0.00     0.074 A 
ATOM     14  C   UNL A   1      38.872  29.238  28.996  1.00  0.00     0.049 A 
ATOM     15  N   UNL A   1      39.224  30.281  31.788  1.00  0.00    -0.248 NA
ATOM     16  C   UNL A   1      37.242  31.489  31.555  1.00  0.00     0.031 C 
ATOM     17  C   UNL A   1      38.764  28.732  27.626  1.00  0.00     0.029 A 
ATOM     18  N   UNL A   1      40.041  28.693  29.461  1.00  0.00    -0.354 N 
ATOM     19  C   UNL A   1      39.010  31.031  32.939  1.00  0.00     0.074 A 
ATOM     20  C   UNL A   1      37.791  31.782  32.728  1.00  0.00     0.031 C 
ATOM     21  C   UNL A   1      39.799  27.918  27.375  1.00  0.00     0.029 A 
ATOM     22  C   UNL A   1      40.665  27.876  28.549  1.00  0.00     0.049 A 
ATOM     23  H   UNL A   1      40.400  28.871  30.360  1.00  0.00     0.167 HD
ATOM     24  C   UNL A   1      39.749  31.072  34.074  1.00  0.00     0.034 A 
ATOM     25  C   UNL A   1      41.806  27.166  28.641  1.00  0.00     0.034 A 
ATOM     26  C   UNL A   1      40.941  30.295  34.294  1.00  0.00     0.049 A 
ATOM     27  C   UNL A   1      42.566  27.180  29.934  1.00  0.00     0.074 A 
ATOM     28  C   UNL A   1      41.739  30.245  35.425  1.00  0.00     0.029 A 
ATOM     29  N   UNL A   1      41.507  29.430  33.370  1.00  0.00    -0.354 N 
ATOM     30  N   UNL A   1      42.277  27.802  31.052  1.00  0.00    -0.248 NA
ATOM     31  C   UNL A   1      43.792  26.371  29.993  1.00  0.00     0.031 C 
ATOM     32  C   UNL A   1      42.787  29.349  35.184  1.00  0.00     0.029 A 
ATOM     33  C   UNL A   1      42.638  28.837  33.904  1.00  0.00     0.049 A 
ATOM     34  H   UNL A   1      41.155  29.263  32.466  1.00  0.00     0.167 HD
ATOM     35  C   UNL A   1      43.279  27.455  31.948  1.00  0.00     0.074 A 
ATOM     36  C   UNL A   1      44.158  26.532  31.257  1.00  0.00     0.031 C 
ATOM     37  C   UNL A   1      43.474  27.887  33.219  1.00  0.00     0.034 A 
BRANCH  24  38
ATOM     38  C   UNL A   1      39.255  31.939  35.204  1.00  0.00     0.023 A 
ATOM     39  C   UNL A   1      38.324  31.408  36.119  1.00  0.00     0.012 A 
ATOM     40  C   UNL A   1      39.765  33.235  35.412  1.00  0.00     0.148 A 
ATOM     41  C   UNL A   1      37.894  32.158  37.213  1.00  0.00     0.002 A 
ATOM     42  C   UNL A   1      39.357  33.965  36.525  1.00  0.00     0.091 A 
ATOM     43  F   UNL A   1      40.635  33.732  34.520  1.00  0.00    -0.205 F 
ATOM     44  C   UNL A   1      38.418  33.431  37.421  1.00  0.00     0.022 A 
BRANCH  42  45
ATOM     45  S   UNL A   1      40.026  35.587  36.918  1.00  0.00     0.127 S 
ATOM     46  O   UNL A   1      39.368  35.875  38.192  1.00  0.00    -0.237 OA
ATOM     47  O   UNL A   1      41.460  35.315  37.021  1.00  0.00    -0.237 OA
ATOM     48  O   UNL A   1      39.652  36.452  35.809  1.00  0.00    -0.744 OA
ENDBRANCH  42  45
ENDBRANCH  24  38
BRANCH  25  49
ATOM     49  C   UNL A   1      42.249  26.337  27.485  1.00  0.00     0.023 A 
ATOM     50  C   UNL A   1      43.103  26.894  26.516  1.00  0.00     0.012 A 
ATOM     51  C   UNL A   1      41.884  24.981  27.381  1.00  0.00     0.148 A 
ATOM     52  C   UNL A   1      43.570  26.120  25.452  1.00  0.00     0.002 A 
ATOM     53  C   UNL A   1      42.403  24.200  26.356  1.00  0.00     0.091 A 
ATOM     54  F   UNL A   1      41.050  24.470  28.299  1.00  0.00    -0.205 F 
ATOM     55  C   UNL A   1      43.233  24.770  25.380  1.00  0.00     0.022 A 
BRANCH  53  56
ATOM     56  S   UNL A   1      42.139  22.423  26.315  1.00  0.00     0.127 S 
ATOM     57  O   UNL A   1      40.695  22.337  26.126  1.00  0.00    -0.237 OA
ATOM     58  O   UNL A   1      42.939  22.013  25.160  1.00  0.00    -0.237 OA
ATOM     59  O   UNL A   1      42.655  21.940  27.589  1.00  0.00    -0.744 OA
ENDBRANCH  53  56
ENDBRANCH  25  49
BRANCH  37  60
ATOM     60  C   UNL A   1      44.690  27.368  33.939  1.00  0.00     0.023 A 
ATOM     61  C   UNL A   1      45.892  28.099  33.876  1.00  0.00     0.012 A 
ATOM     62  C   UNL A   1      44.634  26.190  34.708  1.00  0.00     0.148 A 
ATOM     63  C   UNL A   1      47.031  27.650  34.541  1.00  0.00     0.002 A 
ATOM     64  C   UNL A   1      45.764  25.769  35.401  1.00  0.00     0.091 A 
ATOM     65  F   UNL A   1      43.488  25.493  34.735  1.00  0.00    -0.205 F 
ATOM     66  C   UNL A   1      46.965  26.491  35.311  1.00  0.00     0.022 A 
BRANCH  64  67
ATOM     67  S   UNL A   1      45.735  24.329  36.474  1.00  0.00     0.127 S 
ATOM     68  O   UNL A   1      46.945  24.524  37.270  1.00  0.00    -0.237 OA
ATOM     69  O   UNL A   1      44.485  24.508  37.213  1.00  0.00    -0.237 OA
ATOM     70  O   UNL A   1      45.742  23.176  35.583  1.00  0.00    -0.744 OA
ENDBRANCH  64  67
ENDBRANCH  37  60
ENDBRANCH  11  12
ENDBRANCH   4   6
ENDBRANCH   1   2
BRANCH   1  71
ATOM     71  C   UNL A   1      31.728  28.051  25.139  1.00  0.00     0.023 C 
BRANCH  71  72
ATOM     72  C   UNL A   1      31.096  27.073  26.126  1.00  0.00     0.023 C 
BRANCH  72  73
ATOM     73  C   UNL A   1      30.890  25.658  25.595  1.00  0.00     0.116 C 
BRANCH  73  74
ATOM     74  N   UNL A   1      30.126  24.822  26.508  1.00  0.00    -0.351 N 
ATOM     75  C   UNL A   1      30.330  23.521  26.877  1.00  0.00     0.263 C 
ATOM     76  H   UNL A   1      29.347  25.258  26.923  1.00  0.00     0.163 HD
ATOM     77  O   UNL A   1      29.524  22.945  27.598  1.00  0.00    -0.268 OA
BRANCH  75  78
ATOM     78  C   UNL A   1      31.547  22.845  26.393  1.00  0.00     0.112 A 
ATOM     79  C   UNL A   1      31.614  21.980  25.366  1.00  0.00     0.118 A 
ATOM     80  S   UNL A   1      33.087  23.111  27.210  1.00  0.00    -0.091 S 
ATOM     81  N   UNL A   1      32.878  21.461  25.253  1.00  0.00    -0.297 N 
ATOM     82  C   UNL A   1      33.794  21.935  26.145  1.00  0.00     0.194 A 
ATOM     83  C   UNL A   1      33.499  20.516  24.497  1.00  0.00     0.114 A 
ATOM     84  N   UNL A   1      34.965  21.373  26.038  1.00  0.00    -0.227 NA
ATOM     85  C   UNL A   1      34.789  20.474  25.001  1.00  0.00     0.133 A 
ENDBRANCH  75  78
ENDBRANCH  73  74
ENDBRANCH  72  73
ENDBRANCH  71  72
ENDBRANCH   1  71
TORSDOF 14
ENDMDL
