MODEL 1
REMARK VINA RESULT:     -11.1      0.000      0.000
REMARK SMILES C/C(=N\Nc1nc(-c2ccc(Cl)cc2)cs1)c1nnn(-c2ccc(C(=O)NCCCCNC(=O)c3ccc(-c4c5nc(c(-c6cccc(S(=O)(=O)[O-])c6F)c6ccc([nH]6)c(-c6cccc(S(=O)(=O)[O-])c6F)c6nc(c(-c7cccc(S(=O)(=O)[O-])c7F)c7ccc4[nH]7)C=C6)C=C5)cc3)cc2)c1C
REMARK SMILES IDX 28 1 27 2 25 3 26 4 24 6 21 7 22 8 99 9 23 10 98 11 20 12
REMARK SMILES IDX 17 13 18 14 100 15 19 16 101 17 2 18 1 19 3 20 4 21 5 23
REMARK SMILES IDX 6 24 16 25 7 26 15 27 8 28 9 29 14 30 10 31 13 32 11 33
REMARK SMILES IDX 12 34 29 35 30 36 31 37 32 38 33 39 34 41 35 42 36 43 97 44
REMARK SMILES IDX 37 45 96 46 38 47 39 48 40 49 90 50 41 51 95 52 89 53 91 54
REMARK SMILES IDX 42 55 94 56 88 57 87 58 43 60 75 61 55 62 74 63 56 64 59 65
REMARK SMILES IDX 73 66 92 67 57 68 58 69 72 71 93 72 60 73 44 74 45 75 53 76
REMARK SMILES IDX 46 77 48 78 54 79 47 80 49 81 50 82 51 83 52 84 76 85 77 86
REMARK SMILES IDX 85 87 78 88 80 89 86 90 79 91 81 92 82 93 83 94 84 95 61 96
REMARK SMILES IDX 62 97 70 98 63 99 65 100 71 101 64 102 66 103 67 104 68 105
REMARK SMILES IDX 69 106
REMARK H PARENT 27 5 4 22 32 40 91 59 59 70
REMARK Flexibility Score: inf
ROOT
ATOM      1  C   UNL A   1      35.991  33.470  34.099  1.00  0.00     0.116 C 
ENDROOT
BRANCH   1   2
ATOM      2  N   UNL A   1      36.637  32.180  34.274  1.00  0.00    -0.352 N 
ATOM      3  C   UNL A   1      37.850  31.677  33.869  1.00  0.00     0.251 C 
ATOM      4  O   UNL A   1      38.105  30.501  34.130  1.00  0.00    -0.269 OA
ATOM      5  H   UNL A   1      36.096  31.537  34.786  1.00  0.00     0.163 HD
BRANCH   3   6
ATOM      6  C   UNL A   1      38.882  32.481  33.152  1.00  0.00     0.039 A 
ATOM      7  C   UNL A   1      40.658  34.016  31.634  1.00  0.00     0.067 A 
ATOM      8  C   UNL A   1      39.379  34.511  31.875  1.00  0.00     0.029 A 
ATOM      9  C   UNL A   1      41.089  32.823  32.215  1.00  0.00     0.029 A 
ATOM     10  C   UNL A   1      38.487  33.724  32.615  1.00  0.00     0.016 A 
ATOM     11  C   UNL A   1      40.210  32.083  32.998  1.00  0.00     0.016 A 
BRANCH   7  12
ATOM     12  N   UNL A   1      41.490  34.630  30.686  1.00  0.00    -0.217 N 
ATOM     13  C   UNL A   1      42.283  35.586  28.904  1.00  0.00     0.132 A 
ATOM     14  N   UNL A   1      43.280  35.511  29.839  1.00  0.00    -0.128 NA
ATOM     15  C   UNL A   1      41.131  35.004  29.408  1.00  0.00     0.071 A 
ATOM     16  N   UNL A   1      42.761  34.997  30.950  1.00  0.00    -0.061 NA
ATOM     17  C   UNL A   1      39.740  34.944  28.876  1.00  0.00     0.069 C 
BRANCH  13  18
ATOM     18  C   UNL A   1      42.371  36.343  27.666  1.00  0.00     0.087 C 
ATOM     19  C   UNL A   1      42.773  35.518  26.465  1.00  0.00     0.071 C 
ATOM     20  N   UNL A   1      42.149  37.628  27.737  1.00  0.00    -0.176 NA
BRANCH  20  21
ATOM     21  N   UNL A   1      42.324  38.473  26.661  1.00  0.00    -0.252 N 
ATOM     22  H   UNL A   1      42.193  38.059  25.777  1.00  0.00     0.193 HD
BRANCH  21  23
ATOM     23  C   UNL A   1      42.650  39.791  26.639  1.00  0.00     0.203 A 
ATOM     24  N   UNL A   1      42.468  40.608  25.629  1.00  0.00    -0.219 NA
ATOM     25  S   UNL A   1      43.524  40.501  27.954  1.00  0.00    -0.103 S 
ATOM     26  C   UNL A   1      43.353  41.664  25.709  1.00  0.00     0.084 A 
ATOM     27  C   UNL A   1      44.026  41.773  26.907  1.00  0.00     0.097 A 
BRANCH  26  28
ATOM     28  C   UNL A   1      43.601  42.466  24.526  1.00  0.00     0.001 A 
ATOM     29  C   UNL A   1      42.529  42.803  23.691  1.00  0.00     0.012 A 
ATOM     30  C   UNL A   1      44.911  42.764  24.120  1.00  0.00     0.012 A 
ATOM     31  C   UNL A   1      42.758  43.459  22.479  1.00  0.00     0.021 A 
ATOM     32  C   UNL A   1      45.140  43.406  22.899  1.00  0.00     0.021 A 
ATOM     33  C   UNL A   1      44.062  43.758  22.088  1.00  0.00     0.041 A 
ATOM     34  Cl  UNL A   1      44.339  44.551  20.587  1.00  0.00    -0.084 Cl
ENDBRANCH  26  28
ENDBRANCH  21  23
ENDBRANCH  20  21
ENDBRANCH  13  18
ENDBRANCH   7  12
ENDBRANCH   3   6
ENDBRANCH   1   2
BRANCH   1  35
ATOM     35  C   UNL A   1      34.677  33.331  33.310  1.00  0.00     0.023 C 
BRANCH  35  36
ATOM     36  C   UNL A   1      34.818  33.324  31.782  1.00  0.00     0.023 C 
BRANCH  36  37
ATOM     37  C   UNL A   1      35.267  31.993  31.195  1.00  0.00     0.116 C 
BRANCH  37  38
ATOM     38  N   UNL A   1      34.717  31.743  29.853  1.00  0.00    -0.352 N 
ATOM     39  C   UNL A   1      35.412  31.578  28.669  1.00  0.00     0.251 C 
ATOM     40  H   UNL A   1      33.736  31.683  29.791  1.00  0.00     0.163 HD
ATOM     41  O   UNL A   1      34.871  31.753  27.577  1.00  0.00    -0.269 OA
BRANCH  39  42
ATOM     42  C   UNL A   1      36.814  31.146  28.747  1.00  0.00     0.039 A 
ATOM     43  C   UNL A   1      37.831  31.934  29.297  1.00  0.00     0.014 A 
ATOM     44  C   UNL A   1      37.065  29.856  28.298  1.00  0.00     0.014 A 
ATOM     45  C   UNL A   1      39.097  31.372  29.455  1.00  0.00     0.010 A 
ATOM     46  C   UNL A   1      38.224  29.245  28.664  1.00  0.00     0.010 A 
ATOM     47  C   UNL A   1      39.275  30.020  29.140  1.00  0.00    -0.014 A 
BRANCH  47  48
ATOM     48  C   UNL A   1      40.528  29.312  29.348  1.00  0.00     0.031 A 
ATOM     49  C   UNL A   1      40.853  29.034  30.772  1.00  0.00     0.074 A 
ATOM     50  C   UNL A   1      41.126  28.686  28.306  1.00  0.00     0.049 A 
ATOM     51  N   UNL A   1      41.845  29.488  31.464  1.00  0.00    -0.248 NA
ATOM     52  C   UNL A   1      39.870  28.280  31.570  1.00  0.00     0.031 C 
ATOM     53  C   UNL A   1      40.659  28.614  26.910  1.00  0.00     0.029 A 
ATOM     54  N   UNL A   1      42.175  27.824  28.306  1.00  0.00    -0.354 N 
ATOM     55  C   UNL A   1      41.747  28.860  32.705  1.00  0.00     0.074 A 
ATOM     56  C   UNL A   1      40.406  28.351  32.790  1.00  0.00     0.031 C 
ATOM     57  C   UNL A   1      41.246  27.569  26.288  1.00  0.00     0.029 A 
ATOM     58  C   UNL A   1      42.253  27.019  27.171  1.00  0.00     0.049 A 
ATOM     59  H   UNL A   1      42.825  27.773  29.044  1.00  0.00     0.167 HD
ATOM     60  C   UNL A   1      42.858  28.543  33.428  1.00  0.00     0.034 A 
ATOM     61  C   UNL A   1      43.057  25.941  26.997  1.00  0.00     0.034 A 
ATOM     62  C   UNL A   1      44.023  29.217  32.908  1.00  0.00     0.049 A 
ATOM     63  C   UNL A   1      44.145  26.060  27.993  1.00  0.00     0.074 A 
ATOM     64  C   UNL A   1      44.395  30.532  32.713  1.00  0.00     0.029 A 
ATOM     65  N   UNL A   1      44.857  28.465  32.115  1.00  0.00    -0.354 N 
ATOM     66  N   UNL A   1      45.015  27.031  27.989  1.00  0.00    -0.248 NA
ATOM     67  C   UNL A   1      43.985  25.363  29.257  1.00  0.00     0.031 C 
ATOM     68  C   UNL A   1      45.101  30.531  31.473  1.00  0.00     0.029 A 
ATOM     69  C   UNL A   1      45.183  29.213  31.017  1.00  0.00     0.049 A 
ATOM     70  H   UNL A   1      45.164  27.549  32.303  1.00  0.00     0.167 HD
ATOM     71  C   UNL A   1      45.157  27.368  29.329  1.00  0.00     0.074 A 
ATOM     72  C   UNL A   1      44.596  26.235  30.065  1.00  0.00     0.031 C 
ATOM     73  C   UNL A   1      45.433  28.654  29.705  1.00  0.00     0.034 A 
BRANCH  60  74
ATOM     74  C   UNL A   1      43.002  27.336  34.335  1.00  0.00     0.023 A 
ATOM     75  C   UNL A   1      42.906  27.567  35.728  1.00  0.00     0.012 A 
ATOM     76  C   UNL A   1      43.492  26.070  33.936  1.00  0.00     0.148 A 
ATOM     77  C   UNL A   1      43.335  26.620  36.665  1.00  0.00     0.002 A 
ATOM     78  C   UNL A   1      43.841  25.102  34.872  1.00  0.00     0.091 A 
ATOM     79  F   UNL A   1      43.759  25.826  32.652  1.00  0.00    -0.205 F 
ATOM     80  C   UNL A   1      43.798  25.383  36.237  1.00  0.00     0.022 A 
BRANCH  78  81
ATOM     81  S   UNL A   1      44.408  23.470  34.371  1.00  0.00     0.127 S 
ATOM     82  O   UNL A   1      44.479  22.781  35.655  1.00  0.00    -0.237 OA
ATOM     83  O   UNL A   1      43.322  23.036  33.492  1.00  0.00    -0.237 OA
ATOM     84  O   UNL A   1      45.676  23.690  33.687  1.00  0.00    -0.744 OA
ENDBRANCH  78  81
ENDBRANCH  60  74
BRANCH  61  85
ATOM     85  C   UNL A   1      42.812  24.691  26.239  1.00  0.00     0.023 A 
ATOM     86  C   UNL A   1      43.736  24.268  25.263  1.00  0.00     0.012 A 
ATOM     87  C   UNL A   1      41.827  23.772  26.665  1.00  0.00     0.148 A 
ATOM     88  C   UNL A   1      43.701  22.963  24.754  1.00  0.00     0.002 A 
ATOM     89  C   UNL A   1      41.792  22.479  26.151  1.00  0.00     0.091 A 
ATOM     90  F   UNL A   1      40.984  24.139  27.640  1.00  0.00    -0.205 F 
ATOM     91  C   UNL A   1      42.737  22.065  25.205  1.00  0.00     0.022 A 
BRANCH  89  92
ATOM     92  S   UNL A   1      40.587  21.262  26.701  1.00  0.00     0.127 S 
ATOM     93  O   UNL A   1      41.101  20.034  26.094  1.00  0.00    -0.237 OA
ATOM     94  O   UNL A   1      40.727  21.335  28.152  1.00  0.00    -0.237 OA
ATOM     95  O   UNL A   1      39.306  21.703  26.163  1.00  0.00    -0.744 OA
ENDBRANCH  89  92
ENDBRANCH  61  85
BRANCH  73  96
ATOM     96  C   UNL A   1      45.792  29.644  28.619  1.00  0.00     0.023 A 
ATOM     97  C   UNL A   1      44.815  30.342  27.877  1.00  0.00     0.012 A 
ATOM     98  C   UNL A   1      47.137  30.019  28.480  1.00  0.00     0.148 A 
ATOM     99  C   UNL A   1      45.169  31.377  27.007  1.00  0.00     0.002 A 
ATOM    100  C   UNL A   1      47.484  31.076  27.648  1.00  0.00     0.091 A 
ATOM    101  F   UNL A   1      48.054  29.356  29.203  1.00  0.00    -0.205 F 
ATOM    102  C   UNL A   1      46.505  31.752  26.902  1.00  0.00     0.022 A 
BRANCH 100 103
ATOM    103  S   UNL A   1      49.164  31.697  27.561  1.00  0.00     0.127 S 
ATOM    104  O   UNL A   1      49.735  30.882  26.492  1.00  0.00    -0.237 OA
ATOM    105  O   UNL A   1      48.958  33.104  27.216  1.00  0.00    -0.237 OA
ATOM    106  O   UNL A   1      49.742  31.486  28.883  1.00  0.00    -0.744 OA
ENDBRANCH 100 103
ENDBRANCH  73  96
ENDBRANCH  47  48
ENDBRANCH  39  42
ENDBRANCH  37  38
ENDBRANCH  36  37
ENDBRANCH  35  36
ENDBRANCH   1  35
TORSDOF 19
ENDMDL
MODEL 2
REMARK VINA RESULT:     -10.7      6.398     11.019
REMARK SMILES C/C(=N\Nc1nc(-c2ccc(Cl)cc2)cs1)c1nnn(-c2ccc(C(=O)NCCCCNC(=O)c3ccc(-c4c5nc(c(-c6cccc(S(=O)(=O)[O-])c6F)c6ccc([nH]6)c(-c6cccc(S(=O)(=O)[O-])c6F)c6nc(c(-c7cccc(S(=O)(=O)[O-])c7F)c7ccc4[nH]7)C=C6)C=C5)cc3)cc2)c1C
REMARK SMILES IDX 28 1 27 2 25 3 26 4 24 6 21 7 22 8 99 9 23 10 98 11 20 12
REMARK SMILES IDX 17 13 18 14 100 15 19 16 101 17 2 18 1 19 3 20 4 21 5 23
REMARK SMILES IDX 6 24 16 25 7 26 15 27 8 28 9 29 14 30 10 31 13 32 11 33
REMARK SMILES IDX 12 34 29 35 30 36 31 37 32 38 33 39 34 41 35 42 36 43 97 44
REMARK SMILES IDX 37 45 96 46 38 47 39 48 40 49 90 50 41 51 95 52 89 53 91 54
REMARK SMILES IDX 42 55 94 56 88 57 87 58 43 60 75 61 55 62 74 63 56 64 59 65
REMARK SMILES IDX 73 66 92 67 57 68 58 69 72 71 93 72 60 73 44 74 45 75 53 76
REMARK SMILES IDX 46 77 48 78 54 79 47 80 49 81 50 82 51 83 52 84 76 85 77 86
REMARK SMILES IDX 85 87 78 88 80 89 86 90 79 91 81 92 82 93 83 94 84 95 61 96
REMARK SMILES IDX 62 97 70 98 63 99 65 100 71 101 64 102 66 103 67 104 68 105
REMARK SMILES IDX 69 106
REMARK H PARENT 27 5 4 22 32 40 91 59 59 70
REMARK Flexibility Score: inf
ROOT
ATOM      1  C   UNL A   1      36.774  34.740  33.379  1.00  0.00     0.116 C 
ENDROOT
BRANCH   1   2
ATOM      2  N   UNL A   1      37.786  33.729  33.127  1.00  0.00    -0.352 N 
ATOM      3  C   UNL A   1      38.429  32.823  33.937  1.00  0.00     0.251 C 
ATOM      4  O   UNL A   1      39.299  32.111  33.433  1.00  0.00    -0.269 OA
ATOM      5  H   UNL A   1      38.069  33.683  32.185  1.00  0.00     0.163 HD
BRANCH   3   6
ATOM      6  C   UNL A   1      38.116  32.639  35.383  1.00  0.00     0.039 A 
ATOM      7  C   UNL A   1      37.380  32.122  38.031  1.00  0.00     0.067 A 
ATOM      8  C   UNL A   1      37.796  31.061  37.229  1.00  0.00     0.029 A 
ATOM      9  C   UNL A   1      37.420  33.435  37.562  1.00  0.00     0.029 A 
ATOM     10  C   UNL A   1      38.138  31.326  35.896  1.00  0.00     0.016 A 
ATOM     11  C   UNL A   1      37.822  33.687  36.255  1.00  0.00     0.016 A 
BRANCH   7  12
ATOM     12  N   UNL A   1      36.776  31.879  39.273  1.00  0.00    -0.217 N 
ATOM     13  C   UNL A   1      36.370  31.653  41.395  1.00  0.00     0.132 A 
ATOM     14  N   UNL A   1      35.218  31.397  40.700  1.00  0.00    -0.128 NA
ATOM     15  C   UNL A   1      37.393  31.939  40.505  1.00  0.00     0.071 A 
ATOM     16  N   UNL A   1      35.460  31.615  39.411  1.00  0.00    -0.061 NA
ATOM     17  C   UNL A   1      38.786  32.419  40.722  1.00  0.00     0.069 C 
BRANCH  13  18
ATOM     18  C   UNL A   1      36.445  31.805  42.839  1.00  0.00     0.087 C 
ATOM     19  C   UNL A   1      35.750  33.039  43.366  1.00  0.00     0.071 C 
ATOM     20  N   UNL A   1      37.132  30.909  43.496  1.00  0.00    -0.176 NA
BRANCH  20  21
ATOM     21  N   UNL A   1      37.382  31.011  44.849  1.00  0.00    -0.252 N 
ATOM     22  H   UNL A   1      38.110  31.626  45.097  1.00  0.00     0.193 HD
BRANCH  21  23
ATOM     23  C   UNL A   1      36.772  30.389  45.892  1.00  0.00     0.203 A 
ATOM     24  N   UNL A   1      36.181  29.219  45.846  1.00  0.00    -0.219 NA
ATOM     25  S   UNL A   1      36.576  31.204  47.406  1.00  0.00    -0.103 S 
ATOM     26  C   UNL A   1      35.239  29.125  46.848  1.00  0.00     0.084 A 
ATOM     27  C   UNL A   1      35.295  30.122  47.799  1.00  0.00     0.097 A 
BRANCH  26  28
ATOM     28  C   UNL A   1      34.211  28.105  46.756  1.00  0.00     0.001 A 
ATOM     29  C   UNL A   1      33.169  28.266  45.836  1.00  0.00     0.012 A 
ATOM     30  C   UNL A   1      34.156  27.053  47.684  1.00  0.00     0.012 A 
ATOM     31  C   UNL A   1      32.098  27.369  45.819  1.00  0.00     0.021 A 
ATOM     32  C   UNL A   1      33.076  26.165  47.676  1.00  0.00     0.021 A 
ATOM     33  C   UNL A   1      32.056  26.323  46.739  1.00  0.00     0.041 A 
ATOM     34  Cl  UNL A   1      30.726  25.231  46.724  1.00  0.00    -0.084 Cl
ENDBRANCH  26  28
ENDBRANCH  21  23
ENDBRANCH  20  21
ENDBRANCH  13  18
ENDBRANCH   7  12
ENDBRANCH   3   6
ENDBRANCH   1   2
BRANCH   1  35
ATOM     35  C   UNL A   1      35.358  34.158  33.229  1.00  0.00     0.023 C 
BRANCH  35  36
ATOM     36  C   UNL A   1      34.884  33.929  31.787  1.00  0.00     0.023 C 
BRANCH  36  37
ATOM     37  C   UNL A   1      34.811  32.467  31.371  1.00  0.00     0.116 C 
BRANCH  37  38
ATOM     38  N   UNL A   1      34.420  32.288  29.964  1.00  0.00    -0.352 N 
ATOM     39  C   UNL A   1      35.221  31.908  28.902  1.00  0.00     0.251 C 
ATOM     40  H   UNL A   1      33.473  32.457  29.752  1.00  0.00     0.163 HD
ATOM     41  O   UNL A   1      34.903  32.153  27.738  1.00  0.00    -0.269 OA
BRANCH  39  42
ATOM     42  C   UNL A   1      36.451  31.164  29.200  1.00  0.00     0.039 A 
ATOM     43  C   UNL A   1      36.535  29.768  29.153  1.00  0.00     0.014 A 
ATOM     44  C   UNL A   1      37.569  31.944  29.468  1.00  0.00     0.014 A 
ATOM     45  C   UNL A   1      37.785  29.170  29.310  1.00  0.00     0.010 A 
ATOM     46  C   UNL A   1      38.804  31.376  29.388  1.00  0.00     0.010 A 
ATOM     47  C   UNL A   1      38.913  29.991  29.419  1.00  0.00    -0.014 A 
BRANCH  47  48
ATOM     48  C   UNL A   1      40.269  29.474  29.500  1.00  0.00     0.031 A 
ATOM     49  C   UNL A   1      40.768  29.256  30.884  1.00  0.00     0.074 A 
ATOM     50  C   UNL A   1      40.848  28.934  28.401  1.00  0.00     0.049 A 
ATOM     51  N   UNL A   1      41.746  29.855  31.479  1.00  0.00    -0.248 NA
ATOM     52  C   UNL A   1      39.987  28.374  31.769  1.00  0.00     0.031 C 
ATOM     53  C   UNL A   1      40.263  28.785  27.056  1.00  0.00     0.029 A 
ATOM     54  N   UNL A   1      42.005  28.233  28.294  1.00  0.00    -0.354 N 
ATOM     55  C   UNL A   1      41.860  29.228  32.720  1.00  0.00     0.074 A 
ATOM     56  C   UNL A   1      40.622  28.531  32.932  1.00  0.00     0.031 C 
ATOM     57  C   UNL A   1      40.932  27.831  26.373  1.00  0.00     0.029 A 
ATOM     58  C   UNL A   1      42.089  27.439  27.150  1.00  0.00     0.049 A 
ATOM     59  H   UNL A   1      42.724  28.282  28.964  1.00  0.00     0.167 HD
ATOM     60  C   UNL A   1      43.071  29.081  33.329  1.00  0.00     0.034 A 
ATOM     61  C   UNL A   1      43.020  26.488  26.892  1.00  0.00     0.034 A 
ATOM     62  C   UNL A   1      44.070  29.913  32.704  1.00  0.00     0.049 A 
ATOM     63  C   UNL A   1      44.171  26.770  27.779  1.00  0.00     0.074 A 
ATOM     64  C   UNL A   1      44.226  31.266  32.483  1.00  0.00     0.029 A 
ATOM     65  N   UNL A   1      44.923  29.283  31.828  1.00  0.00    -0.354 N 
ATOM     66  N   UNL A   1      44.886  27.857  27.697  1.00  0.00    -0.248 NA
ATOM     67  C   UNL A   1      44.236  26.067  29.048  1.00  0.00     0.031 C 
ATOM     68  C   UNL A   1      44.802  31.358  31.180  1.00  0.00     0.029 A 
ATOM     69  C   UNL A   1      45.030  30.063  30.709  1.00  0.00     0.049 A 
ATOM     70  H   UNL A   1      45.376  28.423  31.980  1.00  0.00     0.167 HD
ATOM     71  C   UNL A   1      45.107  28.221  29.020  1.00  0.00     0.074 A 
ATOM     72  C   UNL A   1      44.791  27.024  29.799  1.00  0.00     0.031 C 
ATOM     73  C   UNL A   1      45.229  29.536  29.375  1.00  0.00     0.034 A 
BRANCH  60  74
ATOM     74  C   UNL A   1      43.475  27.914  34.210  1.00  0.00     0.023 A 
ATOM     75  C   UNL A   1      43.958  28.225  35.504  1.00  0.00     0.012 A 
ATOM     76  C   UNL A   1      43.673  26.586  33.764  1.00  0.00     0.148 A 
ATOM     77  C   UNL A   1      44.653  27.290  36.278  1.00  0.00     0.002 A 
ATOM     78  C   UNL A   1      44.294  25.638  34.570  1.00  0.00     0.091 A 
ATOM     79  F   UNL A   1      43.389  26.250  32.505  1.00  0.00    -0.205 F 
ATOM     80  C   UNL A   1      44.817  25.992  35.813  1.00  0.00     0.022 A 
BRANCH  78  81
ATOM     81  S   UNL A   1      44.494  23.932  34.033  1.00  0.00     0.127 S 
ATOM     82  O   UNL A   1      45.110  24.112  32.722  1.00  0.00    -0.237 OA
ATOM     83  O   UNL A   1      45.378  23.397  35.067  1.00  0.00    -0.237 OA
ATOM     84  O   UNL A   1      43.152  23.361  34.041  1.00  0.00    -0.744 OA
ENDBRANCH  78  81
ENDBRANCH  60  74
BRANCH  61  85
ATOM     85  C   UNL A   1      42.886  25.210  26.153  1.00  0.00     0.023 A 
ATOM     86  C   UNL A   1      43.804  24.889  25.133  1.00  0.00     0.012 A 
ATOM     87  C   UNL A   1      42.039  24.186  26.633  1.00  0.00     0.148 A 
ATOM     88  C   UNL A   1      43.897  23.583  24.631  1.00  0.00     0.002 A 
ATOM     89  C   UNL A   1      42.131  22.892  26.127  1.00  0.00     0.091 A 
ATOM     90  F   UNL A   1      41.209  24.461  27.648  1.00  0.00    -0.205 F 
ATOM     91  C   UNL A   1      43.070  22.583  25.135  1.00  0.00     0.022 A 
BRANCH  89  92
ATOM     92  S   UNL A   1      41.107  21.548  26.743  1.00  0.00     0.127 S 
ATOM     93  O   UNL A   1      41.324  20.516  25.728  1.00  0.00    -0.237 OA
ATOM     94  O   UNL A   1      41.720  21.273  28.039  1.00  0.00    -0.237 OA
ATOM     95  O   UNL A   1      39.747  22.071  26.781  1.00  0.00    -0.744 OA
ENDBRANCH  89  92
ENDBRANCH  61  85
BRANCH  73  96
ATOM     96  C   UNL A   1      45.335  30.560  28.267  1.00  0.00     0.023 A 
ATOM     97  C   UNL A   1      44.201  31.185  27.703  1.00  0.00     0.012 A 
ATOM     98  C   UNL A   1      46.607  31.039  27.924  1.00  0.00     0.148 A 
ATOM     99  C   UNL A   1      44.332  32.251  26.809  1.00  0.00     0.002 A 
ATOM    100  C   UNL A   1      46.735  32.128  27.068  1.00  0.00     0.091 A 
ATOM    101  F   UNL A   1      47.675  30.445  28.478  1.00  0.00    -0.205 F 
ATOM    102  C   UNL A   1      45.601  32.730  26.501  1.00  0.00     0.022 A 
BRANCH 100 103
ATOM    103  S   UNL A   1      48.328  32.878  26.729  1.00  0.00     0.127 S 
ATOM    104  O   UNL A   1      49.193  31.709  26.591  1.00  0.00    -0.237 OA
ATOM    105  O   UNL A   1      48.072  33.601  25.483  1.00  0.00    -0.237 OA
ATOM    106  O   UNL A   1      48.621  33.739  27.869  1.00  0.00    -0.744 OA
ENDBRANCH 100 103
ENDBRANCH  73  96
ENDBRANCH  47  48
ENDBRANCH  39  42
ENDBRANCH  37  38
ENDBRANCH  36  37
ENDBRANCH  35  36
ENDBRANCH   1  35
TORSDOF 19
ENDMDL
MODEL 3
REMARK VINA RESULT:     -10.7      5.858     12.181
REMARK SMILES C/C(=N\Nc1nc(-c2ccc(Cl)cc2)cs1)c1nnn(-c2ccc(C(=O)NCCCCNC(=O)c3ccc(-c4c5nc(c(-c6cccc(S(=O)(=O)[O-])c6F)c6ccc([nH]6)c(-c6cccc(S(=O)(=O)[O-])c6F)c6nc(c(-c7cccc(S(=O)(=O)[O-])c7F)c7ccc4[nH]7)C=C6)C=C5)cc3)cc2)c1C
REMARK SMILES IDX 28 1 27 2 25 3 26 4 24 6 21 7 22 8 99 9 23 10 98 11 20 12
REMARK SMILES IDX 17 13 18 14 100 15 19 16 101 17 2 18 1 19 3 20 4 21 5 23
REMARK SMILES IDX 6 24 16 25 7 26 15 27 8 28 9 29 14 30 10 31 13 32 11 33
REMARK SMILES IDX 12 34 29 35 30 36 31 37 32 38 33 39 34 41 35 42 36 43 97 44
REMARK SMILES IDX 37 45 96 46 38 47 39 48 40 49 90 50 41 51 95 52 89 53 91 54
REMARK SMILES IDX 42 55 94 56 88 57 87 58 43 60 75 61 55 62 74 63 56 64 59 65
REMARK SMILES IDX 73 66 92 67 57 68 58 69 72 71 93 72 60 73 44 74 45 75 53 76
REMARK SMILES IDX 46 77 48 78 54 79 47 80 49 81 50 82 51 83 52 84 76 85 77 86
REMARK SMILES IDX 85 87 78 88 80 89 86 90 79 91 81 92 82 93 83 94 84 95 61 96
REMARK SMILES IDX 62 97 70 98 63 99 65 100 71 101 64 102 66 103 67 104 68 105
REMARK SMILES IDX 69 106
REMARK H PARENT 27 5 4 22 32 40 91 59 59 70
REMARK Flexibility Score: inf
ROOT
ATOM      1  C   UNL A   1      42.631  18.672  26.124  1.00  0.00     0.116 C 
ENDROOT
BRANCH   1   2
ATOM      2  N   UNL A   1      42.651  19.867  26.949  1.00  0.00    -0.352 N 
ATOM      3  C   UNL A   1      41.770  20.911  27.110  1.00  0.00     0.251 C 
ATOM      4  O   UNL A   1      42.094  21.830  27.862  1.00  0.00    -0.269 OA
ATOM      5  H   UNL A   1      43.459  19.946  27.505  1.00  0.00     0.163 HD
BRANCH   3   6
ATOM      6  C   UNL A   1      40.439  20.980  26.442  1.00  0.00     0.039 A 
ATOM      7  C   UNL A   1      37.859  21.207  25.388  1.00  0.00     0.067 A 
ATOM      8  C   UNL A   1      38.457  22.332  25.951  1.00  0.00     0.029 A 
ATOM      9  C   UNL A   1      38.561  20.009  25.260  1.00  0.00     0.029 A 
ATOM     10  C   UNL A   1      39.739  22.203  26.499  1.00  0.00     0.016 A 
ATOM     11  C   UNL A   1      39.857  19.915  25.754  1.00  0.00     0.016 A 
BRANCH   7  12
ATOM     12  N   UNL A   1      36.492  21.212  25.073  1.00  0.00    -0.217 N 
ATOM     13  C   UNL A   1      34.481  21.786  24.486  1.00  0.00     0.132 A 
ATOM     14  N   UNL A   1      34.498  20.438  24.725  1.00  0.00    -0.128 NA
ATOM     15  C   UNL A   1      35.739  22.314  24.728  1.00  0.00     0.071 A 
ATOM     16  N   UNL A   1      35.749  20.087  25.007  1.00  0.00    -0.061 NA
ATOM     17  C   UNL A   1      36.303  23.673  24.491  1.00  0.00     0.069 C 
BRANCH  13  18
ATOM     18  C   UNL A   1      33.372  22.501  23.876  1.00  0.00     0.087 C 
ATOM     19  C   UNL A   1      32.619  21.701  22.839  1.00  0.00     0.071 C 
ATOM     20  N   UNL A   1      33.188  23.741  24.244  1.00  0.00    -0.176 NA
BRANCH  20  21
ATOM     21  N   UNL A   1      32.253  24.561  23.650  1.00  0.00    -0.252 N 
ATOM     22  H   UNL A   1      31.649  24.116  23.011  1.00  0.00     0.193 HD
BRANCH  21  23
ATOM     23  C   UNL A   1      32.039  25.892  23.814  1.00  0.00     0.203 A 
ATOM     24  N   UNL A   1      32.858  26.733  24.399  1.00  0.00    -0.219 NA
ATOM     25  S   UNL A   1      30.517  26.596  23.383  1.00  0.00    -0.103 S 
ATOM     26  C   UNL A   1      32.159  27.823  24.875  1.00  0.00     0.084 A 
ATOM     27  C   UNL A   1      30.858  27.922  24.429  1.00  0.00     0.097 A 
BRANCH  26  28
ATOM     28  C   UNL A   1      32.774  28.673  25.877  1.00  0.00     0.001 A 
ATOM     29  C   UNL A   1      32.164  29.887  26.211  1.00  0.00     0.012 A 
ATOM     30  C   UNL A   1      34.048  28.377  26.388  1.00  0.00     0.012 A 
ATOM     31  C   UNL A   1      32.802  30.785  27.071  1.00  0.00     0.021 A 
ATOM     32  C   UNL A   1      34.692  29.283  27.237  1.00  0.00     0.021 A 
ATOM     33  C   UNL A   1      34.062  30.478  27.580  1.00  0.00     0.041 A 
ATOM     34  Cl  UNL A   1      34.850  31.594  28.627  1.00  0.00    -0.084 Cl
ENDBRANCH  26  28
ENDBRANCH  21  23
ENDBRANCH  20  21
ENDBRANCH  13  18
ENDBRANCH   7  12
ENDBRANCH   3   6
ENDBRANCH   1   2
BRANCH   1  35
ATOM     35  C   UNL A   1      43.673  18.757  24.996  1.00  0.00     0.023 C 
BRANCH  35  36
ATOM     36  C   UNL A   1      45.134  18.883  25.451  1.00  0.00     0.023 C 
BRANCH  36  37
ATOM     37  C   UNL A   1      45.801  20.198  25.077  1.00  0.00     0.116 C 
BRANCH  37  38
ATOM     38  N   UNL A   1      45.447  20.658  23.724  1.00  0.00    -0.352 N 
ATOM     39  C   UNL A   1      44.709  21.774  23.373  1.00  0.00     0.251 C 
ATOM     40  H   UNL A   1      45.777  20.105  22.979  1.00  0.00     0.163 HD
ATOM     41  O   UNL A   1      44.158  21.860  22.276  1.00  0.00    -0.269 OA
BRANCH  39  42
ATOM     42  C   UNL A   1      44.634  22.881  24.336  1.00  0.00     0.039 A 
ATOM     43  C   UNL A   1      43.427  23.433  24.778  1.00  0.00     0.014 A 
ATOM     44  C   UNL A   1      45.853  23.310  24.846  1.00  0.00     0.014 A 
ATOM     45  C   UNL A   1      43.463  24.380  25.801  1.00  0.00     0.010 A 
ATOM     46  C   UNL A   1      45.865  24.051  25.987  1.00  0.00     0.010 A 
ATOM     47  C   UNL A   1      44.694  24.672  26.401  1.00  0.00    -0.014 A 
BRANCH  47  48
ATOM     48  C   UNL A   1      44.833  25.577  27.531  1.00  0.00     0.031 A 
ATOM     49  C   UNL A   1      46.057  26.421  27.501  1.00  0.00     0.074 A 
ATOM     50  C   UNL A   1      43.763  25.837  28.318  1.00  0.00     0.049 A 
ATOM     51  N   UNL A   1      47.049  26.412  28.329  1.00  0.00    -0.248 NA
ATOM     52  C   UNL A   1      46.279  27.274  26.320  1.00  0.00     0.031 C 
ATOM     53  C   UNL A   1      42.395  25.303  28.186  1.00  0.00     0.029 A 
ATOM     54  N   UNL A   1      43.615  26.774  29.290  1.00  0.00    -0.354 N 
ATOM     55  C   UNL A   1      47.887  27.446  27.911  1.00  0.00     0.074 A 
ATOM     56  C   UNL A   1      47.502  27.752  26.561  1.00  0.00     0.031 C 
ATOM     57  C   UNL A   1      41.529  26.104  28.842  1.00  0.00     0.029 A 
ATOM     58  C   UNL A   1      42.288  27.087  29.585  1.00  0.00     0.049 A 
ATOM     59  H   UNL A   1      44.378  27.195  29.747  1.00  0.00     0.167 HD
ATOM     60  C   UNL A   1      48.618  28.169  28.805  1.00  0.00     0.034 A 
ATOM     61  C   UNL A   1      41.851  28.120  30.346  1.00  0.00     0.034 A 
ATOM     62  C   UNL A   1      48.647  27.523  30.094  1.00  0.00     0.049 A 
ATOM     63  C   UNL A   1      42.998  28.547  31.178  1.00  0.00     0.074 A 
ATOM     64  C   UNL A   1      49.075  26.301  30.573  1.00  0.00     0.029 A 
ATOM     65  N   UNL A   1      47.793  28.026  31.046  1.00  0.00    -0.354 N 
ATOM     66  N   UNL A   1      43.552  27.784  32.078  1.00  0.00    -0.248 NA
ATOM     67  C   UNL A   1      43.817  29.643  30.691  1.00  0.00     0.031 C 
ATOM     68  C   UNL A   1      48.100  25.929  31.546  1.00  0.00     0.029 A 
ATOM     69  C   UNL A   1      47.175  26.971  31.659  1.00  0.00     0.049 A 
ATOM     70  H   UNL A   1      47.650  28.979  31.250  1.00  0.00     0.167 HD
ATOM     71  C   UNL A   1      44.915  28.007  31.923  1.00  0.00     0.074 A 
ATOM     72  C   UNL A   1      45.009  29.243  31.146  1.00  0.00     0.031 C 
ATOM     73  C   UNL A   1      45.823  27.016  32.175  1.00  0.00     0.034 A 
BRANCH  60  74
ATOM     74  C   UNL A   1      48.970  29.639  28.668  1.00  0.00     0.023 A 
ATOM     75  C   UNL A   1      50.302  30.009  28.968  1.00  0.00     0.012 A 
ATOM     76  C   UNL A   1      48.034  30.693  28.539  1.00  0.00     0.148 A 
ATOM     77  C   UNL A   1      50.666  31.341  29.192  1.00  0.00     0.002 A 
ATOM     78  C   UNL A   1      48.418  32.022  28.684  1.00  0.00     0.091 A 
ATOM     79  F   UNL A   1      46.733  30.426  28.411  1.00  0.00    -0.205 F 
ATOM     80  C   UNL A   1      49.724  32.351  29.044  1.00  0.00     0.022 A 
BRANCH  78  81
ATOM     81  S   UNL A   1      47.246  33.369  28.462  1.00  0.00     0.127 S 
ATOM     82  O   UNL A   1      46.401  32.845  27.394  1.00  0.00    -0.237 OA
ATOM     83  O   UNL A   1      46.615  33.434  29.779  1.00  0.00    -0.237 OA
ATOM     84  O   UNL A   1      48.053  34.537  28.129  1.00  0.00    -0.744 OA
ENDBRANCH  78  81
ENDBRANCH  60  74
BRANCH  61  85
ATOM     85  C   UNL A   1      40.621  28.937  30.215  1.00  0.00     0.023 A 
ATOM     86  C   UNL A   1      40.156  29.307  28.938  1.00  0.00     0.012 A 
ATOM     87  C   UNL A   1      39.753  29.113  31.317  1.00  0.00     0.148 A 
ATOM     88  C   UNL A   1      38.858  29.804  28.759  1.00  0.00     0.002 A 
ATOM     89  C   UNL A   1      38.467  29.613  31.135  1.00  0.00     0.091 A 
ATOM     90  F   UNL A   1      40.159  28.704  32.527  1.00  0.00    -0.205 F 
ATOM     91  C   UNL A   1      38.010  29.947  29.854  1.00  0.00     0.022 A 
BRANCH  89  92
ATOM     92  S   UNL A   1      37.313  29.808  32.500  1.00  0.00     0.127 S 
ATOM     93  O   UNL A   1      37.882  30.952  33.213  1.00  0.00    -0.237 OA
ATOM     94  O   UNL A   1      36.062  30.082  31.799  1.00  0.00    -0.237 OA
ATOM     95  O   UNL A   1      37.364  28.556  33.244  1.00  0.00    -0.744 OA
ENDBRANCH  89  92
ENDBRANCH  61  85
BRANCH  73  96
ATOM     96  C   UNL A   1      45.320  25.749  32.831  1.00  0.00     0.023 A 
ATOM     97  C   UNL A   1      44.640  24.743  32.111  1.00  0.00     0.012 A 
ATOM     98  C   UNL A   1      45.712  25.484  34.152  1.00  0.00     0.148 A 
ATOM     99  C   UNL A   1      44.343  23.509  32.698  1.00  0.00     0.002 A 
ATOM    100  C   UNL A   1      45.454  24.241  34.719  1.00  0.00     0.091 A 
ATOM    101  F   UNL A   1      46.370  26.444  34.819  1.00  0.00    -0.205 F 
ATOM    102  C   UNL A   1      44.762  23.254  33.999  1.00  0.00     0.022 A 
BRANCH 100 103
ATOM    103  S   UNL A   1      46.076  23.798  36.341  1.00  0.00     0.127 S 
ATOM    104  O   UNL A   1      47.418  23.311  36.031  1.00  0.00    -0.237 OA
ATOM    105  O   UNL A   1      46.038  25.078  37.049  1.00  0.00    -0.237 OA
ATOM    106  O   UNL A   1      45.156  22.797  36.868  1.00  0.00    -0.744 OA
ENDBRANCH 100 103
ENDBRANCH  73  96
ENDBRANCH  47  48
ENDBRANCH  39  42
ENDBRANCH  37  38
ENDBRANCH  36  37
ENDBRANCH  35  36
ENDBRANCH   1  35
TORSDOF 19
ENDMDL
