MODEL 1
REMARK VINA RESULT:     -11.7      0.000      0.000
REMARK SMILES CN(C)c1ccc(F)c(C(=O)NCCCCNC(=O)c2ccc(-c3c4nc(c(-c5cccc(S(=O)(=O)[O-])c5F)c5ccc([nH]5)c(-c5cccc(S(=O)(=O)[O-])c5F)c5nc(c(-c6cccc(S(=O)(=O)[O-])c6F)c6ccc3[nH]6)C=C5)C=C4)cc2)c1
REMARK SMILES IDX 15 1 14 2 13 3 12 4 10 5 11 6 9 8 4 9 5 10 83 11 6 12 7 13
REMARK SMILES IDX 8 14 2 15 1 16 3 17 16 18 17 19 18 20 19 22 20 23 21 24
REMARK SMILES IDX 82 25 22 26 81 27 23 28 24 29 25 30 75 31 26 32 80 33 74 34
REMARK SMILES IDX 76 35 27 36 79 37 73 38 72 39 28 41 60 42 40 43 59 44 41 45
REMARK SMILES IDX 44 46 58 47 77 48 42 49 43 50 57 52 78 53 45 54 29 55 30 56
REMARK SMILES IDX 38 57 31 58 33 59 39 60 32 61 34 62 35 63 36 64 37 65 61 66
REMARK SMILES IDX 62 67 70 68 63 69 65 70 71 71 64 72 66 73 67 74 68 75 69 76
REMARK SMILES IDX 46 77 47 78 55 79 48 80 50 81 56 82 49 83 51 84 52 85 53 86
REMARK SMILES IDX 54 87
REMARK H PARENT 12 7 17 21 76 40 44 51
REMARK Flexibility Score: inf
ROOT
ATOM      1  C   UNL A   1      31.997  30.203  25.490  1.00  0.00     0.023 C 
ENDROOT
BRANCH   1   2
ATOM      2  C   UNL A   1      32.579  28.805  25.306  1.00  0.00     0.023 C 
BRANCH   2   3
ATOM      3  C   UNL A   1      31.590  27.680  25.022  1.00  0.00     0.116 C 
BRANCH   3   4
ATOM      4  N   UNL A   1      31.625  27.187  23.658  1.00  0.00    -0.352 N 
ATOM      5  C   UNL A   1      30.801  27.441  22.588  1.00  0.00     0.254 C 
ATOM      6  O   UNL A   1      31.056  26.890  21.515  1.00  0.00    -0.269 OA
ATOM      7  H   UNL A   1      32.363  26.565  23.467  1.00  0.00     0.163 HD
BRANCH   5   8
ATOM      8  C   UNL A   1      29.592  28.299  22.665  1.00  0.00     0.077 A 
ATOM      9  C   UNL A   1      28.646  30.541  22.274  1.00  0.00     0.037 A 
ATOM     10  C   UNL A   1      27.423  30.059  22.767  1.00  0.00     0.029 A 
ATOM     11  C   UNL A   1      29.704  29.620  22.183  1.00  0.00     0.042 A 
ATOM     12  C   UNL A   1      27.301  28.765  23.271  1.00  0.00     0.042 A 
ATOM     13  C   UNL A   1      28.400  27.916  23.271  1.00  0.00     0.136 A 
ATOM     14  F   UNL A   1      28.272  26.745  23.911  1.00  0.00    -0.206 F 
BRANCH   9  15
ATOM     15  N   UNL A   1      28.785  31.892  21.948  1.00  0.00    -0.378 N 
ATOM     16  C   UNL A   1      28.097  32.316  20.727  1.00  0.00     0.143 C 
ATOM     17  C   UNL A   1      28.927  32.894  22.997  1.00  0.00     0.143 C 
ENDBRANCH   9  15
ENDBRANCH   5   8
ENDBRANCH   3   4
ENDBRANCH   2   3
ENDBRANCH   1   2
BRANCH   1  18
ATOM     18  C   UNL A   1      31.918  30.730  26.919  1.00  0.00     0.116 C 
BRANCH  18  19
ATOM     19  N   UNL A   1      31.936  32.183  27.019  1.00  0.00    -0.352 N 
ATOM     20  C   UNL A   1      32.916  33.024  27.501  1.00  0.00     0.251 C 
ATOM     21  H   UNL A   1      31.123  32.634  26.692  1.00  0.00     0.163 HD
ATOM     22  O   UNL A   1      32.716  34.228  27.559  1.00  0.00    -0.269 OA
BRANCH  20  23
ATOM     23  C   UNL A   1      34.197  32.460  27.991  1.00  0.00     0.039 A 
ATOM     24  C   UNL A   1      35.323  33.287  28.035  1.00  0.00     0.014 A 
ATOM     25  C   UNL A   1      34.280  31.140  28.434  1.00  0.00     0.014 A 
ATOM     26  C   UNL A   1      36.506  32.817  28.613  1.00  0.00     0.010 A 
ATOM     27  C   UNL A   1      35.433  30.700  29.079  1.00  0.00     0.010 A 
ATOM     28  C   UNL A   1      36.555  31.536  29.185  1.00  0.00    -0.014 A 
BRANCH  28  29
ATOM     29  C   UNL A   1      37.752  31.058  29.927  1.00  0.00     0.031 A 
ATOM     30  C   UNL A   1      38.669  30.038  29.310  1.00  0.00     0.074 A 
ATOM     31  C   UNL A   1      37.951  31.458  31.200  1.00  0.00     0.049 A 
ATOM     32  N   UNL A   1      39.696  29.427  29.840  1.00  0.00    -0.248 NA
ATOM     33  C   UNL A   1      38.375  29.628  27.927  1.00  0.00     0.031 C 
ATOM     34  C   UNL A   1      37.090  32.382  31.941  1.00  0.00     0.029 A 
ATOM     35  N   UNL A   1      38.926  31.116  32.106  1.00  0.00    -0.354 N 
ATOM     36  C   UNL A   1      40.144  28.532  28.876  1.00  0.00     0.074 A 
ATOM     37  C   UNL A   1      39.259  28.658  27.738  1.00  0.00     0.031 C 
ATOM     38  C   UNL A   1      37.577  32.540  33.182  1.00  0.00     0.029 A 
ATOM     39  C   UNL A   1      38.767  31.707  33.338  1.00  0.00     0.049 A 
ATOM     40  H   UNL A   1      39.668  30.506  31.894  1.00  0.00     0.167 HD
ATOM     41  C   UNL A   1      41.215  27.705  28.920  1.00  0.00     0.034 A 
ATOM     42  C   UNL A   1      39.491  31.590  34.469  1.00  0.00     0.034 A 
ATOM     43  C   UNL A   1      42.132  27.630  30.024  1.00  0.00     0.049 A 
ATOM     44  C   UNL A   1      40.710  30.707  34.473  1.00  0.00     0.074 A 
ATOM     45  C   UNL A   1      43.300  26.896  30.120  1.00  0.00     0.029 A 
ATOM     46  N   UNL A   1      41.988  28.314  31.221  1.00  0.00    -0.354 N 
ATOM     47  N   UNL A   1      41.202  29.982  33.498  1.00  0.00    -0.248 NA
ATOM     48  C   UNL A   1      41.490  30.648  35.718  1.00  0.00     0.031 C 
ATOM     49  C   UNL A   1      43.859  27.127  31.380  1.00  0.00     0.029 A 
ATOM     50  C   UNL A   1      43.045  28.017  32.063  1.00  0.00     0.049 A 
ATOM     51  H   UNL A   1      41.245  28.921  31.439  1.00  0.00     0.167 HD
ATOM     52  C   UNL A   1      42.362  29.403  34.001  1.00  0.00     0.074 A 
ATOM     53  C   UNL A   1      42.511  29.879  35.360  1.00  0.00     0.031 C 
ATOM     54  C   UNL A   1      43.214  28.540  33.395  1.00  0.00     0.034 A 
BRANCH  41  55
ATOM     55  C   UNL A   1      41.504  26.865  27.703  1.00  0.00     0.023 A 
ATOM     56  C   UNL A   1      42.137  27.457  26.592  1.00  0.00     0.012 A 
ATOM     57  C   UNL A   1      41.229  25.483  27.688  1.00  0.00     0.148 A 
ATOM     58  C   UNL A   1      42.467  26.695  25.473  1.00  0.00     0.002 A 
ATOM     59  C   UNL A   1      41.601  24.722  26.587  1.00  0.00     0.091 A 
ATOM     60  F   UNL A   1      40.610  24.943  28.747  1.00  0.00    -0.205 F 
ATOM     61  C   UNL A   1      42.210  25.327  25.475  1.00  0.00     0.022 A 
BRANCH  59  62
ATOM     62  S   UNL A   1      41.388  22.939  26.522  1.00  0.00     0.127 S 
ATOM     63  O   UNL A   1      39.933  22.818  26.429  1.00  0.00    -0.237 OA
ATOM     64  O   UNL A   1      42.106  22.587  25.298  1.00  0.00    -0.237 OA
ATOM     65  O   UNL A   1      41.980  22.419  27.745  1.00  0.00    -0.744 OA
ENDBRANCH  59  62
ENDBRANCH  41  55
BRANCH  42  66
ATOM     66  C   UNL A   1      39.127  32.405  35.664  1.00  0.00     0.023 A 
ATOM     67  C   UNL A   1      38.334  31.823  36.672  1.00  0.00     0.012 A 
ATOM     68  C   UNL A   1      39.608  33.717  35.841  1.00  0.00     0.148 A 
ATOM     69  C   UNL A   1      38.013  32.537  37.827  1.00  0.00     0.002 A 
ATOM     70  C   UNL A   1      39.327  34.403  37.017  1.00  0.00     0.091 A 
ATOM     71  F   UNL A   1      40.351  34.258  34.865  1.00  0.00    -0.205 F 
ATOM     72  C   UNL A   1      38.519  33.821  38.005  1.00  0.00     0.022 A 
BRANCH  70  73
ATOM     73  S   UNL A   1      40.047  36.006  37.398  1.00  0.00     0.127 S 
ATOM     74  O   UNL A   1      41.450  35.660  37.613  1.00  0.00    -0.237 OA
ATOM     75  O   UNL A   1      39.778  36.756  36.170  1.00  0.00    -0.237 OA
ATOM     76  O   UNL A   1      39.330  36.492  38.569  1.00  0.00    -0.744 OA
ENDBRANCH  70  73
ENDBRANCH  42  66
BRANCH  54  77
ATOM     77  C   UNL A   1      44.403  28.050  34.179  1.00  0.00     0.023 A 
ATOM     78  C   UNL A   1      45.614  28.766  34.119  1.00  0.00     0.012 A 
ATOM     79  C   UNL A   1      44.285  26.959  35.064  1.00  0.00     0.148 A 
ATOM     80  C   UNL A   1      46.696  28.396  34.917  1.00  0.00     0.002 A 
ATOM     81  C   UNL A   1      45.352  26.625  35.890  1.00  0.00     0.091 A 
ATOM     82  F   UNL A   1      43.130  26.281  35.093  1.00  0.00    -0.205 F 
ATOM     83  C   UNL A   1      46.560  27.337  35.812  1.00  0.00     0.022 A 
BRANCH  81  84
ATOM     84  S   UNL A   1      45.234  25.343  37.144  1.00  0.00     0.127 S 
ATOM     85  O   UNL A   1      46.619  25.245  37.601  1.00  0.00    -0.237 OA
ATOM     86  O   UNL A   1      44.313  25.939  38.113  1.00  0.00    -0.237 OA
ATOM     87  O   UNL A   1      44.715  24.164  36.464  1.00  0.00    -0.744 OA
ENDBRANCH  81  84
ENDBRANCH  54  77
ENDBRANCH  28  29
ENDBRANCH  20  23
ENDBRANCH  18  19
ENDBRANCH   1  18
TORSDOF 15
ENDMDL
MODEL 2
REMARK VINA RESULT:     -11.6      1.986      2.562
REMARK SMILES CN(C)c1ccc(F)c(C(=O)NCCCCNC(=O)c2ccc(-c3c4nc(c(-c5cccc(S(=O)(=O)[O-])c5F)c5ccc([nH]5)c(-c5cccc(S(=O)(=O)[O-])c5F)c5nc(c(-c6cccc(S(=O)(=O)[O-])c6F)c6ccc3[nH]6)C=C5)C=C4)cc2)c1
REMARK SMILES IDX 15 1 14 2 13 3 12 4 10 5 11 6 9 8 4 9 5 10 83 11 6 12 7 13
REMARK SMILES IDX 8 14 2 15 1 16 3 17 16 18 17 19 18 20 19 22 20 23 21 24
REMARK SMILES IDX 82 25 22 26 81 27 23 28 24 29 25 30 75 31 26 32 80 33 74 34
REMARK SMILES IDX 76 35 27 36 79 37 73 38 72 39 28 41 60 42 40 43 59 44 41 45
REMARK SMILES IDX 44 46 58 47 77 48 42 49 43 50 57 52 78 53 45 54 29 55 30 56
REMARK SMILES IDX 38 57 31 58 33 59 39 60 32 61 34 62 35 63 36 64 37 65 61 66
REMARK SMILES IDX 62 67 70 68 63 69 65 70 71 71 64 72 66 73 67 74 68 75 69 76
REMARK SMILES IDX 46 77 47 78 55 79 48 80 50 81 56 82 49 83 51 84 52 85 53 86
REMARK SMILES IDX 54 87
REMARK H PARENT 12 7 17 21 76 40 44 51
REMARK Flexibility Score: inf
ROOT
ATOM      1  C   UNL A   1      32.032  30.983  27.011  1.00  0.00     0.023 C 
ENDROOT
BRANCH   1   2
ATOM      2  C   UNL A   1      31.869  30.303  25.654  1.00  0.00     0.023 C 
BRANCH   2   3
ATOM      3  C   UNL A   1      31.646  28.796  25.662  1.00  0.00     0.116 C 
BRANCH   3   4
ATOM      4  N   UNL A   1      32.017  28.133  24.427  1.00  0.00    -0.352 N 
ATOM      5  C   UNL A   1      31.371  28.055  23.217  1.00  0.00     0.254 C 
ATOM      6  O   UNL A   1      31.913  27.423  22.309  1.00  0.00    -0.269 OA
ATOM      7  H   UNL A   1      32.878  27.656  24.462  1.00  0.00     0.163 HD
BRANCH   5   8
ATOM      8  C   UNL A   1      30.033  28.645  22.959  1.00  0.00     0.077 A 
ATOM      9  C   UNL A   1      28.785  30.624  22.184  1.00  0.00     0.037 A 
ATOM     10  C   UNL A   1      27.600  29.919  22.442  1.00  0.00     0.029 A 
ATOM     11  C   UNL A   1      29.994  29.941  22.401  1.00  0.00     0.042 A 
ATOM     12  C   UNL A   1      27.619  28.649  23.015  1.00  0.00     0.042 A 
ATOM     13  C   UNL A   1      28.832  28.047  23.324  1.00  0.00     0.136 A 
ATOM     14  F   UNL A   1      28.791  26.902  24.019  1.00  0.00    -0.206 F 
BRANCH   9  15
ATOM     15  N   UNL A   1      28.730  31.960  21.781  1.00  0.00    -0.378 N 
ATOM     16  C   UNL A   1      27.955  32.218  20.566  1.00  0.00     0.143 C 
ATOM     17  C   UNL A   1      28.766  33.031  22.769  1.00  0.00     0.143 C 
ENDBRANCH   9  15
ENDBRANCH   5   8
ENDBRANCH   3   4
ENDBRANCH   2   3
ENDBRANCH   1   2
BRANCH   1  18
ATOM     18  C   UNL A   1      33.155  32.008  27.133  1.00  0.00     0.116 C 
BRANCH  18  19
ATOM     19  N   UNL A   1      32.699  33.355  27.451  1.00  0.00    -0.352 N 
ATOM     20  C   UNL A   1      33.166  34.246  28.394  1.00  0.00     0.251 C 
ATOM     21  H   UNL A   1      31.942  33.677  26.910  1.00  0.00     0.163 HD
ATOM     22  O   UNL A   1      32.604  35.319  28.552  1.00  0.00    -0.269 OA
BRANCH  20  23
ATOM     23  C   UNL A   1      34.324  33.881  29.245  1.00  0.00     0.039 A 
ATOM     24  C   UNL A   1      34.113  33.046  30.345  1.00  0.00     0.014 A 
ATOM     25  C   UNL A   1      35.610  34.330  28.942  1.00  0.00     0.014 A 
ATOM     26  C   UNL A   1      35.206  32.584  31.085  1.00  0.00     0.010 A 
ATOM     27  C   UNL A   1      36.702  33.808  29.629  1.00  0.00     0.010 A 
ATOM     28  C   UNL A   1      36.514  32.921  30.702  1.00  0.00    -0.014 A 
BRANCH  28  29
ATOM     29  C   UNL A   1      37.701  32.338  31.381  1.00  0.00     0.031 A 
ATOM     30  C   UNL A   1      38.450  31.196  30.751  1.00  0.00     0.074 A 
ATOM     31  C   UNL A   1      38.038  32.763  32.616  1.00  0.00     0.049 A 
ATOM     32  N   UNL A   1      39.439  30.492  31.238  1.00  0.00    -0.248 NA
ATOM     33  C   UNL A   1      38.010  30.767  29.413  1.00  0.00     0.031 C 
ATOM     34  C   UNL A   1      37.343  33.808  33.371  1.00  0.00     0.029 A 
ATOM     35  N   UNL A   1      39.033  32.348  33.468  1.00  0.00    -0.354 N 
ATOM     36  C   UNL A   1      39.711  29.515  30.289  1.00  0.00     0.074 A 
ATOM     37  C   UNL A   1      38.764  29.696  29.210  1.00  0.00     0.031 C 
ATOM     38  C   UNL A   1      37.935  33.959  34.565  1.00  0.00     0.029 A 
ATOM     39  C   UNL A   1      39.032  33.001  34.679  1.00  0.00     0.049 A 
ATOM     40  H   UNL A   1      39.684  31.648  33.234  1.00  0.00     0.167 HD
ATOM     41  C   UNL A   1      40.683  28.572  30.298  1.00  0.00     0.034 A 
ATOM     42  C   UNL A   1      39.821  32.847  35.762  1.00  0.00     0.034 A 
ATOM     43  C   UNL A   1      41.666  28.436  31.339  1.00  0.00     0.049 A 
ATOM     44  C   UNL A   1      40.931  31.830  35.723  1.00  0.00     0.074 A 
ATOM     45  C   UNL A   1      42.748  27.577  31.389  1.00  0.00     0.029 A 
ATOM     46  N   UNL A   1      41.689  29.179  32.508  1.00  0.00    -0.354 N 
ATOM     47  N   UNL A   1      41.265  31.015  34.752  1.00  0.00    -0.248 NA
ATOM     48  C   UNL A   1      41.789  31.731  36.912  1.00  0.00     0.031 C 
ATOM     49  C   UNL A   1      43.421  27.793  32.595  1.00  0.00     0.029 A 
ATOM     50  C   UNL A   1      42.765  28.797  33.289  1.00  0.00     0.049 A 
ATOM     51  H   UNL A   1      41.036  29.876  32.749  1.00  0.00     0.167 HD
ATOM     52  C   UNL A   1      42.387  30.328  35.201  1.00  0.00     0.074 A 
ATOM     53  C   UNL A   1      42.689  30.837  36.522  1.00  0.00     0.031 C 
ATOM     54  C   UNL A   1      43.090  29.349  34.580  1.00  0.00     0.034 A 
BRANCH  41  55
ATOM     55  C   UNL A   1      40.786  27.657  29.107  1.00  0.00     0.023 A 
ATOM     56  C   UNL A   1      39.927  26.543  29.018  1.00  0.00     0.012 A 
ATOM     57  C   UNL A   1      41.666  27.939  28.043  1.00  0.00     0.148 A 
ATOM     58  C   UNL A   1      39.960  25.707  27.904  1.00  0.00     0.002 A 
ATOM     59  C   UNL A   1      41.661  27.126  26.915  1.00  0.00     0.091 A 
ATOM     60  F   UNL A   1      42.488  28.992  28.154  1.00  0.00    -0.205 F 
ATOM     61  C   UNL A   1      40.818  26.005  26.848  1.00  0.00     0.022 A 
BRANCH  59  62
ATOM     62  S   UNL A   1      42.670  27.468  25.468  1.00  0.00     0.127 S 
ATOM     63  O   UNL A   1      43.981  27.706  26.071  1.00  0.00    -0.237 OA
ATOM     64  O   UNL A   1      42.564  26.218  24.716  1.00  0.00    -0.237 OA
ATOM     65  O   UNL A   1      42.063  28.621  24.819  1.00  0.00    -0.744 OA
ENDBRANCH  59  62
ENDBRANCH  41  55
BRANCH  42  66
ATOM     66  C   UNL A   1      39.640  33.745  36.938  1.00  0.00     0.023 A 
ATOM     67  C   UNL A   1      40.029  35.096  36.832  1.00  0.00     0.012 A 
ATOM     68  C   UNL A   1      39.032  33.297  38.127  1.00  0.00     0.148 A 
ATOM     69  C   UNL A   1      39.831  35.978  37.894  1.00  0.00     0.002 A 
ATOM     70  C   UNL A   1      38.791  34.195  39.161  1.00  0.00     0.091 A 
ATOM     71  F   UNL A   1      38.680  32.006  38.212  1.00  0.00    -0.205 F 
ATOM     72  C   UNL A   1      39.202  35.532  39.052  1.00  0.00     0.022 A 
BRANCH  70  73
ATOM     73  S   UNL A   1      37.863  33.747  40.634  1.00  0.00     0.127 S 
ATOM     74  O   UNL A   1      37.737  35.035  41.311  1.00  0.00    -0.237 OA
ATOM     75  O   UNL A   1      36.621  33.227  40.061  1.00  0.00    -0.237 OA
ATOM     76  O   UNL A   1      38.672  32.749  41.321  1.00  0.00    -0.744 OA
ENDBRANCH  70  73
ENDBRANCH  42  66
BRANCH  54  77
ATOM     77  C   UNL A   1      44.271  28.757  35.302  1.00  0.00     0.023 A 
ATOM     78  C   UNL A   1      45.553  29.302  35.095  1.00  0.00     0.012 A 
ATOM     79  C   UNL A   1      44.095  27.749  36.271  1.00  0.00     0.148 A 
ATOM     80  C   UNL A   1      46.645  28.844  35.831  1.00  0.00     0.002 A 
ATOM     81  C   UNL A   1      45.179  27.330  37.034  1.00  0.00     0.091 A 
ATOM     82  F   UNL A   1      42.870  27.231  36.440  1.00  0.00    -0.205 F 
ATOM     83  C   UNL A   1      46.455  27.871  36.810  1.00  0.00     0.022 A 
BRANCH  81  84
ATOM     84  S   UNL A   1      45.010  26.156  38.383  1.00  0.00     0.127 S 
ATOM     85  O   UNL A   1      44.542  24.961  37.682  1.00  0.00    -0.237 OA
ATOM     86  O   UNL A   1      46.379  26.066  38.892  1.00  0.00    -0.237 OA
ATOM     87  O   UNL A   1      44.058  26.748  39.313  1.00  0.00    -0.744 OA
ENDBRANCH  81  84
ENDBRANCH  54  77
ENDBRANCH  28  29
ENDBRANCH  20  23
ENDBRANCH  18  19
ENDBRANCH   1  18
TORSDOF 15
ENDMDL
MODEL 3
REMARK VINA RESULT:     -11.5      1.700      3.068
REMARK SMILES CN(C)c1ccc(F)c(C(=O)NCCCCNC(=O)c2ccc(-c3c4nc(c(-c5cccc(S(=O)(=O)[O-])c5F)c5ccc([nH]5)c(-c5cccc(S(=O)(=O)[O-])c5F)c5nc(c(-c6cccc(S(=O)(=O)[O-])c6F)c6ccc3[nH]6)C=C5)C=C4)cc2)c1
REMARK SMILES IDX 15 1 14 2 13 3 12 4 10 5 11 6 9 8 4 9 5 10 83 11 6 12 7 13
REMARK SMILES IDX 8 14 2 15 1 16 3 17 16 18 17 19 18 20 19 22 20 23 21 24
REMARK SMILES IDX 82 25 22 26 81 27 23 28 24 29 25 30 75 31 26 32 80 33 74 34
REMARK SMILES IDX 76 35 27 36 79 37 73 38 72 39 28 41 60 42 40 43 59 44 41 45
REMARK SMILES IDX 44 46 58 47 77 48 42 49 43 50 57 52 78 53 45 54 29 55 30 56
REMARK SMILES IDX 38 57 31 58 33 59 39 60 32 61 34 62 35 63 36 64 37 65 61 66
REMARK SMILES IDX 62 67 70 68 63 69 65 70 71 71 64 72 66 73 67 74 68 75 69 76
REMARK SMILES IDX 46 77 47 78 55 79 48 80 50 81 56 82 49 83 51 84 52 85 53 86
REMARK SMILES IDX 54 87
REMARK H PARENT 12 7 17 21 76 40 44 51
REMARK Flexibility Score: inf
ROOT
ATOM      1  C   UNL A   1      31.353  28.717  25.389  1.00  0.00     0.023 C 
ENDROOT
BRANCH   1   2
ATOM      2  C   UNL A   1      31.388  29.055  23.901  1.00  0.00     0.023 C 
BRANCH   2   3
ATOM      3  C   UNL A   1      30.808  28.018  22.946  1.00  0.00     0.116 C 
BRANCH   3   4
ATOM      4  N   UNL A   1      31.775  27.451  22.026  1.00  0.00    -0.352 N 
ATOM      5  C   UNL A   1      32.720  26.470  22.205  1.00  0.00     0.254 C 
ATOM      6  O   UNL A   1      33.426  26.161  21.243  1.00  0.00    -0.269 OA
ATOM      7  H   UNL A   1      31.750  27.834  21.120  1.00  0.00     0.163 HD
BRANCH   5   8
ATOM      8  C   UNL A   1      32.975  25.799  23.505  1.00  0.00     0.077 A 
ATOM      9  C   UNL A   1      32.346  23.953  25.012  1.00  0.00     0.037 A 
ATOM     10  C   UNL A   1      33.304  24.431  25.919  1.00  0.00     0.029 A 
ATOM     11  C   UNL A   1      32.240  24.627  23.783  1.00  0.00     0.042 A 
ATOM     12  C   UNL A   1      34.021  25.600  25.673  1.00  0.00     0.042 A 
ATOM     13  C   UNL A   1      33.808  26.307  24.496  1.00  0.00     0.136 A 
ATOM     14  F   UNL A   1      34.401  27.503  24.382  1.00  0.00    -0.206 F 
BRANCH   9  15
ATOM     15  N   UNL A   1      31.517  22.886  25.367  1.00  0.00    -0.378 N 
ATOM     16  C   UNL A   1      32.003  21.560  24.983  1.00  0.00     0.143 C 
ATOM     17  C   UNL A   1      30.699  22.957  26.571  1.00  0.00     0.143 C 
ENDBRANCH   9  15
ENDBRANCH   5   8
ENDBRANCH   3   4
ENDBRANCH   2   3
ENDBRANCH   1   2
BRANCH   1  18
ATOM     18  C   UNL A   1      32.405  29.386  26.268  1.00  0.00     0.116 C 
BRANCH  18  19
ATOM     19  N   UNL A   1      32.174  30.806  26.495  1.00  0.00    -0.352 N 
ATOM     20  C   UNL A   1      32.974  31.744  27.114  1.00  0.00     0.251 C 
ATOM     21  H   UNL A   1      31.316  31.149  26.154  1.00  0.00     0.163 HD
ATOM     22  O   UNL A   1      32.572  32.888  27.262  1.00  0.00    -0.269 OA
BRANCH  20  23
ATOM     23  C   UNL A   1      34.303  31.349  27.639  1.00  0.00     0.039 A 
ATOM     24  C   UNL A   1      35.252  32.345  27.883  1.00  0.00     0.014 A 
ATOM     25  C   UNL A   1      34.599  30.015  27.920  1.00  0.00     0.014 A 
ATOM     26  C   UNL A   1      36.463  32.013  28.498  1.00  0.00     0.010 A 
ATOM     27  C   UNL A   1      35.771  29.697  28.602  1.00  0.00     0.010 A 
ATOM     28  C   UNL A   1      36.711  30.694  28.909  1.00  0.00    -0.014 A 
BRANCH  28  29
ATOM     29  C   UNL A   1      37.926  30.333  29.686  1.00  0.00     0.031 A 
ATOM     30  C   UNL A   1      38.916  29.347  29.131  1.00  0.00     0.074 A 
ATOM     31  C   UNL A   1      38.081  30.809  30.939  1.00  0.00     0.049 A 
ATOM     32  N   UNL A   1      39.974  28.832  29.702  1.00  0.00    -0.248 NA
ATOM     33  C   UNL A   1      38.669  28.849  27.767  1.00  0.00     0.031 C 
ATOM     34  C   UNL A   1      37.152  31.709  31.624  1.00  0.00     0.029 A 
ATOM     35  N   UNL A   1      39.064  30.578  31.871  1.00  0.00    -0.354 N 
ATOM     36  C   UNL A   1      40.493  27.922  28.789  1.00  0.00     0.074 A 
ATOM     37  C   UNL A   1      39.617  27.932  27.637  1.00  0.00     0.031 C 
ATOM     38  C   UNL A   1      37.611  31.961  32.859  1.00  0.00     0.029 A 
ATOM     39  C   UNL A   1      38.850  31.218  33.070  1.00  0.00     0.049 A 
ATOM     40  H   UNL A   1      39.848  30.008  31.698  1.00  0.00     0.167 HD
ATOM     41  C   UNL A   1      41.614  27.170  28.886  1.00  0.00     0.034 A 
ATOM     42  C   UNL A   1      39.565  31.206  34.213  1.00  0.00     0.034 A 
ATOM     43  C   UNL A   1      42.519  27.211  30.002  1.00  0.00     0.049 A 
ATOM     44  C   UNL A   1      40.839  30.406  34.274  1.00  0.00     0.074 A 
ATOM     45  C   UNL A   1      43.732  26.562  30.147  1.00  0.00     0.029 A 
ATOM     46  N   UNL A   1      42.315  27.943  31.161  1.00  0.00    -0.354 N 
ATOM     47  N   UNL A   1      41.390  29.667  33.342  1.00  0.00    -0.248 NA
ATOM     48  C   UNL A   1      41.604  30.461  35.528  1.00  0.00     0.031 C 
ATOM     49  C   UNL A   1      44.257  26.892  31.400  1.00  0.00     0.029 A 
ATOM     50  C   UNL A   1      43.378  27.760  32.028  1.00  0.00     0.049 A 
ATOM     51  H   UNL A   1      41.530  28.510  31.341  1.00  0.00     0.167 HD
ATOM     52  C   UNL A   1      42.579  29.192  33.886  1.00  0.00     0.074 A 
ATOM     53  C   UNL A   1      42.678  29.744  35.220  1.00  0.00     0.031 C 
ATOM     54  C   UNL A   1      43.494  28.358  33.333  1.00  0.00     0.034 A 
BRANCH  41  55
ATOM     55  C   UNL A   1      41.975  26.291  27.717  1.00  0.00     0.023 A 
ATOM     56  C   UNL A   1      42.721  26.833  26.652  1.00  0.00     0.012 A 
ATOM     57  C   UNL A   1      41.651  24.920  27.707  1.00  0.00     0.148 A 
ATOM     58  C   UNL A   1      43.117  26.034  25.582  1.00  0.00     0.002 A 
ATOM     59  C   UNL A   1      42.086  24.120  26.658  1.00  0.00     0.091 A 
ATOM     60  F   UNL A   1      40.924  24.428  28.720  1.00  0.00    -0.205 F 
ATOM     61  C   UNL A   1      42.810  24.676  25.590  1.00  0.00     0.022 A 
BRANCH  59  62
ATOM     62  S   UNL A   1      41.813  22.344  26.613  1.00  0.00     0.127 S 
ATOM     63  O   UNL A   1      42.478  21.974  25.364  1.00  0.00    -0.237 OA
ATOM     64  O   UNL A   1      42.501  21.896  27.824  1.00  0.00    -0.237 OA
ATOM     65  O   UNL A   1      40.370  22.159  26.631  1.00  0.00    -0.744 OA
ENDBRANCH  59  62
ENDBRANCH  41  55
BRANCH  42  66
ATOM     66  C   UNL A   1      39.132  32.054  35.361  1.00  0.00     0.023 A 
ATOM     67  C   UNL A   1      38.259  31.507  36.323  1.00  0.00     0.012 A 
ATOM     68  C   UNL A   1      39.623  33.361  35.543  1.00  0.00     0.148 A 
ATOM     69  C   UNL A   1      37.870  32.253  37.435  1.00  0.00     0.002 A 
ATOM     70  C   UNL A   1      39.272  34.079  36.682  1.00  0.00     0.091 A 
ATOM     71  F   UNL A   1      40.443  33.867  34.611  1.00  0.00    -0.205 F 
ATOM     72  C   UNL A   1      38.386  33.532  37.622  1.00  0.00     0.022 A 
BRANCH  70  73
ATOM     73  S   UNL A   1      39.993  35.677  37.078  1.00  0.00     0.127 S 
ATOM     74  O   UNL A   1      41.408  35.342  37.211  1.00  0.00    -0.237 OA
ATOM     75  O   UNL A   1      39.654  36.463  35.891  1.00  0.00    -0.237 OA
ATOM     76  O   UNL A   1      39.330  36.116  38.299  1.00  0.00    -0.744 OA
ENDBRANCH  70  73
ENDBRANCH  42  66
BRANCH  54  77
ATOM     77  C   UNL A   1      44.702  27.987  34.153  1.00  0.00     0.023 A 
ATOM     78  C   UNL A   1      45.842  28.813  34.118  1.00  0.00     0.012 A 
ATOM     79  C   UNL A   1      44.662  26.898  35.046  1.00  0.00     0.148 A 
ATOM     80  C   UNL A   1      46.932  28.552  34.947  1.00  0.00     0.002 A 
ATOM     81  C   UNL A   1      45.732  26.671  35.904  1.00  0.00     0.091 A 
ATOM     82  F   UNL A   1      43.574  26.115  35.052  1.00  0.00    -0.205 F 
ATOM     83  C   UNL A   1      46.871  27.492  35.850  1.00  0.00     0.022 A 
BRANCH  81  84
ATOM     84  S   UNL A   1      45.700  25.394  37.167  1.00  0.00     0.127 S 
ATOM     85  O   UNL A   1      45.645  24.177  36.359  1.00  0.00    -0.237 OA
ATOM     86  O   UNL A   1      46.971  25.608  37.860  1.00  0.00    -0.237 OA
ATOM     87  O   UNL A   1      44.519  25.661  37.977  1.00  0.00    -0.744 OA
ENDBRANCH  81  84
ENDBRANCH  54  77
ENDBRANCH  28  29
ENDBRANCH  20  23
ENDBRANCH  18  19
ENDBRANCH   1  18
TORSDOF 15
ENDMDL
