MODEL 1
REMARK VINA RESULT:     -11.8      0.000      0.000
REMARK SMILES Cc1cc(C(=O)N2CCC[C@@H]2C)sc1/C=C/C(=O)NCCCCNC(=O)c1ccc(-c2c3nc(c(-c4cccc(S(=O)(=O)[O-])c4F)c4ccc([nH]4)c(-c4cccc(S(=O)(=O)[O-])c4F)c4nc(c(-c5cccc(S(=O)(=O)[O-])c5F)c5ccc2[nH]5)C=C4)C=C3)cc1
REMARK SMILES IDX 21 1 20 2 19 3 17 4 18 5 16 7 15 8 14 9 1 10 2 11 3 12 4 13
REMARK SMILES IDX 13 14 5 15 6 16 7 17 8 18 11 19 9 20 10 21 12 22 22 23 23 24
REMARK SMILES IDX 24 25 25 26 26 28 27 29 28 30 89 31 29 32 88 33 30 34 31 35
REMARK SMILES IDX 32 36 82 37 33 38 87 39 81 40 83 41 34 42 86 43 80 44 79 45
REMARK SMILES IDX 35 47 67 48 47 49 66 50 48 51 51 52 65 53 84 54 49 55 50 56
REMARK SMILES IDX 64 58 85 59 52 60 36 61 37 62 45 63 38 64 40 65 46 66 39 67
REMARK SMILES IDX 41 68 42 69 43 70 44 71 68 72 69 73 77 74 70 75 72 76 78 77
REMARK SMILES IDX 71 78 73 79 74 80 75 81 76 82 53 83 54 84 62 85 55 86 57 87
REMARK SMILES IDX 63 88 56 89 58 90 59 91 60 92 61 93
REMARK H PARENT 19 6 24 27 83 46 51 57
REMARK Flexibility Score: inf
ROOT
ATOM      1  C   UNL A   1      33.612  28.552  25.381  1.00  0.00     0.023 C 
ENDROOT
BRANCH   1   2
ATOM      2  C   UNL A   1      32.912  27.284  24.892  1.00  0.00     0.116 C 
BRANCH   2   3
ATOM      3  N   UNL A   1      31.683  27.051  25.627  1.00  0.00    -0.353 N 
ATOM      4  C   UNL A   1      31.032  25.887  25.893  1.00  0.00     0.244 C 
ATOM      5  O   UNL A   1      30.045  25.881  26.624  1.00  0.00    -0.270 OA
ATOM      6  H   UNL A   1      31.255  27.860  25.990  1.00  0.00     0.163 HD
BRANCH   4   7
ATOM      7  C   UNL A   1      31.557  24.604  25.383  1.00  0.00     0.072 C 
ATOM      8  C   UNL A   1      32.415  23.826  26.058  1.00  0.00     0.025 C 
BRANCH   8   9
ATOM      9  C   UNL A   1      32.920  22.600  25.531  1.00  0.00     0.031 A 
ATOM     10  C   UNL A   1      35.446  22.903  25.923  1.00  0.00     0.046 C 
ATOM     11  C   UNL A   1      34.241  22.182  25.406  1.00  0.00    -0.032 A 
ATOM     12  C   UNL A   1      34.324  20.913  24.735  1.00  0.00     0.029 A 
ATOM     13  C   UNL A   1      33.093  20.374  24.406  1.00  0.00     0.093 A 
ATOM     14  S   UNL A   1      31.848  21.405  24.931  1.00  0.00    -0.130 S 
BRANCH  13  15
ATOM     15  C   UNL A   1      32.851  19.025  23.900  1.00  0.00     0.264 C 
ATOM     16  O   UNL A   1      32.252  18.857  22.834  1.00  0.00    -0.268 OA
BRANCH  15  17
ATOM     17  N   UNL A   1      33.358  17.912  24.562  1.00  0.00    -0.335 N 
ATOM     18  C   UNL A   1      32.605  17.340  25.657  1.00  0.00     0.120 C 
ATOM     19  C   UNL A   1      34.606  17.168  24.355  1.00  0.00     0.082 C 
ATOM     20  C   UNL A   1      32.967  15.869  25.574  1.00  0.00     0.024 C 
ATOM     21  C   UNL A   1      34.450  15.906  25.224  1.00  0.00     0.026 C 
ATOM     22  C   UNL A   1      35.820  17.986  24.785  1.00  0.00     0.031 C 
ENDBRANCH  15  17
ENDBRANCH  13  15
ENDBRANCH   8   9
ENDBRANCH   4   7
ENDBRANCH   2   3
ENDBRANCH   1   2
BRANCH   1  23
ATOM     23  C   UNL A   1      32.727  29.801  25.381  1.00  0.00     0.023 C 
BRANCH  23  24
ATOM     24  C   UNL A   1      32.331  30.311  26.763  1.00  0.00     0.116 C 
BRANCH  24  25
ATOM     25  N   UNL A   1      32.331  31.763  26.863  1.00  0.00    -0.352 N 
ATOM     26  C   UNL A   1      33.288  32.579  27.425  1.00  0.00     0.251 C 
ATOM     27  H   UNL A   1      31.548  32.220  26.480  1.00  0.00     0.163 HD
ATOM     28  O   UNL A   1      33.097  33.780  27.521  1.00  0.00    -0.269 OA
BRANCH  26  29
ATOM     29  C   UNL A   1      34.531  31.967  27.946  1.00  0.00     0.039 A 
ATOM     30  C   UNL A   1      35.679  32.756  28.043  1.00  0.00     0.014 A 
ATOM     31  C   UNL A   1      34.543  30.640  28.380  1.00  0.00     0.014 A 
ATOM     32  C   UNL A   1      36.825  32.232  28.644  1.00  0.00     0.010 A 
ATOM     33  C   UNL A   1      35.662  30.142  29.038  1.00  0.00     0.010 A 
ATOM     34  C   UNL A   1      36.812  30.933  29.179  1.00  0.00    -0.014 A 
BRANCH  34  35
ATOM     35  C   UNL A   1      37.982  30.387  29.911  1.00  0.00     0.031 A 
ATOM     36  C   UNL A   1      38.291  30.862  31.305  1.00  0.00     0.074 A 
ATOM     37  C   UNL A   1      38.826  29.546  29.281  1.00  0.00     0.049 A 
ATOM     38  N   UNL A   1      39.304  30.559  32.072  1.00  0.00    -0.248 NA
ATOM     39  C   UNL A   1      37.352  31.826  31.903  1.00  0.00     0.031 C 
ATOM     40  C   UNL A   1      38.683  29.083  27.898  1.00  0.00     0.029 A 
ATOM     41  N   UNL A   1      39.989  28.956  29.709  1.00  0.00    -0.354 N 
ATOM     42  C   UNL A   1      39.150  31.322  33.223  1.00  0.00     0.074 A 
ATOM     43  C   UNL A   1      37.961  32.125  33.041  1.00  0.00     0.031 C 
ATOM     44  C   UNL A   1      39.717  28.282  27.594  1.00  0.00     0.029 A 
ATOM     45  C   UNL A   1      40.607  28.192  28.747  1.00  0.00     0.049 A 
ATOM     46  H   UNL A   1      40.346  29.069  30.619  1.00  0.00     0.167 HD
ATOM     47  C   UNL A   1      39.911  31.330  34.343  1.00  0.00     0.034 A 
ATOM     48  C   UNL A   1      41.761  27.497  28.788  1.00  0.00     0.034 A 
ATOM     49  C   UNL A   1      41.059  30.488  34.542  1.00  0.00     0.049 A 
ATOM     50  C   UNL A   1      42.551  27.472  30.069  1.00  0.00     0.074 A 
ATOM     51  C   UNL A   1      41.839  30.350  35.676  1.00  0.00     0.029 A 
ATOM     52  N   UNL A   1      41.591  29.640  33.583  1.00  0.00    -0.354 N 
ATOM     53  N   UNL A   1      42.296  28.070  31.208  1.00  0.00    -0.248 NA
ATOM     54  C   UNL A   1      43.767  26.645  30.085  1.00  0.00     0.031 C 
ATOM     55  C   UNL A   1      42.849  29.423  35.401  1.00  0.00     0.029 A 
ATOM     56  C   UNL A   1      42.689  28.974  34.099  1.00  0.00     0.049 A 
ATOM     57  H   UNL A   1      41.240  29.526  32.671  1.00  0.00     0.167 HD
ATOM     58  C   UNL A   1      43.293  27.662  32.085  1.00  0.00     0.074 A 
ATOM     59  C   UNL A   1      44.149  26.752  31.351  1.00  0.00     0.031 C 
ATOM     60  C   UNL A   1      43.491  28.021  33.377  1.00  0.00     0.034 A 
BRANCH  47  61
ATOM     61  C   UNL A   1      39.484  32.231  35.471  1.00  0.00     0.023 A 
ATOM     62  C   UNL A   1      38.650  31.718  36.485  1.00  0.00     0.012 A 
ATOM     63  C   UNL A   1      39.946  33.558  35.562  1.00  0.00     0.148 A 
ATOM     64  C   UNL A   1      38.256  32.520  37.555  1.00  0.00     0.002 A 
ATOM     65  C   UNL A   1      39.584  34.339  36.654  1.00  0.00     0.091 A 
ATOM     66  F   UNL A   1      40.719  34.036  34.576  1.00  0.00    -0.205 F 
ATOM     67  C   UNL A   1      38.731  33.826  37.645  1.00  0.00     0.022 A 
BRANCH  65  68
ATOM     68  S   UNL A   1      40.205  36.007  36.897  1.00  0.00     0.127 S 
ATOM     69  O   UNL A   1      41.641  35.769  37.038  1.00  0.00    -0.237 OA
ATOM     70  O   UNL A   1      39.817  36.667  35.651  1.00  0.00    -0.237 OA
ATOM     71  O   UNL A   1      39.533  36.514  38.085  1.00  0.00    -0.744 OA
ENDBRANCH  65  68
ENDBRANCH  47  61
BRANCH  48  72
ATOM     72  C   UNL A   1      42.191  26.700  27.605  1.00  0.00     0.023 A 
ATOM     73  C   UNL A   1      42.944  27.327  26.593  1.00  0.00     0.012 A 
ATOM     74  C   UNL A   1      41.895  25.329  27.491  1.00  0.00     0.148 A 
ATOM     75  C   UNL A   1      43.370  26.609  25.475  1.00  0.00     0.002 A 
ATOM     76  C   UNL A   1      42.367  24.607  26.400  1.00  0.00     0.091 A 
ATOM     77  F   UNL A   1      41.165  24.752  28.457  1.00  0.00    -0.205 F 
ATOM     78  C   UNL A   1      43.091  25.248  25.383  1.00  0.00     0.022 A 
BRANCH  76  79
ATOM     79  S   UNL A   1      42.167  22.827  26.269  1.00  0.00     0.127 S 
ATOM     80  O   UNL A   1      42.755  22.555  24.960  1.00  0.00    -0.237 OA
ATOM     81  O   UNL A   1      42.952  22.346  27.408  1.00  0.00    -0.237 OA
ATOM     82  O   UNL A   1      40.736  22.586  26.388  1.00  0.00    -0.744 OA
ENDBRANCH  76  79
ENDBRANCH  48  72
BRANCH  60  83
ATOM     83  C   UNL A   1      44.655  27.403  34.106  1.00  0.00     0.023 A 
ATOM     84  C   UNL A   1      45.907  28.050  34.094  1.00  0.00     0.012 A 
ATOM     85  C   UNL A   1      44.485  26.235  34.874  1.00  0.00     0.148 A 
ATOM     86  C   UNL A   1      46.977  27.529  34.819  1.00  0.00     0.002 A 
ATOM     87  C   UNL A   1      45.544  25.748  35.630  1.00  0.00     0.091 A 
ATOM     88  F   UNL A   1      43.291  25.625  34.854  1.00  0.00    -0.205 F 
ATOM     89  C   UNL A   1      46.793  26.386  35.596  1.00  0.00     0.022 A 
BRANCH  87  90
ATOM     90  S   UNL A   1      45.368  24.338  36.730  1.00  0.00     0.127 S 
ATOM     91  O   UNL A   1      44.333  24.805  37.650  1.00  0.00    -0.237 OA
ATOM     92  O   UNL A   1      44.939  23.279  35.816  1.00  0.00    -0.237 OA
ATOM     93  O   UNL A   1      46.684  24.126  37.320  1.00  0.00    -0.744 OA
ENDBRANCH  87  90
ENDBRANCH  60  83
ENDBRANCH  34  35
ENDBRANCH  26  29
ENDBRANCH  24  25
ENDBRANCH  23  24
ENDBRANCH   1  23
TORSDOF 17
ENDMDL
MODEL 2
REMARK VINA RESULT:     -11.7      2.372      8.035
REMARK SMILES Cc1cc(C(=O)N2CCC[C@@H]2C)sc1/C=C/C(=O)NCCCCNC(=O)c1ccc(-c2c3nc(c(-c4cccc(S(=O)(=O)[O-])c4F)c4ccc([nH]4)c(-c4cccc(S(=O)(=O)[O-])c4F)c4nc(c(-c5cccc(S(=O)(=O)[O-])c5F)c5ccc2[nH]5)C=C4)C=C3)cc1
REMARK SMILES IDX 21 1 20 2 19 3 17 4 18 5 16 7 15 8 14 9 1 10 2 11 3 12 4 13
REMARK SMILES IDX 13 14 5 15 6 16 7 17 8 18 11 19 9 20 10 21 12 22 22 23 23 24
REMARK SMILES IDX 24 25 25 26 26 28 27 29 28 30 89 31 29 32 88 33 30 34 31 35
REMARK SMILES IDX 32 36 82 37 33 38 87 39 81 40 83 41 34 42 86 43 80 44 79 45
REMARK SMILES IDX 35 47 67 48 47 49 66 50 48 51 51 52 65 53 84 54 49 55 50 56
REMARK SMILES IDX 64 58 85 59 52 60 36 61 37 62 45 63 38 64 40 65 46 66 39 67
REMARK SMILES IDX 41 68 42 69 43 70 44 71 68 72 69 73 77 74 70 75 72 76 78 77
REMARK SMILES IDX 71 78 73 79 74 80 75 81 76 82 53 83 54 84 62 85 55 86 57 87
REMARK SMILES IDX 63 88 56 89 58 90 59 91 60 92 61 93
REMARK H PARENT 19 6 24 27 83 46 51 57
REMARK Flexibility Score: inf
ROOT
ATOM      1  C   UNL A   1      30.652  31.800  25.448  1.00  0.00     0.023 C 
ENDROOT
BRANCH   1   2
ATOM      2  C   UNL A   1      30.864  30.380  24.923  1.00  0.00     0.116 C 
BRANCH   2   3
ATOM      3  N   UNL A   1      30.274  30.217  23.608  1.00  0.00    -0.353 N 
ATOM      4  C   UNL A   1      30.521  29.284  22.650  1.00  0.00     0.244 C 
ATOM      5  O   UNL A   1      29.842  29.250  21.627  1.00  0.00    -0.270 OA
ATOM      6  H   UNL A   1      29.589  30.884  23.374  1.00  0.00     0.163 HD
BRANCH   4   7
ATOM      7  C   UNL A   1      31.545  28.242  22.868  1.00  0.00     0.072 C 
ATOM      8  C   UNL A   1      31.471  27.311  23.830  1.00  0.00     0.025 C 
BRANCH   8   9
ATOM      9  C   UNL A   1      32.487  26.328  24.029  1.00  0.00     0.031 A 
ATOM     10  C   UNL A   1      33.728  27.311  26.058  1.00  0.00     0.046 C 
ATOM     11  C   UNL A   1      33.522  26.319  24.957  1.00  0.00    -0.032 A 
ATOM     12  C   UNL A   1      34.385  25.185  24.763  1.00  0.00     0.029 A 
ATOM     13  C   UNL A   1      33.980  24.344  23.742  1.00  0.00     0.093 A 
ATOM     14  S   UNL A   1      32.545  24.928  23.042  1.00  0.00    -0.130 S 
BRANCH  13  15
ATOM     15  C   UNL A   1      34.536  23.027  23.439  1.00  0.00     0.264 C 
ATOM     16  O   UNL A   1      35.582  22.926  22.792  1.00  0.00    -0.268 OA
BRANCH  15  17
ATOM     17  N   UNL A   1      33.948  21.871  23.940  1.00  0.00    -0.335 N 
ATOM     18  C   UNL A   1      34.773  20.902  24.628  1.00  0.00     0.120 C 
ATOM     19  C   UNL A   1      32.555  21.410  23.883  1.00  0.00     0.082 C 
ATOM     20  C   UNL A   1      33.808  20.301  25.633  1.00  0.00     0.024 C 
ATOM     21  C   UNL A   1      32.511  20.202  24.837  1.00  0.00     0.026 C 
ATOM     22  C   UNL A   1      32.160  21.006  22.466  1.00  0.00     0.031 C 
ENDBRANCH  15  17
ENDBRANCH  13  15
ENDBRANCH   8   9
ENDBRANCH   4   7
ENDBRANCH   2   3
ENDBRANCH   1   2
BRANCH   1  23
ATOM     23  C   UNL A   1      31.173  32.032  26.869  1.00  0.00     0.023 C 
BRANCH  23  24
ATOM     24  C   UNL A   1      32.524  32.734  26.953  1.00  0.00     0.116 C 
BRANCH  24  25
ATOM     25  N   UNL A   1      32.452  34.052  27.567  1.00  0.00    -0.352 N 
ATOM     26  C   UNL A   1      33.266  34.584  28.543  1.00  0.00     0.251 C 
ATOM     27  H   UNL A   1      31.731  34.638  27.243  1.00  0.00     0.163 HD
ATOM     28  O   UNL A   1      33.016  35.674  29.030  1.00  0.00    -0.269 OA
BRANCH  26  29
ATOM     29  C   UNL A   1      34.421  33.791  29.020  1.00  0.00     0.039 A 
ATOM     30  C   UNL A   1      35.710  34.230  28.712  1.00  0.00     0.014 A 
ATOM     31  C   UNL A   1      34.227  32.652  29.804  1.00  0.00     0.014 A 
ATOM     32  C   UNL A   1      36.811  33.564  29.254  1.00  0.00     0.010 A 
ATOM     33  C   UNL A   1      35.322  32.031  30.396  1.00  0.00     0.010 A 
ATOM     34  C   UNL A   1      36.623  32.482  30.130  1.00  0.00    -0.014 A 
BRANCH  34  35
ATOM     35  C   UNL A   1      37.771  31.820  30.798  1.00  0.00     0.031 A 
ATOM     36  C   UNL A   1      38.547  30.749  30.082  1.00  0.00     0.074 A 
ATOM     37  C   UNL A   1      38.046  32.108  32.086  1.00  0.00     0.049 A 
ATOM     38  N   UNL A   1      39.528  30.008  30.524  1.00  0.00    -0.248 NA
ATOM     39  C   UNL A   1      38.149  30.452  28.696  1.00  0.00     0.031 C 
ATOM     40  C   UNL A   1      37.307  33.063  32.915  1.00  0.00     0.029 A 
ATOM     41  N   UNL A   1      38.999  31.601  32.933  1.00  0.00    -0.354 N 
ATOM     42  C   UNL A   1      39.838  29.132  29.491  1.00  0.00     0.074 A 
ATOM     43  C   UNL A   1      38.919  29.413  28.409  1.00  0.00     0.031 C 
ATOM     44  C   UNL A   1      37.836  33.074  34.150  1.00  0.00     0.029 A 
ATOM     45  C   UNL A   1      38.932  32.112  34.209  1.00  0.00     0.049 A 
ATOM     46  H   UNL A   1      39.669  30.936  32.654  1.00  0.00     0.167 HD
ATOM     47  C   UNL A   1      40.818  28.199  29.436  1.00  0.00     0.034 A 
ATOM     48  C   UNL A   1      39.670  31.838  35.302  1.00  0.00     0.034 A 
ATOM     49  C   UNL A   1      41.765  27.963  30.491  1.00  0.00     0.049 A 
ATOM     50  C   UNL A   1      40.795  30.844  35.191  1.00  0.00     0.074 A 
ATOM     51  C   UNL A   1      42.854  27.111  30.495  1.00  0.00     0.029 A 
ATOM     52  N   UNL A   1      41.735  28.583  31.731  1.00  0.00    -0.354 N 
ATOM     53  N   UNL A   1      41.180  30.146  34.150  1.00  0.00    -0.248 NA
ATOM     54  C   UNL A   1      41.615  30.629  36.393  1.00  0.00     0.031 C 
ATOM     55  C   UNL A   1      43.480  27.208  31.742  1.00  0.00     0.029 A 
ATOM     56  C   UNL A   1      42.788  28.133  32.509  1.00  0.00     0.049 A 
ATOM     57  H   UNL A   1      41.066  29.246  32.016  1.00  0.00     0.167 HD
ATOM     58  C   UNL A   1      42.306  29.441  34.558  1.00  0.00     0.074 A 
ATOM     59  C   UNL A   1      42.553  29.809  35.937  1.00  0.00     0.031 C 
ATOM     60  C   UNL A   1      43.059  28.558  33.858  1.00  0.00     0.034 A 
BRANCH  47  61
ATOM     61  C   UNL A   1      40.960  27.411  28.161  1.00  0.00     0.023 A 
ATOM     62  C   UNL A   1      41.589  28.006  27.048  1.00  0.00     0.012 A 
ATOM     63  C   UNL A   1      40.528  26.073  28.077  1.00  0.00     0.148 A 
ATOM     64  C   UNL A   1      41.757  27.294  25.862  1.00  0.00     0.002 A 
ATOM     65  C   UNL A   1      40.737  25.356  26.904  1.00  0.00     0.091 A 
ATOM     66  F   UNL A   1      39.911  25.531  29.137  1.00  0.00    -0.205 F 
ATOM     67  C   UNL A   1      41.341  25.967  25.793  1.00  0.00     0.022 A 
BRANCH  65  68
ATOM     68  S   UNL A   1      40.305  23.619  26.744  1.00  0.00     0.127 S 
ATOM     69  O   UNL A   1      41.160  23.204  25.633  1.00  0.00    -0.237 OA
ATOM     70  O   UNL A   1      40.696  23.081  28.048  1.00  0.00    -0.237 OA
ATOM     71  O   UNL A   1      38.873  23.586  26.482  1.00  0.00    -0.744 OA
ENDBRANCH  65  68
ENDBRANCH  47  61
BRANCH  48  72
ATOM     72  C   UNL A   1      39.422  32.577  36.571  1.00  0.00     0.023 A 
ATOM     73  C   UNL A   1      40.107  33.786  36.806  1.00  0.00     0.012 A 
ATOM     74  C   UNL A   1      38.493  32.119  37.524  1.00  0.00     0.148 A 
ATOM     75  C   UNL A   1      39.894  34.509  37.980  1.00  0.00     0.002 A 
ATOM     76  C   UNL A   1      38.247  32.871  38.668  1.00  0.00     0.091 A 
ATOM     77  F   UNL A   1      37.860  30.960  37.290  1.00  0.00    -0.205 F 
ATOM     78  C   UNL A   1      38.957  34.057  38.905  1.00  0.00     0.022 A 
BRANCH  76  79
ATOM     79  S   UNL A   1      36.962  32.432  39.845  1.00  0.00     0.127 S 
ATOM     80  O   UNL A   1      35.766  32.457  39.007  1.00  0.00    -0.237 OA
ATOM     81  O   UNL A   1      37.385  31.099  40.277  1.00  0.00    -0.237 OA
ATOM     82  O   UNL A   1      37.030  33.445  40.889  1.00  0.00    -0.744 OA
ENDBRANCH  76  79
ENDBRANCH  48  72
BRANCH  60  83
ATOM     83  C   UNL A   1      44.249  27.948  34.549  1.00  0.00     0.023 A 
ATOM     84  C   UNL A   1      45.490  28.614  34.517  1.00  0.00     0.012 A 
ATOM     85  C   UNL A   1      44.115  26.766  35.304  1.00  0.00     0.148 A 
ATOM     86  C   UNL A   1      46.586  28.099  35.209  1.00  0.00     0.002 A 
ATOM     87  C   UNL A   1      45.200  26.284  36.026  1.00  0.00     0.091 A 
ATOM     88  F   UNL A   1      42.931  26.138  35.303  1.00  0.00    -0.205 F 
ATOM     89  C   UNL A   1      46.438  26.943  35.972  1.00  0.00     0.022 A 
BRANCH  87  90
ATOM     90  S   UNL A   1      45.072  24.856  37.109  1.00  0.00     0.127 S 
ATOM     91  O   UNL A   1      44.477  23.860  36.221  1.00  0.00    -0.237 OA
ATOM     92  O   UNL A   1      46.470  24.604  37.460  1.00  0.00    -0.237 OA
ATOM     93  O   UNL A   1      44.239  25.278  38.228  1.00  0.00    -0.744 OA
ENDBRANCH  87  90
ENDBRANCH  60  83
ENDBRANCH  34  35
ENDBRANCH  26  29
ENDBRANCH  24  25
ENDBRANCH  23  24
ENDBRANCH   1  23
TORSDOF 17
ENDMDL
MODEL 3
REMARK VINA RESULT:     -11.6      5.578      9.455
REMARK SMILES Cc1cc(C(=O)N2CCC[C@@H]2C)sc1/C=C/C(=O)NCCCCNC(=O)c1ccc(-c2c3nc(c(-c4cccc(S(=O)(=O)[O-])c4F)c4ccc([nH]4)c(-c4cccc(S(=O)(=O)[O-])c4F)c4nc(c(-c5cccc(S(=O)(=O)[O-])c5F)c5ccc2[nH]5)C=C4)C=C3)cc1
REMARK SMILES IDX 21 1 20 2 19 3 17 4 18 5 16 7 15 8 14 9 1 10 2 11 3 12 4 13
REMARK SMILES IDX 13 14 5 15 6 16 7 17 8 18 11 19 9 20 10 21 12 22 22 23 23 24
REMARK SMILES IDX 24 25 25 26 26 28 27 29 28 30 89 31 29 32 88 33 30 34 31 35
REMARK SMILES IDX 32 36 82 37 33 38 87 39 81 40 83 41 34 42 86 43 80 44 79 45
REMARK SMILES IDX 35 47 67 48 47 49 66 50 48 51 51 52 65 53 84 54 49 55 50 56
REMARK SMILES IDX 64 58 85 59 52 60 36 61 37 62 45 63 38 64 40 65 46 66 39 67
REMARK SMILES IDX 41 68 42 69 43 70 44 71 68 72 69 73 77 74 70 75 72 76 78 77
REMARK SMILES IDX 71 78 73 79 74 80 75 81 76 82 53 83 54 84 62 85 55 86 57 87
REMARK SMILES IDX 63 88 56 89 58 90 59 91 60 92 61 93
REMARK H PARENT 19 6 24 27 83 46 51 57
REMARK Flexibility Score: inf
ROOT
ATOM      1  C   UNL A   1      36.968  19.919  24.956  1.00  0.00     0.023 C 
ENDROOT
BRANCH   1   2
ATOM      2  C   UNL A   1      35.611  20.616  25.062  1.00  0.00     0.116 C 
BRANCH   2   3
ATOM      3  N   UNL A   1      34.533  19.648  25.142  1.00  0.00    -0.353 N 
ATOM      4  C   UNL A   1      33.222  19.826  25.453  1.00  0.00     0.244 C 
ATOM      5  O   UNL A   1      32.432  18.889  25.372  1.00  0.00    -0.270 OA
ATOM      6  H   UNL A   1      34.791  18.720  24.940  1.00  0.00     0.163 HD
BRANCH   4   7
ATOM      7  C   UNL A   1      32.711  21.168  25.801  1.00  0.00     0.072 C 
ATOM      8  C   UNL A   1      31.882  21.878  25.022  1.00  0.00     0.025 C 
BRANCH   8   9
ATOM      9  C   UNL A   1      31.421  23.181  25.377  1.00  0.00     0.031 A 
ATOM     10  C   UNL A   1      29.642  22.606  27.145  1.00  0.00     0.046 C 
ATOM     11  C   UNL A   1      30.409  23.538  26.261  1.00  0.00    -0.032 A 
ATOM     12  C   UNL A   1      30.197  24.960  26.263  1.00  0.00     0.029 A 
ATOM     13  C   UNL A   1      31.060  25.654  25.434  1.00  0.00     0.093 A 
ATOM     14  S   UNL A   1      32.132  24.574  24.675  1.00  0.00    -0.130 S 
BRANCH  13  15
ATOM     15  C   UNL A   1      31.216  27.106  25.373  1.00  0.00     0.264 C 
ATOM     16  O   UNL A   1      31.888  27.697  26.223  1.00  0.00    -0.268 OA
BRANCH  15  17
ATOM     17  N   UNL A   1      30.683  27.838  24.318  1.00  0.00    -0.335 N 
ATOM     18  C   UNL A   1      30.982  29.250  24.218  1.00  0.00     0.120 C 
ATOM     19  C   UNL A   1      29.801  27.423  23.220  1.00  0.00     0.082 C 
ATOM     20  C   UNL A   1      30.962  29.487  22.720  1.00  0.00     0.024 C 
ATOM     21  C   UNL A   1      29.793  28.625  22.258  1.00  0.00     0.026 C 
ATOM     22  C   UNL A   1      28.395  27.111  23.723  1.00  0.00     0.031 C 
ENDBRANCH  15  17
ENDBRANCH  13  15
ENDBRANCH   8   9
ENDBRANCH   4   7
ENDBRANCH   2   3
ENDBRANCH   1   2
BRANCH   1  23
ATOM     23  C   UNL A   1      38.165  20.873  24.914  1.00  0.00     0.023 C 
BRANCH  23  24
ATOM     24  C   UNL A   1      39.126  20.751  26.091  1.00  0.00     0.116 C 
BRANCH  24  25
ATOM     25  N   UNL A   1      40.020  19.606  25.989  1.00  0.00    -0.352 N 
ATOM     26  C   UNL A   1      41.395  19.588  26.062  1.00  0.00     0.251 C 
ATOM     27  H   UNL A   1      39.586  18.733  25.851  1.00  0.00     0.163 HD
ATOM     28  O   UNL A   1      42.012  18.555  25.858  1.00  0.00    -0.269 OA
BRANCH  26  29
ATOM     29  C   UNL A   1      42.111  20.851  26.351  1.00  0.00     0.039 A 
ATOM     30  C   UNL A   1      42.433  21.698  25.289  1.00  0.00     0.014 A 
ATOM     31  C   UNL A   1      42.414  21.213  27.665  1.00  0.00     0.014 A 
ATOM     32  C   UNL A   1      42.998  22.947  25.552  1.00  0.00     0.010 A 
ATOM     33  C   UNL A   1      42.915  22.483  27.930  1.00  0.00     0.010 A 
ATOM     34  C   UNL A   1      43.209  23.363  26.877  1.00  0.00    -0.014 A 
BRANCH  34  35
ATOM     35  C   UNL A   1      43.715  24.723  27.190  1.00  0.00     0.031 A 
ATOM     36  C   UNL A   1      42.776  25.779  27.705  1.00  0.00     0.074 A 
ATOM     37  C   UNL A   1      44.995  25.036  26.907  1.00  0.00     0.049 A 
ATOM     38  N   UNL A   1      43.014  27.038  27.963  1.00  0.00    -0.248 NA
ATOM     39  C   UNL A   1      41.379  25.374  27.934  1.00  0.00     0.031 C 
ATOM     40  C   UNL A   1      45.980  24.123  26.320  1.00  0.00     0.029 A 
ATOM     41  N   UNL A   1      45.680  26.217  27.045  1.00  0.00    -0.354 N 
ATOM     42  C   UNL A   1      41.795  27.584  28.343  1.00  0.00     0.074 A 
ATOM     43  C   UNL A   1      40.811  26.527  28.254  1.00  0.00     0.031 C 
ATOM     44  C   UNL A   1      47.139  24.778  26.150  1.00  0.00     0.029 A 
ATOM     45  C   UNL A   1      46.978  26.160  26.591  1.00  0.00     0.049 A 
ATOM     46  H   UNL A   1      45.281  27.029  27.433  1.00  0.00     0.167 HD
ATOM     47  C   UNL A   1      41.524  28.844  28.760  1.00  0.00     0.034 A 
ATOM     48  C   UNL A   1      47.929  27.112  26.537  1.00  0.00     0.034 A 
ATOM     49  C   UNL A   1      42.515  29.875  28.902  1.00  0.00     0.049 A 
ATOM     50  C   UNL A   1      47.617  28.485  27.068  1.00  0.00     0.074 A 
ATOM     51  C   UNL A   1      42.360  31.153  29.408  1.00  0.00     0.029 A 
ATOM     52  N   UNL A   1      43.846  29.745  28.539  1.00  0.00    -0.354 N 
ATOM     53  N   UNL A   1      46.499  28.936  27.584  1.00  0.00    -0.248 NA
ATOM     54  C   UNL A   1      48.709  29.470  27.050  1.00  0.00     0.031 C 
ATOM     55  C   UNL A   1      43.598  31.801  29.343  1.00  0.00     0.029 A 
ATOM     56  C   UNL A   1      44.526  30.920  28.810  1.00  0.00     0.049 A 
ATOM     57  H   UNL A   1      44.250  28.938  28.147  1.00  0.00     0.167 HD
ATOM     58  C   UNL A   1      46.762  30.240  27.985  1.00  0.00     0.074 A 
ATOM     59  C   UNL A   1      48.152  30.502  27.670  1.00  0.00     0.031 C 
ATOM     60  C   UNL A   1      45.925  31.144  28.551  1.00  0.00     0.034 A 
BRANCH  47  61
ATOM     61  C   UNL A   1      40.107  29.157  29.160  1.00  0.00     0.023 A 
ATOM     62  C   UNL A   1      39.158  29.455  28.161  1.00  0.00     0.012 A 
ATOM     63  C   UNL A   1      39.699  29.104  30.507  1.00  0.00     0.148 A 
ATOM     64  C   UNL A   1      37.833  29.727  28.498  1.00  0.00     0.002 A 
ATOM     65  C   UNL A   1      38.366  29.335  30.831  1.00  0.00     0.091 A 
ATOM     66  F   UNL A   1      40.620  28.843  31.446  1.00  0.00    -0.205 F 
ATOM     67  C   UNL A   1      37.435  29.656  29.830  1.00  0.00     0.022 A 
BRANCH  65  68
ATOM     68  S   UNL A   1      37.742  29.193  32.510  1.00  0.00     0.127 S 
ATOM     69  O   UNL A   1      38.660  30.065  33.241  1.00  0.00    -0.237 OA
ATOM     70  O   UNL A   1      36.381  29.713  32.380  1.00  0.00    -0.237 OA
ATOM     71  O   UNL A   1      37.818  27.778  32.846  1.00  0.00    -0.744 OA
ENDBRANCH  65  68
ENDBRANCH  47  61
BRANCH  48  72
ATOM     72  C   UNL A   1      49.291  26.773  26.036  1.00  0.00     0.023 A 
ATOM     73  C   UNL A   1      50.136  25.977  26.834  1.00  0.00     0.012 A 
ATOM     74  C   UNL A   1      49.741  27.199  24.773  1.00  0.00     0.148 A 
ATOM     75  C   UNL A   1      51.415  25.634  26.395  1.00  0.00     0.002 A 
ATOM     76  C   UNL A   1      50.997  26.810  24.318  1.00  0.00     0.091 A 
ATOM     77  F   UNL A   1      48.929  27.968  24.033  1.00  0.00    -0.205 F 
ATOM     78  C   UNL A   1      51.841  26.041  25.134  1.00  0.00     0.022 A 
BRANCH  76  79
ATOM     79  S   UNL A   1      51.571  27.178  22.656  1.00  0.00     0.127 S 
ATOM     80  O   UNL A   1      52.798  26.388  22.581  1.00  0.00    -0.237 OA
ATOM     81  O   UNL A   1      50.467  26.681  21.834  1.00  0.00    -0.237 OA
ATOM     82  O   UNL A   1      51.740  28.624  22.615  1.00  0.00    -0.744 OA
ENDBRANCH  76  79
ENDBRANCH  48  72
BRANCH  60  83
ATOM     83  C   UNL A   1      46.487  32.494  28.906  1.00  0.00     0.023 A 
ATOM     84  C   UNL A   1      47.176  32.664  30.123  1.00  0.00     0.012 A 
ATOM     85  C   UNL A   1      46.412  33.567  27.996  1.00  0.00     0.148 A 
ATOM     86  C   UNL A   1      47.762  33.890  30.438  1.00  0.00     0.002 A 
ATOM     87  C   UNL A   1      47.037  34.770  28.297  1.00  0.00     0.091 A 
ATOM     88  F   UNL A   1      45.735  33.389  26.853  1.00  0.00    -0.205 F 
ATOM     89  C   UNL A   1      47.704  34.937  29.521  1.00  0.00     0.022 A 
BRANCH  87  90
ATOM     90  S   UNL A   1      47.092  36.139  27.135  1.00  0.00     0.127 S 
ATOM     91  O   UNL A   1      47.890  37.121  27.868  1.00  0.00    -0.237 OA
ATOM     92  O   UNL A   1      47.767  35.543  25.982  1.00  0.00    -0.237 OA
ATOM     93  O   UNL A   1      45.705  36.513  26.892  1.00  0.00    -0.744 OA
ENDBRANCH  87  90
ENDBRANCH  60  83
ENDBRANCH  34  35
ENDBRANCH  26  29
ENDBRANCH  24  25
ENDBRANCH  23  24
ENDBRANCH   1  23
TORSDOF 17
ENDMDL
