MODEL 1
REMARK VINA RESULT:     -12.3      0.000      0.000
REMARK SMILES Cc1ccc(CN2/C(=[NH+]/C(=O)CCC(=O)NCCCCNC(=O)c3ccc(-c4c5nc(c(-c6cccc(S(=O)(=O)[O-])c6F)c6ccc([nH]6)c(-c6cccc(S(=O)(=O)[O-])c6F)c6nc(c(-c7cccc(S(=O)(=O)[O-])c7F)c7ccc4[nH]7)C=C6)C=C5)cc3)S[C@H]3CS(=O)(=O)C[C@@H]32)cc1
REMARK SMILES IDX 18 1 17 2 16 3 14 4 15 5 13 7 12 8 10 9 7 10 8 11 94 12 9 13
REMARK SMILES IDX 87 14 88 15 93 16 89 18 90 19 11 20 91 21 92 22 6 23 5 24
REMARK SMILES IDX 1 25 2 26 3 27 96 28 4 29 95 30 19 31 20 32 21 33 22 34
REMARK SMILES IDX 23 36 24 37 25 38 86 39 26 40 85 41 27 42 28 43 29 44 79 45
REMARK SMILES IDX 30 46 84 47 78 48 80 49 31 50 83 51 77 52 76 53 32 55 64 56
REMARK SMILES IDX 44 57 63 58 45 59 48 60 62 61 81 62 46 63 47 64 61 66 82 67
REMARK SMILES IDX 49 68 33 69 34 70 42 71 35 72 37 73 43 74 36 75 38 76 39 77
REMARK SMILES IDX 40 78 41 79 65 80 66 81 74 82 67 83 69 84 75 85 68 86 70 87
REMARK SMILES IDX 71 88 72 89 73 90 50 91 51 92 59 93 52 94 54 95 60 96 53 97
REMARK SMILES IDX 55 98 56 99 57 100 58 101
REMARK H PARENT 16 6 9 17 21 35 80 54 48 65
REMARK Flexibility Score: inf
ROOT
ATOM      1  C   UNL A   1      33.706  28.460  25.420  1.00  0.00     0.023 C 
ENDROOT
BRANCH   1   2
ATOM      2  C   UNL A   1      32.796  28.357  24.244  1.00  0.00     0.116 C 
BRANCH   2   3
ATOM      3  N   UNL A   1      33.402  27.335  23.441  1.00  0.00    -0.356 N 
ATOM      4  C   UNL A   1      33.347  26.022  23.847  1.00  0.00     0.220 C 
ATOM      5  O   UNL A   1      34.324  25.296  23.675  1.00  0.00    -0.275 OA
ATOM      6  H   UNL A   1      33.858  27.574  22.601  1.00  0.00     0.163 HD
BRANCH   4   7
ATOM      7  C   UNL A   1      32.043  25.533  24.491  1.00  0.00     0.112 C 
BRANCH   7   8
ATOM      8  C   UNL A   1      32.118  24.750  25.835  1.00  0.00     0.138 C 
BRANCH   8   9
ATOM      9  C   UNL A   1      32.294  23.197  25.778  1.00  0.00     0.308 C 
ATOM     10  N   UNL A   1      34.975  20.597  24.958  1.00  0.00    -0.247 N 
ATOM     11  C   UNL A   1      33.766  21.473  24.976  1.00  0.00     0.314 C 
ATOM     12  C   UNL A   1      34.529  19.243  24.397  1.00  0.00     0.206 C 
ATOM     13  N   UNL A   1      33.549  22.703  25.357  1.00  0.00    -0.205 N 
ATOM     14  S   UNL A   1      32.329  20.523  24.309  1.00  0.00    -0.030 SA
ATOM     15  C   UNL A   1      33.085  19.014  24.883  1.00  0.00     0.120 C 
ATOM     16  C   UNL A   1      35.249  17.950  24.704  1.00  0.00     0.187 C 
ATOM     17  H   UNL A   1      34.311  23.327  25.349  1.00  0.00     0.316 HD
ATOM     18  C   UNL A   1      32.566  17.623  24.585  1.00  0.00     0.156 C 
ATOM     19  S   UNL A   1      34.047  16.700  24.208  1.00  0.00     0.155 S 
ATOM     20  O   UNL A   1      31.385  22.513  26.253  1.00  0.00    -0.247 OA
ATOM     21  O   UNL A   1      34.162  15.546  25.048  1.00  0.00    -0.229 OA
ATOM     22  O   UNL A   1      34.113  16.590  22.752  1.00  0.00    -0.229 OA
BRANCH  10  23
ATOM     23  C   UNL A   1      36.536  20.913  24.849  1.00  0.00     0.273 C 
BRANCH  23  24
ATOM     24  C   UNL A   1      37.453  21.953  25.680  1.00  0.00    -0.007 A 
ATOM     25  C   UNL A   1      40.289  25.199  26.233  1.00  0.00     0.044 C 
ATOM     26  C   UNL A   1      39.317  24.055  26.479  1.00  0.00    -0.051 A 
ATOM     27  C   UNL A   1      39.714  22.719  26.425  1.00  0.00     0.004 A 
ATOM     28  C   UNL A   1      37.941  24.260  26.530  1.00  0.00     0.004 A 
ATOM     29  C   UNL A   1      38.780  21.674  26.086  1.00  0.00     0.008 A 
ATOM     30  C   UNL A   1      37.020  23.220  26.140  1.00  0.00     0.008 A 
ENDBRANCH  23  24
ENDBRANCH  10  23
ENDBRANCH   8   9
ENDBRANCH   7   8
ENDBRANCH   4   7
ENDBRANCH   2   3
ENDBRANCH   1   2
BRANCH   1  31
ATOM     31  C   UNL A   1      33.011  28.859  26.650  1.00  0.00     0.023 C 
BRANCH  31  32
ATOM     32  C   UNL A   1      32.869  30.192  27.309  1.00  0.00     0.116 C 
BRANCH  32  33
ATOM     33  N   UNL A   1      33.724  31.320  27.429  1.00  0.00    -0.352 N 
ATOM     34  C   UNL A   1      35.097  31.226  27.718  1.00  0.00     0.251 C 
ATOM     35  H   UNL A   1      33.335  32.215  27.304  1.00  0.00     0.163 HD
ATOM     36  O   UNL A   1      35.759  32.263  27.700  1.00  0.00    -0.269 OA
BRANCH  34  37
ATOM     37  C   UNL A   1      35.825  29.931  28.020  1.00  0.00     0.039 A 
ATOM     38  C   UNL A   1      35.624  29.416  29.302  1.00  0.00     0.014 A 
ATOM     39  C   UNL A   1      37.069  29.734  27.471  1.00  0.00     0.014 A 
ATOM     40  C   UNL A   1      36.696  29.462  30.168  1.00  0.00     0.010 A 
ATOM     41  C   UNL A   1      38.124  29.881  28.278  1.00  0.00     0.010 A 
ATOM     42  C   UNL A   1      37.867  29.931  29.632  1.00  0.00    -0.014 A 
BRANCH  42  43
ATOM     43  C   UNL A   1      38.953  30.597  30.281  1.00  0.00     0.031 A 
ATOM     44  C   UNL A   1      40.147  29.758  30.371  1.00  0.00     0.074 A 
ATOM     45  C   UNL A   1      38.874  31.928  30.021  1.00  0.00     0.049 A 
ATOM     46  N   UNL A   1      41.255  30.134  30.874  1.00  0.00    -0.248 NA
ATOM     47  C   UNL A   1      40.189  28.390  29.835  1.00  0.00     0.031 C 
ATOM     48  C   UNL A   1      39.888  32.885  29.596  1.00  0.00     0.029 A 
ATOM     49  N   UNL A   1      37.726  32.712  30.044  1.00  0.00    -0.354 N 
ATOM     50  C   UNL A   1      42.207  29.297  30.330  1.00  0.00     0.074 A 
ATOM     51  C   UNL A   1      41.496  28.131  29.886  1.00  0.00     0.031 C 
ATOM     52  C   UNL A   1      39.385  34.136  29.707  1.00  0.00     0.029 A 
ATOM     53  C   UNL A   1      38.078  34.025  30.344  1.00  0.00     0.049 A 
ATOM     54  H   UNL A   1      36.812  32.390  29.875  1.00  0.00     0.167 HD
ATOM     55  C   UNL A   1      43.438  29.825  30.098  1.00  0.00     0.034 A 
ATOM     56  C   UNL A   1      37.787  34.446  31.618  1.00  0.00     0.034 A 
ATOM     57  C   UNL A   1      43.435  31.256  30.479  1.00  0.00     0.049 A 
ATOM     58  C   UNL A   1      39.024  34.465  32.510  1.00  0.00     0.074 A 
ATOM     59  C   UNL A   1      43.413  32.437  29.754  1.00  0.00     0.029 A 
ATOM     60  N   UNL A   1      43.091  31.601  31.781  1.00  0.00    -0.354 N 
ATOM     61  N   UNL A   1      40.195  33.999  32.167  1.00  0.00    -0.248 NA
ATOM     62  C   UNL A   1      39.052  35.057  33.843  1.00  0.00     0.031 C 
ATOM     63  C   UNL A   1      42.977  33.480  30.628  1.00  0.00     0.029 A 
ATOM     64  C   UNL A   1      42.741  32.937  31.881  1.00  0.00     0.049 A 
ATOM     65  H   UNL A   1      43.095  30.972  32.539  1.00  0.00     0.167 HD
ATOM     66  C   UNL A   1      41.073  34.072  33.212  1.00  0.00     0.074 A 
ATOM     67  C   UNL A   1      40.326  34.826  34.210  1.00  0.00     0.031 C 
ATOM     68  C   UNL A   1      42.305  33.465  33.177  1.00  0.00     0.034 A 
BRANCH  55  69
ATOM     69  C   UNL A   1      44.584  29.197  29.326  1.00  0.00     0.023 A 
ATOM     70  C   UNL A   1      45.507  28.460  30.100  1.00  0.00     0.012 A 
ATOM     71  C   UNL A   1      44.840  29.235  27.933  1.00  0.00     0.148 A 
ATOM     72  C   UNL A   1      46.623  27.827  29.550  1.00  0.00     0.002 A 
ATOM     73  C   UNL A   1      45.957  28.600  27.378  1.00  0.00     0.091 A 
ATOM     74  F   UNL A   1      44.007  29.861  27.106  1.00  0.00    -0.205 F 
ATOM     75  C   UNL A   1      46.851  27.898  28.187  1.00  0.00     0.022 A 
BRANCH  73  76
ATOM     76  S   UNL A   1      46.331  28.636  25.613  1.00  0.00     0.127 S 
ATOM     77  O   UNL A   1      45.137  28.017  25.036  1.00  0.00    -0.237 OA
ATOM     78  O   UNL A   1      46.459  30.069  25.350  1.00  0.00    -0.237 OA
ATOM     79  O   UNL A   1      47.553  27.862  25.430  1.00  0.00    -0.744 OA
ENDBRANCH  73  76
ENDBRANCH  55  69
BRANCH  56  80
ATOM     80  C   UNL A   1      36.404  33.977  32.021  1.00  0.00     0.023 A 
ATOM     81  C   UNL A   1      36.309  33.336  33.285  1.00  0.00     0.012 A 
ATOM     82  C   UNL A   1      35.240  34.567  31.484  1.00  0.00     0.148 A 
ATOM     83  C   UNL A   1      35.151  33.438  34.059  1.00  0.00     0.002 A 
ATOM     84  C   UNL A   1      34.080  34.653  32.261  1.00  0.00     0.091 A 
ATOM     85  F   UNL A   1      35.304  35.107  30.259  1.00  0.00    -0.205 F 
ATOM     86  C   UNL A   1      34.053  34.132  33.564  1.00  0.00     0.022 A 
BRANCH  84  87
ATOM     87  S   UNL A   1      32.618  35.544  31.703  1.00  0.00     0.127 S 
ATOM     88  O   UNL A   1      32.477  35.057  30.334  1.00  0.00    -0.237 OA
ATOM     89  O   UNL A   1      31.577  35.081  32.621  1.00  0.00    -0.237 OA
ATOM     90  O   UNL A   1      32.949  36.955  31.848  1.00  0.00    -0.744 OA
ENDBRANCH  84  87
ENDBRANCH  56  80
BRANCH  68  91
ATOM     91  C   UNL A   1      43.229  33.254  34.374  1.00  0.00     0.023 A 
ATOM     92  C   UNL A   1      44.229  34.175  34.733  1.00  0.00     0.012 A 
ATOM     93  C   UNL A   1      43.023  32.175  35.279  1.00  0.00     0.148 A 
ATOM     94  C   UNL A   1      45.018  34.007  35.876  1.00  0.00     0.002 A 
ATOM     95  C   UNL A   1      43.703  32.099  36.489  1.00  0.00     0.091 A 
ATOM     96  F   UNL A   1      42.185  31.176  34.966  1.00  0.00    -0.205 F 
ATOM     97  C   UNL A   1      44.735  32.989  36.773  1.00  0.00     0.022 A 
BRANCH  95  98
ATOM     98  S   UNL A   1      43.169  30.971  37.784  1.00  0.00     0.127 S 
ATOM     99  O   UNL A   1      44.177  31.197  38.816  1.00  0.00    -0.237 OA
ATOM    100  O   UNL A   1      41.836  31.483  38.111  1.00  0.00    -0.237 OA
ATOM    101  O   UNL A   1      43.163  29.653  37.164  1.00  0.00    -0.744 OA
ENDBRANCH  95  98
ENDBRANCH  68  91
ENDBRANCH  42  43
ENDBRANCH  34  37
ENDBRANCH  32  33
ENDBRANCH  31  32
ENDBRANCH   1  31
TORSDOF 18
ENDMDL
MODEL 2
REMARK VINA RESULT:     -12.2      3.508      4.889
REMARK SMILES Cc1ccc(CN2/C(=[NH+]/C(=O)CCC(=O)NCCCCNC(=O)c3ccc(-c4c5nc(c(-c6cccc(S(=O)(=O)[O-])c6F)c6ccc([nH]6)c(-c6cccc(S(=O)(=O)[O-])c6F)c6nc(c(-c7cccc(S(=O)(=O)[O-])c7F)c7ccc4[nH]7)C=C6)C=C5)cc3)S[C@H]3CS(=O)(=O)C[C@@H]32)cc1
REMARK SMILES IDX 18 1 17 2 16 3 14 4 15 5 13 7 12 8 10 9 7 10 8 11 94 12 9 13
REMARK SMILES IDX 87 14 88 15 93 16 89 18 90 19 11 20 91 21 92 22 6 23 5 24
REMARK SMILES IDX 1 25 2 26 3 27 96 28 4 29 95 30 19 31 20 32 21 33 22 34
REMARK SMILES IDX 23 36 24 37 25 38 86 39 26 40 85 41 27 42 28 43 29 44 79 45
REMARK SMILES IDX 30 46 84 47 78 48 80 49 31 50 83 51 77 52 76 53 32 55 64 56
REMARK SMILES IDX 44 57 63 58 45 59 48 60 62 61 81 62 46 63 47 64 61 66 82 67
REMARK SMILES IDX 49 68 33 69 34 70 42 71 35 72 37 73 43 74 36 75 38 76 39 77
REMARK SMILES IDX 40 78 41 79 65 80 66 81 74 82 67 83 69 84 75 85 68 86 70 87
REMARK SMILES IDX 71 88 72 89 73 90 50 91 51 92 59 93 52 94 54 95 60 96 53 97
REMARK SMILES IDX 55 98 56 99 57 100 58 101
REMARK H PARENT 16 6 9 17 21 35 80 54 48 65
REMARK Flexibility Score: inf
ROOT
ATOM      1  C   UNL A   1      33.306  30.466  26.715  1.00  0.00     0.023 C 
ENDROOT
BRANCH   1   2
ATOM      2  C   UNL A   1      33.735  29.120  26.239  1.00  0.00     0.116 C 
BRANCH   2   3
ATOM      3  N   UNL A   1      32.538  28.566  25.679  1.00  0.00    -0.356 N 
ATOM      4  C   UNL A   1      32.260  28.742  24.344  1.00  0.00     0.220 C 
ATOM      5  O   UNL A   1      31.100  28.948  23.992  1.00  0.00    -0.275 OA
ATOM      6  H   UNL A   1      31.915  28.059  26.251  1.00  0.00     0.163 HD
BRANCH   4   7
ATOM      7  C   UNL A   1      33.433  28.660  23.358  1.00  0.00     0.112 C 
BRANCH   7   8
ATOM      8  C   UNL A   1      33.442  27.522  22.295  1.00  0.00     0.138 C 
BRANCH   8   9
ATOM      9  C   UNL A   1      33.063  26.077  22.756  1.00  0.00     0.308 C 
ATOM     10  N   UNL A   1      34.458  23.248  24.918  1.00  0.00    -0.247 N 
ATOM     11  C   UNL A   1      33.968  24.109  23.800  1.00  0.00     0.314 C 
ATOM     12  C   UNL A   1      34.093  21.805  24.553  1.00  0.00     0.206 C 
ATOM     13  N   UNL A   1      33.989  25.395  23.578  1.00  0.00    -0.205 N 
ATOM     14  S   UNL A   1      33.179  23.036  22.520  1.00  0.00    -0.030 SA
ATOM     15  C   UNL A   1      32.754  21.863  23.793  1.00  0.00     0.120 C 
ATOM     16  C   UNL A   1      33.903  20.721  25.588  1.00  0.00     0.187 C 
ATOM     17  H   UNL A   1      34.697  25.925  24.011  1.00  0.00     0.316 HD
ATOM     18  C   UNL A   1      32.149  20.498  23.540  1.00  0.00     0.156 C 
ATOM     19  S   UNL A   1      33.043  19.434  24.661  1.00  0.00     0.155 S 
ATOM     20  O   UNL A   1      31.920  25.690  22.504  1.00  0.00    -0.247 OA
ATOM     21  O   UNL A   1      32.147  18.723  25.521  1.00  0.00    -0.229 OA
ATOM     22  O   UNL A   1      34.047  18.733  23.862  1.00  0.00    -0.229 OA
BRANCH  10  23
ATOM     23  C   UNL A   1      35.643  23.418  25.973  1.00  0.00     0.273 C 
BRANCH  23  24
ATOM     24  C   UNL A   1      37.178  22.911  25.912  1.00  0.00    -0.007 A 
ATOM     25  C   UNL A   1      40.776  20.934  27.333  1.00  0.00     0.044 C 
ATOM     26  C   UNL A   1      39.781  21.723  26.498  1.00  0.00    -0.051 A 
ATOM     27  C   UNL A   1      39.539  23.080  26.717  1.00  0.00     0.004 A 
ATOM     28  C   UNL A   1      38.884  21.096  25.638  1.00  0.00     0.004 A 
ATOM     29  C   UNL A   1      38.273  23.679  26.375  1.00  0.00     0.008 A 
ATOM     30  C   UNL A   1      37.600  21.685  25.345  1.00  0.00     0.008 A 
ENDBRANCH  23  24
ENDBRANCH  10  23
ENDBRANCH   8   9
ENDBRANCH   7   8
ENDBRANCH   4   7
ENDBRANCH   2   3
ENDBRANCH   1   2
BRANCH   1  31
ATOM     31  C   UNL A   1      34.161  30.996  27.783  1.00  0.00     0.023 C 
BRANCH  31  32
ATOM     32  C   UNL A   1      34.969  32.250  27.862  1.00  0.00     0.116 C 
BRANCH  32  33
ATOM     33  N   UNL A   1      36.162  32.604  28.548  1.00  0.00    -0.352 N 
ATOM     34  C   UNL A   1      37.246  31.725  28.723  1.00  0.00     0.251 C 
ATOM     35  H   UNL A   1      36.234  33.512  28.920  1.00  0.00     0.163 HD
ATOM     36  O   UNL A   1      38.267  32.171  29.245  1.00  0.00    -0.269 OA
BRANCH  34  37
ATOM     37  C   UNL A   1      37.255  30.274  28.284  1.00  0.00     0.039 A 
ATOM     38  C   UNL A   1      36.869  29.352  29.260  1.00  0.00     0.014 A 
ATOM     39  C   UNL A   1      38.224  29.860  27.404  1.00  0.00     0.014 A 
ATOM     40  C   UNL A   1      37.853  28.529  29.765  1.00  0.00     0.010 A 
ATOM     41  C   UNL A   1      39.242  29.151  27.901  1.00  0.00     0.010 A 
ATOM     42  C   UNL A   1      39.086  28.656  29.179  1.00  0.00    -0.014 A 
BRANCH  42  43
ATOM     43  C   UNL A   1      40.379  28.410  29.737  1.00  0.00     0.031 A 
ATOM     44  C   UNL A   1      40.967  27.163  29.252  1.00  0.00     0.074 A 
ATOM     45  C   UNL A   1      40.994  29.600  29.968  1.00  0.00     0.049 A 
ATOM     46  N   UNL A   1      42.124  26.740  29.574  1.00  0.00    -0.248 NA
ATOM     47  C   UNL A   1      40.277  26.289  28.291  1.00  0.00     0.031 C 
ATOM     48  C   UNL A   1      42.343  30.059  29.663  1.00  0.00     0.029 A 
ATOM     49  N   UNL A   1      40.420  30.736  30.526  1.00  0.00    -0.354 N 
ATOM     50  C   UNL A   1      42.487  25.866  28.569  1.00  0.00     0.074 A 
ATOM     51  C   UNL A   1      41.261  25.461  27.940  1.00  0.00     0.031 C 
ATOM     52  C   UNL A   1      42.566  31.227  30.305  1.00  0.00     0.029 A 
ATOM     53  C   UNL A   1      41.411  31.482  31.159  1.00  0.00     0.049 A 
ATOM     54  H   UNL A   1      39.466  30.975  30.481  1.00  0.00     0.167 HD
ATOM     55  C   UNL A   1      43.806  25.808  28.244  1.00  0.00     0.034 A 
ATOM     56  C   UNL A   1      41.420  31.423  32.531  1.00  0.00     0.034 A 
ATOM     57  C   UNL A   1      44.556  26.776  29.075  1.00  0.00     0.049 A 
ATOM     58  C   UNL A   1      42.514  30.499  33.056  1.00  0.00     0.074 A 
ATOM     59  C   UNL A   1      45.128  28.012  28.818  1.00  0.00     0.029 A 
ATOM     60  N   UNL A   1      44.481  26.670  30.459  1.00  0.00    -0.354 N 
ATOM     61  N   UNL A   1      43.263  29.733  32.308  1.00  0.00    -0.248 NA
ATOM     62  C   UNL A   1      42.885  30.402  34.463  1.00  0.00     0.031 C 
ATOM     63  C   UNL A   1      45.323  28.673  30.070  1.00  0.00     0.029 A 
ATOM     64  C   UNL A   1      44.878  27.841  31.084  1.00  0.00     0.049 A 
ATOM     65  H   UNL A   1      44.183  25.862  30.936  1.00  0.00     0.167 HD
ATOM     66  C   UNL A   1      44.083  28.954  33.076  1.00  0.00     0.074 A 
ATOM     67  C   UNL A   1      43.866  29.481  34.416  1.00  0.00     0.031 C 
ATOM     68  C   UNL A   1      44.820  27.923  32.546  1.00  0.00     0.034 A 
BRANCH  55  69
ATOM     69  C   UNL A   1      44.435  25.103  27.057  1.00  0.00     0.023 A 
ATOM     70  C   UNL A   1      45.230  25.915  26.218  1.00  0.00     0.012 A 
ATOM     71  C   UNL A   1      44.350  23.737  26.689  1.00  0.00     0.148 A 
ATOM     72  C   UNL A   1      45.873  25.428  25.078  1.00  0.00     0.002 A 
ATOM     73  C   UNL A   1      44.994  23.245  25.548  1.00  0.00     0.091 A 
ATOM     74  F   UNL A   1      43.667  22.874  27.437  1.00  0.00    -0.205 F 
ATOM     75  C   UNL A   1      45.754  24.092  24.740  1.00  0.00     0.022 A 
BRANCH  73  76
ATOM     76  S   UNL A   1      44.899  21.519  25.033  1.00  0.00     0.127 S 
ATOM     77  O   UNL A   1      44.758  21.642  23.581  1.00  0.00    -0.237 OA
ATOM     78  O   UNL A   1      46.188  20.989  25.475  1.00  0.00    -0.237 OA
ATOM     79  O   UNL A   1      43.734  20.949  25.699  1.00  0.00    -0.744 OA
ENDBRANCH  73  76
ENDBRANCH  55  69
BRANCH  56  80
ATOM     80  C   UNL A   1      40.007  31.527  33.068  1.00  0.00     0.023 A 
ATOM     81  C   UNL A   1      39.430  30.317  33.539  1.00  0.00     0.012 A 
ATOM     82  C   UNL A   1      39.493  32.746  33.561  1.00  0.00     0.148 A 
ATOM     83  C   UNL A   1      38.509  30.320  34.589  1.00  0.00     0.002 A 
ATOM     84  C   UNL A   1      38.561  32.739  34.603  1.00  0.00     0.091 A 
ATOM     85  F   UNL A   1      39.981  33.891  33.064  1.00  0.00    -0.205 F 
ATOM     86  C   UNL A   1      38.108  31.528  35.148  1.00  0.00     0.022 A 
BRANCH  84  87
ATOM     87  S   UNL A   1      37.997  34.256  35.393  1.00  0.00     0.127 S 
ATOM     88  O   UNL A   1      39.256  34.841  35.846  1.00  0.00    -0.237 OA
ATOM     89  O   UNL A   1      37.351  34.979  34.298  1.00  0.00    -0.237 OA
ATOM     90  O   UNL A   1      37.080  33.826  36.440  1.00  0.00    -0.744 OA
ENDBRANCH  84  87
ENDBRANCH  56  80
BRANCH  68  91
ATOM     91  C   UNL A   1      45.537  26.838  33.345  1.00  0.00     0.023 A 
ATOM     92  C   UNL A   1      46.918  26.871  33.602  1.00  0.00     0.012 A 
ATOM     93  C   UNL A   1      44.807  25.806  34.000  1.00  0.00     0.148 A 
ATOM     94  C   UNL A   1      47.550  25.910  34.400  1.00  0.00     0.002 A 
ATOM     95  C   UNL A   1      45.415  24.951  34.913  1.00  0.00     0.091 A 
ATOM     96  F   UNL A   1      43.510  25.609  33.723  1.00  0.00    -0.205 F 
ATOM     97  C   UNL A   1      46.795  24.970  35.083  1.00  0.00     0.022 A 
BRANCH  95  98
ATOM     98  S   UNL A   1      44.433  23.922  36.014  1.00  0.00     0.127 S 
ATOM     99  O   UNL A   1      45.462  23.309  36.851  1.00  0.00    -0.237 OA
ATOM    100  O   UNL A   1      43.597  24.910  36.700  1.00  0.00    -0.237 OA
ATOM    101  O   UNL A   1      43.694  23.023  35.138  1.00  0.00    -0.744 OA
ENDBRANCH  95  98
ENDBRANCH  68  91
ENDBRANCH  42  43
ENDBRANCH  34  37
ENDBRANCH  32  33
ENDBRANCH  31  32
ENDBRANCH   1  31
TORSDOF 18
ENDMDL
MODEL 3
REMARK VINA RESULT:     -12.0      4.171     10.683
REMARK SMILES Cc1ccc(CN2/C(=[NH+]/C(=O)CCC(=O)NCCCCNC(=O)c3ccc(-c4c5nc(c(-c6cccc(S(=O)(=O)[O-])c6F)c6ccc([nH]6)c(-c6cccc(S(=O)(=O)[O-])c6F)c6nc(c(-c7cccc(S(=O)(=O)[O-])c7F)c7ccc4[nH]7)C=C6)C=C5)cc3)S[C@H]3CS(=O)(=O)C[C@@H]32)cc1
REMARK SMILES IDX 18 1 17 2 16 3 14 4 15 5 13 7 12 8 10 9 7 10 8 11 94 12 9 13
REMARK SMILES IDX 87 14 88 15 93 16 89 18 90 19 11 20 91 21 92 22 6 23 5 24
REMARK SMILES IDX 1 25 2 26 3 27 96 28 4 29 95 30 19 31 20 32 21 33 22 34
REMARK SMILES IDX 23 36 24 37 25 38 86 39 26 40 85 41 27 42 28 43 29 44 79 45
REMARK SMILES IDX 30 46 84 47 78 48 80 49 31 50 83 51 77 52 76 53 32 55 64 56
REMARK SMILES IDX 44 57 63 58 45 59 48 60 62 61 81 62 46 63 47 64 61 66 82 67
REMARK SMILES IDX 49 68 33 69 34 70 42 71 35 72 37 73 43 74 36 75 38 76 39 77
REMARK SMILES IDX 40 78 41 79 65 80 66 81 74 82 67 83 69 84 75 85 68 86 70 87
REMARK SMILES IDX 71 88 72 89 73 90 50 91 51 92 59 93 52 94 54 95 60 96 53 97
REMARK SMILES IDX 55 98 56 99 57 100 58 101
REMARK H PARENT 16 6 9 17 21 35 80 54 48 65
REMARK Flexibility Score: inf
ROOT
ATOM      1  C   UNL A   1      35.140  21.120  25.184  1.00  0.00     0.023 C 
ENDROOT
BRANCH   1   2
ATOM      2  C   UNL A   1      34.522  22.042  24.188  1.00  0.00     0.116 C 
BRANCH   2   3
ATOM      3  N   UNL A   1      33.431  22.629  24.909  1.00  0.00    -0.356 N 
ATOM      4  C   UNL A   1      33.532  23.919  25.376  1.00  0.00     0.220 C 
ATOM      5  O   UNL A   1      33.061  24.200  26.476  1.00  0.00    -0.275 OA
ATOM      6  H   UNL A   1      32.609  22.109  25.069  1.00  0.00     0.163 HD
BRANCH   4   7
ATOM      7  C   UNL A   1      34.230  24.946  24.475  1.00  0.00     0.112 C 
BRANCH   7   8
ATOM      8  C   UNL A   1      33.704  25.153  23.024  1.00  0.00     0.138 C 
BRANCH   8   9
ATOM      9  C   UNL A   1      32.803  26.398  22.733  1.00  0.00     0.308 C 
ATOM     10  N   UNL A   1      31.312  29.406  24.563  1.00  0.00    -0.247 N 
ATOM     11  C   UNL A   1      31.539  28.131  23.818  1.00  0.00     0.314 C 
ATOM     12  C   UNL A   1      29.983  29.979  24.060  1.00  0.00     0.206 C 
ATOM     13  N   UNL A   1      32.495  27.242  23.824  1.00  0.00    -0.205 N 
ATOM     14  S   UNL A   1      30.120  27.850  22.669  1.00  0.00    -0.030 SA
ATOM     15  C   UNL A   1      29.878  29.613  22.567  1.00  0.00     0.120 C 
ATOM     16  C   UNL A   1      29.649  31.451  24.121  1.00  0.00     0.187 C 
ATOM     17  H   UNL A   1      33.035  27.154  24.642  1.00  0.00     0.316 HD
ATOM     18  C   UNL A   1      28.715  30.284  21.866  1.00  0.00     0.156 C 
ATOM     19  S   UNL A   1      28.247  31.587  22.994  1.00  0.00     0.155 S 
ATOM     20  O   UNL A   1      32.556  26.646  21.552  1.00  0.00    -0.247 OA
ATOM     21  O   UNL A   1      28.261  32.861  22.342  1.00  0.00    -0.229 OA
ATOM     22  O   UNL A   1      27.066  31.114  23.714  1.00  0.00    -0.229 OA
BRANCH  10  23
ATOM     23  C   UNL A   1      31.789  29.918  25.998  1.00  0.00     0.273 C 
BRANCH  23  24
ATOM     24  C   UNL A   1      33.277  30.064  26.614  1.00  0.00    -0.007 A 
ATOM     25  C   UNL A   1      36.385  29.732  29.632  1.00  0.00     0.044 C 
ATOM     26  C   UNL A   1      35.626  30.033  28.349  1.00  0.00    -0.051 A 
ATOM     27  C   UNL A   1      34.857  31.186  28.194  1.00  0.00     0.004 A 
ATOM     28  C   UNL A   1      35.457  29.073  27.355  1.00  0.00     0.004 A 
ATOM     29  C   UNL A   1      33.731  31.219  27.295  1.00  0.00     0.008 A 
ATOM     30  C   UNL A   1      34.298  29.090  26.495  1.00  0.00     0.008 A 
ENDBRANCH  23  24
ENDBRANCH  10  23
ENDBRANCH   8   9
ENDBRANCH   7   8
ENDBRANCH   4   7
ENDBRANCH   2   3
ENDBRANCH   1   2
BRANCH   1  31
ATOM     31  C   UNL A   1      36.607  21.133  25.144  1.00  0.00     0.023 C 
BRANCH  31  32
ATOM     32  C   UNL A   1      37.599  22.038  25.796  1.00  0.00     0.116 C 
BRANCH  32  33
ATOM     33  N   UNL A   1      38.885  21.834  26.365  1.00  0.00    -0.352 N 
ATOM     34  C   UNL A   1      39.678  22.874  26.882  1.00  0.00     0.251 C 
ATOM     35  H   UNL A   1      39.239  20.916  26.398  1.00  0.00     0.163 HD
ATOM     36  O   UNL A   1      40.732  22.567  27.440  1.00  0.00    -0.269 OA
BRANCH  34  37
ATOM     37  C   UNL A   1      39.312  24.343  26.828  1.00  0.00     0.039 A 
ATOM     38  C   UNL A   1      39.908  25.070  25.795  1.00  0.00     0.014 A 
ATOM     39  C   UNL A   1      39.110  25.013  28.009  1.00  0.00     0.014 A 
ATOM     40  C   UNL A   1      40.869  25.992  26.156  1.00  0.00     0.010 A 
ATOM     41  C   UNL A   1      40.084  25.829  28.424  1.00  0.00     0.010 A 
ATOM     42  C   UNL A   1      41.062  26.147  27.504  1.00  0.00    -0.014 A 
BRANCH  42  43
ATOM     43  C   UNL A   1      42.239  26.550  28.207  1.00  0.00     0.031 A 
ATOM     44  C   UNL A   1      42.128  27.903  28.749  1.00  0.00     0.074 A 
ATOM     45  C   UNL A   1      42.811  25.457  28.776  1.00  0.00     0.049 A 
ATOM     46  N   UNL A   1      43.028  28.477  29.443  1.00  0.00    -0.248 NA
ATOM     47  C   UNL A   1      40.919  28.723  28.577  1.00  0.00     0.031 C 
ATOM     48  C   UNL A   1      43.327  25.233  30.121  1.00  0.00     0.029 A 
ATOM     49  N   UNL A   1      42.988  24.211  28.187  1.00  0.00    -0.354 N 
ATOM     50  C   UNL A   1      42.372  29.462  30.152  1.00  0.00     0.074 A 
ATOM     51  C   UNL A   1      41.153  29.714  29.436  1.00  0.00     0.031 C 
ATOM     52  C   UNL A   1      44.019  24.072  30.138  1.00  0.00     0.029 A 
ATOM     53  C   UNL A   1      44.088  23.586  28.765  1.00  0.00     0.049 A 
ATOM     54  H   UNL A   1      42.424  23.831  27.474  1.00  0.00     0.167 HD
ATOM     55  C   UNL A   1      42.838  29.745  31.398  1.00  0.00     0.034 A 
ATOM     56  C   UNL A   1      45.229  23.553  28.000  1.00  0.00     0.034 A 
ATOM     57  C   UNL A   1      43.976  28.850  31.707  1.00  0.00     0.049 A 
ATOM     58  C   UNL A   1      46.247  24.596  28.446  1.00  0.00     0.074 A 
ATOM     59  C   UNL A   1      44.121  27.737  32.521  1.00  0.00     0.029 A 
ATOM     60  N   UNL A   1      45.077  28.849  30.859  1.00  0.00    -0.354 N 
ATOM     61  N   UNL A   1      46.022  25.518  29.346  1.00  0.00    -0.248 NA
ATOM     62  C   UNL A   1      47.617  24.654  27.951  1.00  0.00     0.031 C 
ATOM     63  C   UNL A   1      45.288  27.031  32.093  1.00  0.00     0.029 A 
ATOM     64  C   UNL A   1      45.853  27.715  31.029  1.00  0.00     0.049 A 
ATOM     65  H   UNL A   1      45.281  29.568  30.217  1.00  0.00     0.167 HD
ATOM     66  C   UNL A   1      47.093  26.360  29.458  1.00  0.00     0.074 A 
ATOM     67  C   UNL A   1      48.098  25.717  28.623  1.00  0.00     0.031 C 
ATOM     68  C   UNL A   1      47.035  27.525  30.182  1.00  0.00     0.034 A 
BRANCH  55  69
ATOM     69  C   UNL A   1      42.185  30.617  32.454  1.00  0.00     0.023 A 
ATOM     70  C   UNL A   1      42.962  31.704  32.911  1.00  0.00     0.012 A 
ATOM     71  C   UNL A   1      40.895  30.498  33.028  1.00  0.00     0.148 A 
ATOM     72  C   UNL A   1      42.516  32.598  33.886  1.00  0.00     0.002 A 
ATOM     73  C   UNL A   1      40.444  31.393  34.004  1.00  0.00     0.091 A 
ATOM     74  F   UNL A   1      40.062  29.538  32.634  1.00  0.00    -0.205 F 
ATOM     75  C   UNL A   1      41.256  32.442  34.436  1.00  0.00     0.022 A 
BRANCH  73  76
ATOM     76  S   UNL A   1      38.816  31.270  34.774  1.00  0.00     0.127 S 
ATOM     77  O   UNL A   1      38.891  29.967  35.436  1.00  0.00    -0.237 OA
ATOM     78  O   UNL A   1      38.814  32.415  35.684  1.00  0.00    -0.237 OA
ATOM     79  O   UNL A   1      37.839  31.336  33.695  1.00  0.00    -0.744 OA
ENDBRANCH  73  76
ENDBRANCH  55  69
BRANCH  56  80
ATOM     80  C   UNL A   1      44.887  23.196  26.568  1.00  0.00     0.023 A 
ATOM     81  C   UNL A   1      45.551  23.950  25.564  1.00  0.00     0.012 A 
ATOM     82  C   UNL A   1      44.391  21.920  26.224  1.00  0.00     0.148 A 
ATOM     83  C   UNL A   1      45.867  23.382  24.327  1.00  0.00     0.002 A 
ATOM     84  C   UNL A   1      44.701  21.364  24.979  1.00  0.00     0.091 A 
ATOM     85  F   UNL A   1      43.698  21.235  27.144  1.00  0.00    -0.205 F 
ATOM     86  C   UNL A   1      45.479  22.076  24.052  1.00  0.00     0.022 A 
BRANCH  84  87
ATOM     87  S   UNL A   1      44.248  19.676  24.544  1.00  0.00     0.127 S 
ATOM     88  O   UNL A   1      44.485  19.666  23.103  1.00  0.00    -0.237 OA
ATOM     89  O   UNL A   1      45.191  18.870  25.319  1.00  0.00    -0.237 OA
ATOM     90  O   UNL A   1      42.861  19.530  24.964  1.00  0.00    -0.744 OA
ENDBRANCH  84  87
ENDBRANCH  56  80
BRANCH  68  91
ATOM     91  C   UNL A   1      48.064  28.652  30.142  1.00  0.00     0.023 A 
ATOM     92  C   UNL A   1      49.198  28.674  30.973  1.00  0.00     0.012 A 
ATOM     93  C   UNL A   1      48.000  29.670  29.149  1.00  0.00     0.148 A 
ATOM     94  C   UNL A   1      50.173  29.673  30.873  1.00  0.00     0.002 A 
ATOM     95  C   UNL A   1      49.047  30.564  28.955  1.00  0.00     0.091 A 
ATOM     96  F   UNL A   1      46.903  29.813  28.392  1.00  0.00    -0.205 F 
ATOM     97  C   UNL A   1      50.117  30.598  29.843  1.00  0.00     0.022 A 
BRANCH  95  98
ATOM     98  S   UNL A   1      49.136  31.579  27.472  1.00  0.00     0.127 S 
ATOM     99  O   UNL A   1      49.082  30.573  26.414  1.00  0.00    -0.237 OA
ATOM    100  O   UNL A   1      47.933  32.406  27.590  1.00  0.00    -0.237 OA
ATOM    101  O   UNL A   1      50.383  32.322  27.593  1.00  0.00    -0.744 OA
ENDBRANCH  95  98
ENDBRANCH  68  91
ENDBRANCH  42  43
ENDBRANCH  34  37
ENDBRANCH  32  33
ENDBRANCH  31  32
ENDBRANCH   1  31
TORSDOF 18
ENDMDL
