MODEL 1
REMARK VINA RESULT:     -12.8      0.000      0.000
REMARK SMILES CN1C(=O)C[C@@H](C(=O)NCCCCNC(=O)c2ccc(-c3c4nc(c(-c5cccc(S(=O)(=O)[O-])c5F)c5ccc([nH]5)c(-c5cccc(S(=O)(=O)[O-])c5F)c5nc(c(-c6cccc(S(=O)(=O)[O-])c6F)c6ccc3[nH]6)C=C5)C=C4)cc2)C12CC[NH+](CCSc1ccccc1)CC2
REMARK SMILES IDX 11 1 10 2 9 3 7 4 8 5 6 7 1 8 2 9 3 10 80 11 4 12 5 13 81 14
REMARK SMILES IDX 94 15 82 16 93 17 83 18 84 20 85 21 86 22 87 23 88 24 92 25
REMARK SMILES IDX 89 26 91 27 90 28 12 29 13 30 14 31 15 32 16 34 17 35 18 36
REMARK SMILES IDX 79 37 19 38 78 39 20 40 21 41 22 42 72 43 23 44 77 45 71 46
REMARK SMILES IDX 73 47 24 48 76 49 70 50 69 51 25 53 57 54 37 55 56 56 38 57
REMARK SMILES IDX 41 58 55 59 74 60 39 61 40 62 54 64 75 65 42 66 26 67 27 68
REMARK SMILES IDX 35 69 28 70 30 71 36 72 29 73 31 74 32 75 33 76 34 77 58 78
REMARK SMILES IDX 59 79 67 80 60 81 62 82 68 83 61 84 63 85 64 86 65 87 66 88
REMARK SMILES IDX 43 89 44 90 52 91 45 92 47 93 53 94 46 95 48 96 49 97 50 98
REMARK SMILES IDX 51 99
REMARK H PARENT 9 6 83 19 14 33 73 52 41 63
REMARK Flexibility Score: inf
ROOT
ATOM      1  C   UNL A   1      36.468  22.602  23.457  1.00  0.00     0.023 C 
ENDROOT
BRANCH   1   2
ATOM      2  C   UNL A   1      35.201  23.442  23.355  1.00  0.00     0.116 C 
BRANCH   2   3
ATOM      3  N   UNL A   1      34.010  22.625  23.313  1.00  0.00    -0.356 N 
ATOM      4  C   UNL A   1      32.967  22.530  24.165  1.00  0.00     0.226 C 
ATOM      5  O   UNL A   1      32.094  21.694  23.905  1.00  0.00    -0.275 OA
ATOM      6  H   UNL A   1      33.950  22.034  22.528  1.00  0.00     0.163 HD
BRANCH   4   7
ATOM      7  C   UNL A   1      32.815  23.381  25.406  1.00  0.00     0.114 C 
ATOM      8  C   UNL A   1      29.650  25.374  25.900  1.00  0.00     0.147 C 
ATOM      9  N   UNL A   1      30.784  24.462  25.875  1.00  0.00    -0.339 N 
ATOM     10  C   UNL A   1      30.827  23.391  26.763  1.00  0.00     0.223 C 
ATOM     11  C   UNL A   1      32.120  24.764  25.300  1.00  0.00     0.065 C 
ATOM     12  O   UNL A   1      29.952  23.071  27.552  1.00  0.00    -0.275 OA
ATOM     13  C   UNL A   1      32.148  22.682  26.603  1.00  0.00     0.116 C 
ATOM     14  C   UNL A   1      32.055  25.460  23.907  1.00  0.00     0.091 C 
ATOM     15  C   UNL A   1      32.873  25.643  26.306  1.00  0.00     0.091 C 
ATOM     16  C   UNL A   1      33.149  26.475  23.548  1.00  0.00     0.264 C 
ATOM     17  C   UNL A   1      34.086  26.325  25.706  1.00  0.00     0.264 C 
ATOM     18  N   UNL A   1      33.688  27.231  24.668  1.00  0.00    -0.334 N 
ATOM     19  H   UNL A   1      34.525  27.693  24.312  1.00  0.00     0.348 HD
BRANCH  18  20
ATOM     20  C   UNL A   1      33.074  28.509  25.055  1.00  0.00     0.273 C 
BRANCH  20  21
ATOM     21  C   UNL A   1      32.119  29.372  24.163  1.00  0.00     0.136 C 
BRANCH  21  22
ATOM     22  S   UNL A   1      30.435  28.759  23.624  1.00  0.00    -0.120 SA
BRANCH  22  23
ATOM     23  C   UNL A   1      29.564  30.138  22.890  1.00  0.00     0.007 A 
ATOM     24  C   UNL A   1      29.203  30.211  21.538  1.00  0.00     0.015 A 
ATOM     25  C   UNL A   1      29.232  31.219  23.724  1.00  0.00     0.015 A 
ATOM     26  C   UNL A   1      28.402  31.270  21.073  1.00  0.00     0.001 A 
ATOM     27  C   UNL A   1      28.408  32.253  23.270  1.00  0.00     0.001 A 
ATOM     28  C   UNL A   1      27.970  32.266  21.949  1.00  0.00     0.000 A 
ENDBRANCH  22  23
ENDBRANCH  21  22
ENDBRANCH  20  21
ENDBRANCH  18  20
ENDBRANCH   4   7
ENDBRANCH   2   3
ENDBRANCH   1   2
BRANCH   1  29
ATOM     29  C   UNL A   1      36.447  21.616  24.618  1.00  0.00     0.023 C 
BRANCH  29  30
ATOM     30  C   UNL A   1      37.473  21.946  25.684  1.00  0.00     0.116 C 
BRANCH  30  31
ATOM     31  N   UNL A   1      38.561  20.970  25.750  1.00  0.00    -0.352 N 
ATOM     32  C   UNL A   1      39.812  21.174  26.271  1.00  0.00     0.251 C 
ATOM     33  H   UNL A   1      38.375  20.075  25.384  1.00  0.00     0.163 HD
ATOM     34  O   UNL A   1      40.691  20.325  26.214  1.00  0.00    -0.269 OA
BRANCH  32  35
ATOM     35  C   UNL A   1      40.044  22.492  26.871  1.00  0.00     0.039 A 
ATOM     36  C   UNL A   1      40.966  22.601  27.910  1.00  0.00     0.014 A 
ATOM     37  C   UNL A   1      39.535  23.612  26.210  1.00  0.00     0.014 A 
ATOM     38  C   UNL A   1      41.424  23.865  28.266  1.00  0.00     0.010 A 
ATOM     39  C   UNL A   1      40.068  24.854  26.502  1.00  0.00     0.010 A 
ATOM     40  C   UNL A   1      41.002  24.992  27.542  1.00  0.00    -0.014 A 
BRANCH  40  41
ATOM     41  C   UNL A   1      41.492  26.345  27.874  1.00  0.00     0.031 A 
ATOM     42  C   UNL A   1      42.906  26.709  27.520  1.00  0.00     0.074 A 
ATOM     43  C   UNL A   1      40.711  27.194  28.570  1.00  0.00     0.049 A 
ATOM     44  N   UNL A   1      43.567  27.801  27.790  1.00  0.00    -0.248 NA
ATOM     45  C   UNL A   1      43.696  25.690  26.804  1.00  0.00     0.031 C 
ATOM     46  C   UNL A   1      39.356  26.905  29.050  1.00  0.00     0.029 A 
ATOM     47  N   UNL A   1      40.956  28.467  29.018  1.00  0.00    -0.354 N 
ATOM     48  C   UNL A   1      44.857  27.580  27.326  1.00  0.00     0.074 A 
ATOM     49  C   UNL A   1      44.903  26.235  26.804  1.00  0.00     0.031 C 
ATOM     50  C   UNL A   1      38.887  27.975  29.713  1.00  0.00     0.029 A 
ATOM     51  C   UNL A   1      39.912  29.014  29.727  1.00  0.00     0.049 A 
ATOM     52  H   UNL A   1      41.800  28.944  28.848  1.00  0.00     0.167 HD
ATOM     53  C   UNL A   1      45.900  28.439  27.294  1.00  0.00     0.034 A 
ATOM     54  C   UNL A   1      39.801  30.221  30.315  1.00  0.00     0.034 A 
ATOM     55  C   UNL A   1      45.819  29.799  27.744  1.00  0.00     0.049 A 
ATOM     56  C   UNL A   1      40.950  31.188  30.194  1.00  0.00     0.074 A 
ATOM     57  C   UNL A   1      46.776  30.792  27.661  1.00  0.00     0.029 A 
ATOM     58  N   UNL A   1      44.706  30.358  28.353  1.00  0.00    -0.354 N 
ATOM     59  N   UNL A   1      42.108  31.021  29.602  1.00  0.00    -0.248 NA
ATOM     60  C   UNL A   1      40.763  32.520  30.786  1.00  0.00     0.031 C 
ATOM     61  C   UNL A   1      46.245  31.952  28.232  1.00  0.00     0.029 A 
ATOM     62  C   UNL A   1      44.951  31.685  28.655  1.00  0.00     0.049 A 
ATOM     63  H   UNL A   1      43.866  29.882  28.544  1.00  0.00     0.167 HD
ATOM     64  C   UNL A   1      42.774  32.235  29.717  1.00  0.00     0.074 A 
ATOM     65  C   UNL A   1      41.880  33.134  30.418  1.00  0.00     0.031 C 
ATOM     66  C   UNL A   1      44.018  32.574  29.297  1.00  0.00     0.034 A 
BRANCH  53  67
ATOM     67  C   UNL A   1      47.187  27.947  26.688  1.00  0.00     0.023 A 
ATOM     68  C   UNL A   1      48.236  27.528  27.533  1.00  0.00     0.012 A 
ATOM     69  C   UNL A   1      47.350  27.872  25.293  1.00  0.00     0.148 A 
ATOM     70  C   UNL A   1      49.442  27.079  27.001  1.00  0.00     0.002 A 
ATOM     71  C   UNL A   1      48.539  27.379  24.768  1.00  0.00     0.091 A 
ATOM     72  F   UNL A   1      46.354  28.303  24.506  1.00  0.00    -0.205 F 
ATOM     73  C   UNL A   1      49.589  26.994  25.619  1.00  0.00     0.022 A 
BRANCH  71  74
ATOM     74  S   UNL A   1      48.800  27.157  23.005  1.00  0.00     0.127 S 
ATOM     75  O   UNL A   1      48.043  28.280  22.452  1.00  0.00    -0.237 OA
ATOM     76  O   UNL A   1      50.252  27.284  22.890  1.00  0.00    -0.237 OA
ATOM     77  O   UNL A   1      48.279  25.834  22.688  1.00  0.00    -0.744 OA
ENDBRANCH  71  74
ENDBRANCH  53  67
BRANCH  54  78
ATOM     78  C   UNL A   1      38.529  30.612  30.986  1.00  0.00     0.023 A 
ATOM     79  C   UNL A   1      38.362  30.337  32.358  1.00  0.00     0.012 A 
ATOM     80  C   UNL A   1      37.502  31.279  30.291  1.00  0.00     0.148 A 
ATOM     81  C   UNL A   1      37.184  30.688  33.018  1.00  0.00     0.002 A 
ATOM     82  C   UNL A   1      36.351  31.673  30.967  1.00  0.00     0.091 A 
ATOM     83  F   UNL A   1      37.674  31.523  28.985  1.00  0.00    -0.205 F 
ATOM     84  C   UNL A   1      36.183  31.364  32.326  1.00  0.00     0.022 A 
BRANCH  82  85
ATOM     85  S   UNL A   1      35.071  32.662  30.187  1.00  0.00     0.127 S 
ATOM     86  O   UNL A   1      34.094  32.792  31.265  1.00  0.00    -0.237 OA
ATOM     87  O   UNL A   1      35.794  33.892  29.857  1.00  0.00    -0.237 OA
ATOM     88  O   UNL A   1      34.640  31.896  29.026  1.00  0.00    -0.744 OA
ENDBRANCH  82  85
ENDBRANCH  54  78
BRANCH  66  89
ATOM     89  C   UNL A   1      44.480  33.982  29.550  1.00  0.00     0.023 A 
ATOM     90  C   UNL A   1      45.316  34.254  30.650  1.00  0.00     0.012 A 
ATOM     91  C   UNL A   1      44.169  35.012  28.640  1.00  0.00     0.148 A 
ATOM     92  C   UNL A   1      45.817  35.539  30.855  1.00  0.00     0.002 A 
ATOM     93  C   UNL A   1      44.710  36.278  28.826  1.00  0.00     0.091 A 
ATOM     94  F   UNL A   1      43.356  34.733  27.611  1.00  0.00    -0.205 F 
ATOM     95  C   UNL A   1      45.526  36.545  29.938  1.00  0.00     0.022 A 
BRANCH  93  96
ATOM     96  S   UNL A   1      44.471  37.606  27.640  1.00  0.00     0.127 S 
ATOM     97  O   UNL A   1      44.119  38.724  28.514  1.00  0.00    -0.237 OA
ATOM     98  O   UNL A   1      45.791  37.709  27.018  1.00  0.00    -0.237 OA
ATOM     99  O   UNL A   1      43.415  37.155  26.743  1.00  0.00    -0.744 OA
ENDBRANCH  93  96
ENDBRANCH  66  89
ENDBRANCH  40  41
ENDBRANCH  32  35
ENDBRANCH  30  31
ENDBRANCH  29  30
ENDBRANCH   1  29
TORSDOF 18
ENDMDL
MODEL 2
REMARK VINA RESULT:     -12.6      1.995      7.804
REMARK SMILES CN1C(=O)C[C@@H](C(=O)NCCCCNC(=O)c2ccc(-c3c4nc(c(-c5cccc(S(=O)(=O)[O-])c5F)c5ccc([nH]5)c(-c5cccc(S(=O)(=O)[O-])c5F)c5nc(c(-c6cccc(S(=O)(=O)[O-])c6F)c6ccc3[nH]6)C=C5)C=C4)cc2)C12CC[NH+](CCSc1ccccc1)CC2
REMARK SMILES IDX 11 1 10 2 9 3 7 4 8 5 6 7 1 8 2 9 3 10 80 11 4 12 5 13 81 14
REMARK SMILES IDX 94 15 82 16 93 17 83 18 84 20 85 21 86 22 87 23 88 24 92 25
REMARK SMILES IDX 89 26 91 27 90 28 12 29 13 30 14 31 15 32 16 34 17 35 18 36
REMARK SMILES IDX 79 37 19 38 78 39 20 40 21 41 22 42 72 43 23 44 77 45 71 46
REMARK SMILES IDX 73 47 24 48 76 49 70 50 69 51 25 53 57 54 37 55 56 56 38 57
REMARK SMILES IDX 41 58 55 59 74 60 39 61 40 62 54 64 75 65 42 66 26 67 27 68
REMARK SMILES IDX 35 69 28 70 30 71 36 72 29 73 31 74 32 75 33 76 34 77 58 78
REMARK SMILES IDX 59 79 67 80 60 81 62 82 68 83 61 84 63 85 64 86 65 87 66 88
REMARK SMILES IDX 43 89 44 90 52 91 45 92 47 93 53 94 46 95 48 96 49 97 50 98
REMARK SMILES IDX 51 99
REMARK H PARENT 9 6 83 19 14 33 73 52 41 63
REMARK Flexibility Score: inf
ROOT
ATOM      1  C   UNL A   1      37.558  22.861  24.940  1.00  0.00     0.023 C 
ENDROOT
BRANCH   1   2
ATOM      2  C   UNL A   1      36.230  23.351  25.504  1.00  0.00     0.116 C 
BRANCH   2   3
ATOM      3  N   UNL A   1      35.105  22.657  24.920  1.00  0.00    -0.356 N 
ATOM      4  C   UNL A   1      33.775  22.820  25.088  1.00  0.00     0.226 C 
ATOM      5  O   UNL A   1      33.026  22.038  24.494  1.00  0.00    -0.275 OA
ATOM      6  H   UNL A   1      35.351  21.939  24.292  1.00  0.00     0.163 HD
BRANCH   4   7
ATOM      7  C   UNL A   1      33.165  23.896  25.958  1.00  0.00     0.114 C 
ATOM      8  C   UNL A   1      29.786  25.306  25.046  1.00  0.00     0.147 C 
ATOM      9  N   UNL A   1      30.975  24.648  25.569  1.00  0.00    -0.339 N 
ATOM     10  C   UNL A   1      30.876  23.848  26.703  1.00  0.00     0.223 C 
ATOM     11  C   UNL A   1      32.376  25.055  25.293  1.00  0.00     0.065 C 
ATOM     12  O   UNL A   1      29.850  23.562  27.300  1.00  0.00    -0.275 OA
ATOM     13  C   UNL A   1      32.259  23.387  27.091  1.00  0.00     0.116 C 
ATOM     14  C   UNL A   1      32.646  25.375  23.792  1.00  0.00     0.091 C 
ATOM     15  C   UNL A   1      32.689  26.276  26.168  1.00  0.00     0.091 C 
ATOM     16  C   UNL A   1      33.671  26.466  23.452  1.00  0.00     0.264 C 
ATOM     17  C   UNL A   1      33.937  27.015  25.729  1.00  0.00     0.264 C 
ATOM     18  N   UNL A   1      33.762  27.555  24.412  1.00  0.00    -0.334 N 
ATOM     19  H   UNL A   1      34.607  28.070  24.167  1.00  0.00     0.348 HD
BRANCH  18  20
ATOM     20  C   UNL A   1      32.917  28.747  24.253  1.00  0.00     0.273 C 
BRANCH  20  21
ATOM     21  C   UNL A   1      31.841  28.963  23.136  1.00  0.00     0.136 C 
BRANCH  21  22
ATOM     22  S   UNL A   1      30.010  28.772  23.466  1.00  0.00    -0.120 SA
BRANCH  22  23
ATOM     23  C   UNL A   1      29.193  30.247  22.869  1.00  0.00     0.007 A 
ATOM     24  C   UNL A   1      29.123  31.451  23.583  1.00  0.00     0.015 A 
ATOM     25  C   UNL A   1      28.576  30.187  21.609  1.00  0.00     0.015 A 
ATOM     26  C   UNL A   1      28.579  32.602  22.983  1.00  0.00     0.001 A 
ATOM     27  C   UNL A   1      28.066  31.338  20.999  1.00  0.00     0.001 A 
ATOM     28  C   UNL A   1      28.090  32.553  21.677  1.00  0.00     0.000 A 
ENDBRANCH  22  23
ENDBRANCH  21  22
ENDBRANCH  20  21
ENDBRANCH  18  20
ENDBRANCH   4   7
ENDBRANCH   2   3
ENDBRANCH   1   2
BRANCH   1  29
ATOM     29  C   UNL A   1      37.925  21.454  25.393  1.00  0.00     0.023 C 
BRANCH  29  30
ATOM     30  C   UNL A   1      39.252  21.403  26.126  1.00  0.00     0.116 C 
BRANCH  30  31
ATOM     31  N   UNL A   1      39.897  20.093  26.046  1.00  0.00    -0.352 N 
ATOM     32  C   UNL A   1      41.242  19.838  26.113  1.00  0.00     0.251 C 
ATOM     33  H   UNL A   1      39.304  19.313  25.934  1.00  0.00     0.163 HD
ATOM     34  O   UNL A   1      41.704  18.716  25.957  1.00  0.00    -0.269 OA
BRANCH  32  35
ATOM     35  C   UNL A   1      42.099  21.004  26.348  1.00  0.00     0.039 A 
ATOM     36  C   UNL A   1      42.445  21.809  25.264  1.00  0.00     0.014 A 
ATOM     37  C   UNL A   1      42.314  21.405  27.668  1.00  0.00     0.014 A 
ATOM     38  C   UNL A   1      42.978  23.069  25.513  1.00  0.00     0.010 A 
ATOM     39  C   UNL A   1      42.751  22.695  27.908  1.00  0.00     0.010 A 
ATOM     40  C   UNL A   1      43.103  23.529  26.835  1.00  0.00    -0.014 A 
BRANCH  40  41
ATOM     41  C   UNL A   1      43.638  24.873  27.132  1.00  0.00     0.031 A 
ATOM     42  C   UNL A   1      42.709  25.913  27.691  1.00  0.00     0.074 A 
ATOM     43  C   UNL A   1      44.910  25.179  26.811  1.00  0.00     0.049 A 
ATOM     44  N   UNL A   1      42.941  27.172  27.946  1.00  0.00    -0.248 NA
ATOM     45  C   UNL A   1      41.321  25.492  27.958  1.00  0.00     0.031 C 
ATOM     46  C   UNL A   1      45.869  24.272  26.174  1.00  0.00     0.029 A 
ATOM     47  N   UNL A   1      45.608  26.350  26.956  1.00  0.00    -0.354 N 
ATOM     48  C   UNL A   1      41.722  27.700  28.351  1.00  0.00     0.074 A 
ATOM     49  C   UNL A   1      40.743  26.643  28.261  1.00  0.00     0.031 C 
ATOM     50  C   UNL A   1      47.033  24.918  25.994  1.00  0.00     0.029 A 
ATOM     51  C   UNL A   1      46.897  26.288  26.480  1.00  0.00     0.049 A 
ATOM     52  H   UNL A   1      45.222  27.160  27.361  1.00  0.00     0.167 HD
ATOM     53  C   UNL A   1      41.452  28.945  28.804  1.00  0.00     0.034 A 
ATOM     54  C   UNL A   1      47.857  27.233  26.448  1.00  0.00     0.034 A 
ATOM     55  C   UNL A   1      42.451  29.962  28.964  1.00  0.00     0.049 A 
ATOM     56  C   UNL A   1      47.552  28.587  27.034  1.00  0.00     0.074 A 
ATOM     57  C   UNL A   1      42.315  31.223  29.514  1.00  0.00     0.029 A 
ATOM     58  N   UNL A   1      43.776  29.828  28.580  1.00  0.00    -0.354 N 
ATOM     59  N   UNL A   1      46.436  29.020  27.571  1.00  0.00    -0.248 NA
ATOM     60  C   UNL A   1      48.646  29.568  27.047  1.00  0.00     0.031 C 
ATOM     61  C   UNL A   1      43.560  31.856  29.453  1.00  0.00     0.029 A 
ATOM     62  C   UNL A   1      44.473  30.983  28.879  1.00  0.00     0.049 A 
ATOM     63  H   UNL A   1      44.164  29.029  28.156  1.00  0.00     0.167 HD
ATOM     64  C   UNL A   1      46.703  30.309  28.017  1.00  0.00     0.074 A 
ATOM     65  C   UNL A   1      48.092  30.577  27.706  1.00  0.00     0.031 C 
ATOM     66  C   UNL A   1      45.872  31.198  28.615  1.00  0.00     0.034 A 
BRANCH  53  67
ATOM     67  C   UNL A   1      40.038  29.239  29.224  1.00  0.00     0.023 A 
ATOM     68  C   UNL A   1      39.078  29.569  28.244  1.00  0.00     0.012 A 
ATOM     69  C   UNL A   1      39.650  29.164  30.574  1.00  0.00     0.148 A 
ATOM     70  C   UNL A   1      37.763  29.857  28.605  1.00  0.00     0.002 A 
ATOM     71  C   UNL A   1      38.326  29.408  30.921  1.00  0.00     0.091 A 
ATOM     72  F   UNL A   1      40.582  28.879  31.495  1.00  0.00    -0.205 F 
ATOM     73  C   UNL A   1      37.386  29.766  29.941  1.00  0.00     0.022 A 
BRANCH  71  74
ATOM     74  S   UNL A   1      37.721  29.240  32.604  1.00  0.00     0.127 S 
ATOM     75  O   UNL A   1      36.361  29.764  32.482  1.00  0.00    -0.237 OA
ATOM     76  O   UNL A   1      37.802  27.795  32.817  1.00  0.00    -0.237 OA
ATOM     77  O   UNL A   1      38.623  30.027  33.434  1.00  0.00    -0.744 OA
ENDBRANCH  71  74
ENDBRANCH  53  67
BRANCH  54  78
ATOM     78  C   UNL A   1      49.214  26.904  25.929  1.00  0.00     0.023 A 
ATOM     79  C   UNL A   1      50.108  26.186  26.747  1.00  0.00     0.012 A 
ATOM     80  C   UNL A   1      49.615  27.265  24.628  1.00  0.00     0.148 A 
ATOM     81  C   UNL A   1      51.388  25.862  26.294  1.00  0.00     0.002 A 
ATOM     82  C   UNL A   1      50.873  26.894  24.163  1.00  0.00     0.091 A 
ATOM     83  F   UNL A   1      48.756  27.957  23.868  1.00  0.00    -0.205 F 
ATOM     84  C   UNL A   1      51.767  26.207  25.000  1.00  0.00     0.022 A 
BRANCH  82  85
ATOM     85  S   UNL A   1      51.393  27.180  22.468  1.00  0.00     0.127 S 
ATOM     86  O   UNL A   1      51.518  28.635  22.435  1.00  0.00    -0.237 OA
ATOM     87  O   UNL A   1      52.661  26.450  22.410  1.00  0.00    -0.237 OA
ATOM     88  O   UNL A   1      50.341  26.612  21.637  1.00  0.00    -0.744 OA
ENDBRANCH  82  85
ENDBRANCH  54  78
BRANCH  66  89
ATOM     89  C   UNL A   1      46.443  32.533  29.006  1.00  0.00     0.023 A 
ATOM     90  C   UNL A   1      47.095  32.675  30.246  1.00  0.00     0.012 A 
ATOM     91  C   UNL A   1      46.423  33.613  28.102  1.00  0.00     0.148 A 
ATOM     92  C   UNL A   1      47.698  33.884  30.592  1.00  0.00     0.002 A 
ATOM     93  C   UNL A   1      47.066  34.798  28.435  1.00  0.00     0.091 A 
ATOM     94  F   UNL A   1      45.780  33.459  26.936  1.00  0.00    -0.205 F 
ATOM     95  C   UNL A   1      47.696  34.938  29.683  1.00  0.00     0.022 A 
BRANCH  93  96
ATOM     96  S   UNL A   1      47.200  36.172  27.285  1.00  0.00     0.127 S 
ATOM     97  O   UNL A   1      45.798  36.531  27.087  1.00  0.00    -0.237 OA
ATOM     98  O   UNL A   1      47.977  37.145  28.052  1.00  0.00    -0.237 OA
ATOM     99  O   UNL A   1      47.884  35.645  26.111  1.00  0.00    -0.744 OA
ENDBRANCH  93  96
ENDBRANCH  66  89
ENDBRANCH  40  41
ENDBRANCH  32  35
ENDBRANCH  30  31
ENDBRANCH  29  30
ENDBRANCH   1  29
TORSDOF 18
ENDMDL
MODEL 3
REMARK VINA RESULT:     -12.4      5.622      9.135
REMARK SMILES CN1C(=O)C[C@@H](C(=O)NCCCCNC(=O)c2ccc(-c3c4nc(c(-c5cccc(S(=O)(=O)[O-])c5F)c5ccc([nH]5)c(-c5cccc(S(=O)(=O)[O-])c5F)c5nc(c(-c6cccc(S(=O)(=O)[O-])c6F)c6ccc3[nH]6)C=C5)C=C4)cc2)C12CC[NH+](CCSc1ccccc1)CC2
REMARK SMILES IDX 11 1 10 2 9 3 7 4 8 5 6 7 1 8 2 9 3 10 80 11 4 12 5 13 81 14
REMARK SMILES IDX 94 15 82 16 93 17 83 18 84 20 85 21 86 22 87 23 88 24 92 25
REMARK SMILES IDX 89 26 91 27 90 28 12 29 13 30 14 31 15 32 16 34 17 35 18 36
REMARK SMILES IDX 79 37 19 38 78 39 20 40 21 41 22 42 72 43 23 44 77 45 71 46
REMARK SMILES IDX 73 47 24 48 76 49 70 50 69 51 25 53 57 54 37 55 56 56 38 57
REMARK SMILES IDX 41 58 55 59 74 60 39 61 40 62 54 64 75 65 42 66 26 67 27 68
REMARK SMILES IDX 35 69 28 70 30 71 36 72 29 73 31 74 32 75 33 76 34 77 58 78
REMARK SMILES IDX 59 79 67 80 60 81 62 82 68 83 61 84 63 85 64 86 65 87 66 88
REMARK SMILES IDX 43 89 44 90 52 91 45 92 47 93 53 94 46 95 48 96 49 97 50 98
REMARK SMILES IDX 51 99
REMARK H PARENT 9 6 83 19 14 33 73 52 41 63
REMARK Flexibility Score: inf
ROOT
ATOM      1  C   UNL A   1      32.845  29.922  26.822  1.00  0.00     0.023 C 
ENDROOT
BRANCH   1   2
ATOM      2  C   UNL A   1      32.336  29.477  25.457  1.00  0.00     0.116 C 
BRANCH   2   3
ATOM      3  N   UNL A   1      33.389  29.454  24.467  1.00  0.00    -0.356 N 
ATOM      4  C   UNL A   1      33.488  28.801  23.290  1.00  0.00     0.226 C 
ATOM      5  O   UNL A   1      34.544  28.923  22.659  1.00  0.00    -0.275 OA
ATOM      6  H   UNL A   1      34.170  30.010  24.692  1.00  0.00     0.163 HD
BRANCH   4   7
ATOM      7  C   UNL A   1      32.390  27.937  22.713  1.00  0.00     0.114 C 
ATOM      8  C   UNL A   1      29.917  26.301  25.045  1.00  0.00     0.147 C 
ATOM      9  N   UNL A   1      30.695  27.079  24.093  1.00  0.00    -0.339 N 
ATOM     10  C   UNL A   1      30.085  28.111  23.386  1.00  0.00     0.223 C 
ATOM     11  C   UNL A   1      31.966  26.645  23.461  1.00  0.00     0.065 C 
ATOM     12  O   UNL A   1      28.938  28.505  23.526  1.00  0.00    -0.275 OA
ATOM     13  C   UNL A   1      31.076  28.670  22.396  1.00  0.00     0.116 C 
ATOM     14  C   UNL A   1      32.971  26.002  24.465  1.00  0.00     0.091 C 
ATOM     15  C   UNL A   1      31.618  25.656  22.341  1.00  0.00     0.091 C 
ATOM     16  C   UNL A   1      33.889  24.881  23.958  1.00  0.00     0.264 C 
ATOM     17  C   UNL A   1      32.815  24.860  21.861  1.00  0.00     0.264 C 
ATOM     18  N   UNL A   1      33.324  24.036  22.918  1.00  0.00    -0.334 N 
ATOM     19  H   UNL A   1      34.105  23.493  22.548  1.00  0.00     0.348 HD
BRANCH  18  20
ATOM     20  C   UNL A   1      32.576  22.824  23.282  1.00  0.00     0.273 C 
BRANCH  20  21
ATOM     21  C   UNL A   1      33.199  21.490  23.815  1.00  0.00     0.136 C 
BRANCH  21  22
ATOM     22  S   UNL A   1      33.771  21.296  25.585  1.00  0.00    -0.120 SA
BRANCH  22  23
ATOM     23  C   UNL A   1      35.463  21.870  25.676  1.00  0.00     0.007 A 
ATOM     24  C   UNL A   1      36.571  21.123  25.254  1.00  0.00     0.015 A 
ATOM     25  C   UNL A   1      35.690  23.147  26.215  1.00  0.00     0.015 A 
ATOM     26  C   UNL A   1      37.853  21.702  25.236  1.00  0.00     0.001 A 
ATOM     27  C   UNL A   1      36.958  23.735  26.165  1.00  0.00     0.001 A 
ATOM     28  C   UNL A   1      38.037  23.022  25.651  1.00  0.00     0.000 A 
ENDBRANCH  22  23
ENDBRANCH  21  22
ENDBRANCH  20  21
ENDBRANCH  18  20
ENDBRANCH   4   7
ENDBRANCH   2   3
ENDBRANCH   1   2
BRANCH   1  29
ATOM     29  C   UNL A   1      32.277  31.261  27.272  1.00  0.00     0.023 C 
BRANCH  29  30
ATOM     30  C   UNL A   1      33.357  32.260  27.639  1.00  0.00     0.116 C 
BRANCH  30  31
ATOM     31  N   UNL A   1      32.875  33.641  27.657  1.00  0.00    -0.352 N 
ATOM     32  C   UNL A   1      33.279  34.638  28.506  1.00  0.00     0.251 C 
ATOM     33  H   UNL A   1      32.189  33.879  26.991  1.00  0.00     0.163 HD
ATOM     34  O   UNL A   1      32.764  35.748  28.505  1.00  0.00    -0.269 OA
BRANCH  32  35
ATOM     35  C   UNL A   1      34.348  34.280  29.444  1.00  0.00     0.039 A 
ATOM     36  C   UNL A   1      34.044  33.444  30.517  1.00  0.00     0.014 A 
ATOM     37  C   UNL A   1      35.664  34.571  29.081  1.00  0.00     0.014 A 
ATOM     38  C   UNL A   1      35.088  32.849  31.216  1.00  0.00     0.010 A 
ATOM     39  C   UNL A   1      36.693  33.899  29.716  1.00  0.00     0.010 A 
ATOM     40  C   UNL A   1      36.414  33.048  30.798  1.00  0.00    -0.014 A 
BRANCH  40  41
ATOM     41  C   UNL A   1      37.545  32.407  31.500  1.00  0.00     0.031 A 
ATOM     42  C   UNL A   1      38.269  31.278  30.823  1.00  0.00     0.074 A 
ATOM     43  C   UNL A   1      37.847  32.768  32.762  1.00  0.00     0.049 A 
ATOM     44  N   UNL A   1      39.227  30.522  31.284  1.00  0.00    -0.248 NA
ATOM     45  C   UNL A   1      37.826  30.924  29.462  1.00  0.00     0.031 C 
ATOM     46  C   UNL A   1      37.145  33.786  33.548  1.00  0.00     0.029 A 
ATOM     47  N   UNL A   1      38.813  32.300  33.615  1.00  0.00    -0.354 N 
ATOM     48  C   UNL A   1      39.463  29.576  30.295  1.00  0.00     0.074 A 
ATOM     49  C   UNL A   1      38.517  29.819  29.232  1.00  0.00     0.031 C 
ATOM     50  C   UNL A   1      37.711  33.873  34.763  1.00  0.00     0.029 A 
ATOM     51  C   UNL A   1      38.799  32.904  34.851  1.00  0.00     0.049 A 
ATOM     52  H   UNL A   1      39.456  31.597  33.367  1.00  0.00     0.167 HD
ATOM     53  C   UNL A   1      40.417  28.618  30.255  1.00  0.00     0.034 A 
ATOM     54  C   UNL A   1      39.583  32.696  35.927  1.00  0.00     0.034 A 
ATOM     55  C   UNL A   1      41.401  28.439  31.283  1.00  0.00     0.049 A 
ATOM     56  C   UNL A   1      40.689  31.679  35.825  1.00  0.00     0.074 A 
ATOM     57  C   UNL A   1      42.479  27.575  31.301  1.00  0.00     0.029 A 
ATOM     58  N   UNL A   1      41.430  29.148  32.474  1.00  0.00    -0.354 N 
ATOM     59  N   UNL A   1      41.006  30.906  34.814  1.00  0.00    -0.248 NA
ATOM     60  C   UNL A   1      41.568  31.533  36.994  1.00  0.00     0.031 C 
ATOM     61  C   UNL A   1      43.156  27.754  32.511  1.00  0.00     0.029 A 
ATOM     62  C   UNL A   1      42.507  28.742  33.239  1.00  0.00     0.049 A 
ATOM     63  H   UNL A   1      40.779  29.837  32.738  1.00  0.00     0.167 HD
ATOM     64  C   UNL A   1      42.141  30.207  35.210  1.00  0.00     0.074 A 
ATOM     65  C   UNL A   1      42.467  30.666  36.545  1.00  0.00     0.031 C 
ATOM     66  C   UNL A   1      42.843  29.261  34.538  1.00  0.00     0.034 A 
BRANCH  53  67
ATOM     67  C   UNL A   1      40.477  27.749  29.028  1.00  0.00     0.023 A 
ATOM     68  C   UNL A   1      39.546  26.700  28.876  1.00  0.00     0.012 A 
ATOM     69  C   UNL A   1      41.427  27.983  28.018  1.00  0.00     0.148 A 
ATOM     70  C   UNL A   1      39.585  25.872  27.756  1.00  0.00     0.002 A 
ATOM     71  C   UNL A   1      41.430  27.182  26.882  1.00  0.00     0.091 A 
ATOM     72  F   UNL A   1      42.322  28.965  28.194  1.00  0.00    -0.205 F 
ATOM     73  C   UNL A   1      40.519  26.120  26.755  1.00  0.00     0.022 A 
BRANCH  71  74
ATOM     74  S   UNL A   1      42.542  27.468  25.500  1.00  0.00     0.127 S 
ATOM     75  O   UNL A   1      42.325  26.267  24.693  1.00  0.00    -0.237 OA
ATOM     76  O   UNL A   1      42.003  28.698  24.921  1.00  0.00    -0.237 OA
ATOM     77  O   UNL A   1      43.872  27.601  26.078  1.00  0.00    -0.744 OA
ENDBRANCH  71  74
ENDBRANCH  53  67
BRANCH  54  78
ATOM     78  C   UNL A   1      39.409  33.528  37.151  1.00  0.00     0.023 A 
ATOM     79  C   UNL A   1      39.945  34.831  37.179  1.00  0.00     0.012 A 
ATOM     80  C   UNL A   1      38.694  33.057  38.269  1.00  0.00     0.148 A 
ATOM     81  C   UNL A   1      39.802  35.637  38.310  1.00  0.00     0.002 A 
ATOM     82  C   UNL A   1      38.511  33.885  39.373  1.00  0.00     0.091 A 
ATOM     83  F   UNL A   1      38.201  31.812  38.229  1.00  0.00    -0.205 F 
ATOM     84  C   UNL A   1      39.078  35.169  39.402  1.00  0.00     0.022 A 
BRANCH  82  85
ATOM     85  S   UNL A   1      37.481  33.412  40.767  1.00  0.00     0.127 S 
ATOM     86  O   UNL A   1      38.227  32.286  41.322  1.00  0.00    -0.237 OA
ATOM     87  O   UNL A   1      37.498  34.626  41.584  1.00  0.00    -0.237 OA
ATOM     88  O   UNL A   1      36.178  33.095  40.198  1.00  0.00    -0.744 OA
ENDBRANCH  82  85
ENDBRANCH  54  78
BRANCH  66  89
ATOM     89  C   UNL A   1      44.052  28.678  35.216  1.00  0.00     0.023 A 
ATOM     90  C   UNL A   1      45.320  29.244  34.985  1.00  0.00     0.012 A 
ATOM     91  C   UNL A   1      43.915  27.637  36.154  1.00  0.00     0.148 A 
ATOM     92  C   UNL A   1      46.441  28.766  35.664  1.00  0.00     0.002 A 
ATOM     93  C   UNL A   1      45.027  27.198  36.860  1.00  0.00     0.091 A 
ATOM     94  F   UNL A   1      42.700  27.101  36.342  1.00  0.00    -0.205 F 
ATOM     95  C   UNL A   1      46.292  27.755  36.609  1.00  0.00     0.022 A 
BRANCH  93  96
ATOM     96  S   UNL A   1      44.911  25.972  38.168  1.00  0.00     0.127 S 
ATOM     97  O   UNL A   1      44.085  26.666  39.154  1.00  0.00    -0.237 OA
ATOM     98  O   UNL A   1      44.247  24.857  37.491  1.00  0.00    -0.237 OA
ATOM     99  O   UNL A   1      46.281  25.696  38.581  1.00  0.00    -0.744 OA
ENDBRANCH  93  96
ENDBRANCH  66  89
ENDBRANCH  40  41
ENDBRANCH  32  35
ENDBRANCH  30  31
ENDBRANCH  29  30
ENDBRANCH   1  29
TORSDOF 18
ENDMDL
