MODEL 1
REMARK VINA RESULT:     -11.1      0.000      0.000
REMARK SMILES C[C@H](O)C[C@@]1(C(=O)NCCCCNC(=O)c2ccc(-c3c4nc(c(-c5cccc(S(=O)(=O)[O-])c5F)c5ccc([nH]5)c(-c5cccc(S(=O)(=O)[O-])c5F)c5nc(c(-c6cccc(S(=O)(=O)[O-])c6F)c6ccc3[nH]6)C=C5)C=C4)cc2)CCN(C(=O)OC(C)(C)C)C1
REMARK SMILES IDX 10 1 9 2 8 3 6 4 7 5 5 7 79 8 89 9 80 10 81 11 4 12 2 13
REMARK SMILES IDX 1 14 3 15 82 17 83 18 84 19 85 20 86 21 87 22 88 23 11 24
REMARK SMILES IDX 12 25 13 26 14 27 15 29 16 30 17 31 78 32 18 33 77 34 19 35
REMARK SMILES IDX 20 36 21 37 71 38 22 39 76 40 70 41 72 42 23 43 75 44 69 45
REMARK SMILES IDX 68 46 24 48 56 49 36 50 55 51 37 52 40 53 54 54 73 55 38 56
REMARK SMILES IDX 39 57 53 59 74 60 41 61 25 62 26 63 34 64 27 65 29 66 35 67
REMARK SMILES IDX 28 68 30 69 31 70 32 71 33 72 57 73 58 74 66 75 59 76 61 77
REMARK SMILES IDX 67 78 60 79 62 80 63 81 64 82 65 83 42 84 43 85 51 86 44 87
REMARK SMILES IDX 46 88 52 89 45 90 47 91 48 92 49 93 50 94
REMARK H PARENT 8 6 3 16 13 28 72 47 40 58
REMARK Flexibility Score: inf
ROOT
ATOM      1  C   UNL A   1      31.231  30.810  25.740  1.00  0.00     0.023 C 
ENDROOT
BRANCH   1   2
ATOM      2  C   UNL A   1      32.522  30.029  25.970  1.00  0.00     0.116 C 
BRANCH   2   3
ATOM      3  N   UNL A   1      33.190  29.695  24.729  1.00  0.00    -0.356 N 
ATOM      4  C   UNL A   1      33.318  28.556  24.005  1.00  0.00     0.228 C 
ATOM      5  O   UNL A   1      34.009  28.670  22.985  1.00  0.00    -0.274 OA
ATOM      6  H   UNL A   1      33.653  30.463  24.323  1.00  0.00     0.163 HD
BRANCH   4   7
ATOM      7  C   UNL A   1      32.589  27.217  24.297  1.00  0.00     0.071 C 
ATOM      8  C   UNL A   1      32.849  26.835  25.778  1.00  0.00     0.040 C 
ATOM      9  C   UNL A   1      33.093  26.022  23.494  1.00  0.00     0.140 C 
ATOM     10  C   UNL A   1      33.907  25.744  25.752  1.00  0.00     0.124 C 
ATOM     11  N   UNL A   1      33.807  25.171  24.425  1.00  0.00    -0.307 N 
BRANCH   7  12
ATOM     12  C   UNL A   1      31.064  27.480  24.036  1.00  0.00     0.050 C 
BRANCH  12  13
ATOM     13  C   UNL A   1      30.655  28.388  22.863  1.00  0.00     0.112 C 
ATOM     14  C   UNL A   1      29.236  28.914  23.040  1.00  0.00     0.038 C 
BRANCH  13  15
ATOM     15  O   UNL A   1      30.718  27.696  21.624  1.00  0.00    -0.393 OA
ATOM     16  H   UNL A   1      30.049  26.995  21.611  1.00  0.00     0.210 HD
ENDBRANCH  13  15
ENDBRANCH  12  13
ENDBRANCH   7  12
BRANCH  11  17
ATOM     17  C   UNL A   1      34.391  24.011  23.985  1.00  0.00     0.410 C 
ATOM     18  O   UNL A   1      35.300  24.011  23.163  1.00  0.00    -0.224 OA
BRANCH  17  19
ATOM     19  O   UNL A   1      33.856  22.906  24.560  1.00  0.00    -0.444 OA
BRANCH  19  20
ATOM     20  C   UNL A   1      32.808  22.180  23.863  1.00  0.00     0.106 C 
ATOM     21  C   UNL A   1      32.816  22.557  22.377  1.00  0.00     0.056 C 
ATOM     22  C   UNL A   1      32.897  20.662  24.075  1.00  0.00     0.056 C 
ATOM     23  C   UNL A   1      31.492  22.667  24.487  1.00  0.00     0.056 C 
ENDBRANCH  19  20
ENDBRANCH  17  19
ENDBRANCH  11  17
ENDBRANCH   4   7
ENDBRANCH   2   3
ENDBRANCH   1   2
BRANCH   1  24
ATOM     24  C   UNL A   1      31.169  32.146  26.473  1.00  0.00     0.023 C 
BRANCH  24  25
ATOM     25  C   UNL A   1      32.521  32.715  26.879  1.00  0.00     0.116 C 
BRANCH  25  26
ATOM     26  N   UNL A   1      32.434  34.025  27.515  1.00  0.00    -0.352 N 
ATOM     27  C   UNL A   1      33.257  34.548  28.485  1.00  0.00     0.251 C 
ATOM     28  H   UNL A   1      31.697  34.604  27.214  1.00  0.00     0.163 HD
ATOM     29  O   UNL A   1      33.003  35.626  29.011  1.00  0.00    -0.269 OA
BRANCH  27  30
ATOM     30  C   UNL A   1      34.433  33.761  28.901  1.00  0.00     0.039 A 
ATOM     31  C   UNL A   1      35.703  34.328  28.791  1.00  0.00     0.014 A 
ATOM     32  C   UNL A   1      34.256  32.510  29.500  1.00  0.00     0.014 A 
ATOM     33  C   UNL A   1      36.795  33.663  29.349  1.00  0.00     0.010 A 
ATOM     34  C   UNL A   1      35.328  31.901  30.135  1.00  0.00     0.010 A 
ATOM     35  C   UNL A   1      36.611  32.466  30.060  1.00  0.00    -0.014 A 
BRANCH  35  36
ATOM     36  C   UNL A   1      37.743  31.790  30.741  1.00  0.00     0.031 A 
ATOM     37  C   UNL A   1      38.526  30.726  30.023  1.00  0.00     0.074 A 
ATOM     38  C   UNL A   1      38.012  32.073  32.032  1.00  0.00     0.049 A 
ATOM     39  N   UNL A   1      39.512  29.991  30.464  1.00  0.00    -0.248 NA
ATOM     40  C   UNL A   1      38.128  30.424  28.636  1.00  0.00     0.031 C 
ATOM     41  C   UNL A   1      37.267  33.020  32.866  1.00  0.00     0.029 A 
ATOM     42  N   UNL A   1      38.967  31.569  32.880  1.00  0.00    -0.354 N 
ATOM     43  C   UNL A   1      39.825  29.117  29.430  1.00  0.00     0.074 A 
ATOM     44  C   UNL A   1      38.900  29.385  28.353  1.00  0.00     0.031 C 
ATOM     45  C   UNL A   1      37.798  33.035  34.099  1.00  0.00     0.029 A 
ATOM     46  C   UNL A   1      38.896  32.076  34.157  1.00  0.00     0.049 A 
ATOM     47  H   UNL A   1      39.640  30.907  32.599  1.00  0.00     0.167 HD
ATOM     48  C   UNL A   1      40.813  28.193  29.370  1.00  0.00     0.034 A 
ATOM     49  C   UNL A   1      39.625  31.792  35.254  1.00  0.00     0.034 A 
ATOM     50  C   UNL A   1      41.758  27.959  30.427  1.00  0.00     0.049 A 
ATOM     51  C   UNL A   1      40.746  30.792  35.146  1.00  0.00     0.074 A 
ATOM     52  C   UNL A   1      42.856  27.119  30.426  1.00  0.00     0.029 A 
ATOM     53  N   UNL A   1      41.708  28.554  31.677  1.00  0.00    -0.354 N 
ATOM     54  N   UNL A   1      41.133  30.097  34.104  1.00  0.00    -0.248 NA
ATOM     55  C   UNL A   1      41.552  30.562  36.353  1.00  0.00     0.031 C 
ATOM     56  C   UNL A   1      43.449  27.177  31.690  1.00  0.00     0.029 A 
ATOM     57  C   UNL A   1      42.747  28.087  32.464  1.00  0.00     0.049 A 
ATOM     58  H   UNL A   1      41.035  29.212  31.964  1.00  0.00     0.167 HD
ATOM     59  C   UNL A   1      42.249  29.379  34.518  1.00  0.00     0.074 A 
ATOM     60  C   UNL A   1      42.488  29.740  35.901  1.00  0.00     0.031 C 
ATOM     61  C   UNL A   1      43.002  28.492  33.822  1.00  0.00     0.034 A 
BRANCH  48  62
ATOM     62  C   UNL A   1      40.949  27.393  28.100  1.00  0.00     0.023 A 
ATOM     63  C   UNL A   1      41.574  27.966  26.973  1.00  0.00     0.012 A 
ATOM     64  C   UNL A   1      40.512  26.055  28.043  1.00  0.00     0.148 A 
ATOM     65  C   UNL A   1      41.731  27.233  25.798  1.00  0.00     0.002 A 
ATOM     66  C   UNL A   1      40.717  25.315  26.885  1.00  0.00     0.091 A 
ATOM     67  F   UNL A   1      39.900  25.535  29.116  1.00  0.00    -0.205 F 
ATOM     68  C   UNL A   1      41.313  25.905  25.758  1.00  0.00     0.022 A 
BRANCH  66  69
ATOM     69  S   UNL A   1      40.293  23.575  26.759  1.00  0.00     0.127 S 
ATOM     70  O   UNL A   1      41.239  23.113  25.744  1.00  0.00    -0.237 OA
ATOM     71  O   UNL A   1      40.570  23.094  28.113  1.00  0.00    -0.237 OA
ATOM     72  O   UNL A   1      38.891  23.528  26.371  1.00  0.00    -0.744 OA
ENDBRANCH  66  69
ENDBRANCH  48  62
BRANCH  49  73
ATOM     73  C   UNL A   1      39.353  32.499  36.537  1.00  0.00     0.023 A 
ATOM     74  C   UNL A   1      40.031  33.698  36.830  1.00  0.00     0.012 A 
ATOM     75  C   UNL A   1      38.417  31.997  37.462  1.00  0.00     0.148 A 
ATOM     76  C   UNL A   1      39.810  34.365  38.035  1.00  0.00     0.002 A 
ATOM     77  C   UNL A   1      38.159  32.696  38.635  1.00  0.00     0.091 A 
ATOM     78  F   UNL A   1      37.790  30.849  37.170  1.00  0.00    -0.205 F 
ATOM     79  C   UNL A   1      38.868  33.870  38.933  1.00  0.00     0.022 A 
BRANCH  77  80
ATOM     80  S   UNL A   1      36.870  32.204  39.785  1.00  0.00     0.127 S 
ATOM     81  O   UNL A   1      36.990  33.223  40.823  1.00  0.00    -0.237 OA
ATOM     82  O   UNL A   1      35.670  32.308  38.953  1.00  0.00    -0.237 OA
ATOM     83  O   UNL A   1      37.203  30.845  40.190  1.00  0.00    -0.744 OA
ENDBRANCH  77  80
ENDBRANCH  49  73
BRANCH  61  84
ATOM     84  C   UNL A   1      44.187  27.877  34.520  1.00  0.00     0.023 A 
ATOM     85  C   UNL A   1      45.416  28.564  34.563  1.00  0.00     0.012 A 
ATOM     86  C   UNL A   1      44.057  26.647  35.196  1.00  0.00     0.148 A 
ATOM     87  C   UNL A   1      46.507  28.020  35.240  1.00  0.00     0.002 A 
ATOM     88  C   UNL A   1      45.131  26.138  35.915  1.00  0.00     0.091 A 
ATOM     89  F   UNL A   1      42.884  26.001  35.129  1.00  0.00    -0.205 F 
ATOM     90  C   UNL A   1      46.361  26.815  35.926  1.00  0.00     0.022 A 
BRANCH  88  91
ATOM     91  S   UNL A   1      45.005  24.648  36.909  1.00  0.00     0.127 S 
ATOM     92  O   UNL A   1      44.192  25.108  38.032  1.00  0.00    -0.237 OA
ATOM     93  O   UNL A   1      44.323  23.727  35.998  1.00  0.00    -0.237 OA
ATOM     94  O   UNL A   1      46.371  24.268  37.242  1.00  0.00    -0.744 OA
ENDBRANCH  88  91
ENDBRANCH  61  84
ENDBRANCH  35  36
ENDBRANCH  27  30
ENDBRANCH  25  26
ENDBRANCH  24  25
ENDBRANCH   1  24
TORSDOF 20
ENDMDL
MODEL 2
REMARK VINA RESULT:     -11.0      2.908      8.430
REMARK SMILES C[C@H](O)C[C@@]1(C(=O)NCCCCNC(=O)c2ccc(-c3c4nc(c(-c5cccc(S(=O)(=O)[O-])c5F)c5ccc([nH]5)c(-c5cccc(S(=O)(=O)[O-])c5F)c5nc(c(-c6cccc(S(=O)(=O)[O-])c6F)c6ccc3[nH]6)C=C5)C=C4)cc2)CCN(C(=O)OC(C)(C)C)C1
REMARK SMILES IDX 10 1 9 2 8 3 6 4 7 5 5 7 79 8 89 9 80 10 81 11 4 12 2 13
REMARK SMILES IDX 1 14 3 15 82 17 83 18 84 19 85 20 86 21 87 22 88 23 11 24
REMARK SMILES IDX 12 25 13 26 14 27 15 29 16 30 17 31 78 32 18 33 77 34 19 35
REMARK SMILES IDX 20 36 21 37 71 38 22 39 76 40 70 41 72 42 23 43 75 44 69 45
REMARK SMILES IDX 68 46 24 48 56 49 36 50 55 51 37 52 40 53 54 54 73 55 38 56
REMARK SMILES IDX 39 57 53 59 74 60 41 61 25 62 26 63 34 64 27 65 29 66 35 67
REMARK SMILES IDX 28 68 30 69 31 70 32 71 33 72 57 73 58 74 66 75 59 76 61 77
REMARK SMILES IDX 67 78 60 79 62 80 63 81 64 82 65 83 42 84 43 85 51 86 44 87
REMARK SMILES IDX 46 88 52 89 45 90 47 91 48 92 49 93 50 94
REMARK H PARENT 8 6 3 16 13 28 72 47 40 58
REMARK Flexibility Score: inf
ROOT
ATOM      1  C   UNL A   1      33.688  27.265  24.417  1.00  0.00     0.023 C 
ENDROOT
BRANCH   1   2
ATOM      2  C   UNL A   1      33.664  25.765  24.133  1.00  0.00     0.116 C 
BRANCH   2   3
ATOM      3  N   UNL A   1      34.581  25.032  24.981  1.00  0.00    -0.356 N 
ATOM      4  C   UNL A   1      34.435  24.028  25.880  1.00  0.00     0.228 C 
ATOM      5  O   UNL A   1      35.484  23.679  26.436  1.00  0.00    -0.274 OA
ATOM      6  H   UNL A   1      35.515  25.327  24.883  1.00  0.00     0.163 HD
BRANCH   4   7
ATOM      7  C   UNL A   1      33.122  23.248  26.153  1.00  0.00     0.071 C 
ATOM      8  C   UNL A   1      33.416  22.157  27.216  1.00  0.00     0.040 C 
ATOM      9  C   UNL A   1      32.567  22.483  24.956  1.00  0.00     0.140 C 
ATOM     10  C   UNL A   1      33.518  20.845  26.455  1.00  0.00     0.124 C 
ATOM     11  N   UNL A   1      32.782  21.076  25.229  1.00  0.00    -0.307 N 
BRANCH   7  12
ATOM     12  C   UNL A   1      32.088  24.300  26.689  1.00  0.00     0.050 C 
BRANCH  12  13
ATOM     13  C   UNL A   1      30.640  24.252  26.171  1.00  0.00     0.112 C 
ATOM     14  C   UNL A   1      30.137  25.643  25.808  1.00  0.00     0.038 C 
BRANCH  13  15
ATOM     15  O   UNL A   1      29.759  23.703  27.141  1.00  0.00    -0.393 OA
ATOM     16  H   UNL A   1      29.567  24.369  27.818  1.00  0.00     0.210 HD
ENDBRANCH  13  15
ENDBRANCH  12  13
ENDBRANCH   7  12
BRANCH  11  17
ATOM     17  C   UNL A   1      32.392  20.132  24.314  1.00  0.00     0.410 C 
ATOM     18  O   UNL A   1      32.214  20.405  23.133  1.00  0.00    -0.224 OA
BRANCH  17  19
ATOM     19  O   UNL A   1      32.238  18.902  24.865  1.00  0.00    -0.444 OA
BRANCH  19  20
ATOM     20  C   UNL A   1      33.082  17.810  24.410  1.00  0.00     0.106 C 
ATOM     21  C   UNL A   1      34.552  18.244  24.438  1.00  0.00     0.056 C 
ATOM     22  C   UNL A   1      32.847  16.513  25.199  1.00  0.00     0.056 C 
ATOM     23  C   UNL A   1      32.671  17.558  22.952  1.00  0.00     0.056 C 
ENDBRANCH  19  20
ENDBRANCH  17  19
ENDBRANCH  11  17
ENDBRANCH   4   7
ENDBRANCH   2   3
ENDBRANCH   1   2
BRANCH   1  24
ATOM     24  C   UNL A   1      33.468  27.628  25.881  1.00  0.00     0.023 C 
BRANCH  24  25
ATOM     25  C   UNL A   1      34.528  28.543  26.478  1.00  0.00     0.116 C 
BRANCH  25  26
ATOM     26  N   UNL A   1      34.035  29.883  26.782  1.00  0.00    -0.352 N 
ATOM     27  C   UNL A   1      34.583  30.809  27.638  1.00  0.00     0.251 C 
ATOM     28  H   UNL A   1      33.211  30.156  26.317  1.00  0.00     0.163 HD
ATOM     29  O   UNL A   1      34.003  31.861  27.882  1.00  0.00    -0.269 OA
BRANCH  27  30
ATOM     30  C   UNL A   1      35.868  30.487  28.285  1.00  0.00     0.039 A 
ATOM     31  C   UNL A   1      35.867  29.734  29.459  1.00  0.00     0.014 A 
ATOM     32  C   UNL A   1      37.069  30.840  27.662  1.00  0.00     0.014 A 
ATOM     33  C   UNL A   1      37.079  29.274  29.974  1.00  0.00     0.010 A 
ATOM     34  C   UNL A   1      38.261  30.302  28.124  1.00  0.00     0.010 A 
ATOM     35  C   UNL A   1      38.281  29.519  29.289  1.00  0.00    -0.014 A 
BRANCH  35  36
ATOM     36  C   UNL A   1      39.570  28.960  29.767  1.00  0.00     0.031 A 
ATOM     37  C   UNL A   1      40.310  29.633  30.890  1.00  0.00     0.074 A 
ATOM     38  C   UNL A   1      40.115  27.901  29.135  1.00  0.00     0.049 A 
ATOM     39  N   UNL A   1      41.468  29.326  31.413  1.00  0.00    -0.248 NA
ATOM     40  C   UNL A   1      39.684  30.827  31.485  1.00  0.00     0.031 C 
ATOM     41  C   UNL A   1      39.539  27.216  27.975  1.00  0.00     0.029 A 
ATOM     42  N   UNL A   1      41.292  27.231  29.362  1.00  0.00    -0.354 N 
ATOM     43  C   UNL A   1      41.727  30.306  32.364  1.00  0.00     0.074 A 
ATOM     44  C   UNL A   1      40.624  31.239  32.321  1.00  0.00     0.031 C 
ATOM     45  C   UNL A   1      40.358  26.221  27.599  1.00  0.00     0.029 A 
ATOM     46  C   UNL A   1      41.533  26.217  28.464  1.00  0.00     0.049 A 
ATOM     47  H   UNL A   1      41.907  27.457  30.097  1.00  0.00     0.167 HD
ATOM     48  C   UNL A   1      42.773  30.405  33.217  1.00  0.00     0.034 A 
ATOM     49  C   UNL A   1      42.586  25.385  28.344  1.00  0.00     0.034 A 
ATOM     50  C   UNL A   1      43.845  29.451  33.285  1.00  0.00     0.049 A 
ATOM     51  C   UNL A   1      43.715  25.490  29.335  1.00  0.00     0.074 A 
ATOM     52  C   UNL A   1      44.897  29.405  34.181  1.00  0.00     0.029 A 
ATOM     53  N   UNL A   1      44.011  28.385  32.416  1.00  0.00    -0.354 N 
ATOM     54  N   UNL A   1      43.857  26.322  30.337  1.00  0.00    -0.248 NA
ATOM     55  C   UNL A   1      44.810  24.519  29.200  1.00  0.00     0.031 C 
ATOM     56  C   UNL A   1      45.722  28.333  33.830  1.00  0.00     0.029 A 
ATOM     57  C   UNL A   1      45.159  27.683  32.743  1.00  0.00     0.049 A 
ATOM     58  H   UNL A   1      43.403  28.158  31.676  1.00  0.00     0.167 HD
ATOM     59  C   UNL A   1      45.036  25.952  30.975  1.00  0.00     0.074 A 
ATOM     60  C   UNL A   1      45.557  24.806  30.257  1.00  0.00     0.031 C 
ATOM     61  C   UNL A   1      45.639  26.516  32.050  1.00  0.00     0.034 A 
BRANCH  48  62
ATOM     62  C   UNL A   1      42.787  31.566  34.177  1.00  0.00     0.023 A 
ATOM     63  C   UNL A   1      43.409  32.776  33.806  1.00  0.00     0.012 A 
ATOM     64  C   UNL A   1      42.134  31.477  35.422  1.00  0.00     0.148 A 
ATOM     65  C   UNL A   1      43.411  33.868  34.672  1.00  0.00     0.002 A 
ATOM     66  C   UNL A   1      42.096  32.587  36.258  1.00  0.00     0.091 A 
ATOM     67  F   UNL A   1      41.568  30.312  35.767  1.00  0.00    -0.205 F 
ATOM     68  C   UNL A   1      42.746  33.777  35.891  1.00  0.00     0.022 A 
BRANCH  66  69
ATOM     69  S   UNL A   1      41.196  32.599  37.811  1.00  0.00     0.127 S 
ATOM     70  O   UNL A   1      39.887  32.094  37.397  1.00  0.00    -0.237 OA
ATOM     71  O   UNL A   1      41.978  31.669  38.626  1.00  0.00    -0.237 OA
ATOM     72  O   UNL A   1      41.212  33.979  38.276  1.00  0.00    -0.744 OA
ENDBRANCH  66  69
ENDBRANCH  48  62
BRANCH  49  73
ATOM     73  C   UNL A   1      42.601  24.346  27.276  1.00  0.00     0.023 A 
ATOM     74  C   UNL A   1      43.278  24.598  26.066  1.00  0.00     0.012 A 
ATOM     75  C   UNL A   1      41.960  23.105  27.456  1.00  0.00     0.148 A 
ATOM     76  C   UNL A   1      43.285  23.650  25.043  1.00  0.00     0.002 A 
ATOM     77  C   UNL A   1      42.020  22.142  26.456  1.00  0.00     0.091 A 
ATOM     78  F   UNL A   1      41.312  22.887  28.609  1.00  0.00    -0.205 F 
ATOM     79  C   UNL A   1      42.664  22.419  25.240  1.00  0.00     0.022 A 
BRANCH  77  80
ATOM     80  S   UNL A   1      41.364  20.485  26.675  1.00  0.00     0.127 S 
ATOM     81  O   UNL A   1      41.764  19.838  25.429  1.00  0.00    -0.237 OA
ATOM     82  O   UNL A   1      42.085  20.032  27.865  1.00  0.00    -0.237 OA
ATOM     83  O   UNL A   1      39.930  20.652  26.869  1.00  0.00    -0.744 OA
ENDBRANCH  77  80
ENDBRANCH  49  73
BRANCH  61  84
ATOM     84  C   UNL A   1      46.910  25.882  32.555  1.00  0.00     0.023 A 
ATOM     85  C   UNL A   1      48.159  26.323  32.074  1.00  0.00     0.012 A 
ATOM     86  C   UNL A   1      46.864  24.898  33.562  1.00  0.00     0.148 A 
ATOM     87  C   UNL A   1      49.341  25.770  32.565  1.00  0.00     0.002 A 
ATOM     88  C   UNL A   1      48.047  24.391  34.085  1.00  0.00     0.091 A 
ATOM     89  F   UNL A   1      45.665  24.480  33.994  1.00  0.00    -0.205 F 
ATOM     90  C   UNL A   1      49.285  24.815  33.578  1.00  0.00     0.022 A 
BRANCH  88  91
ATOM     91  S   UNL A   1      48.074  23.234  35.458  1.00  0.00     0.127 S 
ATOM     92  O   UNL A   1      47.660  21.992  34.809  1.00  0.00    -0.237 OA
ATOM     93  O   UNL A   1      49.480  23.272  35.865  1.00  0.00    -0.237 OA
ATOM     94  O   UNL A   1      47.144  23.760  36.448  1.00  0.00    -0.744 OA
ENDBRANCH  88  91
ENDBRANCH  61  84
ENDBRANCH  35  36
ENDBRANCH  27  30
ENDBRANCH  25  26
ENDBRANCH  24  25
ENDBRANCH   1  24
TORSDOF 20
ENDMDL
MODEL 3
REMARK VINA RESULT:     -11.0      1.912      2.616
REMARK SMILES C[C@H](O)C[C@@]1(C(=O)NCCCCNC(=O)c2ccc(-c3c4nc(c(-c5cccc(S(=O)(=O)[O-])c5F)c5ccc([nH]5)c(-c5cccc(S(=O)(=O)[O-])c5F)c5nc(c(-c6cccc(S(=O)(=O)[O-])c6F)c6ccc3[nH]6)C=C5)C=C4)cc2)CCN(C(=O)OC(C)(C)C)C1
REMARK SMILES IDX 10 1 9 2 8 3 6 4 7 5 5 7 79 8 89 9 80 10 81 11 4 12 2 13
REMARK SMILES IDX 1 14 3 15 82 17 83 18 84 19 85 20 86 21 87 22 88 23 11 24
REMARK SMILES IDX 12 25 13 26 14 27 15 29 16 30 17 31 78 32 18 33 77 34 19 35
REMARK SMILES IDX 20 36 21 37 71 38 22 39 76 40 70 41 72 42 23 43 75 44 69 45
REMARK SMILES IDX 68 46 24 48 56 49 36 50 55 51 37 52 40 53 54 54 73 55 38 56
REMARK SMILES IDX 39 57 53 59 74 60 41 61 25 62 26 63 34 64 27 65 29 66 35 67
REMARK SMILES IDX 28 68 30 69 31 70 32 71 33 72 57 73 58 74 66 75 59 76 61 77
REMARK SMILES IDX 67 78 60 79 62 80 63 81 64 82 65 83 42 84 43 85 51 86 44 87
REMARK SMILES IDX 46 88 52 89 45 90 47 91 48 92 49 93 50 94
REMARK H PARENT 8 6 3 16 13 28 72 47 40 58
REMARK Flexibility Score: inf
ROOT
ATOM      1  C   UNL A   1      32.139  30.318  25.957  1.00  0.00     0.023 C 
ENDROOT
BRANCH   1   2
ATOM      2  C   UNL A   1      33.316  29.417  25.595  1.00  0.00     0.116 C 
BRANCH   2   3
ATOM      3  N   UNL A   1      33.602  29.431  24.175  1.00  0.00    -0.356 N 
ATOM      4  C   UNL A   1      33.465  28.524  23.176  1.00  0.00     0.228 C 
ATOM      5  O   UNL A   1      33.858  28.915  22.070  1.00  0.00    -0.274 OA
ATOM      6  H   UNL A   1      33.980  30.287  23.868  1.00  0.00     0.163 HD
BRANCH   4   7
ATOM      7  C   UNL A   1      32.769  27.144  23.304  1.00  0.00     0.071 C 
ATOM      8  C   UNL A   1      31.290  27.302  22.863  1.00  0.00     0.040 C 
ATOM      9  C   UNL A   1      32.693  26.590  24.723  1.00  0.00     0.140 C 
ATOM     10  C   UNL A   1      30.471  27.339  24.143  1.00  0.00     0.124 C 
ATOM     11  N   UNL A   1      31.305  26.682  25.129  1.00  0.00    -0.307 N 
BRANCH   7  12
ATOM     12  C   UNL A   1      33.546  26.169  22.350  1.00  0.00     0.050 C 
BRANCH  12  13
ATOM     13  C   UNL A   1      32.757  25.098  21.576  1.00  0.00     0.112 C 
ATOM     14  C   UNL A   1      33.199  23.695  21.970  1.00  0.00     0.038 C 
BRANCH  13  15
ATOM     15  O   UNL A   1      32.931  25.239  20.173  1.00  0.00    -0.393 OA
ATOM     16  H   UNL A   1      32.909  26.178  19.937  1.00  0.00     0.210 HD
ENDBRANCH  13  15
ENDBRANCH  12  13
ENDBRANCH   7  12
BRANCH  11  17
ATOM     17  C   UNL A   1      30.926  26.265  26.379  1.00  0.00     0.410 C 
ATOM     18  O   UNL A   1      31.333  26.811  27.398  1.00  0.00    -0.224 OA
BRANCH  17  19
ATOM     19  O   UNL A   1      30.071  25.213  26.342  1.00  0.00    -0.444 OA
BRANCH  19  20
ATOM     20  C   UNL A   1      30.606  23.866  26.245  1.00  0.00     0.106 C 
ATOM     21  C   UNL A   1      29.696  22.891  27.002  1.00  0.00     0.056 C 
ATOM     22  C   UNL A   1      30.842  23.427  24.792  1.00  0.00     0.056 C 
ATOM     23  C   UNL A   1      31.969  23.917  26.951  1.00  0.00     0.056 C 
ENDBRANCH  19  20
ENDBRANCH  17  19
ENDBRANCH  11  17
ENDBRANCH   4   7
ENDBRANCH   2   3
ENDBRANCH   1   2
BRANCH   1  24
ATOM     24  C   UNL A   1      32.328  31.104  27.250  1.00  0.00     0.023 C 
BRANCH  24  25
ATOM     25  C   UNL A   1      33.363  32.217  27.175  1.00  0.00     0.116 C 
BRANCH  25  26
ATOM     26  N   UNL A   1      32.814  33.541  27.449  1.00  0.00    -0.352 N 
ATOM     27  C   UNL A   1      33.163  34.406  28.459  1.00  0.00     0.251 C 
ATOM     28  H   UNL A   1      32.109  33.852  26.837  1.00  0.00     0.163 HD
ATOM     29  O   UNL A   1      32.542  35.448  28.638  1.00  0.00    -0.269 OA
BRANCH  27  30
ATOM     30  C   UNL A   1      34.280  34.030  29.346  1.00  0.00     0.039 A 
ATOM     31  C   UNL A   1      34.031  33.189  30.431  1.00  0.00     0.014 A 
ATOM     32  C   UNL A   1      35.583  34.424  29.029  1.00  0.00     0.014 A 
ATOM     33  C   UNL A   1      35.107  32.686  31.162  1.00  0.00     0.010 A 
ATOM     34  C   UNL A   1      36.652  33.847  29.699  1.00  0.00     0.010 A 
ATOM     35  C   UNL A   1      36.427  32.977  30.777  1.00  0.00    -0.014 A 
BRANCH  35  36
ATOM     36  C   UNL A   1      37.587  32.378  31.483  1.00  0.00     0.031 A 
ATOM     37  C   UNL A   1      38.356  31.255  30.844  1.00  0.00     0.074 A 
ATOM     38  C   UNL A   1      37.893  32.785  32.731  1.00  0.00     0.049 A 
ATOM     39  N   UNL A   1      39.364  30.572  31.321  1.00  0.00    -0.248 NA
ATOM     40  C   UNL A   1      37.919  30.819  29.506  1.00  0.00     0.031 C 
ATOM     41  C   UNL A   1      37.166  33.802  33.494  1.00  0.00     0.029 A 
ATOM     42  N   UNL A   1      38.880  32.371  33.592  1.00  0.00    -0.354 N 
ATOM     43  C   UNL A   1      39.653  29.605  30.365  1.00  0.00     0.074 A 
ATOM     44  C   UNL A   1      38.691  29.763  29.298  1.00  0.00     0.031 C 
ATOM     45  C   UNL A   1      37.735  33.939  34.702  1.00  0.00     0.029 A 
ATOM     46  C   UNL A   1      38.844  32.997  34.816  1.00  0.00     0.049 A 
ATOM     47  H   UNL A   1      39.550  31.689  33.354  1.00  0.00     0.167 HD
ATOM     48  C   UNL A   1      40.647  28.687  30.362  1.00  0.00     0.034 A 
ATOM     49  C   UNL A   1      39.610  32.824  35.911  1.00  0.00     0.034 A 
ATOM     50  C   UNL A   1      41.627  28.562  31.406  1.00  0.00     0.049 A 
ATOM     51  C   UNL A   1      40.737  31.826  35.863  1.00  0.00     0.074 A 
ATOM     52  C   UNL A   1      42.733  27.733  31.449  1.00  0.00     0.029 A 
ATOM     53  N   UNL A   1      41.611  29.273  32.594  1.00  0.00    -0.354 N 
ATOM     54  N   UNL A   1      41.098  31.037  34.880  1.00  0.00    -0.248 NA
ATOM     55  C   UNL A   1      41.583  31.719  37.060  1.00  0.00     0.031 C 
ATOM     56  C   UNL A   1      43.365  27.915  32.682  1.00  0.00     0.029 A 
ATOM     57  C   UNL A   1      42.679  28.891  33.388  1.00  0.00     0.049 A 
ATOM     58  H   UNL A   1      40.941  29.951  32.838  1.00  0.00     0.167 HD
ATOM     59  C   UNL A   1      42.233  30.370  35.324  1.00  0.00     0.074 A 
ATOM     60  C   UNL A   1      42.512  30.863  36.658  1.00  0.00     0.031 C 
ATOM     61  C   UNL A   1      42.972  29.426  34.692  1.00  0.00     0.034 A 
BRANCH  48  62
ATOM     62  C   UNL A   1      40.751  27.770  29.171  1.00  0.00     0.023 A 
ATOM     63  C   UNL A   1      39.927  26.628  29.090  1.00  0.00     0.012 A 
ATOM     64  C   UNL A   1      41.620  28.072  28.105  1.00  0.00     0.148 A 
ATOM     65  C   UNL A   1      39.992  25.782  27.985  1.00  0.00     0.002 A 
ATOM     66  C   UNL A   1      41.643  27.251  26.983  1.00  0.00     0.091 A 
ATOM     67  F   UNL A   1      42.411  29.149  28.209  1.00  0.00    -0.205 F 
ATOM     68  C   UNL A   1      40.840  26.100  26.928  1.00  0.00     0.022 A 
BRANCH  66  69
ATOM     69  S   UNL A   1      42.637  27.618  25.534  1.00  0.00     0.127 S 
ATOM     70  O   UNL A   1      42.015  28.852  25.054  1.00  0.00    -0.237 OA
ATOM     71  O   UNL A   1      43.969  27.793  26.113  1.00  0.00    -0.237 OA
ATOM     72  O   UNL A   1      42.503  26.469  24.651  1.00  0.00    -0.744 OA
ENDBRANCH  66  69
ENDBRANCH  48  62
BRANCH  49  73
ATOM     73  C   UNL A   1      39.372  33.649  37.129  1.00  0.00     0.023 A 
ATOM     74  C   UNL A   1      39.860  34.969  37.184  1.00  0.00     0.012 A 
ATOM     75  C   UNL A   1      38.653  33.138  38.227  1.00  0.00     0.148 A 
ATOM     76  C   UNL A   1      39.669  35.752  38.324  1.00  0.00     0.002 A 
ATOM     77  C   UNL A   1      38.416  33.942  39.335  1.00  0.00     0.091 A 
ATOM     78  F   UNL A   1      38.205  31.876  38.160  1.00  0.00    -0.205 F 
ATOM     79  C   UNL A   1      38.940  35.242  39.395  1.00  0.00     0.022 A 
BRANCH  77  80
ATOM     80  S   UNL A   1      37.377  33.415  40.702  1.00  0.00     0.127 S 
ATOM     81  O   UNL A   1      38.200  32.380  41.321  1.00  0.00    -0.237 OA
ATOM     82  O   UNL A   1      37.253  34.650  41.477  1.00  0.00    -0.237 OA
ATOM     83  O   UNL A   1      36.133  32.958  40.098  1.00  0.00    -0.744 OA
ENDBRANCH  77  80
ENDBRANCH  49  73
BRANCH  61  84
ATOM     84  C   UNL A   1      44.185  28.888  35.407  1.00  0.00     0.023 A 
ATOM     85  C   UNL A   1      45.450  29.468  35.186  1.00  0.00     0.012 A 
ATOM     86  C   UNL A   1      44.053  27.853  36.354  1.00  0.00     0.148 A 
ATOM     87  C   UNL A   1      46.571  29.002  35.872  1.00  0.00     0.002 A 
ATOM     88  C   UNL A   1      45.165  27.432  37.074  1.00  0.00     0.091 A 
ATOM     89  F   UNL A   1      42.844  27.303  36.537  1.00  0.00    -0.205 F 
ATOM     90  C   UNL A   1      46.426  27.995  36.824  1.00  0.00     0.022 A 
BRANCH  88  91
ATOM     91  S   UNL A   1      45.055  26.213  38.389  1.00  0.00     0.127 S 
ATOM     92  O   UNL A   1      44.475  25.070  37.687  1.00  0.00    -0.237 OA
ATOM     93  O   UNL A   1      46.458  26.047  38.772  1.00  0.00    -0.237 OA
ATOM     94  O   UNL A   1      44.212  26.805  39.419  1.00  0.00    -0.744 OA
ENDBRANCH  88  91
ENDBRANCH  61  84
ENDBRANCH  35  36
ENDBRANCH  27  30
ENDBRANCH  25  26
ENDBRANCH  24  25
ENDBRANCH   1  24
TORSDOF 20
ENDMDL
