MODEL 1
REMARK VINA RESULT:     -11.9      0.000      0.000
REMARK SMILES Cc1nc(C[C@H](C(=O)NCCCCNC(=O)c2ccc(-c3c4nc(c(-c5cccc(S(=O)(=O)[O-])c5F)c5ccc([nH]5)c(-c5cccc(S(=O)(=O)[O-])c5F)c5nc(c(-c6cccc(S(=O)(=O)[O-])c6F)c6ccc3[nH]6)C=C5)C=C4)cc2)c2ccccc2Br)cs1
REMARK SMILES IDX 12 1 11 2 10 3 9 4 7 5 8 6 6 8 5 9 4 10 1 11 2 12 3 13 88 14
REMARK SMILES IDX 87 15 80 16 81 17 85 18 82 19 84 20 86 21 83 22 13 23 14 24
REMARK SMILES IDX 15 25 16 27 17 28 18 29 79 30 19 31 78 32 20 33 21 34 22 35
REMARK SMILES IDX 72 36 23 37 77 38 71 39 73 40 24 41 76 42 70 43 69 44 25 46
REMARK SMILES IDX 57 47 37 48 56 49 38 50 41 51 55 52 74 53 39 54 40 55 54 57
REMARK SMILES IDX 75 58 42 59 26 60 27 61 35 62 28 63 30 64 36 65 29 66 31 67
REMARK SMILES IDX 32 68 33 69 34 70 58 71 59 72 67 73 60 74 62 75 68 76 61 77
REMARK SMILES IDX 63 78 64 79 65 80 66 81 43 82 44 83 52 84 45 85 47 86 53 87
REMARK SMILES IDX 46 88 48 89 49 90 50 91 51 92
REMARK H PARENT 9 7 14 26 73 45 41 56
REMARK Flexibility Score: inf
ROOT
ATOM      1  C   UNL A   1      32.053  31.406  27.020  1.00  0.00     0.023 C 
ENDROOT
BRANCH   1   2
ATOM      2  C   UNL A   1      32.536  30.108  26.372  1.00  0.00     0.023 C 
BRANCH   2   3
ATOM      3  C   UNL A   1      31.821  29.746  25.069  1.00  0.00     0.116 C 
BRANCH   3   4
ATOM      4  N   UNL A   1      32.769  29.533  23.994  1.00  0.00    -0.356 N 
ATOM      5  C   UNL A   1      32.940  28.455  23.175  1.00  0.00     0.227 C 
ATOM      6  O   UNL A   1      33.859  28.530  22.353  1.00  0.00    -0.274 OA
ATOM      7  H   UNL A   1      33.384  30.283  23.829  1.00  0.00     0.163 HD
BRANCH   5   8
ATOM      8  C   UNL A   1      31.979  27.245  23.220  1.00  0.00     0.115 C 
BRANCH   8   9
ATOM      9  C   UNL A   1      30.922  27.433  22.108  1.00  0.00     0.075 C 
BRANCH   9  10
ATOM     10  C   UNL A   1      29.757  28.355  22.331  1.00  0.00     0.053 A 
ATOM     11  C   UNL A   1      28.365  31.519  21.129  1.00  0.00     0.079 C 
ATOM     12  C   UNL A   1      28.679  30.233  21.802  1.00  0.00     0.090 A 
ATOM     13  N   UNL A   1      29.746  29.509  21.553  1.00  0.00    -0.247 NA
ATOM     14  S   UNL A   1      27.622  29.593  22.989  1.00  0.00    -0.127 S 
ATOM     15  C   UNL A   1      28.676  28.255  23.184  1.00  0.00     0.090 A 
ENDBRANCH   9  10
ENDBRANCH   8   9
BRANCH   8  16
ATOM     16  C   UNL A   1      32.696  25.892  23.231  1.00  0.00    -0.021 A 
ATOM     17  C   UNL A   1      32.624  25.115  22.048  1.00  0.00     0.006 A 
ATOM     18  C   UNL A   1      33.387  25.338  24.322  1.00  0.00     0.021 A 
ATOM     19  C   UNL A   1      33.188  23.841  21.962  1.00  0.00     0.000 A 
ATOM     20  C   UNL A   1      33.962  24.061  24.227  1.00  0.00     0.016 A 
ATOM     21  Br  UNL A   1      33.558  26.188  26.009  1.00  0.00    -0.051 Br
ATOM     22  C   UNL A   1      33.857  23.313  23.056  1.00  0.00     0.001 A 
ENDBRANCH   8  16
ENDBRANCH   5   8
ENDBRANCH   3   4
ENDBRANCH   2   3
ENDBRANCH   1   2
BRANCH   1  23
ATOM     23  C   UNL A   1      33.162  32.401  27.341  1.00  0.00     0.116 C 
BRANCH  23  24
ATOM     24  N   UNL A   1      32.675  33.750  27.601  1.00  0.00    -0.352 N 
ATOM     25  C   UNL A   1      33.131  34.648  28.540  1.00  0.00     0.251 C 
ATOM     26  H   UNL A   1      31.930  34.055  27.036  1.00  0.00     0.163 HD
ATOM     27  O   UNL A   1      32.571  35.722  28.699  1.00  0.00    -0.269 OA
BRANCH  25  28
ATOM     28  C   UNL A   1      34.280  34.262  29.387  1.00  0.00     0.039 A 
ATOM     29  C   UNL A   1      34.037  33.568  30.574  1.00  0.00     0.014 A 
ATOM     30  C   UNL A   1      35.588  34.513  28.963  1.00  0.00     0.014 A 
ATOM     31  C   UNL A   1      35.113  33.057  31.302  1.00  0.00     0.010 A 
ATOM     32  C   UNL A   1      36.653  33.943  29.652  1.00  0.00     0.010 A 
ATOM     33  C   UNL A   1      36.426  33.206  30.825  1.00  0.00    -0.014 A 
BRANCH  33  34
ATOM     34  C   UNL A   1      37.578  32.581  31.522  1.00  0.00     0.031 A 
ATOM     35  C   UNL A   1      38.307  31.430  30.888  1.00  0.00     0.074 A 
ATOM     36  C   UNL A   1      37.897  32.982  32.769  1.00  0.00     0.049 A 
ATOM     37  N   UNL A   1      39.287  30.711  31.369  1.00  0.00    -0.248 NA
ATOM     38  C   UNL A   1      37.858  31.012  29.549  1.00  0.00     0.031 C 
ATOM     39  C   UNL A   1      37.203  34.026  33.528  1.00  0.00     0.029 A 
ATOM     40  N   UNL A   1      38.870  32.539  33.630  1.00  0.00    -0.354 N 
ATOM     41  C   UNL A   1      39.544  29.735  30.415  1.00  0.00     0.074 A 
ATOM     42  C   UNL A   1      38.598  29.932  29.340  1.00  0.00     0.031 C 
ATOM     43  C   UNL A   1      37.773  34.143  34.739  1.00  0.00     0.029 A 
ATOM     44  C   UNL A   1      38.857  33.173  34.852  1.00  0.00     0.049 A 
ATOM     45  H   UNL A   1      39.516  31.835  33.395  1.00  0.00     0.167 HD
ATOM     46  C   UNL A   1      40.507  28.783  30.415  1.00  0.00     0.034 A 
ATOM     47  C   UNL A   1      39.633  32.991  35.938  1.00  0.00     0.034 A 
ATOM     48  C   UNL A   1      41.487  28.629  31.455  1.00  0.00     0.049 A 
ATOM     49  C   UNL A   1      40.739  31.971  35.883  1.00  0.00     0.074 A 
ATOM     50  C   UNL A   1      42.561  27.760  31.504  1.00  0.00     0.029 A 
ATOM     51  N   UNL A   1      41.514  29.365  32.630  1.00  0.00    -0.354 N 
ATOM     52  N   UNL A   1      41.076  31.174  34.899  1.00  0.00    -0.248 NA
ATOM     53  C   UNL A   1      41.596  31.854  37.072  1.00  0.00     0.031 C 
ATOM     54  C   UNL A   1      43.236  27.967  32.712  1.00  0.00     0.029 A 
ATOM     55  C   UNL A   1      42.587  28.972  33.410  1.00  0.00     0.049 A 
ATOM     56  H   UNL A   1      40.865  30.066  32.872  1.00  0.00     0.167 HD
ATOM     57  C   UNL A   1      42.202  30.485  35.335  1.00  0.00     0.074 A 
ATOM     58  C   UNL A   1      42.504  30.978  36.664  1.00  0.00     0.031 C 
ATOM     59  C   UNL A   1      42.911  29.519  34.702  1.00  0.00     0.034 A 
BRANCH  46  60
ATOM     60  C   UNL A   1      40.597  27.880  29.214  1.00  0.00     0.023 A 
ATOM     61  C   UNL A   1      39.747  26.757  29.134  1.00  0.00     0.012 A 
ATOM     62  C   UNL A   1      41.468  28.166  28.146  1.00  0.00     0.148 A 
ATOM     63  C   UNL A   1      39.784  25.915  28.024  1.00  0.00     0.002 A 
ATOM     64  C   UNL A   1      41.470  27.345  27.024  1.00  0.00     0.091 A 
ATOM     65  F   UNL A   1      42.284  29.224  28.251  1.00  0.00    -0.205 F 
ATOM     66  C   UNL A   1      40.636  26.215  26.966  1.00  0.00     0.022 A 
BRANCH  64  67
ATOM     67  S   UNL A   1      42.480  27.684  25.578  1.00  0.00     0.127 S 
ATOM     68  O   UNL A   1      41.919  28.953  25.117  1.00  0.00    -0.237 OA
ATOM     69  O   UNL A   1      43.822  27.784  26.153  1.00  0.00    -0.237 OA
ATOM     70  O   UNL A   1      42.288  26.552  24.682  1.00  0.00    -0.744 OA
ENDBRANCH  64  67
ENDBRANCH  46  60
BRANCH  47  71
ATOM     71  C   UNL A   1      39.448  33.852  37.141  1.00  0.00     0.023 A 
ATOM     72  C   UNL A   1      39.889  35.189  37.101  1.00  0.00     0.012 A 
ATOM     73  C   UNL A   1      38.821  33.370  38.305  1.00  0.00     0.148 A 
ATOM     74  C   UNL A   1      39.738  36.022  38.210  1.00  0.00     0.002 A 
ATOM     75  C   UNL A   1      38.628  34.221  39.389  1.00  0.00     0.091 A 
ATOM     76  F   UNL A   1      38.422  32.090  38.332  1.00  0.00    -0.205 F 
ATOM     77  C   UNL A   1      39.099  35.541  39.350  1.00  0.00     0.022 A 
BRANCH  75  78
ATOM     78  S   UNL A   1      37.699  33.717  40.842  1.00  0.00     0.127 S 
ATOM     79  O   UNL A   1      38.616  32.772  41.471  1.00  0.00    -0.237 OA
ATOM     80  O   UNL A   1      37.531  34.985  41.555  1.00  0.00    -0.237 OA
ATOM     81  O   UNL A   1      36.456  33.157  40.327  1.00  0.00    -0.744 OA
ENDBRANCH  75  78
ENDBRANCH  47  71
BRANCH  59  82
ATOM     82  C   UNL A   1      44.103  28.943  35.418  1.00  0.00     0.023 A 
ATOM     83  C   UNL A   1      45.369  29.534  35.246  1.00  0.00     0.012 A 
ATOM     84  C   UNL A   1      43.954  27.872  36.322  1.00  0.00     0.148 A 
ATOM     85  C   UNL A   1      46.476  29.054  35.945  1.00  0.00     0.002 A 
ATOM     86  C   UNL A   1      45.053  27.427  37.047  1.00  0.00     0.091 A 
ATOM     87  F   UNL A   1      42.744  27.309  36.454  1.00  0.00    -0.205 F 
ATOM     88  C   UNL A   1      46.315  28.010  36.852  1.00  0.00     0.022 A 
BRANCH  86  89
ATOM     89  S   UNL A   1      44.916  26.151  38.304  1.00  0.00     0.127 S 
ATOM     90  O   UNL A   1      46.303  26.017  38.746  1.00  0.00    -0.237 OA
ATOM     91  O   UNL A   1      44.020  26.769  39.283  1.00  0.00    -0.237 OA
ATOM     92  O   UNL A   1      44.355  24.987  37.629  1.00  0.00    -0.744 OA
ENDBRANCH  86  89
ENDBRANCH  59  82
ENDBRANCH  33  34
ENDBRANCH  25  28
ENDBRANCH  23  24
ENDBRANCH   1  23
TORSDOF 17
ENDMDL
MODEL 2
REMARK VINA RESULT:     -11.6      3.150      8.587
REMARK SMILES Cc1nc(C[C@H](C(=O)NCCCCNC(=O)c2ccc(-c3c4nc(c(-c5cccc(S(=O)(=O)[O-])c5F)c5ccc([nH]5)c(-c5cccc(S(=O)(=O)[O-])c5F)c5nc(c(-c6cccc(S(=O)(=O)[O-])c6F)c6ccc3[nH]6)C=C5)C=C4)cc2)c2ccccc2Br)cs1
REMARK SMILES IDX 12 1 11 2 10 3 9 4 7 5 8 6 6 8 5 9 4 10 1 11 2 12 3 13 88 14
REMARK SMILES IDX 87 15 80 16 81 17 85 18 82 19 84 20 86 21 83 22 13 23 14 24
REMARK SMILES IDX 15 25 16 27 17 28 18 29 79 30 19 31 78 32 20 33 21 34 22 35
REMARK SMILES IDX 72 36 23 37 77 38 71 39 73 40 24 41 76 42 70 43 69 44 25 46
REMARK SMILES IDX 57 47 37 48 56 49 38 50 41 51 55 52 74 53 39 54 40 55 54 57
REMARK SMILES IDX 75 58 42 59 26 60 27 61 35 62 28 63 30 64 36 65 29 66 31 67
REMARK SMILES IDX 32 68 33 69 34 70 58 71 59 72 67 73 60 74 62 75 68 76 61 77
REMARK SMILES IDX 63 78 64 79 65 80 66 81 43 82 44 83 52 84 45 85 47 86 53 87
REMARK SMILES IDX 46 88 48 89 49 90 50 91 51 92
REMARK H PARENT 9 7 14 26 73 45 41 56
REMARK Flexibility Score: inf
ROOT
ATOM      1  C   UNL A   1      31.744  28.632  25.745  1.00  0.00     0.023 C 
ENDROOT
BRANCH   1   2
ATOM      2  C   UNL A   1      32.019  27.252  26.342  1.00  0.00     0.023 C 
BRANCH   2   3
ATOM      3  C   UNL A   1      33.113  26.457  25.625  1.00  0.00     0.116 C 
BRANCH   3   4
ATOM      4  N   UNL A   1      32.742  26.175  24.254  1.00  0.00    -0.356 N 
ATOM      5  C   UNL A   1      32.692  24.988  23.584  1.00  0.00     0.227 C 
ATOM      6  O   UNL A   1      32.368  25.042  22.394  1.00  0.00    -0.274 OA
ATOM      7  H   UNL A   1      32.486  26.964  23.723  1.00  0.00     0.163 HD
BRANCH   5   8
ATOM      8  C   UNL A   1      32.945  23.643  24.304  1.00  0.00     0.115 C 
BRANCH   8   9
ATOM      9  C   UNL A   1      32.063  22.567  23.629  1.00  0.00     0.075 C 
BRANCH   9  10
ATOM     10  C   UNL A   1      32.251  21.119  23.979  1.00  0.00     0.053 A 
ATOM     11  C   UNL A   1      32.500  17.824  22.404  1.00  0.00     0.079 C 
ATOM     12  C   UNL A   1      32.441  19.001  23.309  1.00  0.00     0.090 A 
ATOM     13  N   UNL A   1      32.243  20.235  22.903  1.00  0.00    -0.247 NA
ATOM     14  S   UNL A   1      32.637  18.809  24.999  1.00  0.00    -0.127 S 
ATOM     15  C   UNL A   1      32.436  20.501  25.198  1.00  0.00     0.090 A 
ENDBRANCH   9  10
ENDBRANCH   8   9
BRANCH   8  16
ATOM     16  C   UNL A   1      34.429  23.291  24.444  1.00  0.00    -0.021 A 
ATOM     17  C   UNL A   1      35.202  23.274  23.256  1.00  0.00     0.006 A 
ATOM     18  C   UNL A   1      35.081  22.948  25.640  1.00  0.00     0.021 A 
ATOM     19  C   UNL A   1      36.549  22.910  23.254  1.00  0.00     0.000 A 
ATOM     20  C   UNL A   1      36.439  22.594  25.634  1.00  0.00     0.016 A 
ATOM     21  Br  UNL A   1      34.220  22.860  27.328  1.00  0.00    -0.051 Br
ATOM     22  C   UNL A   1      37.168  22.567  24.447  1.00  0.00     0.001 A 
ENDBRANCH   8  16
ENDBRANCH   5   8
ENDBRANCH   3   4
ENDBRANCH   2   3
ENDBRANCH   1   2
BRANCH   1  23
ATOM     23  C   UNL A   1      32.925  29.593  25.807  1.00  0.00     0.116 C 
BRANCH  23  24
ATOM     24  N   UNL A   1      32.572  30.916  26.304  1.00  0.00    -0.352 N 
ATOM     25  C   UNL A   1      33.274  31.703  27.191  1.00  0.00     0.251 C 
ATOM     26  H   UNL A   1      31.729  31.294  25.965  1.00  0.00     0.163 HD
ATOM     27  O   UNL A   1      32.815  32.765  27.581  1.00  0.00    -0.269 OA
BRANCH  25  28
ATOM     28  C   UNL A   1      34.572  31.207  27.699  1.00  0.00     0.039 A 
ATOM     29  C   UNL A   1      35.576  32.132  27.991  1.00  0.00     0.014 A 
ATOM     30  C   UNL A   1      34.757  29.847  27.959  1.00  0.00     0.014 A 
ATOM     31  C   UNL A   1      36.745  31.698  28.620  1.00  0.00     0.010 A 
ATOM     32  C   UNL A   1      35.890  29.430  28.648  1.00  0.00     0.010 A 
ATOM     33  C   UNL A   1      36.893  30.351  28.989  1.00  0.00    -0.014 A 
BRANCH  33  34
ATOM     34  C   UNL A   1      38.077  29.884  29.753  1.00  0.00     0.031 A 
ATOM     35  C   UNL A   1      38.330  30.403  31.140  1.00  0.00     0.074 A 
ATOM     36  C   UNL A   1      38.976  29.076  29.156  1.00  0.00     0.049 A 
ATOM     37  N   UNL A   1      39.341  30.169  31.935  1.00  0.00    -0.248 NA
ATOM     38  C   UNL A   1      37.332  31.330  31.699  1.00  0.00     0.031 C 
ATOM     39  C   UNL A   1      38.890  28.580  27.780  1.00  0.00     0.029 A 
ATOM     40  N   UNL A   1      40.157  28.552  29.622  1.00  0.00    -0.354 N 
ATOM     41  C   UNL A   1      39.123  30.946  33.065  1.00  0.00     0.074 A 
ATOM     42  C   UNL A   1      37.900  31.684  32.843  1.00  0.00     0.031 C 
ATOM     43  C   UNL A   1      39.968  27.824  27.515  1.00  0.00     0.029 A 
ATOM     44  C   UNL A   1      40.832  27.797  28.690  1.00  0.00     0.049 A 
ATOM     45  H   UNL A   1      40.488  28.702  30.536  1.00  0.00     0.167 HD
ATOM     46  C   UNL A   1      39.854  31.011  34.203  1.00  0.00     0.034 A 
ATOM     47  C   UNL A   1      42.013  27.155  28.777  1.00  0.00     0.034 A 
ATOM     48  C   UNL A   1      41.035  30.229  34.447  1.00  0.00     0.049 A 
ATOM     49  C   UNL A   1      42.770  27.191  30.078  1.00  0.00     0.074 A 
ATOM     50  C   UNL A   1      41.792  30.151  35.602  1.00  0.00     0.029 A 
ATOM     51  N   UNL A   1      41.629  29.387  33.520  1.00  0.00    -0.354 N 
ATOM     52  N   UNL A   1      42.456  27.796  31.197  1.00  0.00    -0.248 NA
ATOM     53  C   UNL A   1      44.024  26.425  30.141  1.00  0.00     0.031 C 
ATOM     54  C   UNL A   1      42.848  29.263  35.371  1.00  0.00     0.029 A 
ATOM     55  C   UNL A   1      42.743  28.782  34.077  1.00  0.00     0.049 A 
ATOM     56  H   UNL A   1      41.306  29.239  32.602  1.00  0.00     0.167 HD
ATOM     57  C   UNL A   1      43.452  27.456  32.106  1.00  0.00     0.074 A 
ATOM     58  C   UNL A   1      44.367  26.573  31.413  1.00  0.00     0.031 C 
ATOM     59  C   UNL A   1      43.606  27.855  33.393  1.00  0.00     0.034 A 
BRANCH  46  60
ATOM     60  C   UNL A   1      39.353  31.906  35.304  1.00  0.00     0.023 A 
ATOM     61  C   UNL A   1      38.439  31.390  36.246  1.00  0.00     0.012 A 
ATOM     62  C   UNL A   1      39.822  33.226  35.447  1.00  0.00     0.148 A 
ATOM     63  C   UNL A   1      37.975  32.182  37.295  1.00  0.00     0.002 A 
ATOM     64  C   UNL A   1      39.386  33.996  36.518  1.00  0.00     0.091 A 
ATOM     65  F   UNL A   1      40.672  33.706  34.529  1.00  0.00    -0.205 F 
ATOM     66  C   UNL A   1      38.456  33.480  37.437  1.00  0.00     0.022 A 
BRANCH  64  67
ATOM     67  S   UNL A   1      39.999  35.656  36.831  1.00  0.00     0.127 S 
ATOM     68  O   UNL A   1      39.563  36.363  35.628  1.00  0.00    -0.237 OA
ATOM     69  O   UNL A   1      39.279  36.027  38.050  1.00  0.00    -0.237 OA
ATOM     70  O   UNL A   1      41.440  35.526  36.994  1.00  0.00    -0.744 OA
ENDBRANCH  64  67
ENDBRANCH  46  60
BRANCH  47  71
ATOM     71  C   UNL A   1      42.513  26.352  27.625  1.00  0.00     0.023 A 
ATOM     72  C   UNL A   1      43.421  26.938  26.722  1.00  0.00     0.012 A 
ATOM     73  C   UNL A   1      42.120  25.014  27.432  1.00  0.00     0.148 A 
ATOM     74  C   UNL A   1      43.903  26.218  25.629  1.00  0.00     0.002 A 
ATOM     75  C   UNL A   1      42.644  24.286  26.368  1.00  0.00     0.091 A 
ATOM     76  F   UNL A   1      41.242  24.476  28.291  1.00  0.00    -0.205 F 
ATOM     77  C   UNL A   1      43.523  24.890  25.457  1.00  0.00     0.022 A 
BRANCH  75  78
ATOM     78  S   UNL A   1      42.307  22.534  26.154  1.00  0.00     0.127 S 
ATOM     79  O   UNL A   1      42.846  21.973  27.389  1.00  0.00    -0.237 OA
ATOM     80  O   UNL A   1      40.847  22.512  26.051  1.00  0.00    -0.237 OA
ATOM     81  O   UNL A   1      42.995  22.158  24.926  1.00  0.00    -0.744 OA
ENDBRANCH  75  78
ENDBRANCH  47  71
BRANCH  59  82
ATOM     82  C   UNL A   1      44.791  27.322  34.153  1.00  0.00     0.023 A 
ATOM     83  C   UNL A   1      45.990  28.059  34.176  1.00  0.00     0.012 A 
ATOM     84  C   UNL A   1      44.690  26.137  34.909  1.00  0.00     0.148 A 
ATOM     85  C   UNL A   1      47.081  27.614  34.920  1.00  0.00     0.002 A 
ATOM     86  C   UNL A   1      45.767  25.722  35.683  1.00  0.00     0.091 A 
ATOM     87  F   UNL A   1      43.546  25.438  34.855  1.00  0.00    -0.205 F 
ATOM     88  C   UNL A   1      46.965  26.453  35.682  1.00  0.00     0.022 A 
BRANCH  86  89
ATOM     89  S   UNL A   1      45.671  24.292  36.766  1.00  0.00     0.127 S 
ATOM     90  O   UNL A   1      47.005  24.281  37.364  1.00  0.00    -0.237 OA
ATOM     91  O   UNL A   1      44.593  24.665  37.684  1.00  0.00    -0.237 OA
ATOM     92  O   UNL A   1      45.359  23.160  35.902  1.00  0.00    -0.744 OA
ENDBRANCH  86  89
ENDBRANCH  59  82
ENDBRANCH  33  34
ENDBRANCH  25  28
ENDBRANCH  23  24
ENDBRANCH   1  23
TORSDOF 17
ENDMDL
MODEL 3
REMARK VINA RESULT:     -11.5      1.782      3.031
REMARK SMILES Cc1nc(C[C@H](C(=O)NCCCCNC(=O)c2ccc(-c3c4nc(c(-c5cccc(S(=O)(=O)[O-])c5F)c5ccc([nH]5)c(-c5cccc(S(=O)(=O)[O-])c5F)c5nc(c(-c6cccc(S(=O)(=O)[O-])c6F)c6ccc3[nH]6)C=C5)C=C4)cc2)c2ccccc2Br)cs1
REMARK SMILES IDX 12 1 11 2 10 3 9 4 7 5 8 6 6 8 5 9 4 10 1 11 2 12 3 13 88 14
REMARK SMILES IDX 87 15 80 16 81 17 85 18 82 19 84 20 86 21 83 22 13 23 14 24
REMARK SMILES IDX 15 25 16 27 17 28 18 29 79 30 19 31 78 32 20 33 21 34 22 35
REMARK SMILES IDX 72 36 23 37 77 38 71 39 73 40 24 41 76 42 70 43 69 44 25 46
REMARK SMILES IDX 57 47 37 48 56 49 38 50 41 51 55 52 74 53 39 54 40 55 54 57
REMARK SMILES IDX 75 58 42 59 26 60 27 61 35 62 28 63 30 64 36 65 29 66 31 67
REMARK SMILES IDX 32 68 33 69 34 70 58 71 59 72 67 73 60 74 62 75 68 76 61 77
REMARK SMILES IDX 63 78 64 79 65 80 66 81 43 82 44 83 52 84 45 85 47 86 53 87
REMARK SMILES IDX 46 88 48 89 49 90 50 91 51 92
REMARK H PARENT 9 7 14 26 73 45 41 56
REMARK Flexibility Score: inf
ROOT
ATOM      1  C   UNL A   1      32.230  30.510  26.465  1.00  0.00     0.023 C 
ENDROOT
BRANCH   1   2
ATOM      2  C   UNL A   1      31.782  29.319  27.312  1.00  0.00     0.023 C 
BRANCH   2   3
ATOM      3  C   UNL A   1      32.258  27.959  26.797  1.00  0.00     0.116 C 
BRANCH   3   4
ATOM      4  N   UNL A   1      31.219  26.958  26.923  1.00  0.00    -0.356 N 
ATOM      5  C   UNL A   1      30.562  26.248  25.961  1.00  0.00     0.227 C 
ATOM      6  O   UNL A   1      29.686  25.472  26.354  1.00  0.00    -0.274 OA
ATOM      7  H   UNL A   1      30.945  26.760  27.848  1.00  0.00     0.163 HD
BRANCH   5   8
ATOM      8  C   UNL A   1      30.957  26.350  24.470  1.00  0.00     0.115 C 
BRANCH   8   9
ATOM      9  C   UNL A   1      30.821  24.943  23.843  1.00  0.00     0.075 C 
BRANCH   9  10
ATOM     10  C   UNL A   1      31.854  23.892  24.133  1.00  0.00     0.053 A 
ATOM     11  C   UNL A   1      35.338  23.049  23.393  1.00  0.00     0.079 C 
ATOM     12  C   UNL A   1      33.931  23.129  23.863  1.00  0.00     0.090 A 
ATOM     13  N   UNL A   1      33.093  24.083  23.527  1.00  0.00    -0.247 NA
ATOM     14  S   UNL A   1      33.297  21.934  24.914  1.00  0.00    -0.127 S 
ATOM     15  C   UNL A   1      31.791  22.754  24.912  1.00  0.00     0.090 A 
ENDBRANCH   9  10
ENDBRANCH   8   9
BRANCH   8  16
ATOM     16  C   UNL A   1      30.244  27.481  23.723  1.00  0.00    -0.021 A 
ATOM     17  C   UNL A   1      28.830  27.413  23.648  1.00  0.00     0.006 A 
ATOM     18  C   UNL A   1      30.871  28.558  23.073  1.00  0.00     0.021 A 
ATOM     19  C   UNL A   1      28.080  28.354  22.942  1.00  0.00     0.000 A 
ATOM     20  C   UNL A   1      30.110  29.508  22.375  1.00  0.00     0.016 A 
ATOM     21  Br  UNL A   1      32.750  28.807  23.009  1.00  0.00    -0.051 Br
ATOM     22  C   UNL A   1      28.722  29.403  22.302  1.00  0.00     0.001 A 
ENDBRANCH   8  16
ENDBRANCH   5   8
ENDBRANCH   3   4
ENDBRANCH   2   3
ENDBRANCH   1   2
BRANCH   1  23
ATOM     23  C   UNL A   1      33.219  31.439  27.157  1.00  0.00     0.116 C 
BRANCH  23  24
ATOM     24  N   UNL A   1      32.725  32.801  27.317  1.00  0.00    -0.352 N 
ATOM     25  C   UNL A   1      33.185  33.774  28.176  1.00  0.00     0.251 C 
ATOM     26  H   UNL A   1      31.970  33.055  26.740  1.00  0.00     0.163 HD
ATOM     27  O   UNL A   1      32.619  34.852  28.258  1.00  0.00    -0.269 OA
BRANCH  25  28
ATOM     28  C   UNL A   1      34.349  33.463  29.035  1.00  0.00     0.039 A 
ATOM     29  C   UNL A   1      34.139  32.756  30.220  1.00  0.00     0.014 A 
ATOM     30  C   UNL A   1      35.641  33.801  28.625  1.00  0.00     0.014 A 
ATOM     31  C   UNL A   1      35.239  32.316  30.959  1.00  0.00     0.010 A 
ATOM     32  C   UNL A   1      36.734  33.302  29.324  1.00  0.00     0.010 A 
ATOM     33  C   UNL A   1      36.545  32.551  30.496  1.00  0.00    -0.014 A 
BRANCH  33  34
ATOM     34  C   UNL A   1      37.728  32.004  31.205  1.00  0.00     0.031 A 
ATOM     35  C   UNL A   1      38.516  30.879  30.596  1.00  0.00     0.074 A 
ATOM     36  C   UNL A   1      38.026  32.449  32.442  1.00  0.00     0.049 A 
ATOM     37  N   UNL A   1      39.532  30.223  31.091  1.00  0.00    -0.248 NA
ATOM     38  C   UNL A   1      38.089  30.407  29.268  1.00  0.00     0.031 C 
ATOM     39  C   UNL A   1      37.278  33.472  33.179  1.00  0.00     0.029 A 
ATOM     40  N   UNL A   1      39.021  32.077  33.312  1.00  0.00    -0.354 N 
ATOM     41  C   UNL A   1      39.841  29.240  30.160  1.00  0.00     0.074 A 
ATOM     42  C   UNL A   1      38.885  29.363  29.081  1.00  0.00     0.031 C 
ATOM     43  C   UNL A   1      37.842  33.646  34.386  1.00  0.00     0.029 A 
ATOM     44  C   UNL A   1      38.975  32.737  34.519  1.00  0.00     0.049 A 
ATOM     45  H   UNL A   1      39.702  31.403  33.092  1.00  0.00     0.167 HD
ATOM     46  C   UNL A   1      40.852  28.341  30.180  1.00  0.00     0.034 A 
ATOM     47  C   UNL A   1      39.760  32.620  35.608  1.00  0.00     0.034 A 
ATOM     48  C   UNL A   1      41.839  28.262  31.222  1.00  0.00     0.049 A 
ATOM     49  C   UNL A   1      40.918  31.659  35.574  1.00  0.00     0.074 A 
ATOM     50  C   UNL A   1      42.958  27.451  31.288  1.00  0.00     0.029 A 
ATOM     51  N   UNL A   1      41.827  29.025  32.379  1.00  0.00    -0.354 N 
ATOM     52  N   UNL A   1      41.296  30.858  34.607  1.00  0.00    -0.248 NA
ATOM     53  C   UNL A   1      41.780  31.613  36.764  1.00  0.00     0.031 C 
ATOM     54  C   UNL A   1      43.621  27.721  32.490  1.00  0.00     0.029 A 
ATOM     55  C   UNL A   1      42.920  28.706  33.166  1.00  0.00     0.049 A 
ATOM     56  H   UNL A   1      41.143  29.695  32.607  1.00  0.00     0.167 HD
ATOM     57  C   UNL A   1      42.457  30.240  35.058  1.00  0.00     0.074 A 
ATOM     58  C   UNL A   1      42.733  30.777  36.375  1.00  0.00     0.031 C 
ATOM     59  C   UNL A   1      43.215  29.298  34.445  1.00  0.00     0.034 A 
BRANCH  46  60
ATOM     60  C   UNL A   1      40.989  27.417  29.000  1.00  0.00     0.023 A 
ATOM     61  C   UNL A   1      40.160  26.279  28.919  1.00  0.00     0.012 A 
ATOM     62  C   UNL A   1      41.884  27.697  27.949  1.00  0.00     0.148 A 
ATOM     63  C   UNL A   1      40.240  25.417  27.826  1.00  0.00     0.002 A 
ATOM     64  C   UNL A   1      41.929  26.855  26.844  1.00  0.00     0.091 A 
ATOM     65  F   UNL A   1      42.679  28.770  28.056  1.00  0.00    -0.205 F 
ATOM     66  C   UNL A   1      41.116  25.711  26.785  1.00  0.00     0.022 A 
BRANCH  64  67
ATOM     67  S   UNL A   1      42.972  27.183  25.419  1.00  0.00     0.127 S 
ATOM     68  O   UNL A   1      42.885  25.917  24.692  1.00  0.00    -0.237 OA
ATOM     69  O   UNL A   1      42.278  28.302  24.779  1.00  0.00    -0.237 OA
ATOM     70  O   UNL A   1      44.287  27.510  25.952  1.00  0.00    -0.744 OA
ENDBRANCH  64  67
ENDBRANCH  46  60
BRANCH  47  71
ATOM     71  C   UNL A   1      39.530  33.498  36.791  1.00  0.00     0.023 A 
ATOM     72  C   UNL A   1      39.952  34.840  36.742  1.00  0.00     0.012 A 
ATOM     73  C   UNL A   1      38.879  33.025  37.945  1.00  0.00     0.148 A 
ATOM     74  C   UNL A   1      39.760  35.688  37.833  1.00  0.00     0.002 A 
ATOM     75  C   UNL A   1      38.645  33.890  39.010  1.00  0.00     0.091 A 
ATOM     76  F   UNL A   1      38.498  31.740  37.983  1.00  0.00    -0.205 F 
ATOM     77  C   UNL A   1      39.098  35.216  38.963  1.00  0.00     0.022 A 
BRANCH  75  78
ATOM     78  S   UNL A   1      37.684  33.395  40.446  1.00  0.00     0.127 S 
ATOM     79  O   UNL A   1      38.513  32.335  41.010  1.00  0.00    -0.237 OA
ATOM     80  O   UNL A   1      37.642  34.631  41.230  1.00  0.00    -0.237 OA
ATOM     81  O   UNL A   1      36.389  32.984  39.918  1.00  0.00    -0.744 OA
ENDBRANCH  75  78
ENDBRANCH  47  71
BRANCH  59  82
ATOM     82  C   UNL A   1      44.436  28.802  35.173  1.00  0.00     0.023 A 
ATOM     83  C   UNL A   1      45.684  29.406  34.927  1.00  0.00     0.012 A 
ATOM     84  C   UNL A   1      44.332  27.798  36.155  1.00  0.00     0.148 A 
ATOM     85  C   UNL A   1      46.817  29.002  35.632  1.00  0.00     0.002 A 
ATOM     86  C   UNL A   1      45.457  27.430  36.884  1.00  0.00     0.091 A 
ATOM     87  F   UNL A   1      43.139  27.220  36.357  1.00  0.00    -0.205 F 
ATOM     88  C   UNL A   1      46.701  28.024  36.617  1.00  0.00     0.022 A 
BRANCH  86  89
ATOM     89  S   UNL A   1      45.378  26.247  38.234  1.00  0.00     0.127 S 
ATOM     90  O   UNL A   1      44.381  26.861  39.110  1.00  0.00    -0.237 OA
ATOM     91  O   UNL A   1      44.928  25.029  37.558  1.00  0.00    -0.237 OA
ATOM     92  O   UNL A   1      46.728  26.170  38.775  1.00  0.00    -0.744 OA
ENDBRANCH  86  89
ENDBRANCH  59  82
ENDBRANCH  33  34
ENDBRANCH  25  28
ENDBRANCH  23  24
ENDBRANCH   1  23
TORSDOF 17
ENDMDL
