MODEL 1
REMARK VINA RESULT:     -11.0      0.000      0.000
REMARK SMILES COC(=O)[C@@H](CC(=O)NCCCCNC(=O)c1ccc(-c2c3nc(c(-c4cccc(S(=O)(=O)[O-])c4F)c4ccc([nH]4)c(-c4cccc(S(=O)(=O)[O-])c4F)c4nc(c(-c5cccc(S(=O)(=O)[O-])c5F)c5ccc2[nH]5)C=C4)C=C3)cc1)C1CCCCC1
REMARK SMILES IDX 11 1 10 2 9 3 7 4 8 5 6 7 5 8 3 9 4 10 2 11 1 12 80 13 81 14
REMARK SMILES IDX 85 15 82 16 84 17 83 18 12 19 13 20 14 21 15 22 16 24 17 25
REMARK SMILES IDX 18 26 79 27 19 28 78 29 20 30 21 31 22 32 72 33 23 34 77 35
REMARK SMILES IDX 71 36 73 37 24 38 76 39 70 40 69 41 25 43 57 44 37 45 56 46
REMARK SMILES IDX 38 47 41 48 55 49 74 50 39 51 40 52 54 54 75 55 42 56 26 57
REMARK SMILES IDX 27 58 35 59 28 60 30 61 36 62 29 63 31 64 32 65 33 66 34 67
REMARK SMILES IDX 58 68 59 69 67 70 60 71 62 72 68 73 61 74 63 75 64 76 65 77
REMARK SMILES IDX 66 78 43 79 44 80 52 81 45 82 47 83 53 84 46 85 48 86 49 87
REMARK SMILES IDX 50 88 51 89
REMARK H PARENT 9 6 14 23 73 42 41 53
REMARK Flexibility Score: inf
ROOT
ATOM      1  C   UNL A   1      34.749  20.880  25.009  1.00  0.00     0.023 C 
ENDROOT
BRANCH   1   2
ATOM      2  C   UNL A   1      33.508  21.698  24.675  1.00  0.00     0.116 C 
BRANCH   2   3
ATOM      3  N   UNL A   1      32.680  21.887  25.852  1.00  0.00    -0.356 N 
ATOM      4  C   UNL A   1      32.588  22.966  26.678  1.00  0.00     0.220 C 
ATOM      5  O   UNL A   1      31.838  22.901  27.653  1.00  0.00    -0.275 OA
ATOM      6  H   UNL A   1      32.100  21.126  26.086  1.00  0.00     0.163 HD
BRANCH   4   7
ATOM      7  C   UNL A   1      33.378  24.228  26.397  1.00  0.00     0.115 C 
BRANCH   7   8
ATOM      8  C   UNL A   1      32.631  25.436  25.780  1.00  0.00     0.111 C 
BRANCH   8   9
ATOM      9  C   UNL A   1      32.710  25.389  24.253  1.00  0.00     0.309 C 
ATOM     10  O   UNL A   1      33.760  25.205  23.647  1.00  0.00    -0.252 OA
BRANCH   9  11
ATOM     11  O   UNL A   1      31.506  25.552  23.652  1.00  0.00    -0.469 OA
ATOM     12  C   UNL A   1      30.820  24.378  23.200  1.00  0.00     0.282 C 
ENDBRANCH   9  11
ENDBRANCH   8   9
BRANCH   8  13
ATOM     13  C   UNL A   1      32.845  26.799  26.512  1.00  0.00     0.004 C 
ATOM     14  C   UNL A   1      33.829  27.791  25.856  1.00  0.00     0.004 C 
ATOM     15  C   UNL A   1      31.489  27.495  26.786  1.00  0.00     0.004 C 
ATOM     16  C   UNL A   1      33.970  29.082  26.662  1.00  0.00     0.000 C 
ATOM     17  C   UNL A   1      31.648  28.796  27.568  1.00  0.00     0.000 C 
ATOM     18  C   UNL A   1      32.620  29.748  26.883  1.00  0.00     0.000 C 
ENDBRANCH   8  13
ENDBRANCH   7   8
ENDBRANCH   4   7
ENDBRANCH   2   3
ENDBRANCH   1   2
BRANCH   1  19
ATOM     19  C   UNL A   1      35.851  21.626  25.746  1.00  0.00     0.023 C 
BRANCH  19  20
ATOM     20  C   UNL A   1      37.156  21.719  24.974  1.00  0.00     0.116 C 
BRANCH  20  21
ATOM     21  N   UNL A   1      38.122  20.684  25.332  1.00  0.00    -0.352 N 
ATOM     22  C   UNL A   1      39.308  20.807  26.022  1.00  0.00     0.251 C 
ATOM     23  H   UNL A   1      37.894  19.773  25.040  1.00  0.00     0.163 HD
ATOM     24  O   UNL A   1      40.045  19.839  26.157  1.00  0.00    -0.269 OA
BRANCH  22  25
ATOM     25  C   UNL A   1      39.696  22.130  26.554  1.00  0.00     0.039 A 
ATOM     26  C   UNL A   1      40.705  22.205  27.519  1.00  0.00     0.014 A 
ATOM     27  C   UNL A   1      39.115  23.295  26.050  1.00  0.00     0.014 A 
ATOM     28  C   UNL A   1      41.196  23.454  27.905  1.00  0.00     0.010 A 
ATOM     29  C   UNL A   1      39.675  24.526  26.356  1.00  0.00     0.010 A 
ATOM     30  C   UNL A   1      40.720  24.621  27.288  1.00  0.00    -0.014 A 
BRANCH  30  31
ATOM     31  C   UNL A   1      41.296  25.957  27.579  1.00  0.00     0.031 A 
ATOM     32  C   UNL A   1      42.713  26.264  27.174  1.00  0.00     0.074 A 
ATOM     33  C   UNL A   1      40.596  26.839  28.321  1.00  0.00     0.049 A 
ATOM     34  N   UNL A   1      43.445  27.309  27.459  1.00  0.00    -0.248 NA
ATOM     35  C   UNL A   1      43.418  25.238  26.385  1.00  0.00     0.031 C 
ATOM     36  C   UNL A   1      39.252  26.618  28.862  1.00  0.00     0.029 A 
ATOM     37  N   UNL A   1      40.932  28.089  28.777  1.00  0.00    -0.354 N 
ATOM     38  C   UNL A   1      44.705  27.040  26.941  1.00  0.00     0.074 A 
ATOM     39  C   UNL A   1      44.652  25.720  26.354  1.00  0.00     0.031 C 
ATOM     40  C   UNL A   1      38.876  27.699  29.564  1.00  0.00     0.029 A 
ATOM     41  C   UNL A   1      39.957  28.677  29.548  1.00  0.00     0.049 A 
ATOM     42  H   UNL A   1      41.791  28.524  28.572  1.00  0.00     0.167 HD
ATOM     43  C   UNL A   1      45.800  27.836  26.918  1.00  0.00     0.034 A 
ATOM     44  C   UNL A   1      39.937  29.873  30.170  1.00  0.00     0.034 A 
ATOM     45  C   UNL A   1      45.819  29.183  27.415  1.00  0.00     0.049 A 
ATOM     46  C   UNL A   1      41.128  30.781  30.034  1.00  0.00     0.074 A 
ATOM     47  C   UNL A   1      46.838  30.116  27.337  1.00  0.00     0.029 A 
ATOM     48  N   UNL A   1      44.762  29.796  28.069  1.00  0.00    -0.354 N 
ATOM     49  N   UNL A   1      42.256  30.572  29.400  1.00  0.00    -0.248 NA
ATOM     50  C   UNL A   1      41.031  32.105  30.667  1.00  0.00     0.031 C 
ATOM     51  C   UNL A   1      46.392  31.297  27.940  1.00  0.00     0.029 A 
ATOM     52  C   UNL A   1      45.098  31.098  28.392  1.00  0.00     0.049 A 
ATOM     53  H   UNL A   1      43.899  29.369  28.273  1.00  0.00     0.167 HD
ATOM     54  C   UNL A   1      42.990  31.745  29.529  1.00  0.00     0.074 A 
ATOM     55  C   UNL A   1      42.168  32.671  30.282  1.00  0.00     0.031 C 
ATOM     56  C   UNL A   1      44.239  32.025  29.083  1.00  0.00     0.034 A 
BRANCH  43  57
ATOM     57  C   UNL A   1      47.039  27.296  26.254  1.00  0.00     0.023 A 
ATOM     58  C   UNL A   1      47.231  27.510  24.875  1.00  0.00     0.012 A 
ATOM     59  C   UNL A   1      48.027  26.618  26.993  1.00  0.00     0.148 A 
ATOM     60  C   UNL A   1      48.368  27.024  24.230  1.00  0.00     0.002 A 
ATOM     61  C   UNL A   1      49.179  26.171  26.352  1.00  0.00     0.091 A 
ATOM     62  F   UNL A   1      47.817  26.399  28.299  1.00  0.00    -0.205 F 
ATOM     63  C   UNL A   1      49.345  26.364  24.970  1.00  0.00     0.022 A 
BRANCH  61  64
ATOM     64  S   UNL A   1      50.526  25.374  27.232  1.00  0.00     0.127 S 
ATOM     65  O   UNL A   1      50.936  26.426  28.161  1.00  0.00    -0.237 OA
ATOM     66  O   UNL A   1      49.857  24.234  27.859  1.00  0.00    -0.237 OA
ATOM     67  O   UNL A   1      51.506  25.014  26.216  1.00  0.00    -0.744 OA
ENDBRANCH  61  64
ENDBRANCH  43  57
BRANCH  44  68
ATOM     68  C   UNL A   1      38.708  30.317  30.888  1.00  0.00     0.023 A 
ATOM     69  C   UNL A   1      38.597  30.063  32.268  1.00  0.00     0.012 A 
ATOM     70  C   UNL A   1      37.677  31.018  30.233  1.00  0.00     0.148 A 
ATOM     71  C   UNL A   1      37.470  30.473  32.980  1.00  0.00     0.002 A 
ATOM     72  C   UNL A   1      36.578  31.467  30.959  1.00  0.00     0.091 A 
ATOM     73  F   UNL A   1      37.793  31.238  28.916  1.00  0.00    -0.205 F 
ATOM     74  C   UNL A   1      36.465  31.182  32.328  1.00  0.00     0.022 A 
BRANCH  72  75
ATOM     75  S   UNL A   1      35.306  32.500  30.222  1.00  0.00     0.127 S 
ATOM     76  O   UNL A   1      36.066  33.687  29.843  1.00  0.00    -0.237 OA
ATOM     77  O   UNL A   1      34.849  31.676  29.102  1.00  0.00    -0.237 OA
ATOM     78  O   UNL A   1      34.308  32.685  31.268  1.00  0.00    -0.744 OA
ENDBRANCH  72  75
ENDBRANCH  44  68
BRANCH  56  79
ATOM     79  C   UNL A   1      44.791  33.394  29.371  1.00  0.00     0.023 A 
ATOM     80  C   UNL A   1      45.500  33.618  30.568  1.00  0.00     0.012 A 
ATOM     81  C   UNL A   1      44.688  34.429  28.421  1.00  0.00     0.148 A 
ATOM     82  C   UNL A   1      46.078  34.859  30.824  1.00  0.00     0.002 A 
ATOM     83  C   UNL A   1      45.302  35.651  28.666  1.00  0.00     0.091 A 
ATOM     84  F   UNL A   1      43.989  34.201  27.298  1.00  0.00    -0.205 F 
ATOM     85  C   UNL A   1      45.991  35.870  29.870  1.00  0.00     0.022 A 
BRANCH  83  86
ATOM     86  S   UNL A   1      45.314  36.973  27.449  1.00  0.00     0.127 S 
ATOM     87  O   UNL A   1      45.962  38.053  28.190  1.00  0.00    -0.237 OA
ATOM     88  O   UNL A   1      46.124  36.402  26.372  1.00  0.00    -0.237 OA
ATOM     89  O   UNL A   1      43.919  37.197  27.095  1.00  0.00    -0.744 OA
ENDBRANCH  83  86
ENDBRANCH  56  79
ENDBRANCH  30  31
ENDBRANCH  22  25
ENDBRANCH  20  21
ENDBRANCH  19  20
ENDBRANCH   1  19
TORSDOF 18
ENDMDL
MODEL 2
REMARK VINA RESULT:     -10.8      5.250     10.247
REMARK SMILES COC(=O)[C@@H](CC(=O)NCCCCNC(=O)c1ccc(-c2c3nc(c(-c4cccc(S(=O)(=O)[O-])c4F)c4ccc([nH]4)c(-c4cccc(S(=O)(=O)[O-])c4F)c4nc(c(-c5cccc(S(=O)(=O)[O-])c5F)c5ccc2[nH]5)C=C4)C=C3)cc1)C1CCCCC1
REMARK SMILES IDX 11 1 10 2 9 3 7 4 8 5 6 7 5 8 3 9 4 10 2 11 1 12 80 13 81 14
REMARK SMILES IDX 85 15 82 16 84 17 83 18 12 19 13 20 14 21 15 22 16 24 17 25
REMARK SMILES IDX 18 26 79 27 19 28 78 29 20 30 21 31 22 32 72 33 23 34 77 35
REMARK SMILES IDX 71 36 73 37 24 38 76 39 70 40 69 41 25 43 57 44 37 45 56 46
REMARK SMILES IDX 38 47 41 48 55 49 74 50 39 51 40 52 54 54 75 55 42 56 26 57
REMARK SMILES IDX 27 58 35 59 28 60 30 61 36 62 29 63 31 64 32 65 33 66 34 67
REMARK SMILES IDX 58 68 59 69 67 70 60 71 62 72 68 73 61 74 63 75 64 76 65 77
REMARK SMILES IDX 66 78 43 79 44 80 52 81 45 82 47 83 53 84 46 85 48 86 49 87
REMARK SMILES IDX 50 88 51 89
REMARK H PARENT 9 6 14 23 73 42 41 53
REMARK Flexibility Score: inf
ROOT
ATOM      1  C   UNL A   1      33.770  28.514  24.640  1.00  0.00     0.023 C 
ENDROOT
BRANCH   1   2
ATOM      2  C   UNL A   1      33.338  27.053  24.642  1.00  0.00     0.116 C 
BRANCH   2   3
ATOM      3  N   UNL A   1      32.920  26.634  23.316  1.00  0.00    -0.356 N 
ATOM      4  C   UNL A   1      32.597  25.391  22.865  1.00  0.00     0.220 C 
ATOM      5  O   UNL A   1      32.300  25.251  21.678  1.00  0.00    -0.275 OA
ATOM      6  H   UNL A   1      32.859  27.354  22.647  1.00  0.00     0.163 HD
BRANCH   4   7
ATOM      7  C   UNL A   1      32.587  24.203  23.806  1.00  0.00     0.115 C 
BRANCH   7   8
ATOM      8  C   UNL A   1      33.373  22.934  23.392  1.00  0.00     0.111 C 
BRANCH   8   9
ATOM      9  C   UNL A   1      32.415  21.761  23.175  1.00  0.00     0.309 C 
ATOM     10  O   UNL A   1      32.095  21.362  22.060  1.00  0.00    -0.252 OA
BRANCH   9  11
ATOM     11  O   UNL A   1      31.978  21.208  24.332  1.00  0.00    -0.469 OA
ATOM     12  C   UNL A   1      32.494  19.921  24.694  1.00  0.00     0.282 C 
ENDBRANCH   9  11
ENDBRANCH   8   9
BRANCH   8  13
ATOM     13  C   UNL A   1      34.709  22.694  24.163  1.00  0.00     0.004 C 
ATOM     14  C   UNL A   1      36.015  22.872  23.359  1.00  0.00     0.004 C 
ATOM     15  C   UNL A   1      34.759  23.544  25.456  1.00  0.00     0.004 C 
ATOM     16  C   UNL A   1      37.257  22.600  24.207  1.00  0.00     0.000 C 
ATOM     17  C   UNL A   1      36.017  23.282  26.279  1.00  0.00     0.000 C 
ATOM     18  C   UNL A   1      37.281  23.476  25.452  1.00  0.00     0.000 C 
ENDBRANCH   8  13
ENDBRANCH   7   8
ENDBRANCH   4   7
ENDBRANCH   2   3
ENDBRANCH   1   2
BRANCH   1  19
ATOM     19  C   UNL A   1      32.654  29.531  24.821  1.00  0.00     0.023 C 
BRANCH  19  20
ATOM     20  C   UNL A   1      32.289  29.795  26.272  1.00  0.00     0.116 C 
BRANCH  20  21
ATOM     21  N   UNL A   1      32.150  31.214  26.590  1.00  0.00    -0.352 N 
ATOM     22  C   UNL A   1      33.016  32.037  27.276  1.00  0.00     0.251 C 
ATOM     23  H   UNL A   1      31.323  31.641  26.270  1.00  0.00     0.163 HD
ATOM     24  O   UNL A   1      32.697  33.191  27.532  1.00  0.00    -0.269 OA
BRANCH  22  25
ATOM     25  C   UNL A   1      34.311  31.494  27.736  1.00  0.00     0.039 A 
ATOM     26  C   UNL A   1      35.379  32.372  27.947  1.00  0.00     0.014 A 
ATOM     27  C   UNL A   1      34.448  30.136  28.025  1.00  0.00     0.014 A 
ATOM     28  C   UNL A   1      36.551  31.898  28.540  1.00  0.00     0.010 A 
ATOM     29  C   UNL A   1      35.570  29.691  28.707  1.00  0.00     0.010 A 
ATOM     30  C   UNL A   1      36.635  30.565  28.972  1.00  0.00    -0.014 A 
BRANCH  30  31
ATOM     31  C   UNL A   1      37.813  30.049  29.713  1.00  0.00     0.031 A 
ATOM     32  C   UNL A   1      38.078  30.524  31.118  1.00  0.00     0.074 A 
ATOM     33  C   UNL A   1      38.710  29.267  29.080  1.00  0.00     0.049 A 
ATOM     34  N   UNL A   1      39.118  30.308  31.878  1.00  0.00    -0.248 NA
ATOM     35  C   UNL A   1      37.060  31.396  31.729  1.00  0.00     0.031 C 
ATOM     36  C   UNL A   1      38.619  28.824  27.686  1.00  0.00     0.029 A 
ATOM     37  N   UNL A   1      39.895  28.730  29.519  1.00  0.00    -0.354 N 
ATOM     38  C   UNL A   1      38.910  31.063  33.026  1.00  0.00     0.074 A 
ATOM     39  C   UNL A   1      37.661  31.770  32.849  1.00  0.00     0.031 C 
ATOM     40  C   UNL A   1      39.694  28.075  27.390  1.00  0.00     0.029 A 
ATOM     41  C   UNL A   1      40.563  28.006  28.559  1.00  0.00     0.049 A 
ATOM     42  H   UNL A   1      40.235  28.853  30.435  1.00  0.00     0.167 HD
ATOM     43  C   UNL A   1      39.668  31.131  34.145  1.00  0.00     0.034 A 
ATOM     44  C   UNL A   1      41.743  27.357  28.617  1.00  0.00     0.034 A 
ATOM     45  C   UNL A   1      40.855  30.351  34.355  1.00  0.00     0.049 A 
ATOM     46  C   UNL A   1      42.510  27.362  29.911  1.00  0.00     0.074 A 
ATOM     47  C   UNL A   1      41.634  30.256  35.494  1.00  0.00     0.029 A 
ATOM     48  N   UNL A   1      41.428  29.518  33.406  1.00  0.00    -0.354 N 
ATOM     49  N   UNL A   1      42.214  27.953  31.043  1.00  0.00    -0.248 NA
ATOM     50  C   UNL A   1      43.755  26.579  29.950  1.00  0.00     0.031 C 
ATOM     51  C   UNL A   1      42.675  29.359  35.235  1.00  0.00     0.029 A 
ATOM     52  C   UNL A   1      42.544  28.897  33.936  1.00  0.00     0.049 A 
ATOM     53  H   UNL A   1      41.091  29.388  32.491  1.00  0.00     0.167 HD
ATOM     54  C   UNL A   1      43.214  27.590  31.936  1.00  0.00     0.074 A 
ATOM     55  C   UNL A   1      44.113  26.707  31.221  1.00  0.00     0.031 C 
ATOM     56  C   UNL A   1      43.387  27.969  33.226  1.00  0.00     0.034 A 
BRANCH  43  57
ATOM     57  C   UNL A   1      39.181  32.016  35.262  1.00  0.00     0.023 A 
ATOM     58  C   UNL A   1      39.360  33.410  35.164  1.00  0.00     0.012 A 
ATOM     59  C   UNL A   1      38.517  31.481  36.383  1.00  0.00     0.148 A 
ATOM     60  C   UNL A   1      38.921  34.258  36.180  1.00  0.00     0.002 A 
ATOM     61  C   UNL A   1      38.044  32.336  37.373  1.00  0.00     0.091 A 
ATOM     62  F   UNL A   1      38.379  30.151  36.473  1.00  0.00    -0.205 F 
ATOM     63  C   UNL A   1      38.255  33.722  37.278  1.00  0.00     0.022 A 
BRANCH  61  64
ATOM     64  S   UNL A   1      37.112  31.748  38.791  1.00  0.00     0.127 S 
ATOM     65  O   UNL A   1      38.032  32.032  39.890  1.00  0.00    -0.237 OA
ATOM     66  O   UNL A   1      35.922  32.600  38.756  1.00  0.00    -0.237 OA
ATOM     67  O   UNL A   1      36.851  30.337  38.536  1.00  0.00    -0.744 OA
ENDBRANCH  61  64
ENDBRANCH  43  57
BRANCH  44  68
ATOM     68  C   UNL A   1      42.216  26.567  27.445  1.00  0.00     0.023 A 
ATOM     69  C   UNL A   1      42.984  27.210  26.456  1.00  0.00     0.012 A 
ATOM     70  C   UNL A   1      41.950  25.190  27.321  1.00  0.00     0.148 A 
ATOM     71  C   UNL A   1      43.457  26.505  25.349  1.00  0.00     0.002 A 
ATOM     72  C   UNL A   1      42.465  24.482  26.240  1.00  0.00     0.091 A 
ATOM     73  F   UNL A   1      41.205  24.597  28.264  1.00  0.00    -0.205 F 
ATOM     74  C   UNL A   1      43.206  25.140  25.245  1.00  0.00     0.022 A 
BRANCH  72  75
ATOM     75  S   UNL A   1      42.300  22.698  26.101  1.00  0.00     0.127 S 
ATOM     76  O   UNL A   1      42.988  22.238  27.303  1.00  0.00    -0.237 OA
ATOM     77  O   UNL A   1      40.847  22.521  26.117  1.00  0.00    -0.237 OA
ATOM     78  O   UNL A   1      42.926  22.352  24.832  1.00  0.00    -0.744 OA
ENDBRANCH  72  75
ENDBRANCH  44  68
BRANCH  56  79
ATOM     79  C   UNL A   1      44.575  27.415  33.963  1.00  0.00     0.023 A 
ATOM     80  C   UNL A   1      45.770  28.160  34.012  1.00  0.00     0.012 A 
ATOM     81  C   UNL A   1      44.482  26.205  34.679  1.00  0.00     0.148 A 
ATOM     82  C   UNL A   1      46.861  27.698  34.744  1.00  0.00     0.002 A 
ATOM     83  C   UNL A   1      45.560  25.772  35.441  1.00  0.00     0.091 A 
ATOM     84  F   UNL A   1      43.343  25.500  34.601  1.00  0.00    -0.205 F 
ATOM     85  C   UNL A   1      46.753  26.513  35.468  1.00  0.00     0.022 A 
BRANCH  83  86
ATOM     86  S   UNL A   1      45.469  24.305  36.473  1.00  0.00     0.127 S 
ATOM     87  O   UNL A   1      45.248  23.255  35.481  1.00  0.00    -0.237 OA
ATOM     88  O   UNL A   1      46.790  24.280  37.102  1.00  0.00    -0.237 OA
ATOM     89  O   UNL A   1      44.370  24.541  37.399  1.00  0.00    -0.744 OA
ENDBRANCH  83  86
ENDBRANCH  56  79
ENDBRANCH  30  31
ENDBRANCH  22  25
ENDBRANCH  20  21
ENDBRANCH  19  20
ENDBRANCH   1  19
TORSDOF 18
ENDMDL
MODEL 3
REMARK VINA RESULT:     -10.8      4.835      7.564
REMARK SMILES COC(=O)[C@@H](CC(=O)NCCCCNC(=O)c1ccc(-c2c3nc(c(-c4cccc(S(=O)(=O)[O-])c4F)c4ccc([nH]4)c(-c4cccc(S(=O)(=O)[O-])c4F)c4nc(c(-c5cccc(S(=O)(=O)[O-])c5F)c5ccc2[nH]5)C=C4)C=C3)cc1)C1CCCCC1
REMARK SMILES IDX 11 1 10 2 9 3 7 4 8 5 6 7 5 8 3 9 4 10 2 11 1 12 80 13 81 14
REMARK SMILES IDX 85 15 82 16 84 17 83 18 12 19 13 20 14 21 15 22 16 24 17 25
REMARK SMILES IDX 18 26 79 27 19 28 78 29 20 30 21 31 22 32 72 33 23 34 77 35
REMARK SMILES IDX 71 36 73 37 24 38 76 39 70 40 69 41 25 43 57 44 37 45 56 46
REMARK SMILES IDX 38 47 41 48 55 49 74 50 39 51 40 52 54 54 75 55 42 56 26 57
REMARK SMILES IDX 27 58 35 59 28 60 30 61 36 62 29 63 31 64 32 65 33 66 34 67
REMARK SMILES IDX 58 68 59 69 67 70 60 71 62 72 68 73 61 74 63 75 64 76 65 77
REMARK SMILES IDX 66 78 43 79 44 80 52 81 45 82 47 83 53 84 46 85 48 86 49 87
REMARK SMILES IDX 50 88 51 89
REMARK H PARENT 9 6 14 23 73 42 41 53
REMARK Flexibility Score: inf
ROOT
ATOM      1  C   UNL A   1      30.920  27.837  24.731  1.00  0.00     0.023 C 
ENDROOT
BRANCH   1   2
ATOM      2  C   UNL A   1      30.155  26.519  24.693  1.00  0.00     0.116 C 
BRANCH   2   3
ATOM      3  N   UNL A   1      30.357  25.767  25.917  1.00  0.00    -0.356 N 
ATOM      4  C   UNL A   1      31.083  24.634  26.125  1.00  0.00     0.220 C 
ATOM      5  O   UNL A   1      31.091  24.135  27.251  1.00  0.00    -0.275 OA
ATOM      6  H   UNL A   1      29.904  26.129  26.713  1.00  0.00     0.163 HD
BRANCH   4   7
ATOM      7  C   UNL A   1      31.881  24.007  25.000  1.00  0.00     0.115 C 
BRANCH   7   8
ATOM      8  C   UNL A   1      33.340  24.480  24.784  1.00  0.00     0.111 C 
BRANCH   8   9
ATOM      9  C   UNL A   1      33.449  25.302  23.499  1.00  0.00     0.309 C 
ATOM     10  O   UNL A   1      34.032  26.380  23.447  1.00  0.00    -0.252 OA
BRANCH   9  11
ATOM     11  O   UNL A   1      32.854  24.711  22.435  1.00  0.00    -0.469 OA
ATOM     12  C   UNL A   1      32.498  25.540  21.322  1.00  0.00     0.282 C 
ENDBRANCH   9  11
ENDBRANCH   8   9
BRANCH   8  13
ATOM     13  C   UNL A   1      34.441  23.421  25.108  1.00  0.00     0.004 C 
ATOM     14  C   UNL A   1      34.467  22.157  24.223  1.00  0.00     0.004 C 
ATOM     15  C   UNL A   1      35.842  24.078  25.141  1.00  0.00     0.004 C 
ATOM     16  C   UNL A   1      35.574  21.186  24.636  1.00  0.00     0.000 C 
ATOM     17  C   UNL A   1      36.941  23.092  25.528  1.00  0.00     0.000 C 
ATOM     18  C   UNL A   1      36.937  21.864  24.627  1.00  0.00     0.000 C 
ENDBRANCH   8  13
ENDBRANCH   7   8
ENDBRANCH   4   7
ENDBRANCH   2   3
ENDBRANCH   1   2
BRANCH   1  19
ATOM     19  C   UNL A   1      32.001  27.940  25.796  1.00  0.00     0.023 C 
BRANCH  19  20
ATOM     20  C   UNL A   1      32.968  29.093  25.583  1.00  0.00     0.116 C 
BRANCH  20  21
ATOM     21  N   UNL A   1      32.475  30.370  26.093  1.00  0.00    -0.352 N 
ATOM     22  C   UNL A   1      33.071  31.234  26.984  1.00  0.00     0.251 C 
ATOM     23  H   UNL A   1      31.595  30.650  25.753  1.00  0.00     0.163 HD
ATOM     24  O   UNL A   1      32.471  32.228  27.374  1.00  0.00    -0.269 OA
BRANCH  22  25
ATOM     25  C   UNL A   1      34.423  30.923  27.495  1.00  0.00     0.039 A 
ATOM     26  C   UNL A   1      35.343  31.962  27.659  1.00  0.00     0.014 A 
ATOM     27  C   UNL A   1      34.754  29.621  27.875  1.00  0.00     0.014 A 
ATOM     28  C   UNL A   1      36.560  31.708  28.296  1.00  0.00     0.010 A 
ATOM     29  C   UNL A   1      35.914  29.394  28.599  1.00  0.00     0.010 A 
ATOM     30  C   UNL A   1      36.832  30.433  28.817  1.00  0.00    -0.014 A 
BRANCH  30  31
ATOM     31  C   UNL A   1      38.057  30.149  29.605  1.00  0.00     0.031 A 
ATOM     32  C   UNL A   1      39.086  29.191  29.066  1.00  0.00     0.074 A 
ATOM     33  C   UNL A   1      38.178  30.643  30.853  1.00  0.00     0.049 A 
ATOM     34  N   UNL A   1      40.145  28.702  29.654  1.00  0.00    -0.248 NA
ATOM     35  C   UNL A   1      38.867  28.676  27.702  1.00  0.00     0.031 C 
ATOM     36  C   UNL A   1      37.198  31.499  31.528  1.00  0.00     0.029 A 
ATOM     37  N   UNL A   1      39.164  30.470  31.792  1.00  0.00    -0.354 N 
ATOM     38  C   UNL A   1      40.682  27.782  28.762  1.00  0.00     0.074 A 
ATOM     39  C   UNL A   1      39.814  27.754  27.606  1.00  0.00     0.031 C 
ATOM     40  C   UNL A   1      37.638  31.785  32.764  1.00  0.00     0.029 A 
ATOM     41  C   UNL A   1      38.914  31.113  32.982  1.00  0.00     0.049 A 
ATOM     42  H   UNL A   1      39.974  29.934  31.629  1.00  0.00     0.167 HD
ATOM     43  C   UNL A   1      41.818  27.056  28.874  1.00  0.00     0.034 A 
ATOM     44  C   UNL A   1      39.635  31.157  34.120  1.00  0.00     0.034 A 
ATOM     45  C   UNL A   1      42.728  27.160  29.981  1.00  0.00     0.049 A 
ATOM     46  C   UNL A   1      40.949  30.426  34.175  1.00  0.00     0.074 A 
ATOM     47  C   UNL A   1      43.963  26.558  30.141  1.00  0.00     0.029 A 
ATOM     48  N   UNL A   1      42.508  27.932  31.110  1.00  0.00    -0.354 N 
ATOM     49  N   UNL A   1      41.520  29.687  33.255  1.00  0.00    -0.248 NA
ATOM     50  C   UNL A   1      41.736  30.564  35.409  1.00  0.00     0.031 C 
ATOM     51  C   UNL A   1      44.492  26.971  31.368  1.00  0.00     0.029 A 
ATOM     52  C   UNL A   1      43.586  27.831  31.970  1.00  0.00     0.049 A 
ATOM     53  H   UNL A   1      41.702  28.473  31.278  1.00  0.00     0.167 HD
ATOM     54  C   UNL A   1      42.744  29.298  33.784  1.00  0.00     0.074 A 
ATOM     55  C   UNL A   1      42.843  29.903  35.097  1.00  0.00     0.031 C 
ATOM     56  C   UNL A   1      43.693  28.496  33.242  1.00  0.00     0.034 A 
BRANCH  43  57
ATOM     57  C   UNL A   1      42.182  26.150  27.727  1.00  0.00     0.023 A 
ATOM     58  C   UNL A   1      42.930  26.668  26.651  1.00  0.00     0.012 A 
ATOM     59  C   UNL A   1      41.823  24.788  27.729  1.00  0.00     0.148 A 
ATOM     60  C   UNL A   1      43.283  25.856  25.574  1.00  0.00     0.002 A 
ATOM     61  C   UNL A   1      42.215  23.974  26.671  1.00  0.00     0.091 A 
ATOM     62  F   UNL A   1      41.089  24.318  28.747  1.00  0.00    -0.205 F 
ATOM     63  C   UNL A   1      42.935  24.508  25.589  1.00  0.00     0.022 A 
BRANCH  61  64
ATOM     64  S   UNL A   1      41.875  22.210  26.633  1.00  0.00     0.127 S 
ATOM     65  O   UNL A   1      42.558  21.751  27.841  1.00  0.00    -0.237 OA
ATOM     66  O   UNL A   1      40.414  22.174  26.707  1.00  0.00    -0.237 OA
ATOM     67  O   UNL A   1      42.427  21.727  25.374  1.00  0.00    -0.744 OA
ENDBRANCH  61  64
ENDBRANCH  43  57
BRANCH  44  68
ATOM     68  C   UNL A   1      39.178  32.005  35.257  1.00  0.00     0.023 A 
ATOM     69  C   UNL A   1      38.246  31.474  36.170  1.00  0.00     0.012 A 
ATOM     70  C   UNL A   1      39.682  33.303  35.467  1.00  0.00     0.148 A 
ATOM     71  C   UNL A   1      37.802  32.229  37.255  1.00  0.00     0.002 A 
ATOM     72  C   UNL A   1      39.271  34.032  36.578  1.00  0.00     0.091 A 
ATOM     73  F   UNL A   1      40.557  33.797  34.580  1.00  0.00    -0.205 F 
ATOM     74  C   UNL A   1      38.320  33.504  37.465  1.00  0.00     0.022 A 
BRANCH  72  75
ATOM     75  S   UNL A   1      39.989  35.626  36.992  1.00  0.00     0.127 S 
ATOM     76  O   UNL A   1      39.648  36.424  35.818  1.00  0.00    -0.237 OA
ATOM     77  O   UNL A   1      39.265  35.984  38.212  1.00  0.00    -0.237 OA
ATOM     78  O   UNL A   1      41.408  35.366  37.199  1.00  0.00    -0.744 OA
ENDBRANCH  72  75
ENDBRANCH  44  68
BRANCH  56  79
ATOM     79  C   UNL A   1      44.936  28.242  34.051  1.00  0.00     0.023 A 
ATOM     80  C   UNL A   1      46.017  29.141  33.962  1.00  0.00     0.012 A 
ATOM     81  C   UNL A   1      44.999  27.169  34.961  1.00  0.00     0.148 A 
ATOM     82  C   UNL A   1      47.150  28.963  34.751  1.00  0.00     0.002 A 
ATOM     83  C   UNL A   1      46.116  27.021  35.774  1.00  0.00     0.091 A 
ATOM     84  F   UNL A   1      43.969  26.311  35.013  1.00  0.00    -0.205 F 
ATOM     85  C   UNL A   1      47.195  27.913  35.665  1.00  0.00     0.022 A 
BRANCH  83  86
ATOM     86  S   UNL A   1      46.212  25.750  37.040  1.00  0.00     0.127 S 
ATOM     87  O   UNL A   1      46.280  24.533  36.235  1.00  0.00    -0.237 OA
ATOM     88  O   UNL A   1      47.454  26.092  37.735  1.00  0.00    -0.237 OA
ATOM     89  O   UNL A   1      45.011  25.906  37.849  1.00  0.00    -0.744 OA
ENDBRANCH  83  86
ENDBRANCH  56  79
ENDBRANCH  30  31
ENDBRANCH  22  25
ENDBRANCH  20  21
ENDBRANCH  19  20
ENDBRANCH   1  19
TORSDOF 18
ENDMDL
