MODEL 1
REMARK VINA RESULT:     -10.8      0.000      0.000
REMARK SMILES C[C@@H](NC1=[NH+]CCC1)C(=O)NCCCCNC(=O)c1ccc(-c2c3nc(c(-c4cccc(S(=O)(=O)[O-])c4F)c4ccc([nH]4)c(-c4cccc(S(=O)(=O)[O-])c4F)c4nc(c(-c5cccc(S(=O)(=O)[O-])c5F)c5ccc2[nH]5)C=C4)C=C3)cc1
REMARK SMILES IDX 14 1 13 2 12 3 11 4 9 5 10 6 2 8 1 9 3 10 4 11 5 13 8 14
REMARK SMILES IDX 6 15 7 17 15 18 16 19 17 20 18 22 19 23 20 24 81 25 21 26
REMARK SMILES IDX 80 27 22 28 23 29 24 30 74 31 25 32 79 33 73 34 75 35 26 36
REMARK SMILES IDX 78 37 72 38 71 39 27 41 59 42 39 43 58 44 40 45 43 46 57 47
REMARK SMILES IDX 76 48 41 49 42 50 56 52 77 53 44 54 28 55 29 56 37 57 30 58
REMARK SMILES IDX 32 59 38 60 31 61 33 62 34 63 35 64 36 65 60 66 61 67 69 68
REMARK SMILES IDX 62 69 64 70 70 71 63 72 65 73 66 74 67 75 68 76 45 77 46 78
REMARK SMILES IDX 54 79 47 80 49 81 55 82 48 83 50 84 51 85 52 86 53 87
REMARK H PARENT 11 7 3 12 5 16 16 21 75 40 43 51
REMARK Flexibility Score: inf
ROOT
ATOM      1  C   UNL A   1      34.591  34.377  29.348  1.00  0.00     0.023 C 
ENDROOT
BRANCH   1   2
ATOM      2  C   UNL A   1      33.937  35.448  28.474  1.00  0.00     0.023 C 
BRANCH   2   3
ATOM      3  C   UNL A   1      33.503  36.700  29.225  1.00  0.00     0.116 C 
BRANCH   3   4
ATOM      4  N   UNL A   1      32.492  36.404  30.224  1.00  0.00    -0.352 N 
ATOM      5  C   UNL A   1      32.576  36.416  31.586  1.00  0.00     0.264 C 
ATOM      6  O   UNL A   1      31.556  36.144  32.228  1.00  0.00    -0.270 OA
ATOM      7  H   UNL A   1      31.609  36.156  29.864  1.00  0.00     0.163 HD
BRANCH   5   8
ATOM      8  C   UNL A   1      33.895  36.722  32.321  1.00  0.00     0.258 C 
ATOM      9  C   UNL A   1      33.894  38.185  32.762  1.00  0.00     0.069 C 
BRANCH   8  10
ATOM     10  N   UNL A   1      34.160  35.854  33.464  1.00  0.00    -0.267 N 
ATOM     11  C   UNL A   1      35.074  34.846  33.542  1.00  0.00     0.243 C 
ATOM     12  H   UNL A   1      33.618  36.015  34.269  1.00  0.00     0.305 HD
ATOM     13  N   UNL A   1      34.824  33.819  34.301  1.00  0.00    -0.279 N 
ATOM     14  C   UNL A   1      36.383  34.807  32.804  1.00  0.00     0.131 C 
ATOM     15  C   UNL A   1      35.932  32.871  34.064  1.00  0.00     0.234 C 
ATOM     16  H   UNL A   1      34.056  33.698  34.907  1.00  0.00     0.304 HD
ATOM     17  C   UNL A   1      36.570  33.310  32.758  1.00  0.00     0.058 C 
ENDBRANCH   8  10
ENDBRANCH   5   8
ENDBRANCH   3   4
ENDBRANCH   2   3
ENDBRANCH   1   2
BRANCH   1  18
ATOM     18  C   UNL A   1      35.260  33.237  28.586  1.00  0.00     0.116 C 
BRANCH  18  19
ATOM     19  N   UNL A   1      34.304  32.293  28.023  1.00  0.00    -0.352 N 
ATOM     20  C   UNL A   1      34.477  30.959  27.741  1.00  0.00     0.251 C 
ATOM     21  H   UNL A   1      33.414  32.660  27.818  1.00  0.00     0.163 HD
ATOM     22  O   UNL A   1      33.614  30.338  27.125  1.00  0.00    -0.269 OA
BRANCH  20  23
ATOM     23  C   UNL A   1      35.722  30.284  28.162  1.00  0.00     0.039 A 
ATOM     24  C   UNL A   1      36.816  30.271  27.293  1.00  0.00     0.014 A 
ATOM     25  C   UNL A   1      35.815  29.692  29.426  1.00  0.00     0.014 A 
ATOM     26  C   UNL A   1      38.029  29.726  27.720  1.00  0.00     0.010 A 
ATOM     27  C   UNL A   1      37.043  29.215  29.873  1.00  0.00     0.010 A 
ATOM     28  C   UNL A   1      38.162  29.226  29.027  1.00  0.00    -0.014 A 
BRANCH  28  29
ATOM     29  C   UNL A   1      39.466  28.728  29.534  1.00  0.00     0.031 A 
ATOM     30  C   UNL A   1      40.173  29.453  30.647  1.00  0.00     0.074 A 
ATOM     31  C   UNL A   1      40.059  27.679  28.929  1.00  0.00     0.049 A 
ATOM     32  N   UNL A   1      41.343  29.207  31.177  1.00  0.00    -0.248 NA
ATOM     33  C   UNL A   1      39.492  30.626  31.220  1.00  0.00     0.031 C 
ATOM     34  C   UNL A   1      39.516  26.944  27.785  1.00  0.00     0.029 A 
ATOM     35  N   UNL A   1      41.264  27.068  29.172  1.00  0.00    -0.354 N 
ATOM     36  C   UNL A   1      41.554  30.210  32.115  1.00  0.00     0.074 A 
ATOM     37  C   UNL A   1      40.406  31.089  32.059  1.00  0.00     0.031 C 
ATOM     38  C   UNL A   1      40.381  25.982  27.427  1.00  0.00     0.029 A 
ATOM     39  C   UNL A   1      41.551  26.046  28.297  1.00  0.00     0.049 A 
ATOM     40  H   UNL A   1      41.866  27.336  29.904  1.00  0.00     0.167 HD
ATOM     41  C   UNL A   1      42.594  30.371  32.968  1.00  0.00     0.034 A 
ATOM     42  C   UNL A   1      42.638  25.253  28.202  1.00  0.00     0.034 A 
ATOM     43  C   UNL A   1      43.708  29.467  33.058  1.00  0.00     0.049 A 
ATOM     44  C   UNL A   1      43.754  25.421  29.197  1.00  0.00     0.074 A 
ATOM     45  C   UNL A   1      44.762  29.488  33.954  1.00  0.00     0.029 A 
ATOM     46  N   UNL A   1      43.918  28.383  32.220  1.00  0.00    -0.354 N 
ATOM     47  N   UNL A   1      43.855  26.273  30.188  1.00  0.00    -0.248 NA
ATOM     48  C   UNL A   1      44.890  24.493  29.085  1.00  0.00     0.031 C 
ATOM     49  C   UNL A   1      45.619  28.426  33.647  1.00  0.00     0.029 A 
ATOM     50  C   UNL A   1      45.087  27.731  32.572  1.00  0.00     0.049 A 
ATOM     51  H   UNL A   1      43.324  28.117  31.482  1.00  0.00     0.167 HD
ATOM     52  C   UNL A   1      45.043  25.961  30.839  1.00  0.00     0.074 A 
ATOM     53  C   UNL A   1      45.617  24.828  30.143  1.00  0.00     0.031 C 
ATOM     54  C   UNL A   1      45.616  26.569  31.907  1.00  0.00     0.034 A 
BRANCH  41  55
ATOM     55  C   UNL A   1      42.545  31.537  33.920  1.00  0.00     0.023 A 
ATOM     56  C   UNL A   1      43.173  32.749  33.564  1.00  0.00     0.012 A 
ATOM     57  C   UNL A   1      41.829  31.460  35.131  1.00  0.00     0.148 A 
ATOM     58  C   UNL A   1      43.118  33.854  34.412  1.00  0.00     0.002 A 
ATOM     59  C   UNL A   1      41.742  32.579  35.949  1.00  0.00     0.091 A 
ATOM     60  F   UNL A   1      41.257  30.293  35.461  1.00  0.00    -0.205 F 
ATOM     61  C   UNL A   1      42.393  33.773  35.598  1.00  0.00     0.022 A 
BRANCH  59  62
ATOM     62  S   UNL A   1      40.769  32.602  37.460  1.00  0.00     0.127 S 
ATOM     63  O   UNL A   1      40.521  34.033  37.629  1.00  0.00    -0.237 OA
ATOM     64  O   UNL A   1      39.591  31.820  37.081  1.00  0.00    -0.237 OA
ATOM     65  O   UNL A   1      41.603  31.986  38.483  1.00  0.00    -0.744 OA
ENDBRANCH  59  62
ENDBRANCH  41  55
BRANCH  42  66
ATOM     66  C   UNL A   1      42.688  24.178  27.171  1.00  0.00     0.023 A 
ATOM     67  C   UNL A   1      43.395  24.405  25.973  1.00  0.00     0.012 A 
ATOM     68  C   UNL A   1      42.067  22.931  27.376  1.00  0.00     0.148 A 
ATOM     69  C   UNL A   1      43.454  23.423  24.984  1.00  0.00     0.002 A 
ATOM     70  C   UNL A   1      42.177  21.937  26.410  1.00  0.00     0.091 A 
ATOM     71  F   UNL A   1      41.390  22.738  28.516  1.00  0.00    -0.205 F 
ATOM     72  C   UNL A   1      42.854  22.186  25.206  1.00  0.00     0.022 A 
BRANCH  70  73
ATOM     73  S   UNL A   1      41.549  20.274  26.667  1.00  0.00     0.127 S 
ATOM     74  O   UNL A   1      41.925  19.614  25.420  1.00  0.00    -0.237 OA
ATOM     75  O   UNL A   1      42.304  19.843  27.845  1.00  0.00    -0.237 OA
ATOM     76  O   UNL A   1      40.119  20.428  26.899  1.00  0.00    -0.744 OA
ENDBRANCH  70  73
ENDBRANCH  42  66
BRANCH  54  77
ATOM     77  C   UNL A   1      46.915  26.005  32.420  1.00  0.00     0.023 A 
ATOM     78  C   UNL A   1      48.138  26.516  31.940  1.00  0.00     0.012 A 
ATOM     79  C   UNL A   1      46.925  25.027  33.434  1.00  0.00     0.148 A 
ATOM     80  C   UNL A   1      49.350  26.041  32.440  1.00  0.00     0.002 A 
ATOM     81  C   UNL A   1      48.135  24.592  33.961  1.00  0.00     0.091 A 
ATOM     82  F   UNL A   1      45.752  24.540  33.863  1.00  0.00    -0.205 F 
ATOM     83  C   UNL A   1      49.348  25.089  33.457  1.00  0.00     0.022 A 
BRANCH  81  84
ATOM     84  S   UNL A   1      48.226  23.442  35.337  1.00  0.00     0.127 S 
ATOM     85  O   UNL A   1      47.626  22.240  34.762  1.00  0.00    -0.237 OA
ATOM     86  O   UNL A   1      49.667  23.352  35.573  1.00  0.00    -0.237 OA
ATOM     87  O   UNL A   1      47.476  24.058  36.424  1.00  0.00    -0.744 OA
ENDBRANCH  81  84
ENDBRANCH  54  77
ENDBRANCH  28  29
ENDBRANCH  20  23
ENDBRANCH  18  19
ENDBRANCH   1  18
TORSDOF 15
ENDMDL
MODEL 2
REMARK VINA RESULT:     -10.5      3.116      5.452
REMARK SMILES C[C@@H](NC1=[NH+]CCC1)C(=O)NCCCCNC(=O)c1ccc(-c2c3nc(c(-c4cccc(S(=O)(=O)[O-])c4F)c4ccc([nH]4)c(-c4cccc(S(=O)(=O)[O-])c4F)c4nc(c(-c5cccc(S(=O)(=O)[O-])c5F)c5ccc2[nH]5)C=C4)C=C3)cc1
REMARK SMILES IDX 14 1 13 2 12 3 11 4 9 5 10 6 2 8 1 9 3 10 4 11 5 13 8 14
REMARK SMILES IDX 6 15 7 17 15 18 16 19 17 20 18 22 19 23 20 24 81 25 21 26
REMARK SMILES IDX 80 27 22 28 23 29 24 30 74 31 25 32 79 33 73 34 75 35 26 36
REMARK SMILES IDX 78 37 72 38 71 39 27 41 59 42 39 43 58 44 40 45 43 46 57 47
REMARK SMILES IDX 76 48 41 49 42 50 56 52 77 53 44 54 28 55 29 56 37 57 30 58
REMARK SMILES IDX 32 59 38 60 31 61 33 62 34 63 35 64 36 65 60 66 61 67 69 68
REMARK SMILES IDX 62 69 64 70 70 71 63 72 65 73 66 74 67 75 68 76 45 77 46 78
REMARK SMILES IDX 54 79 47 80 49 81 55 82 48 83 50 84 51 85 52 86 53 87
REMARK H PARENT 11 7 3 12 5 16 16 21 75 40 43 51
REMARK Flexibility Score: inf
ROOT
ATOM      1  C   UNL A   1      32.262  28.107  27.496  1.00  0.00     0.023 C 
ENDROOT
BRANCH   1   2
ATOM      2  C   UNL A   1      31.757  26.904  26.701  1.00  0.00     0.023 C 
BRANCH   2   3
ATOM      3  C   UNL A   1      30.815  27.251  25.555  1.00  0.00     0.116 C 
BRANCH   3   4
ATOM      4  N   UNL A   1      31.271  26.687  24.296  1.00  0.00    -0.352 N 
ATOM      5  C   UNL A   1      31.905  27.287  23.247  1.00  0.00     0.264 C 
ATOM      6  O   UNL A   1      32.214  26.580  22.282  1.00  0.00    -0.270 OA
ATOM      7  H   UNL A   1      31.097  25.724  24.183  1.00  0.00     0.163 HD
BRANCH   5   8
ATOM      8  C   UNL A   1      32.202  28.798  23.227  1.00  0.00     0.258 C 
ATOM      9  C   UNL A   1      33.702  29.009  23.018  1.00  0.00     0.069 C 
BRANCH   8  10
ATOM     10  N   UNL A   1      31.446  29.546  22.227  1.00  0.00    -0.267 N 
ATOM     11  C   UNL A   1      30.172  30.014  22.335  1.00  0.00     0.243 C 
ATOM     12  H   UNL A   1      31.910  29.733  21.379  1.00  0.00     0.305 HD
ATOM     13  N   UNL A   1      29.434  30.103  21.266  1.00  0.00    -0.279 N 
ATOM     14  C   UNL A   1      29.515  30.446  23.616  1.00  0.00     0.131 C 
ATOM     15  C   UNL A   1      28.096  30.515  21.740  1.00  0.00     0.234 C 
ATOM     16  H   UNL A   1      29.710  29.932  20.336  1.00  0.00     0.304 HD
ATOM     17  C   UNL A   1      28.078  30.203  23.226  1.00  0.00     0.058 C 
ENDBRANCH   8  10
ENDBRANCH   5   8
ENDBRANCH   3   4
ENDBRANCH   2   3
ENDBRANCH   1   2
BRANCH   1  18
ATOM     18  C   UNL A   1      33.491  28.801  26.914  1.00  0.00     0.116 C 
BRANCH  18  19
ATOM     19  N   UNL A   1      33.532  30.226  27.214  1.00  0.00    -0.352 N 
ATOM     20  C   UNL A   1      34.497  30.935  27.889  1.00  0.00     0.251 C 
ATOM     21  H   UNL A   1      32.766  30.752  26.889  1.00  0.00     0.163 HD
ATOM     22  O   UNL A   1      34.306  32.110  28.191  1.00  0.00    -0.269 OA
BRANCH  20  23
ATOM     23  C   UNL A   1      35.755  30.262  28.274  1.00  0.00     0.039 A 
ATOM     24  C   UNL A   1      36.846  30.309  27.402  1.00  0.00     0.014 A 
ATOM     25  C   UNL A   1      35.864  29.613  29.508  1.00  0.00     0.014 A 
ATOM     26  C   UNL A   1      38.070  29.766  27.799  1.00  0.00     0.010 A 
ATOM     27  C   UNL A   1      37.101  29.136  29.929  1.00  0.00     0.010 A 
ATOM     28  C   UNL A   1      38.217  29.207  29.080  1.00  0.00    -0.014 A 
BRANCH  28  29
ATOM     29  C   UNL A   1      39.531  28.708  29.560  1.00  0.00     0.031 A 
ATOM     30  C   UNL A   1      40.266  29.437  30.652  1.00  0.00     0.074 A 
ATOM     31  C   UNL A   1      40.107  27.655  28.946  1.00  0.00     0.049 A 
ATOM     32  N   UNL A   1      41.446  29.190  31.156  1.00  0.00    -0.248 NA
ATOM     33  C   UNL A   1      39.600  30.614  31.234  1.00  0.00     0.031 C 
ATOM     34  C   UNL A   1      39.535  26.916  27.818  1.00  0.00     0.029 A 
ATOM     35  N   UNL A   1      41.316  27.042  29.164  1.00  0.00    -0.354 N 
ATOM     36  C   UNL A   1      41.682  30.198  32.084  1.00  0.00     0.074 A 
ATOM     37  C   UNL A   1      40.536  31.079  32.050  1.00  0.00     0.031 C 
ATOM     38  C   UNL A   1      40.389  25.949  27.446  1.00  0.00     0.029 A 
ATOM     39  C   UNL A   1      41.580  26.014  28.288  1.00  0.00     0.049 A 
ATOM     40  H   UNL A   1      41.935  27.312  29.880  1.00  0.00     0.167 HD
ATOM     41  C   UNL A   1      42.742  30.360  32.911  1.00  0.00     0.034 A 
ATOM     42  C   UNL A   1      42.662  25.218  28.172  1.00  0.00     0.034 A 
ATOM     43  C   UNL A   1      43.856  29.454  32.979  1.00  0.00     0.049 A 
ATOM     44  C   UNL A   1      43.802  25.388  29.139  1.00  0.00     0.074 A 
ATOM     45  C   UNL A   1      44.930  29.477  33.851  1.00  0.00     0.029 A 
ATOM     46  N   UNL A   1      44.043  28.365  32.142  1.00  0.00    -0.354 N 
ATOM     47  N   UNL A   1      43.928  26.245  30.124  1.00  0.00    -0.248 NA
ATOM     48  C   UNL A   1      44.932  24.457  29.006  1.00  0.00     0.031 C 
ATOM     49  C   UNL A   1      45.777  28.411  33.530  1.00  0.00     0.029 A 
ATOM     50  C   UNL A   1      45.218  27.712  32.471  1.00  0.00     0.049 A 
ATOM     51  H   UNL A   1      43.431  28.097  31.420  1.00  0.00     0.167 HD
ATOM     52  C   UNL A   1      45.130  25.933  30.748  1.00  0.00     0.074 A 
ATOM     53  C   UNL A   1      45.685  24.796  30.044  1.00  0.00     0.031 C 
ATOM     54  C   UNL A   1      45.729  26.545  31.800  1.00  0.00     0.034 A 
BRANCH  41  55
ATOM     55  C   UNL A   1      42.718  31.531  33.857  1.00  0.00     0.023 A 
ATOM     56  C   UNL A   1      43.191  32.786  33.420  1.00  0.00     0.012 A 
ATOM     57  C   UNL A   1      42.172  31.412  35.151  1.00  0.00     0.148 A 
ATOM     58  C   UNL A   1      43.153  33.894  34.265  1.00  0.00     0.002 A 
ATOM     59  C   UNL A   1      42.098  32.531  35.971  1.00  0.00     0.091 A 
ATOM     60  F   UNL A   1      41.748  30.206  35.556  1.00  0.00    -0.205 F 
ATOM     61  C   UNL A   1      42.596  33.770  35.535  1.00  0.00     0.022 A 
BRANCH  59  62
ATOM     62  S   UNL A   1      41.328  32.494  37.594  1.00  0.00     0.127 S 
ATOM     63  O   UNL A   1      41.411  33.898  37.992  1.00  0.00    -0.237 OA
ATOM     64  O   UNL A   1      39.976  32.027  37.285  1.00  0.00    -0.237 OA
ATOM     65  O   UNL A   1      42.122  31.570  38.393  1.00  0.00    -0.744 OA
ENDBRANCH  59  62
ENDBRANCH  41  55
BRANCH  42  66
ATOM     66  C   UNL A   1      42.685  24.138  27.145  1.00  0.00     0.023 A 
ATOM     67  C   UNL A   1      43.331  24.371  25.914  1.00  0.00     0.012 A 
ATOM     68  C   UNL A   1      42.100  22.880  27.385  1.00  0.00     0.148 A 
ATOM     69  C   UNL A   1      43.364  23.384  24.929  1.00  0.00     0.002 A 
ATOM     70  C   UNL A   1      42.184  21.883  26.421  1.00  0.00     0.091 A 
ATOM     71  F   UNL A   1      41.479  22.681  28.557  1.00  0.00    -0.205 F 
ATOM     72  C   UNL A   1      42.799  22.138  25.186  1.00  0.00     0.022 A 
BRANCH  70  73
ATOM     73  S   UNL A   1      41.601  20.209  26.716  1.00  0.00     0.127 S 
ATOM     74  O   UNL A   1      40.175  20.424  26.948  1.00  0.00    -0.237 OA
ATOM     75  O   UNL A   1      41.928  19.546  25.453  1.00  0.00    -0.237 OA
ATOM     76  O   UNL A   1      42.365  19.726  27.859  1.00  0.00    -0.744 OA
ENDBRANCH  70  73
ENDBRANCH  42  66
BRANCH  54  77
ATOM     77  C   UNL A   1      47.039  25.981  32.285  1.00  0.00     0.023 A 
ATOM     78  C   UNL A   1      47.057  25.099  33.384  1.00  0.00     0.012 A 
ATOM     79  C   UNL A   1      48.239  26.260  31.603  1.00  0.00     0.148 A 
ATOM     80  C   UNL A   1      48.253  24.527  33.814  1.00  0.00     0.002 A 
ATOM     81  C   UNL A   1      49.420  25.651  32.007  1.00  0.00     0.091 A 
ATOM     82  F   UNL A   1      48.205  27.117  30.572  1.00  0.00    -0.205 F 
ATOM     83  C   UNL A   1      49.431  24.794  33.120  1.00  0.00     0.022 A 
BRANCH  81  84
ATOM     84  S   UNL A   1      50.965  25.859  31.115  1.00  0.00     0.127 S 
ATOM     85  O   UNL A   1      51.238  27.280  31.319  1.00  0.00    -0.237 OA
ATOM     86  O   UNL A   1      51.864  24.956  31.833  1.00  0.00    -0.237 OA
ATOM     87  O   UNL A   1      50.689  25.465  29.740  1.00  0.00    -0.744 OA
ENDBRANCH  81  84
ENDBRANCH  54  77
ENDBRANCH  28  29
ENDBRANCH  20  23
ENDBRANCH  18  19
ENDBRANCH   1  18
TORSDOF 15
ENDMDL
MODEL 3
REMARK VINA RESULT:     -10.5      3.107      5.484
REMARK SMILES C[C@@H](NC1=[NH+]CCC1)C(=O)NCCCCNC(=O)c1ccc(-c2c3nc(c(-c4cccc(S(=O)(=O)[O-])c4F)c4ccc([nH]4)c(-c4cccc(S(=O)(=O)[O-])c4F)c4nc(c(-c5cccc(S(=O)(=O)[O-])c5F)c5ccc2[nH]5)C=C4)C=C3)cc1
REMARK SMILES IDX 14 1 13 2 12 3 11 4 9 5 10 6 2 8 1 9 3 10 4 11 5 13 8 14
REMARK SMILES IDX 6 15 7 17 15 18 16 19 17 20 18 22 19 23 20 24 81 25 21 26
REMARK SMILES IDX 80 27 22 28 23 29 24 30 74 31 25 32 79 33 73 34 75 35 26 36
REMARK SMILES IDX 78 37 72 38 71 39 27 41 59 42 39 43 58 44 40 45 43 46 57 47
REMARK SMILES IDX 76 48 41 49 42 50 56 52 77 53 44 54 28 55 29 56 37 57 30 58
REMARK SMILES IDX 32 59 38 60 31 61 33 62 34 63 35 64 36 65 60 66 61 67 69 68
REMARK SMILES IDX 62 69 64 70 70 71 63 72 65 73 66 74 67 75 68 76 45 77 46 78
REMARK SMILES IDX 54 79 47 80 49 81 55 82 48 83 50 84 51 85 52 86 53 87
REMARK H PARENT 11 7 3 12 5 16 16 21 75 40 43 51
REMARK Flexibility Score: inf
ROOT
ATOM      1  C   UNL A   1      32.479  28.289  27.264  1.00  0.00     0.023 C 
ENDROOT
BRANCH   1   2
ATOM      2  C   UNL A   1      31.665  27.333  26.392  1.00  0.00     0.023 C 
BRANCH   2   3
ATOM      3  C   UNL A   1      32.427  26.751  25.208  1.00  0.00     0.116 C 
BRANCH   3   4
ATOM      4  N   UNL A   1      31.572  26.597  24.044  1.00  0.00    -0.352 N 
ATOM      5  C   UNL A   1      31.361  27.443  22.994  1.00  0.00     0.264 C 
ATOM      6  O   UNL A   1      30.592  27.071  22.102  1.00  0.00    -0.270 OA
ATOM      7  H   UNL A   1      31.067  25.752  24.007  1.00  0.00     0.163 HD
BRANCH   5   8
ATOM      8  C   UNL A   1      32.021  28.833  22.919  1.00  0.00     0.258 C 
ATOM      9  C   UNL A   1      33.471  28.673  22.462  1.00  0.00     0.069 C 
BRANCH   8  10
ATOM     10  N   UNL A   1      31.324  29.782  22.056  1.00  0.00    -0.267 N 
ATOM     11  C   UNL A   1      30.030  30.193  22.156  1.00  0.00     0.243 C 
ATOM     12  H   UNL A   1      31.850  30.168  21.319  1.00  0.00     0.305 HD
ATOM     13  N   UNL A   1      29.380  30.518  21.076  1.00  0.00    -0.279 N 
ATOM     14  C   UNL A   1      29.254  30.304  23.439  1.00  0.00     0.131 C 
ATOM     15  C   UNL A   1      27.994  30.788  21.512  1.00  0.00     0.234 C 
ATOM     16  H   UNL A   1      29.738  30.573  20.159  1.00  0.00     0.304 HD
ATOM     17  C   UNL A   1      27.864  30.137  22.877  1.00  0.00     0.058 C 
ENDBRANCH   8  10
ENDBRANCH   5   8
ENDBRANCH   3   4
ENDBRANCH   2   3
ENDBRANCH   1   2
BRANCH   1  18
ATOM     18  C   UNL A   1      33.571  29.065  26.533  1.00  0.00     0.116 C 
BRANCH  18  19
ATOM     19  N   UNL A   1      33.625  30.468  26.920  1.00  0.00    -0.352 N 
ATOM     20  C   UNL A   1      34.543  31.105  27.722  1.00  0.00     0.251 C 
ATOM     21  H   UNL A   1      32.908  31.038  26.559  1.00  0.00     0.163 HD
ATOM     22  O   UNL A   1      34.358  32.267  28.074  1.00  0.00    -0.269 OA
BRANCH  20  23
ATOM     23  C   UNL A   1      35.740  30.369  28.179  1.00  0.00     0.039 A 
ATOM     24  C   UNL A   1      36.879  30.355  27.370  1.00  0.00     0.014 A 
ATOM     25  C   UNL A   1      35.744  29.722  29.418  1.00  0.00     0.014 A 
ATOM     26  C   UNL A   1      38.048  29.750  27.838  1.00  0.00     0.010 A 
ATOM     27  C   UNL A   1      36.929  29.184  29.910  1.00  0.00     0.010 A 
ATOM     28  C   UNL A   1      38.093  29.191  29.127  1.00  0.00    -0.014 A 
BRANCH  28  29
ATOM     29  C   UNL A   1      39.349  28.627  29.681  1.00  0.00     0.031 A 
ATOM     30  C   UNL A   1      39.993  29.252  30.890  1.00  0.00     0.074 A 
ATOM     31  C   UNL A   1      39.962  27.611  29.041  1.00  0.00     0.049 A 
ATOM     32  N   UNL A   1      41.119  28.941  31.476  1.00  0.00    -0.248 NA
ATOM     33  C   UNL A   1      39.295  30.396  31.501  1.00  0.00     0.031 C 
ATOM     34  C   UNL A   1      39.485  26.975  27.811  1.00  0.00     0.029 A 
ATOM     35  N   UNL A   1      41.137  26.956  29.317  1.00  0.00    -0.354 N 
ATOM     36  C   UNL A   1      41.285  29.867  32.498  1.00  0.00     0.074 A 
ATOM     37  C   UNL A   1      40.160  30.775  32.431  1.00  0.00     0.031 C 
ATOM     38  C   UNL A   1      40.354  26.021  27.441  1.00  0.00     0.029 A 
ATOM     39  C   UNL A   1      41.463  25.993  28.389  1.00  0.00     0.049 A 
ATOM     40  H   UNL A   1      41.692  27.155  30.105  1.00  0.00     0.167 HD
ATOM     41  C   UNL A   1      42.267  29.941  33.427  1.00  0.00     0.034 A 
ATOM     42  C   UNL A   1      42.539  25.184  28.309  1.00  0.00     0.034 A 
ATOM     43  C   UNL A   1      43.355  29.007  33.524  1.00  0.00     0.049 A 
ATOM     44  C   UNL A   1      43.588  25.253  29.385  1.00  0.00     0.074 A 
ATOM     45  C   UNL A   1      44.346  28.938  34.488  1.00  0.00     0.029 A 
ATOM     46  N   UNL A   1      43.601  27.982  32.623  1.00  0.00    -0.354 N 
ATOM     47  N   UNL A   1      43.637  26.028  30.441  1.00  0.00    -0.248 NA
ATOM     48  C   UNL A   1      44.711  24.309  29.280  1.00  0.00     0.031 C 
ATOM     49  C   UNL A   1      45.201  27.881  34.160  1.00  0.00     0.029 A 
ATOM     50  C   UNL A   1      44.731  27.279  33.004  1.00  0.00     0.049 A 
ATOM     51  H   UNL A   1      43.053  27.785  31.830  1.00  0.00     0.167 HD
ATOM     52  C   UNL A   1      44.772  25.641  31.145  1.00  0.00     0.074 A 
ATOM     53  C   UNL A   1      45.371  24.549  30.406  1.00  0.00     0.031 C 
ATOM     54  C   UNL A   1      45.282  26.156  32.291  1.00  0.00     0.034 A 
BRANCH  41  55
ATOM     55  C   UNL A   1      42.175  31.036  34.458  1.00  0.00     0.023 A 
ATOM     56  C   UNL A   1      41.384  30.840  35.609  1.00  0.00     0.012 A 
ATOM     57  C   UNL A   1      42.917  32.227  34.324  1.00  0.00     0.148 A 
ATOM     58  C   UNL A   1      41.306  31.824  36.593  1.00  0.00     0.002 A 
ATOM     59  C   UNL A   1      42.868  33.183  35.330  1.00  0.00     0.091 A 
ATOM     60  F   UNL A   1      43.646  32.404  33.213  1.00  0.00    -0.205 F 
ATOM     61  C   UNL A   1      42.056  32.990  36.460  1.00  0.00     0.022 A 
BRANCH  59  62
ATOM     62  S   UNL A   1      43.856  34.684  35.291  1.00  0.00     0.127 S 
ATOM     63  O   UNL A   1      45.214  34.142  35.299  1.00  0.00    -0.237 OA
ATOM     64  O   UNL A   1      43.448  35.289  34.023  1.00  0.00    -0.237 OA
ATOM     65  O   UNL A   1      43.478  35.444  36.475  1.00  0.00    -0.744 OA
ENDBRANCH  59  62
ENDBRANCH  41  55
BRANCH  42  66
ATOM     66  C   UNL A   1      42.639  24.186  27.206  1.00  0.00     0.023 A 
ATOM     67  C   UNL A   1      43.376  24.510  26.049  1.00  0.00     0.012 A 
ATOM     68  C   UNL A   1      42.036  22.918  27.303  1.00  0.00     0.148 A 
ATOM     69  C   UNL A   1      43.483  23.601  24.996  1.00  0.00     0.002 A 
ATOM     70  C   UNL A   1      42.191  21.997  26.273  1.00  0.00     0.091 A 
ATOM     71  F   UNL A   1      41.328  22.633  28.405  1.00  0.00    -0.205 F 
ATOM     72  C   UNL A   1      42.899  22.343  25.112  1.00  0.00     0.022 A 
BRANCH  70  73
ATOM     73  S   UNL A   1      41.587  20.310  26.393  1.00  0.00     0.127 S 
ATOM     74  O   UNL A   1      42.050  19.919  27.722  1.00  0.00    -0.237 OA
ATOM     75  O   UNL A   1      40.140  20.496  26.275  1.00  0.00    -0.237 OA
ATOM     76  O   UNL A   1      42.190  19.599  25.274  1.00  0.00    -0.744 OA
ENDBRANCH  70  73
ENDBRANCH  42  66
BRANCH  54  77
ATOM     77  C   UNL A   1      46.533  25.526  32.845  1.00  0.00     0.023 A 
ATOM     78  C   UNL A   1      47.793  26.069  32.523  1.00  0.00     0.012 A 
ATOM     79  C   UNL A   1      46.456  24.447  33.748  1.00  0.00     0.148 A 
ATOM     80  C   UNL A   1      48.957  25.530  33.067  1.00  0.00     0.002 A 
ATOM     81  C   UNL A   1      47.616  23.945  34.323  1.00  0.00     0.091 A 
ATOM     82  F   UNL A   1      45.250  23.932  34.027  1.00  0.00    -0.205 F 
ATOM     83  C   UNL A   1      48.868  24.477  33.975  1.00  0.00     0.022 A 
BRANCH  81  84
ATOM     84  S   UNL A   1      47.590  22.656  35.574  1.00  0.00     0.127 S 
ATOM     85  O   UNL A   1      49.011  22.505  35.877  1.00  0.00    -0.237 OA
ATOM     86  O   UNL A   1      46.801  23.273  36.641  1.00  0.00    -0.237 OA
ATOM     87  O   UNL A   1      46.956  21.504  34.947  1.00  0.00    -0.744 OA
ENDBRANCH  81  84
ENDBRANCH  54  77
ENDBRANCH  28  29
ENDBRANCH  20  23
ENDBRANCH  18  19
ENDBRANCH   1  18
TORSDOF 15
ENDMDL
