MODEL 1
REMARK VINA RESULT:     -12.5      0.000      0.000
REMARK SMILES COc1ccc(-c2nc3ccc(C)cc3[nH]2)c(C(=O)NCCCCNC(=O)c2ccc(-c3c4nc(c(-c5cccc(S(=O)(=O)[O-])c5F)c5ccc([nH]5)c(-c5cccc(S(=O)(=O)[O-])c5F)c5nc(c(-c6cccc(S(=O)(=O)[O-])c6F)c6ccc3[nH]6)C=C5)C=C4)cc2)c1OC
REMARK SMILES IDX 23 1 22 2 21 3 20 4 18 5 19 6 17 8 3 9 4 10 91 11 5 12 6 13
REMARK SMILES IDX 2 14 1 15 92 16 93 17 7 18 8 19 16 20 9 21 15 22 10 24 14 25
REMARK SMILES IDX 11 26 12 27 13 28 24 29 25 30 26 31 27 33 28 34 29 35 90 36
REMARK SMILES IDX 30 37 89 38 31 39 32 40 33 41 83 42 34 43 88 44 82 45 84 46
REMARK SMILES IDX 35 47 87 48 81 49 80 50 36 52 68 53 48 54 67 55 49 56 52 57
REMARK SMILES IDX 66 58 85 59 50 60 51 61 65 63 86 64 53 65 37 66 38 67 46 68
REMARK SMILES IDX 39 69 41 70 47 71 40 72 42 73 43 74 44 75 45 76 69 77 70 78
REMARK SMILES IDX 78 79 71 80 73 81 79 82 72 83 74 84 75 85 76 86 77 87 54 88
REMARK SMILES IDX 55 89 63 90 56 91 58 92 64 93 57 94 59 95 60 96 61 97 62 98
REMARK H PARENT 20 7 16 23 25 32 84 51 52 62
REMARK Flexibility Score: inf
ROOT
ATOM      1  C   UNL A   1      36.159  21.592  24.249  1.00  0.00     0.023 C 
ENDROOT
BRANCH   1   2
ATOM      2  C   UNL A   1      36.294  22.978  23.626  1.00  0.00     0.023 C 
BRANCH   2   3
ATOM      3  C   UNL A   1      35.311  24.044  24.080  1.00  0.00     0.116 C 
BRANCH   3   4
ATOM      4  N   UNL A   1      34.891  24.065  25.461  1.00  0.00    -0.352 N 
ATOM      5  C   UNL A   1      33.582  23.958  25.905  1.00  0.00     0.255 C 
ATOM      6  O   UNL A   1      33.332  23.511  27.022  1.00  0.00    -0.269 OA
ATOM      7  H   UNL A   1      35.593  24.165  26.143  1.00  0.00     0.163 HD
BRANCH   5   8
ATOM      8  C   UNL A   1      32.468  24.485  25.066  1.00  0.00     0.096 A 
ATOM      9  C   UNL A   1      31.006  26.278  24.308  1.00  0.00     0.161 A 
ATOM     10  C   UNL A   1      30.257  25.306  23.617  1.00  0.00     0.051 A 
ATOM     11  C   UNL A   1      32.159  25.879  25.007  1.00  0.00     0.174 A 
ATOM     12  C   UNL A   1      30.636  23.967  23.575  1.00  0.00     0.017 A 
ATOM     13  C   UNL A   1      31.740  23.533  24.307  1.00  0.00     0.034 A 
BRANCH   9  14
ATOM     14  O   UNL A   1      30.401  27.491  24.158  1.00  0.00    -0.493 OA
ATOM     15  C   UNL A   1      29.469  27.751  23.134  1.00  0.00     0.278 C 
ENDBRANCH   9  14
BRANCH  11  16
ATOM     16  O   UNL A   1      33.135  26.732  25.461  1.00  0.00    -0.492 OA
ATOM     17  C   UNL A   1      32.886  27.483  26.643  1.00  0.00     0.278 C 
ENDBRANCH  11  16
BRANCH  13  18
ATOM     18  C   UNL A   1      32.113  22.117  24.228  1.00  0.00     0.139 A 
ATOM     19  N   UNL A   1      32.216  21.385  23.138  1.00  0.00    -0.228 NA
ATOM     20  N   UNL A   1      32.377  21.347  25.343  1.00  0.00    -0.338 N 
ATOM     21  C   UNL A   1      32.420  20.094  23.569  1.00  0.00     0.089 A 
ATOM     22  C   UNL A   1      32.547  20.044  24.951  1.00  0.00     0.066 A 
ATOM     23  H   UNL A   1      32.433  21.680  26.269  1.00  0.00     0.168 HD
ATOM     24  C   UNL A   1      32.487  18.903  22.836  1.00  0.00     0.031 A 
ATOM     25  C   UNL A   1      32.756  18.856  25.665  1.00  0.00     0.031 A 
ATOM     26  C   UNL A   1      32.666  17.694  23.525  1.00  0.00     0.006 A 
ATOM     27  C   UNL A   1      32.802  17.663  24.921  1.00  0.00    -0.049 A 
ATOM     28  C   UNL A   1      32.956  16.336  25.611  1.00  0.00     0.044 C 
ENDBRANCH  13  18
ENDBRANCH   5   8
ENDBRANCH   3   4
ENDBRANCH   2   3
ENDBRANCH   1   2
BRANCH   1  29
ATOM     29  C   UNL A   1      36.791  21.364  25.621  1.00  0.00     0.116 C 
BRANCH  29  30
ATOM     30  N   UNL A   1      37.971  20.510  25.619  1.00  0.00    -0.352 N 
ATOM     31  C   UNL A   1      39.263  20.771  26.032  1.00  0.00     0.251 C 
ATOM     32  H   UNL A   1      37.825  19.602  25.267  1.00  0.00     0.163 HD
ATOM     33  O   UNL A   1      40.122  19.906  25.920  1.00  0.00    -0.269 OA
BRANCH  31  34
ATOM     34  C   UNL A   1      39.626  22.111  26.557  1.00  0.00     0.039 A 
ATOM     35  C   UNL A   1      40.610  22.201  27.546  1.00  0.00     0.014 A 
ATOM     36  C   UNL A   1      39.038  23.272  26.054  1.00  0.00     0.014 A 
ATOM     37  C   UNL A   1      41.085  23.456  27.942  1.00  0.00     0.010 A 
ATOM     38  C   UNL A   1      39.577  24.515  26.380  1.00  0.00     0.010 A 
ATOM     39  C   UNL A   1      40.615  24.623  27.317  1.00  0.00    -0.014 A 
BRANCH  39  40
ATOM     40  C   UNL A   1      41.220  25.955  27.591  1.00  0.00     0.031 A 
ATOM     41  C   UNL A   1      42.645  26.244  27.200  1.00  0.00     0.074 A 
ATOM     42  C   UNL A   1      40.528  26.868  28.305  1.00  0.00     0.049 A 
ATOM     43  N   UNL A   1      43.368  27.307  27.441  1.00  0.00    -0.248 NA
ATOM     44  C   UNL A   1      43.363  25.184  26.474  1.00  0.00     0.031 C 
ATOM     45  C   UNL A   1      39.176  26.678  28.838  1.00  0.00     0.029 A 
ATOM     46  N   UNL A   1      40.879  28.124  28.739  1.00  0.00    -0.354 N 
ATOM     47  C   UNL A   1      44.633  27.029  26.936  1.00  0.00     0.074 A 
ATOM     48  C   UNL A   1      44.590  25.682  26.411  1.00  0.00     0.031 C 
ATOM     49  C   UNL A   1      38.817  27.772  29.528  1.00  0.00     0.029 A 
ATOM     50  C   UNL A   1      39.917  28.730  29.513  1.00  0.00     0.049 A 
ATOM     51  H   UNL A   1      41.739  28.549  28.516  1.00  0.00     0.167 HD
ATOM     52  C   UNL A   1      45.724  27.832  26.880  1.00  0.00     0.034 A 
ATOM     53  C   UNL A   1      39.918  29.920  30.147  1.00  0.00     0.034 A 
ATOM     54  C   UNL A   1      45.753  29.188  27.357  1.00  0.00     0.049 A 
ATOM     55  C   UNL A   1      41.115  30.822  30.013  1.00  0.00     0.074 A 
ATOM     56  C   UNL A   1      46.777  30.113  27.256  1.00  0.00     0.029 A 
ATOM     57  N   UNL A   1      44.714  29.814  28.027  1.00  0.00    -0.354 N 
ATOM     58  N   UNL A   1      42.240  30.608  29.376  1.00  0.00    -0.248 NA
ATOM     59  C   UNL A   1      41.027  32.145  30.648  1.00  0.00     0.031 C 
ATOM     60  C   UNL A   1      46.361  31.297  27.877  1.00  0.00     0.029 A 
ATOM     61  C   UNL A   1      45.070  31.113  28.350  1.00  0.00     0.049 A 
ATOM     62  H   UNL A   1      43.848  29.396  28.243  1.00  0.00     0.167 HD
ATOM     63  C   UNL A   1      42.983  31.775  29.507  1.00  0.00     0.074 A 
ATOM     64  C   UNL A   1      42.168  32.704  30.264  1.00  0.00     0.031 C 
ATOM     65  C   UNL A   1      44.233  32.047  29.056  1.00  0.00     0.034 A 
BRANCH  52  66
ATOM     66  C   UNL A   1      46.958  27.278  26.215  1.00  0.00     0.023 A 
ATOM     67  C   UNL A   1      47.135  27.462  24.828  1.00  0.00     0.012 A 
ATOM     68  C   UNL A   1      47.956  26.613  26.956  1.00  0.00     0.148 A 
ATOM     69  C   UNL A   1      48.260  26.955  24.180  1.00  0.00     0.002 A 
ATOM     70  C   UNL A   1      49.097  26.149  26.310  1.00  0.00     0.091 A 
ATOM     71  F   UNL A   1      47.763  26.427  28.269  1.00  0.00    -0.205 F 
ATOM     72  C   UNL A   1      49.244  26.307  24.922  1.00  0.00     0.022 A 
BRANCH  70  73
ATOM     73  S   UNL A   1      50.457  25.375  27.191  1.00  0.00     0.127 S 
ATOM     74  O   UNL A   1      50.848  26.434  28.119  1.00  0.00    -0.237 OA
ATOM     75  O   UNL A   1      49.806  24.225  27.820  1.00  0.00    -0.237 OA
ATOM     76  O   UNL A   1      51.442  25.029  26.176  1.00  0.00    -0.744 OA
ENDBRANCH  70  73
ENDBRANCH  52  66
BRANCH  53  77
ATOM     77  C   UNL A   1      38.712  30.352  30.909  1.00  0.00     0.023 A 
ATOM     78  C   UNL A   1      38.643  30.100  32.294  1.00  0.00     0.012 A 
ATOM     79  C   UNL A   1      37.660  31.049  30.285  1.00  0.00     0.148 A 
ATOM     80  C   UNL A   1      37.537  30.511  33.038  1.00  0.00     0.002 A 
ATOM     81  C   UNL A   1      36.585  31.504  31.042  1.00  0.00     0.091 A 
ATOM     82  F   UNL A   1      37.739  31.270  28.965  1.00  0.00    -0.205 F 
ATOM     83  C   UNL A   1      36.514  31.222  32.416  1.00  0.00     0.022 A 
BRANCH  81  84
ATOM     84  S   UNL A   1      35.292  32.544  30.354  1.00  0.00     0.127 S 
ATOM     85  O   UNL A   1      36.035  33.752  30.004  1.00  0.00    -0.237 OA
ATOM     86  O   UNL A   1      34.838  31.747  29.214  1.00  0.00    -0.237 OA
ATOM     87  O   UNL A   1      34.303  32.693  31.413  1.00  0.00    -0.744 OA
ENDBRANCH  81  84
ENDBRANCH  53  77
BRANCH  65  88
ATOM     88  C   UNL A   1      44.798  33.414  29.342  1.00  0.00     0.023 A 
ATOM     89  C   UNL A   1      45.488  33.645  30.548  1.00  0.00     0.012 A 
ATOM     90  C   UNL A   1      44.717  34.443  28.384  1.00  0.00     0.148 A 
ATOM     91  C   UNL A   1      46.064  34.889  30.808  1.00  0.00     0.002 A 
ATOM     92  C   UNL A   1      45.333  35.665  28.630  1.00  0.00     0.091 A 
ATOM     93  F   UNL A   1      44.038  34.210  27.250  1.00  0.00    -0.205 F 
ATOM     94  C   UNL A   1      45.998  35.893  29.845  1.00  0.00     0.022 A 
BRANCH  92  95
ATOM     95  S   UNL A   1      45.377  36.982  27.409  1.00  0.00     0.127 S 
ATOM     96  O   UNL A   1      46.154  36.368  26.334  1.00  0.00    -0.237 OA
ATOM     97  O   UNL A   1      43.959  37.174  27.104  1.00  0.00    -0.237 OA
ATOM     98  O   UNL A   1      46.009  38.118  28.070  1.00  0.00    -0.744 OA
ENDBRANCH  92  95
ENDBRANCH  65  88
ENDBRANCH  39  40
ENDBRANCH  31  34
ENDBRANCH  29  30
ENDBRANCH   1  29
TORSDOF 17
ENDMDL
MODEL 2
REMARK VINA RESULT:     -12.5      1.459      7.461
REMARK SMILES COc1ccc(-c2nc3ccc(C)cc3[nH]2)c(C(=O)NCCCCNC(=O)c2ccc(-c3c4nc(c(-c5cccc(S(=O)(=O)[O-])c5F)c5ccc([nH]5)c(-c5cccc(S(=O)(=O)[O-])c5F)c5nc(c(-c6cccc(S(=O)(=O)[O-])c6F)c6ccc3[nH]6)C=C5)C=C4)cc2)c1OC
REMARK SMILES IDX 23 1 22 2 21 3 20 4 18 5 19 6 17 8 3 9 4 10 91 11 5 12 6 13
REMARK SMILES IDX 2 14 1 15 92 16 93 17 7 18 8 19 16 20 9 21 15 22 10 24 14 25
REMARK SMILES IDX 11 26 12 27 13 28 24 29 25 30 26 31 27 33 28 34 29 35 90 36
REMARK SMILES IDX 30 37 89 38 31 39 32 40 33 41 83 42 34 43 88 44 82 45 84 46
REMARK SMILES IDX 35 47 87 48 81 49 80 50 36 52 68 53 48 54 67 55 49 56 52 57
REMARK SMILES IDX 66 58 85 59 50 60 51 61 65 63 86 64 53 65 37 66 38 67 46 68
REMARK SMILES IDX 39 69 41 70 47 71 40 72 42 73 43 74 44 75 45 76 69 77 70 78
REMARK SMILES IDX 78 79 71 80 73 81 79 82 72 83 74 84 75 85 76 86 77 87 54 88
REMARK SMILES IDX 55 89 63 90 56 91 58 92 64 93 57 94 59 95 60 96 61 97 62 98
REMARK H PARENT 20 7 16 23 25 32 84 51 52 62
REMARK Flexibility Score: inf
ROOT
ATOM      1  C   UNL A   1      36.783  21.622  23.977  1.00  0.00     0.023 C 
ENDROOT
BRANCH   1   2
ATOM      2  C   UNL A   1      36.649  23.088  23.573  1.00  0.00     0.023 C 
BRANCH   2   3
ATOM      3  C   UNL A   1      35.366  23.803  23.965  1.00  0.00     0.116 C 
BRANCH   3   4
ATOM      4  N   UNL A   1      34.995  23.859  25.358  1.00  0.00    -0.352 N 
ATOM      5  C   UNL A   1      33.702  23.763  25.850  1.00  0.00     0.255 C 
ATOM      6  O   UNL A   1      33.491  23.344  26.987  1.00  0.00    -0.269 OA
ATOM      7  H   UNL A   1      35.720  23.975  26.013  1.00  0.00     0.163 HD
BRANCH   5   8
ATOM      8  C   UNL A   1      32.560  24.270  25.038  1.00  0.00     0.096 A 
ATOM      9  C   UNL A   1      31.073  26.045  24.285  1.00  0.00     0.161 A 
ATOM     10  C   UNL A   1      30.299  25.056  23.647  1.00  0.00     0.051 A 
ATOM     11  C   UNL A   1      32.250  25.662  24.954  1.00  0.00     0.174 A 
ATOM     12  C   UNL A   1      30.675  23.716  23.627  1.00  0.00     0.017 A 
ATOM     13  C   UNL A   1      31.804  23.300  24.330  1.00  0.00     0.034 A 
BRANCH   9  14
ATOM     14  O   UNL A   1      30.464  27.254  24.125  1.00  0.00    -0.493 OA
ATOM     15  C   UNL A   1      31.072  28.325  23.439  1.00  0.00     0.278 C 
ENDBRANCH   9  14
BRANCH  11  16
ATOM     16  O   UNL A   1      33.241  26.525  25.350  1.00  0.00    -0.492 OA
ATOM     17  C   UNL A   1      33.040  27.299  26.526  1.00  0.00     0.278 C 
ENDBRANCH  11  16
BRANCH  13  18
ATOM     18  C   UNL A   1      32.173  21.881  24.276  1.00  0.00     0.139 A 
ATOM     19  N   UNL A   1      32.367  21.155  23.194  1.00  0.00    -0.228 NA
ATOM     20  N   UNL A   1      32.332  21.103  25.405  1.00  0.00    -0.338 N 
ATOM     21  C   UNL A   1      32.523  19.860  23.633  1.00  0.00     0.089 A 
ATOM     22  C   UNL A   1      32.527  19.801  25.020  1.00  0.00     0.066 A 
ATOM     23  H   UNL A   1      32.307  21.429  26.334  1.00  0.00     0.168 HD
ATOM     24  C   UNL A   1      32.647  18.673  22.902  1.00  0.00     0.031 A 
ATOM     25  C   UNL A   1      32.663  18.607  25.742  1.00  0.00     0.031 A 
ATOM     26  C   UNL A   1      32.755  17.459  23.596  1.00  0.00     0.006 A 
ATOM     27  C   UNL A   1      32.768  17.419  24.998  1.00  0.00    -0.049 A 
ATOM     28  C   UNL A   1      32.850  16.087  25.690  1.00  0.00     0.044 C 
ENDBRANCH  13  18
ENDBRANCH   5   8
ENDBRANCH   3   4
ENDBRANCH   2   3
ENDBRANCH   1   2
BRANCH   1  29
ATOM     29  C   UNL A   1      37.186  21.316  25.418  1.00  0.00     0.116 C 
BRANCH  29  30
ATOM     30  N   UNL A   1      38.288  20.373  25.560  1.00  0.00    -0.352 N 
ATOM     31  C   UNL A   1      39.538  20.537  26.124  1.00  0.00     0.251 C 
ATOM     32  H   UNL A   1      38.114  19.475  25.194  1.00  0.00     0.163 HD
ATOM     33  O   UNL A   1      40.333  19.607  26.119  1.00  0.00    -0.269 OA
BRANCH  31  34
ATOM     34  C   UNL A   1      39.939  21.851  26.687  1.00  0.00     0.039 A 
ATOM     35  C   UNL A   1      40.910  21.883  27.692  1.00  0.00     0.014 A 
ATOM     36  C   UNL A   1      39.400  23.043  26.203  1.00  0.00     0.014 A 
ATOM     37  C   UNL A   1      41.423  23.111  28.125  1.00  0.00     0.010 A 
ATOM     38  C   UNL A   1      39.976  24.258  26.567  1.00  0.00     0.010 A 
ATOM     39  C   UNL A   1      41.004  24.308  27.521  1.00  0.00    -0.014 A 
BRANCH  39  40
ATOM     40  C   UNL A   1      41.651  25.611  27.836  1.00  0.00     0.031 A 
ATOM     41  C   UNL A   1      40.883  26.696  28.543  1.00  0.00     0.074 A 
ATOM     42  C   UNL A   1      42.894  25.866  27.376  1.00  0.00     0.049 A 
ATOM     43  N   UNL A   1      41.248  27.922  28.816  1.00  0.00    -0.248 NA
ATOM     44  C   UNL A   1      39.512  26.372  28.968  1.00  0.00     0.031 C 
ATOM     45  C   UNL A   1      43.711  24.943  26.586  1.00  0.00     0.029 A 
ATOM     46  N   UNL A   1      43.674  26.994  27.474  1.00  0.00    -0.354 N 
ATOM     47  C   UNL A   1      40.143  28.526  29.403  1.00  0.00     0.074 A 
ATOM     48  C   UNL A   1      39.081  27.544  29.412  1.00  0.00     0.031 C 
ATOM     49  C   UNL A   1      44.870  25.540  26.268  1.00  0.00     0.029 A 
ATOM     50  C   UNL A   1      44.872  26.896  26.805  1.00  0.00     0.049 A 
ATOM     51  H   UNL A   1      43.400  27.796  27.975  1.00  0.00     0.167 HD
ATOM     52  C   UNL A   1      40.028  29.773  29.923  1.00  0.00     0.034 A 
ATOM     53  C   UNL A   1      45.861  27.797  26.634  1.00  0.00     0.034 A 
ATOM     54  C   UNL A   1      41.098  30.733  29.960  1.00  0.00     0.049 A 
ATOM     55  C   UNL A   1      45.739  29.151  27.279  1.00  0.00     0.074 A 
ATOM     56  C   UNL A   1      41.111  31.984  30.552  1.00  0.00     0.029 A 
ATOM     57  N   UNL A   1      42.344  30.553  29.380  1.00  0.00    -0.354 N 
ATOM     58  N   UNL A   1      44.751  29.641  27.986  1.00  0.00    -0.248 NA
ATOM     59  C   UNL A   1      46.885  30.061  27.139  1.00  0.00     0.031 C 
ATOM     60  C   UNL A   1      42.362  32.566  30.319  1.00  0.00     0.029 A 
ATOM     61  C   UNL A   1      43.134  31.669  29.596  1.00  0.00     0.049 A 
ATOM     62  H   UNL A   1      42.625  29.748  28.886  1.00  0.00     0.167 HD
ATOM     63  C   UNL A   1      45.163  30.902  28.400  1.00  0.00     0.074 A 
ATOM     64  C   UNL A   1      46.504  31.092  27.884  1.00  0.00     0.031 C 
ATOM     65  C   UNL A   1      44.486  31.826  29.125  1.00  0.00     0.034 A 
BRANCH  52  66
ATOM     66  C   UNL A   1      38.710  30.141  30.556  1.00  0.00     0.023 A 
ATOM     67  C   UNL A   1      38.445  29.736  31.881  1.00  0.00     0.012 A 
ATOM     68  C   UNL A   1      37.754  30.913  29.867  1.00  0.00     0.148 A 
ATOM     69  C   UNL A   1      37.234  30.051  32.494  1.00  0.00     0.002 A 
ATOM     70  C   UNL A   1      36.566  31.262  30.500  1.00  0.00     0.091 A 
ATOM     71  F   UNL A   1      38.011  31.272  28.601  1.00  0.00    -0.205 F 
ATOM     72  C   UNL A   1      36.299  30.821  31.807  1.00  0.00     0.022 A 
BRANCH  70  73
ATOM     73  S   UNL A   1      35.336  32.318  29.729  1.00  0.00     0.127 S 
ATOM     74  O   UNL A   1      34.867  31.474  28.631  1.00  0.00    -0.237 OA
ATOM     75  O   UNL A   1      34.365  32.505  30.809  1.00  0.00    -0.237 OA
ATOM     76  O   UNL A   1      36.041  33.530  29.337  1.00  0.00    -0.744 OA
ENDBRANCH  70  73
ENDBRANCH  52  66
BRANCH  53  77
ATOM     77  C   UNL A   1      47.085  27.415  25.874  1.00  0.00     0.023 A 
ATOM     78  C   UNL A   1      48.091  26.665  26.516  1.00  0.00     0.012 A 
ATOM     79  C   UNL A   1      47.238  27.746  24.514  1.00  0.00     0.148 A 
ATOM     80  C   UNL A   1      49.237  26.274  25.825  1.00  0.00     0.002 A 
ATOM     81  C   UNL A   1      48.358  27.306  23.816  1.00  0.00     0.091 A 
ATOM     82  F   UNL A   1      46.276  28.469  23.924  1.00  0.00    -0.205 F 
ATOM     83  C   UNL A   1      49.367  26.584  24.474  1.00  0.00     0.022 A 
BRANCH  81  84
ATOM     84  S   UNL A   1      48.544  27.540  22.045  1.00  0.00     0.127 S 
ATOM     85  O   UNL A   1      47.246  28.102  21.680  1.00  0.00    -0.237 OA
ATOM     86  O   UNL A   1      49.663  28.481  21.980  1.00  0.00    -0.237 OA
ATOM     87  O   UNL A   1      48.839  26.220  21.504  1.00  0.00    -0.744 OA
ENDBRANCH  81  84
ENDBRANCH  53  77
BRANCH  65  88
ATOM     88  C   UNL A   1      45.187  33.123  29.435  1.00  0.00     0.023 A 
ATOM     89  C   UNL A   1      45.997  33.221  30.583  1.00  0.00     0.012 A 
ATOM     90  C   UNL A   1      45.109  34.215  28.549  1.00  0.00     0.148 A 
ATOM     91  C   UNL A   1      46.697  34.396  30.860  1.00  0.00     0.002 A 
ATOM     92  C   UNL A   1      45.845  35.366  28.806  1.00  0.00     0.091 A 
ATOM     93  F   UNL A   1      44.317  34.110  27.471  1.00  0.00    -0.205 F 
ATOM     94  C   UNL A   1      46.631  35.462  29.966  1.00  0.00     0.022 A 
BRANCH  92  95
ATOM     95  S   UNL A   1      45.893  36.752  27.664  1.00  0.00     0.127 S 
ATOM     96  O   UNL A   1      46.489  36.141  26.477  1.00  0.00    -0.237 OA
ATOM     97  O   UNL A   1      44.477  37.094  27.528  1.00  0.00    -0.237 OA
ATOM     98  O   UNL A   1      46.700  37.778  28.313  1.00  0.00    -0.744 OA
ENDBRANCH  92  95
ENDBRANCH  65  88
ENDBRANCH  39  40
ENDBRANCH  31  34
ENDBRANCH  29  30
ENDBRANCH   1  29
TORSDOF 17
ENDMDL
MODEL 3
REMARK VINA RESULT:     -12.4      4.888      8.260
REMARK SMILES COc1ccc(-c2nc3ccc(C)cc3[nH]2)c(C(=O)NCCCCNC(=O)c2ccc(-c3c4nc(c(-c5cccc(S(=O)(=O)[O-])c5F)c5ccc([nH]5)c(-c5cccc(S(=O)(=O)[O-])c5F)c5nc(c(-c6cccc(S(=O)(=O)[O-])c6F)c6ccc3[nH]6)C=C5)C=C4)cc2)c1OC
REMARK SMILES IDX 23 1 22 2 21 3 20 4 18 5 19 6 17 8 3 9 4 10 91 11 5 12 6 13
REMARK SMILES IDX 2 14 1 15 92 16 93 17 7 18 8 19 16 20 9 21 15 22 10 24 14 25
REMARK SMILES IDX 11 26 12 27 13 28 24 29 25 30 26 31 27 33 28 34 29 35 90 36
REMARK SMILES IDX 30 37 89 38 31 39 32 40 33 41 83 42 34 43 88 44 82 45 84 46
REMARK SMILES IDX 35 47 87 48 81 49 80 50 36 52 68 53 48 54 67 55 49 56 52 57
REMARK SMILES IDX 66 58 85 59 50 60 51 61 65 63 86 64 53 65 37 66 38 67 46 68
REMARK SMILES IDX 39 69 41 70 47 71 40 72 42 73 43 74 44 75 45 76 69 77 70 78
REMARK SMILES IDX 78 79 71 80 73 81 79 82 72 83 74 84 75 85 76 86 77 87 54 88
REMARK SMILES IDX 55 89 63 90 56 91 58 92 64 93 57 94 59 95 60 96 61 97 62 98
REMARK H PARENT 20 7 16 23 25 32 84 51 52 62
REMARK Flexibility Score: inf
ROOT
ATOM      1  C   UNL A   1      31.685  29.353  27.018  1.00  0.00     0.023 C 
ENDROOT
BRANCH   1   2
ATOM      2  C   UNL A   1      31.621  27.947  26.429  1.00  0.00     0.023 C 
BRANCH   2   3
ATOM      3  C   UNL A   1      32.938  27.211  26.241  1.00  0.00     0.116 C 
BRANCH   3   4
ATOM      4  N   UNL A   1      33.700  27.438  25.037  1.00  0.00    -0.352 N 
ATOM      5  C   UNL A   1      33.418  26.896  23.792  1.00  0.00     0.255 C 
ATOM      6  O   UNL A   1      33.770  27.469  22.763  1.00  0.00    -0.269 OA
ATOM      7  H   UNL A   1      34.486  28.026  25.106  1.00  0.00     0.163 HD
BRANCH   5   8
ATOM      8  C   UNL A   1      32.773  25.556  23.696  1.00  0.00     0.096 A 
ATOM      9  C   UNL A   1      32.849  23.123  23.724  1.00  0.00     0.161 A 
ATOM     10  C   UNL A   1      31.508  23.127  23.294  1.00  0.00     0.051 A 
ATOM     11  C   UNL A   1      33.486  24.351  23.977  1.00  0.00     0.174 A 
ATOM     12  C   UNL A   1      30.780  24.303  23.141  1.00  0.00     0.017 A 
ATOM     13  C   UNL A   1      31.403  25.536  23.329  1.00  0.00     0.034 A 
BRANCH   9  14
ATOM     14  O   UNL A   1      33.288  21.834  23.791  1.00  0.00    -0.493 OA
ATOM     15  C   UNL A   1      32.694  20.874  24.635  1.00  0.00     0.278 C 
ENDBRANCH   9  14
BRANCH  11  16
ATOM     16  O   UNL A   1      34.660  24.495  24.675  1.00  0.00    -0.492 OA
ATOM     17  C   UNL A   1      34.784  23.853  25.938  1.00  0.00     0.278 C 
ENDBRANCH  11  16
BRANCH  13  18
ATOM     18  C   UNL A   1      30.598  26.752  23.169  1.00  0.00     0.139 A 
ATOM     19  N   UNL A   1      29.398  26.978  23.663  1.00  0.00    -0.228 NA
ATOM     20  N   UNL A   1      31.014  27.835  22.420  1.00  0.00    -0.338 N 
ATOM     21  C   UNL A   1      28.983  28.169  23.113  1.00  0.00     0.089 A 
ATOM     22  C   UNL A   1      29.987  28.741  22.345  1.00  0.00     0.066 A 
ATOM     23  H   UNL A   1      31.902  27.938  22.007  1.00  0.00     0.168 HD
ATOM     24  C   UNL A   1      27.746  28.819  23.209  1.00  0.00     0.031 A 
ATOM     25  C   UNL A   1      29.840  29.955  21.661  1.00  0.00     0.031 A 
ATOM     26  C   UNL A   1      27.559  30.021  22.511  1.00  0.00     0.006 A 
ATOM     27  C   UNL A   1      28.589  30.590  21.747  1.00  0.00    -0.049 A 
ATOM     28  C   UNL A   1      28.321  31.862  20.991  1.00  0.00     0.044 C 
ENDBRANCH  13  18
ENDBRANCH   5   8
ENDBRANCH   3   4
ENDBRANCH   2   3
ENDBRANCH   1   2
BRANCH   1  29
ATOM     29  C   UNL A   1      32.270  30.464  26.147  1.00  0.00     0.116 C 
BRANCH  29  30
ATOM     30  N   UNL A   1      32.076  31.813  26.661  1.00  0.00    -0.352 N 
ATOM     31  C   UNL A   1      32.917  32.614  27.409  1.00  0.00     0.251 C 
ATOM     32  H   UNL A   1      31.206  32.219  26.440  1.00  0.00     0.163 HD
ATOM     33  O   UNL A   1      32.543  33.725  27.760  1.00  0.00    -0.269 OA
BRANCH  31  34
ATOM     34  C   UNL A   1      34.247  32.112  27.834  1.00  0.00     0.039 A 
ATOM     35  C   UNL A   1      35.306  33.019  27.938  1.00  0.00     0.014 A 
ATOM     36  C   UNL A   1      34.445  30.772  28.169  1.00  0.00     0.014 A 
ATOM     37  C   UNL A   1      36.524  32.607  28.489  1.00  0.00     0.010 A 
ATOM     38  C   UNL A   1      35.624  30.387  28.803  1.00  0.00     0.010 A 
ATOM     39  C   UNL A   1      36.674  31.301  28.984  1.00  0.00    -0.014 A 
BRANCH  39  40
ATOM     40  C   UNL A   1      37.892  30.882  29.729  1.00  0.00     0.031 A 
ATOM     41  C   UNL A   1      38.838  29.869  29.141  1.00  0.00     0.074 A 
ATOM     42  C   UNL A   1      38.085  31.320  30.991  1.00  0.00     0.049 A 
ATOM     43  N   UNL A   1      39.894  29.315  29.680  1.00  0.00    -0.248 NA
ATOM     44  C   UNL A   1      38.538  29.388  27.783  1.00  0.00     0.031 C 
ATOM     45  C   UNL A   1      37.191  32.221  31.721  1.00  0.00     0.029 A 
ATOM     46  N   UNL A   1      39.078  31.036  31.898  1.00  0.00    -0.354 N 
ATOM     47  C   UNL A   1      40.358  28.394  28.748  1.00  0.00     0.074 A 
ATOM     48  C   UNL A   1      39.446  28.436  27.626  1.00  0.00     0.031 C 
ATOM     49  C   UNL A   1      37.670  32.411  32.960  1.00  0.00     0.029 A 
ATOM     50  C   UNL A   1      38.890  31.627  33.126  1.00  0.00     0.049 A 
ATOM     51  H   UNL A   1      39.851  30.462  31.689  1.00  0.00     0.167 HD
ATOM     52  C   UNL A   1      41.462  27.610  28.801  1.00  0.00     0.034 A 
ATOM     53  C   UNL A   1      39.611  31.545  34.263  1.00  0.00     0.034 A 
ATOM     54  C   UNL A   1      42.396  27.605  29.894  1.00  0.00     0.049 A 
ATOM     55  C   UNL A   1      40.870  30.722  34.275  1.00  0.00     0.074 A 
ATOM     56  C   UNL A   1      43.595  26.920  29.998  1.00  0.00     0.029 A 
ATOM     57  N   UNL A   1      42.238  28.314  31.074  1.00  0.00    -0.354 N 
ATOM     58  N   UNL A   1      41.387  29.994  33.316  1.00  0.00    -0.248 NA
ATOM     59  C   UNL A   1      41.666  30.740  35.511  1.00  0.00     0.031 C 
ATOM     60  C   UNL A   1      44.156  27.208  31.248  1.00  0.00     0.029 A 
ATOM     61  C   UNL A   1      43.313  28.084  31.915  1.00  0.00     0.049 A 
ATOM     62  H   UNL A   1      41.471  28.897  31.284  1.00  0.00     0.167 HD
ATOM     63  C   UNL A   1      42.582  29.492  33.818  1.00  0.00     0.074 A 
ATOM     64  C   UNL A   1      42.724  30.019  35.160  1.00  0.00     0.031 C 
ATOM     65  C   UNL A   1      43.472  28.656  33.228  1.00  0.00     0.034 A 
BRANCH  52  66
ATOM     66  C   UNL A   1      41.752  26.740  27.604  1.00  0.00     0.023 A 
ATOM     67  C   UNL A   1      42.334  27.318  26.457  1.00  0.00     0.012 A 
ATOM     68  C   UNL A   1      41.489  25.356  27.621  1.00  0.00     0.148 A 
ATOM     69  C   UNL A   1      42.608  26.545  25.330  1.00  0.00     0.002 A 
ATOM     70  C   UNL A   1      41.806  24.583  26.509  1.00  0.00     0.091 A 
ATOM     71  F   UNL A   1      40.916  24.825  28.711  1.00  0.00    -0.205 F 
ATOM     72  C   UNL A   1      42.352  25.178  25.360  1.00  0.00     0.022 A 
BRANCH  70  73
ATOM     73  S   UNL A   1      41.590  22.800  26.480  1.00  0.00     0.127 S 
ATOM     74  O   UNL A   1      40.138  22.680  26.356  1.00  0.00    -0.237 OA
ATOM     75  O   UNL A   1      42.336  22.416  25.282  1.00  0.00    -0.237 OA
ATOM     76  O   UNL A   1      42.159  22.310  27.728  1.00  0.00    -0.744 OA
ENDBRANCH  70  73
ENDBRANCH  52  66
BRANCH  53  77
ATOM     77  C   UNL A   1      39.190  32.324  35.462  1.00  0.00     0.023 A 
ATOM     78  C   UNL A   1      38.335  31.727  36.409  1.00  0.00     0.012 A 
ATOM     79  C   UNL A   1      39.666  33.629  35.694  1.00  0.00     0.148 A 
ATOM     80  C   UNL A   1      37.942  32.423  37.552  1.00  0.00     0.002 A 
ATOM     81  C   UNL A   1      39.314  34.297  36.862  1.00  0.00     0.091 A 
ATOM     82  F   UNL A   1      40.470  34.184  34.776  1.00  0.00    -0.205 F 
ATOM     83  C   UNL A   1      38.438  33.702  37.784  1.00  0.00     0.022 A 
BRANCH  81  84
ATOM     84  S   UNL A   1      40.013  35.890  37.310  1.00  0.00     0.127 S 
ATOM     85  O   UNL A   1      39.285  36.201  38.537  1.00  0.00    -0.237 OA
ATOM     86  O   UNL A   1      41.426  35.558  37.499  1.00  0.00    -0.237 OA
ATOM     87  O   UNL A   1      39.750  36.767  36.177  1.00  0.00    -0.744 OA
ENDBRANCH  81  84
ENDBRANCH  53  77
BRANCH  65  88
ATOM     88  C   UNL A   1      44.699  28.272  34.013  1.00  0.00     0.023 A 
ATOM     89  C   UNL A   1      45.852  29.078  33.941  1.00  0.00     0.012 A 
ATOM     90  C   UNL A   1      44.683  27.164  34.882  1.00  0.00     0.148 A 
ATOM     91  C   UNL A   1      46.981  28.770  34.702  1.00  0.00     0.002 A 
ATOM     92  C   UNL A   1      45.795  26.889  35.670  1.00  0.00     0.091 A 
ATOM     93  F   UNL A   1      43.583  26.397  34.921  1.00  0.00    -0.205 F 
ATOM     94  C   UNL A   1      46.948  27.685  35.574  1.00  0.00     0.022 A 
BRANCH  92  95
ATOM     95  S   UNL A   1      45.807  25.568  36.888  1.00  0.00     0.127 S 
ATOM     96  O   UNL A   1      46.966  25.924  37.704  1.00  0.00    -0.237 OA
ATOM     97  O   UNL A   1      44.515  25.744  37.553  1.00  0.00    -0.237 OA
ATOM     98  O   UNL A   1      45.930  24.329  36.131  1.00  0.00    -0.744 OA
ENDBRANCH  92  95
ENDBRANCH  65  88
ENDBRANCH  39  40
ENDBRANCH  31  34
ENDBRANCH  29  30
ENDBRANCH   1  29
TORSDOF 17
ENDMDL
