MODEL 1
REMARK VINA RESULT:     -11.7      0.000      0.000
REMARK SMILES CCc1ccc2c(c1)C=C(C(=O)NCCCCNC(=O)c1ccc(-c3c4nc(c(-c5cccc(S(=O)(=O)[O-])c5F)c5ccc([nH]5)c(-c5cccc(S(=O)(=O)[O-])c5F)c5nc(c(-c6cccc(S(=O)(=O)[O-])c6F)c6ccc3[nH]6)C=C5)C=C4)cc1)[C@H](C(F)(F)F)O2
REMARK SMILES IDX 16 1 15 2 14 3 13 4 11 5 12 6 10 8 3 9 4 10 8 11 5 12 7 13
REMARK SMILES IDX 6 14 9 15 89 16 84 17 2 18 1 19 85 20 86 21 87 22 88 23
REMARK SMILES IDX 17 24 18 25 19 26 20 28 21 29 22 30 83 31 23 32 82 33 24 34
REMARK SMILES IDX 25 35 26 36 76 37 27 38 81 39 75 40 77 41 28 42 80 43 74 44
REMARK SMILES IDX 73 45 29 47 61 48 41 49 60 50 42 51 45 52 59 53 78 54 43 55
REMARK SMILES IDX 44 56 58 58 79 59 46 60 30 61 31 62 39 63 32 64 34 65 40 66
REMARK SMILES IDX 33 67 35 68 36 69 37 70 38 71 62 72 63 73 71 74 64 75 66 76
REMARK SMILES IDX 72 77 65 78 67 79 68 80 69 81 70 82 47 83 48 84 56 85 49 86
REMARK SMILES IDX 51 87 57 88 50 89 52 90 53 91 54 92 55 93
REMARK H PARENT 13 7 18 27 77 46 45 57
REMARK Flexibility Score: inf
ROOT
ATOM      1  C   UNL A   1      33.956  28.565  25.689  1.00  0.00     0.023 C 
ENDROOT
BRANCH   1   2
ATOM      2  C   UNL A   1      33.044  29.228  24.653  1.00  0.00     0.023 C 
BRANCH   2   3
ATOM      3  C   UNL A   1      33.439  28.954  23.196  1.00  0.00     0.116 C 
BRANCH   3   4
ATOM      4  N   UNL A   1      32.354  28.285  22.497  1.00  0.00    -0.352 N 
ATOM      5  C   UNL A   1      31.924  26.996  22.486  1.00  0.00     0.251 C 
ATOM      6  O   UNL A   1      31.052  26.680  21.680  1.00  0.00    -0.270 OA
ATOM      7  H   UNL A   1      31.827  28.884  21.920  1.00  0.00     0.163 HD
BRANCH   5   8
ATOM      8  C   UNL A   1      32.406  25.971  23.452  1.00  0.00     0.067 C 
ATOM      9  C   UNL A   1      35.831  23.217  25.500  1.00  0.00    -0.047 A 
ATOM     10  C   UNL A   1      34.916  22.846  26.494  1.00  0.00     0.007 A 
ATOM     11  C   UNL A   1      35.383  24.055  24.467  1.00  0.00     0.015 A 
ATOM     12  C   UNL A   1      33.595  23.306  26.454  1.00  0.00     0.047 A 
ATOM     13  C   UNL A   1      34.062  24.522  24.433  1.00  0.00     0.017 A 
ATOM     14  C   UNL A   1      33.171  24.147  25.428  1.00  0.00     0.128 A 
ATOM     15  C   UNL A   1      33.647  25.470  23.416  1.00  0.00     0.025 C 
ATOM     16  O   UNL A   1      31.892  24.609  25.504  1.00  0.00    -0.475 OA
ATOM     17  C   UNL A   1      31.355  25.392  24.395  1.00  0.00     0.314 C 
BRANCH   9  18
ATOM     18  C   UNL A   1      37.292  22.833  25.514  1.00  0.00     0.032 C 
ATOM     19  C   UNL A   1      38.223  23.703  26.346  1.00  0.00     0.009 C 
ENDBRANCH   9  18
BRANCH  17  20
ATOM     20  C   UNL A   1      30.350  26.403  25.000  1.00  0.00     0.429 C 
ATOM     21  F   UNL A   1      29.421  26.818  24.113  1.00  0.00    -0.167 F 
ATOM     22  F   UNL A   1      29.646  25.832  26.017  1.00  0.00    -0.167 F 
ATOM     23  F   UNL A   1      30.962  27.492  25.518  1.00  0.00    -0.167 F 
ENDBRANCH  17  20
ENDBRANCH   5   8
ENDBRANCH   3   4
ENDBRANCH   2   3
ENDBRANCH   1   2
BRANCH   1  24
ATOM     24  C   UNL A   1      33.587  28.851  27.140  1.00  0.00     0.116 C 
BRANCH  24  25
ATOM     25  N   UNL A   1      33.596  30.271  27.462  1.00  0.00    -0.352 N 
ATOM     26  C   UNL A   1      34.580  30.997  28.093  1.00  0.00     0.251 C 
ATOM     27  H   UNL A   1      32.795  30.777  27.194  1.00  0.00     0.163 HD
ATOM     28  O   UNL A   1      34.389  32.169  28.385  1.00  0.00    -0.269 OA
BRANCH  26  29
ATOM     29  C   UNL A   1      35.851  30.329  28.448  1.00  0.00     0.039 A 
ATOM     30  C   UNL A   1      36.941  30.456  27.583  1.00  0.00     0.014 A 
ATOM     31  C   UNL A   1      35.972  29.615  29.642  1.00  0.00     0.014 A 
ATOM     32  C   UNL A   1      38.176  29.915  27.948  1.00  0.00     0.010 A 
ATOM     33  C   UNL A   1      37.219  29.137  30.035  1.00  0.00     0.010 A 
ATOM     34  C   UNL A   1      38.331  29.279  29.191  1.00  0.00    -0.014 A 
BRANCH  34  35
ATOM     35  C   UNL A   1      39.649  28.763  29.634  1.00  0.00     0.031 A 
ATOM     36  C   UNL A   1      40.405  29.465  30.727  1.00  0.00     0.074 A 
ATOM     37  C   UNL A   1      40.206  27.720  28.987  1.00  0.00     0.049 A 
ATOM     38  N   UNL A   1      41.592  29.203  31.207  1.00  0.00    -0.248 NA
ATOM     39  C   UNL A   1      39.754  30.635  31.342  1.00  0.00     0.031 C 
ATOM     40  C   UNL A   1      39.608  27.011  27.853  1.00  0.00     0.029 A 
ATOM     41  N   UNL A   1      41.414  27.095  29.170  1.00  0.00    -0.354 N 
ATOM     42  C   UNL A   1      41.848  30.191  32.150  1.00  0.00     0.074 A 
ATOM     43  C   UNL A   1      40.706  31.079  32.151  1.00  0.00     0.031 C 
ATOM     44  C   UNL A   1      40.449  26.047  27.444  1.00  0.00     0.029 A 
ATOM     45  C   UNL A   1      41.654  26.083  28.269  1.00  0.00     0.049 A 
ATOM     46  H   UNL A   1      42.048  27.347  29.879  1.00  0.00     0.167 HD
ATOM     47  C   UNL A   1      42.919  30.329  32.965  1.00  0.00     0.034 A 
ATOM     48  C   UNL A   1      42.722  25.277  28.125  1.00  0.00     0.034 A 
ATOM     49  C   UNL A   1      44.026  29.412  33.000  1.00  0.00     0.049 A 
ATOM     50  C   UNL A   1      43.875  25.415  29.083  1.00  0.00     0.074 A 
ATOM     51  C   UNL A   1      45.113  29.408  33.855  1.00  0.00     0.029 A 
ATOM     52  N   UNL A   1      44.188  28.337  32.140  1.00  0.00    -0.354 N 
ATOM     53  N   UNL A   1      44.021  26.252  30.081  1.00  0.00    -0.248 NA
ATOM     54  C   UNL A   1      44.992  24.473  28.919  1.00  0.00     0.031 C 
ATOM     55  C   UNL A   1      45.939  28.334  33.505  1.00  0.00     0.029 A 
ATOM     56  C   UNL A   1      45.358  27.662  32.441  1.00  0.00     0.049 A 
ATOM     57  H   UNL A   1      43.561  28.089  31.423  1.00  0.00     0.167 HD
ATOM     58  C   UNL A   1      45.227  25.917  30.686  1.00  0.00     0.074 A 
ATOM     59  C   UNL A   1      45.762  24.786  29.954  1.00  0.00     0.031 C 
ATOM     60  C   UNL A   1      45.846  26.502  31.741  1.00  0.00     0.034 A 
BRANCH  47  61
ATOM     61  C   UNL A   1      42.911  31.479  33.937  1.00  0.00     0.023 A 
ATOM     62  C   UNL A   1      43.465  32.717  33.547  1.00  0.00     0.012 A 
ATOM     63  C   UNL A   1      42.318  31.358  35.209  1.00  0.00     0.148 A 
ATOM     64  C   UNL A   1      43.462  33.804  34.420  1.00  0.00     0.002 A 
ATOM     65  C   UNL A   1      42.282  32.459  36.057  1.00  0.00     0.091 A 
ATOM     66  F   UNL A   1      41.819  30.169  35.571  1.00  0.00    -0.205 F 
ATOM     67  C   UNL A   1      42.862  33.678  35.669  1.00  0.00     0.022 A 
BRANCH  65  68
ATOM     68  S   UNL A   1      41.466  32.418  37.657  1.00  0.00     0.127 S 
ATOM     69  O   UNL A   1      42.283  31.446  38.380  1.00  0.00    -0.237 OA
ATOM     70  O   UNL A   1      41.615  33.800  38.117  1.00  0.00    -0.237 OA
ATOM     71  O   UNL A   1      40.092  32.015  37.394  1.00  0.00    -0.744 OA
ENDBRANCH  65  68
ENDBRANCH  47  61
BRANCH  48  72
ATOM     72  C   UNL A   1      42.713  24.210  27.085  1.00  0.00     0.023 A 
ATOM     73  C   UNL A   1      43.392  24.431  25.869  1.00  0.00     0.012 A 
ATOM     74  C   UNL A   1      42.075  22.974  27.299  1.00  0.00     0.148 A 
ATOM     75  C   UNL A   1      43.410  23.452  24.876  1.00  0.00     0.002 A 
ATOM     76  C   UNL A   1      42.141  21.983  26.325  1.00  0.00     0.091 A 
ATOM     77  F   UNL A   1      41.424  22.787  28.456  1.00  0.00    -0.205 F 
ATOM     78  C   UNL A   1      42.795  22.225  25.108  1.00  0.00     0.022 A 
BRANCH  76  79
ATOM     79  S   UNL A   1      41.490  20.329  26.592  1.00  0.00     0.127 S 
ATOM     80  O   UNL A   1      40.056  20.585  26.685  1.00  0.00    -0.237 OA
ATOM     81  O   UNL A   1      41.916  19.635  25.376  1.00  0.00    -0.237 OA
ATOM     82  O   UNL A   1      42.132  19.850  27.809  1.00  0.00    -0.744 OA
ENDBRANCH  76  79
ENDBRANCH  48  72
BRANCH  60  83
ATOM     83  C   UNL A   1      47.158  25.919  32.194  1.00  0.00     0.023 A 
ATOM     84  C   UNL A   1      48.357  26.355  31.597  1.00  0.00     0.012 A 
ATOM     85  C   UNL A   1      47.209  25.004  33.264  1.00  0.00     0.148 A 
ATOM     86  C   UNL A   1      49.586  25.868  32.041  1.00  0.00     0.002 A 
ATOM     87  C   UNL A   1      48.440  24.558  33.729  1.00  0.00     0.091 A 
ATOM     88  F   UNL A   1      46.056  24.585  33.804  1.00  0.00    -0.205 F 
ATOM     89  C   UNL A   1      49.629  24.981  33.113  1.00  0.00     0.022 A 
BRANCH  87  90
ATOM     90  S   UNL A   1      48.592  23.489  35.166  1.00  0.00     0.127 S 
ATOM     91  O   UNL A   1      47.942  24.291  36.203  1.00  0.00    -0.237 OA
ATOM     92  O   UNL A   1      47.842  22.302  34.755  1.00  0.00    -0.237 OA
ATOM     93  O   UNL A   1      50.020  23.267  35.347  1.00  0.00    -0.744 OA
ENDBRANCH  87  90
ENDBRANCH  60  83
ENDBRANCH  34  35
ENDBRANCH  26  29
ENDBRANCH  24  25
ENDBRANCH   1  24
TORSDOF 16
ENDMDL
MODEL 2
REMARK VINA RESULT:     -11.4      2.225      3.140
REMARK SMILES CCc1ccc2c(c1)C=C(C(=O)NCCCCNC(=O)c1ccc(-c3c4nc(c(-c5cccc(S(=O)(=O)[O-])c5F)c5ccc([nH]5)c(-c5cccc(S(=O)(=O)[O-])c5F)c5nc(c(-c6cccc(S(=O)(=O)[O-])c6F)c6ccc3[nH]6)C=C5)C=C4)cc1)[C@H](C(F)(F)F)O2
REMARK SMILES IDX 16 1 15 2 14 3 13 4 11 5 12 6 10 8 3 9 4 10 8 11 5 12 7 13
REMARK SMILES IDX 6 14 9 15 89 16 84 17 2 18 1 19 85 20 86 21 87 22 88 23
REMARK SMILES IDX 17 24 18 25 19 26 20 28 21 29 22 30 83 31 23 32 82 33 24 34
REMARK SMILES IDX 25 35 26 36 76 37 27 38 81 39 75 40 77 41 28 42 80 43 74 44
REMARK SMILES IDX 73 45 29 47 61 48 41 49 60 50 42 51 45 52 59 53 78 54 43 55
REMARK SMILES IDX 44 56 58 58 79 59 46 60 30 61 31 62 39 63 32 64 34 65 40 66
REMARK SMILES IDX 33 67 35 68 36 69 37 70 38 71 62 72 63 73 71 74 64 75 66 76
REMARK SMILES IDX 72 77 65 78 67 79 68 80 69 81 70 82 47 83 48 84 56 85 49 86
REMARK SMILES IDX 51 87 57 88 50 89 52 90 53 91 54 92 55 93
REMARK H PARENT 13 7 18 27 77 46 45 57
REMARK Flexibility Score: inf
ROOT
ATOM      1  C   UNL A   1      32.355  28.816  24.653  1.00  0.00     0.023 C 
ENDROOT
BRANCH   1   2
ATOM      2  C   UNL A   1      31.294  28.211  25.577  1.00  0.00     0.023 C 
BRANCH   2   3
ATOM      3  C   UNL A   1      31.865  27.437  26.773  1.00  0.00     0.116 C 
BRANCH   3   4
ATOM      4  N   UNL A   1      31.144  26.188  26.954  1.00  0.00    -0.352 N 
ATOM      5  C   UNL A   1      31.279  24.958  26.391  1.00  0.00     0.251 C 
ATOM      6  O   UNL A   1      30.426  24.109  26.636  1.00  0.00    -0.270 OA
ATOM      7  H   UNL A   1      30.417  26.244  27.615  1.00  0.00     0.163 HD
BRANCH   5   8
ATOM      8  C   UNL A   1      32.448  24.573  25.555  1.00  0.00     0.067 C 
ATOM      9  C   UNL A   1      36.692  22.352  24.799  1.00  0.00    -0.047 A 
ATOM     10  C   UNL A   1      36.570  22.619  23.429  1.00  0.00     0.007 A 
ATOM     11  C   UNL A   1      35.696  22.838  25.660  1.00  0.00     0.015 A 
ATOM     12  C   UNL A   1      35.480  23.347  22.939  1.00  0.00     0.047 A 
ATOM     13  C   UNL A   1      34.600  23.559  25.167  1.00  0.00     0.017 A 
ATOM     14  C   UNL A   1      34.494  23.810  23.807  1.00  0.00     0.128 A 
ATOM     15  C   UNL A   1      33.528  23.961  26.059  1.00  0.00     0.025 C 
ATOM     16  O   UNL A   1      33.430  24.444  23.241  1.00  0.00    -0.475 OA
ATOM     17  C   UNL A   1      32.428  25.058  24.108  1.00  0.00     0.314 C 
BRANCH   9  18
ATOM     18  C   UNL A   1      37.792  21.507  25.398  1.00  0.00     0.032 C 
ATOM     19  C   UNL A   1      37.883  20.063  24.926  1.00  0.00     0.009 C 
ENDBRANCH   9  18
BRANCH  17  20
ATOM     20  C   UNL A   1      31.069  24.957  23.373  1.00  0.00     0.429 C 
ATOM     21  F   UNL A   1      30.159  25.847  23.821  1.00  0.00    -0.167 F 
ATOM     22  F   UNL A   1      31.217  25.230  22.047  1.00  0.00    -0.167 F 
ATOM     23  F   UNL A   1      30.531  23.719  23.454  1.00  0.00    -0.167 F 
ENDBRANCH  17  20
ENDBRANCH   5   8
ENDBRANCH   3   4
ENDBRANCH   2   3
ENDBRANCH   1   2
BRANCH   1  24
ATOM     24  C   UNL A   1      33.450  29.601  25.366  1.00  0.00     0.116 C 
BRANCH  24  25
ATOM     25  N   UNL A   1      32.965  30.828  25.981  1.00  0.00    -0.352 N 
ATOM     26  C   UNL A   1      33.486  31.507  27.059  1.00  0.00     0.251 C 
ATOM     27  H   UNL A   1      32.162  31.224  25.572  1.00  0.00     0.163 HD
ATOM     28  O   UNL A   1      32.897  32.473  27.522  1.00  0.00    -0.269 OA
BRANCH  26  29
ATOM     29  C   UNL A   1      34.742  31.025  27.673  1.00  0.00     0.039 A 
ATOM     30  C   UNL A   1      35.796  31.927  27.841  1.00  0.00     0.014 A 
ATOM     31  C   UNL A   1      34.863  29.704  28.110  1.00  0.00     0.014 A 
ATOM     32  C   UNL A   1      36.954  31.516  28.507  1.00  0.00     0.010 A 
ATOM     33  C   UNL A   1      35.987  29.318  28.833  1.00  0.00     0.010 A 
ATOM     34  C   UNL A   1      37.044  30.218  29.035  1.00  0.00    -0.014 A 
BRANCH  34  35
ATOM     35  C   UNL A   1      38.231  29.781  29.811  1.00  0.00     0.031 A 
ATOM     36  C   UNL A   1      38.465  30.318  31.195  1.00  0.00     0.074 A 
ATOM     37  C   UNL A   1      39.145  28.979  29.231  1.00  0.00     0.049 A 
ATOM     38  N   UNL A   1      39.472  30.104  32.002  1.00  0.00    -0.248 NA
ATOM     39  C   UNL A   1      37.451  31.240  31.734  1.00  0.00     0.031 C 
ATOM     40  C   UNL A   1      39.072  28.463  27.862  1.00  0.00     0.029 A 
ATOM     41  N   UNL A   1      40.330  28.479  29.711  1.00  0.00    -0.354 N 
ATOM     42  C   UNL A   1      39.233  30.889  33.123  1.00  0.00     0.074 A 
ATOM     43  C   UNL A   1      38.003  31.611  32.879  1.00  0.00     0.031 C 
ATOM     44  C   UNL A   1      40.162  27.719  27.613  1.00  0.00     0.029 A 
ATOM     45  C   UNL A   1      41.021  27.722  28.793  1.00  0.00     0.049 A 
ATOM     46  H   UNL A   1      40.654  28.647  30.624  1.00  0.00     0.167 HD
ATOM     47  C   UNL A   1      39.953  30.976  34.266  1.00  0.00     0.034 A 
ATOM     48  C   UNL A   1      42.212  27.101  28.893  1.00  0.00     0.034 A 
ATOM     49  C   UNL A   1      41.144  30.215  34.526  1.00  0.00     0.049 A 
ATOM     50  C   UNL A   1      42.963  27.168  30.195  1.00  0.00     0.074 A 
ATOM     51  C   UNL A   1      41.892  30.158  35.688  1.00  0.00     0.029 A 
ATOM     52  N   UNL A   1      41.761  29.378  33.610  1.00  0.00    -0.354 N 
ATOM     53  N   UNL A   1      42.634  27.781  31.306  1.00  0.00    -0.248 NA
ATOM     54  C   UNL A   1      44.230  26.426  30.272  1.00  0.00     0.031 C 
ATOM     55  C   UNL A   1      42.970  29.292  35.471  1.00  0.00     0.029 A 
ATOM     56  C   UNL A   1      42.884  28.801  34.178  1.00  0.00     0.049 A 
ATOM     57  H   UNL A   1      41.447  29.216  32.692  1.00  0.00     0.167 HD
ATOM     58  C   UNL A   1      43.632  27.472  32.223  1.00  0.00     0.074 A 
ATOM     59  C   UNL A   1      44.568  26.599  31.543  1.00  0.00     0.031 C 
ATOM     60  C   UNL A   1      43.772  27.887  33.506  1.00  0.00     0.034 A 
BRANCH  47  61
ATOM     61  C   UNL A   1      39.430  31.880  35.351  1.00  0.00     0.023 A 
ATOM     62  C   UNL A   1      38.493  31.376  36.278  1.00  0.00     0.012 A 
ATOM     63  C   UNL A   1      39.894  33.203  35.489  1.00  0.00     0.148 A 
ATOM     64  C   UNL A   1      37.999  32.184  37.301  1.00  0.00     0.002 A 
ATOM     65  C   UNL A   1      39.428  33.988  36.537  1.00  0.00     0.091 A 
ATOM     66  F   UNL A   1      40.765  33.672  34.585  1.00  0.00    -0.205 F 
ATOM     67  C   UNL A   1      38.473  33.485  37.436  1.00  0.00     0.022 A 
BRANCH  65  68
ATOM     68  S   UNL A   1      40.034  35.653  36.839  1.00  0.00     0.127 S 
ATOM     69  O   UNL A   1      39.373  35.982  38.101  1.00  0.00    -0.237 OA
ATOM     70  O   UNL A   1      41.479  35.441  36.946  1.00  0.00    -0.237 OA
ATOM     71  O   UNL A   1      39.623  36.443  35.688  1.00  0.00    -0.744 OA
ENDBRANCH  65  68
ENDBRANCH  47  61
BRANCH  48  72
ATOM     72  C   UNL A   1      42.725  26.291  27.753  1.00  0.00     0.023 A 
ATOM     73  C   UNL A   1      43.666  26.863  26.873  1.00  0.00     0.012 A 
ATOM     74  C   UNL A   1      42.321  24.958  27.553  1.00  0.00     0.148 A 
ATOM     75  C   UNL A   1      44.173  26.131  25.799  1.00  0.00     0.002 A 
ATOM     76  C   UNL A   1      42.870  24.218  26.510  1.00  0.00     0.091 A 
ATOM     77  F   UNL A   1      41.416  24.435  28.392  1.00  0.00    -0.205 F 
ATOM     78  C   UNL A   1      43.783  24.806  25.624  1.00  0.00     0.022 A 
BRANCH  76  79
ATOM     79  S   UNL A   1      42.525  22.467  26.290  1.00  0.00     0.127 S 
ATOM     80  O   UNL A   1      42.964  21.913  27.567  1.00  0.00    -0.237 OA
ATOM     81  O   UNL A   1      41.077  22.467  26.082  1.00  0.00    -0.237 OA
ATOM     82  O   UNL A   1      43.295  22.063  25.122  1.00  0.00    -0.744 OA
ENDBRANCH  76  79
ENDBRANCH  48  72
BRANCH  60  83
ATOM     83  C   UNL A   1      44.963  27.383  34.278  1.00  0.00     0.023 A 
ATOM     84  C   UNL A   1      46.154  28.134  34.290  1.00  0.00     0.012 A 
ATOM     85  C   UNL A   1      44.874  26.212  35.056  1.00  0.00     0.148 A 
ATOM     86  C   UNL A   1      47.249  27.713  35.044  1.00  0.00     0.002 A 
ATOM     87  C   UNL A   1      45.954  25.822  35.839  1.00  0.00     0.091 A 
ATOM     88  F   UNL A   1      43.739  25.499  35.014  1.00  0.00    -0.205 F 
ATOM     89  C   UNL A   1      47.145  26.566  35.826  1.00  0.00     0.022 A 
BRANCH  87  90
ATOM     90  S   UNL A   1      45.875  24.413  36.950  1.00  0.00     0.127 S 
ATOM     91  O   UNL A   1      45.619  23.314  36.019  1.00  0.00    -0.237 OA
ATOM     92  O   UNL A   1      47.211  24.407  37.546  1.00  0.00    -0.237 OA
ATOM     93  O   UNL A   1      44.799  24.705  37.887  1.00  0.00    -0.744 OA
ENDBRANCH  87  90
ENDBRANCH  60  83
ENDBRANCH  34  35
ENDBRANCH  26  29
ENDBRANCH  24  25
ENDBRANCH   1  24
TORSDOF 16
ENDMDL
MODEL 3
REMARK VINA RESULT:     -11.4      2.157      2.764
REMARK SMILES CCc1ccc2c(c1)C=C(C(=O)NCCCCNC(=O)c1ccc(-c3c4nc(c(-c5cccc(S(=O)(=O)[O-])c5F)c5ccc([nH]5)c(-c5cccc(S(=O)(=O)[O-])c5F)c5nc(c(-c6cccc(S(=O)(=O)[O-])c6F)c6ccc3[nH]6)C=C5)C=C4)cc1)[C@H](C(F)(F)F)O2
REMARK SMILES IDX 16 1 15 2 14 3 13 4 11 5 12 6 10 8 3 9 4 10 8 11 5 12 7 13
REMARK SMILES IDX 6 14 9 15 89 16 84 17 2 18 1 19 85 20 86 21 87 22 88 23
REMARK SMILES IDX 17 24 18 25 19 26 20 28 21 29 22 30 83 31 23 32 82 33 24 34
REMARK SMILES IDX 25 35 26 36 76 37 27 38 81 39 75 40 77 41 28 42 80 43 74 44
REMARK SMILES IDX 73 45 29 47 61 48 41 49 60 50 42 51 45 52 59 53 78 54 43 55
REMARK SMILES IDX 44 56 58 58 79 59 46 60 30 61 31 62 39 63 32 64 34 65 40 66
REMARK SMILES IDX 33 67 35 68 36 69 37 70 38 71 62 72 63 73 71 74 64 75 66 76
REMARK SMILES IDX 72 77 65 78 67 79 68 80 69 81 70 82 47 83 48 84 56 85 49 86
REMARK SMILES IDX 51 87 57 88 50 89 52 90 53 91 54 92 55 93
REMARK H PARENT 13 7 18 27 77 46 45 57
REMARK Flexibility Score: inf
ROOT
ATOM      1  C   UNL A   1      32.833  29.314  24.684  1.00  0.00     0.023 C 
ENDROOT
BRANCH   1   2
ATOM      2  C   UNL A   1      31.365  29.065  24.329  1.00  0.00     0.023 C 
BRANCH   2   3
ATOM      3  C   UNL A   1      31.021  27.595  24.053  1.00  0.00     0.116 C 
BRANCH   3   4
ATOM      4  N   UNL A   1      30.771  26.893  25.301  1.00  0.00    -0.352 N 
ATOM      5  C   UNL A   1      31.264  25.739  25.822  1.00  0.00     0.251 C 
ATOM      6  O   UNL A   1      30.761  25.305  26.855  1.00  0.00    -0.270 OA
ATOM      7  H   UNL A   1      30.116  27.343  25.883  1.00  0.00     0.163 HD
BRANCH   5   8
ATOM      8  C   UNL A   1      32.430  25.020  25.241  1.00  0.00     0.067 C 
ATOM      9  C   UNL A   1      36.979  23.343  25.345  1.00  0.00    -0.047 A 
ATOM     10  C   UNL A   1      36.716  22.603  24.185  1.00  0.00     0.007 A 
ATOM     11  C   UNL A   1      35.963  24.171  25.847  1.00  0.00     0.015 A 
ATOM     12  C   UNL A   1      35.471  22.688  23.552  1.00  0.00     0.047 A 
ATOM     13  C   UNL A   1      34.713  24.249  25.217  1.00  0.00     0.017 A 
ATOM     14  C   UNL A   1      34.469  23.505  24.072  1.00  0.00     0.128 A 
ATOM     15  C   UNL A   1      33.642  25.028  25.810  1.00  0.00     0.025 C 
ATOM     16  O   UNL A   1      33.264  23.473  23.440  1.00  0.00    -0.475 OA
ATOM     17  C   UNL A   1      32.217  24.399  23.863  1.00  0.00     0.314 C 
BRANCH   9  18
ATOM     18  C   UNL A   1      38.265  23.247  26.133  1.00  0.00     0.032 C 
ATOM     19  C   UNL A   1      38.872  24.556  26.618  1.00  0.00     0.009 C 
ENDBRANCH   9  18
BRANCH  17  20
ATOM     20  C   UNL A   1      30.863  23.684  23.639  1.00  0.00     0.429 C 
ATOM     21  F   UNL A   1      29.918  24.493  23.116  1.00  0.00    -0.167 F 
ATOM     22  F   UNL A   1      30.998  22.664  22.745  1.00  0.00    -0.167 F 
ATOM     23  F   UNL A   1      30.374  23.137  24.775  1.00  0.00    -0.167 F 
ENDBRANCH  17  20
ENDBRANCH   5   8
ENDBRANCH   3   4
ENDBRANCH   2   3
ENDBRANCH   1   2
BRANCH   1  24
ATOM     24  C   UNL A   1      33.095  29.585  26.161  1.00  0.00     0.116 C 
BRANCH  24  25
ATOM     25  N   UNL A   1      32.870  30.974  26.535  1.00  0.00    -0.352 N 
ATOM     26  C   UNL A   1      33.634  31.772  27.356  1.00  0.00     0.251 C 
ATOM     27  H   UNL A   1      32.068  31.397  26.151  1.00  0.00     0.163 HD
ATOM     28  O   UNL A   1      33.250  32.893  27.656  1.00  0.00    -0.269 OA
BRANCH  26  29
ATOM     29  C   UNL A   1      34.902  31.238  27.900  1.00  0.00     0.039 A 
ATOM     30  C   UNL A   1      36.002  32.093  28.001  1.00  0.00     0.014 A 
ATOM     31  C   UNL A   1      34.989  29.916  28.339  1.00  0.00     0.014 A 
ATOM     32  C   UNL A   1      37.177  31.635  28.602  1.00  0.00     0.010 A 
ATOM     33  C   UNL A   1      36.135  29.483  28.999  1.00  0.00     0.010 A 
ATOM     34  C   UNL A   1      37.240  30.336  29.134  1.00  0.00    -0.014 A 
BRANCH  34  35
ATOM     35  C   UNL A   1      38.449  29.852  29.844  1.00  0.00     0.031 A 
ATOM     36  C   UNL A   1      38.761  30.349  31.228  1.00  0.00     0.074 A 
ATOM     37  C   UNL A   1      39.314  29.040  29.205  1.00  0.00     0.049 A 
ATOM     38  N   UNL A   1      39.797  30.090  31.982  1.00  0.00    -0.248 NA
ATOM     39  C   UNL A   1      37.797  31.283  31.833  1.00  0.00     0.031 C 
ATOM     40  C   UNL A   1      39.165  28.559  27.829  1.00  0.00     0.029 A 
ATOM     41  N   UNL A   1      40.506  28.499  29.617  1.00  0.00    -0.354 N 
ATOM     42  C   UNL A   1      39.631  30.854  33.131  1.00  0.00     0.074 A 
ATOM     43  C   UNL A   1      38.411  31.613  32.960  1.00  0.00     0.031 C 
ATOM     44  C   UNL A   1      40.222  27.794  27.513  1.00  0.00     0.029 A 
ATOM     45  C   UNL A   1      41.135  27.747  28.652  1.00  0.00     0.049 A 
ATOM     46  H   UNL A   1      40.876  28.637  30.519  1.00  0.00     0.167 HD
ATOM     47  C   UNL A   1      40.405  30.896  34.241  1.00  0.00     0.034 A 
ATOM     48  C   UNL A   1      42.312  27.094  28.682  1.00  0.00     0.034 A 
ATOM     49  C   UNL A   1      41.586  30.099  34.428  1.00  0.00     0.049 A 
ATOM     50  C   UNL A   1      43.123  27.110  29.949  1.00  0.00     0.074 A 
ATOM     51  C   UNL A   1      42.385  29.995  35.552  1.00  0.00     0.029 A 
ATOM     52  N   UNL A   1      42.138  29.268  33.465  1.00  0.00    -0.354 N 
ATOM     53  N   UNL A   1      42.861  27.705  31.088  1.00  0.00    -0.248 NA
ATOM     54  C   UNL A   1      44.372  26.335  29.950  1.00  0.00     0.031 C 
ATOM     55  C   UNL A   1      43.429  29.108  35.265  1.00  0.00     0.029 A 
ATOM     56  C   UNL A   1      43.270  28.650  33.967  1.00  0.00     0.049 A 
ATOM     57  H   UNL A   1      41.778  29.137  32.559  1.00  0.00     0.167 HD
ATOM     58  C   UNL A   1      43.892  27.349  31.950  1.00  0.00     0.074 A 
ATOM     59  C   UNL A   1      44.772  26.469  31.208  1.00  0.00     0.031 C 
ATOM     60  C   UNL A   1      44.102  27.729  33.235  1.00  0.00     0.034 A 
BRANCH  47  61
ATOM     61  C   UNL A   1      39.956  31.787  35.369  1.00  0.00     0.023 A 
ATOM     62  C   UNL A   1      40.455  33.104  35.449  1.00  0.00     0.012 A 
ATOM     63  C   UNL A   1      39.011  31.348  36.316  1.00  0.00     0.148 A 
ATOM     64  C   UNL A   1      40.050  33.957  36.475  1.00  0.00     0.002 A 
ATOM     65  C   UNL A   1      38.580  32.218  37.311  1.00  0.00     0.091 A 
ATOM     66  F   UNL A   1      38.566  30.086  36.238  1.00  0.00    -0.205 F 
ATOM     67  C   UNL A   1      39.106  33.518  37.398  1.00  0.00     0.022 A 
BRANCH  65  68
ATOM     68  S   UNL A   1      37.312  31.771  38.503  1.00  0.00     0.127 S 
ATOM     69  O   UNL A   1      37.038  30.383  38.135  1.00  0.00    -0.237 OA
ATOM     70  O   UNL A   1      38.012  31.936  39.777  1.00  0.00    -0.237 OA
ATOM     71  O   UNL A   1      36.217  32.706  38.290  1.00  0.00    -0.744 OA
ENDBRANCH  65  68
ENDBRANCH  47  61
BRANCH  48  72
ATOM     72  C   UNL A   1      42.751  26.298  27.501  1.00  0.00     0.023 A 
ATOM     73  C   UNL A   1      43.497  26.930  26.487  1.00  0.00     0.012 A 
ATOM     74  C   UNL A   1      42.469  24.923  27.391  1.00  0.00     0.148 A 
ATOM     75  C   UNL A   1      43.930  26.214  25.370  1.00  0.00     0.002 A 
ATOM     76  C   UNL A   1      42.948  24.205  26.300  1.00  0.00     0.091 A 
ATOM     77  F   UNL A   1      41.747  24.342  28.359  1.00  0.00    -0.205 F 
ATOM     78  C   UNL A   1      43.665  24.851  25.282  1.00  0.00     0.022 A 
BRANCH  76  79
ATOM     79  S   UNL A   1      42.767  22.421  26.171  1.00  0.00     0.127 S 
ATOM     80  O   UNL A   1      41.321  22.259  26.293  1.00  0.00    -0.237 OA
ATOM     81  O   UNL A   1      43.307  22.157  24.837  1.00  0.00    -0.237 OA
ATOM     82  O   UNL A   1      43.564  21.869  27.258  1.00  0.00    -0.744 OA
ENDBRANCH  76  79
ENDBRANCH  48  72
BRANCH  60  83
ATOM     83  C   UNL A   1      45.313  27.177  33.939  1.00  0.00     0.023 A 
ATOM     84  C   UNL A   1      46.491  27.946  34.005  1.00  0.00     0.012 A 
ATOM     85  C   UNL A   1      45.256  25.936  34.603  1.00  0.00     0.148 A 
ATOM     86  C   UNL A   1      47.604  27.476  34.701  1.00  0.00     0.002 A 
ATOM     87  C   UNL A   1      46.355  25.495  35.331  1.00  0.00     0.091 A 
ATOM     88  F   UNL A   1      44.134  25.210  34.509  1.00  0.00    -0.205 F 
ATOM     89  C   UNL A   1      47.533  26.259  35.373  1.00  0.00     0.022 A 
BRANCH  87  90
ATOM     90  S   UNL A   1      46.317  23.985  36.304  1.00  0.00     0.127 S 
ATOM     91  O   UNL A   1      47.651  23.984  36.904  1.00  0.00    -0.237 OA
ATOM     92  O   UNL A   1      45.227  24.246  37.245  1.00  0.00    -0.237 OA
ATOM     93  O   UNL A   1      46.053  22.909  35.359  1.00  0.00    -0.744 OA
ENDBRANCH  87  90
ENDBRANCH  60  83
ENDBRANCH  34  35
ENDBRANCH  26  29
ENDBRANCH  24  25
ENDBRANCH   1  24
TORSDOF 16
ENDMDL
