MODEL 1
REMARK VINA RESULT:     -12.2      0.000      0.000
REMARK SMILES Cc1ccc(Nc2c(Cl)cc(Cl)cc2Cl)c(CC(=O)NCCCCNC(=O)c2ccc(-c3c4nc(c(-c5cccc(S(=O)(=O)[O-])c5F)c5ccc([nH]5)c(-c5cccc(S(=O)(=O)[O-])c5F)c5nc(c(-c6cccc(S(=O)(=O)[O-])c6F)c6ccc3[nH]6)C=C5)C=C4)cc2)c1
REMARK SMILES IDX 22 1 21 2 20 3 18 4 19 5 17 7 16 8 1 9 2 10 3 11 91 12 4 13
REMARK SMILES IDX 5 14 6 15 7 17 8 18 14 19 9 20 10 21 13 22 15 23 11 24 12 25
REMARK SMILES IDX 23 26 24 27 25 28 26 29 27 31 28 32 29 33 90 34 30 35 89 36
REMARK SMILES IDX 31 37 32 38 33 39 83 40 34 41 88 42 82 43 84 44 35 45 87 46
REMARK SMILES IDX 81 47 80 48 36 50 68 51 48 52 67 53 49 54 52 55 66 56 85 57
REMARK SMILES IDX 50 58 51 59 65 61 86 62 53 63 37 64 38 65 46 66 39 67 41 68
REMARK SMILES IDX 47 69 40 70 42 71 43 72 44 73 45 74 69 75 70 76 78 77 71 78
REMARK SMILES IDX 73 79 79 80 72 81 74 82 75 83 76 84 77 85 54 86 55 87 63 88
REMARK SMILES IDX 56 89 58 90 64 91 57 92 59 93 60 94 61 95 62 96
REMARK H PARENT 20 6 6 16 25 30 84 49 52 60
REMARK Flexibility Score: inf
ROOT
ATOM      1  C   UNL A   1      36.989  23.614  24.894  1.00  0.00     0.023 C 
ENDROOT
BRANCH   1   2
ATOM      2  C   UNL A   1      35.579  23.300  24.363  1.00  0.00     0.116 C 
BRANCH   2   3
ATOM      3  N   UNL A   1      34.931  24.446  23.743  1.00  0.00    -0.356 N 
ATOM      4  C   UNL A   1      34.187  25.438  24.307  1.00  0.00     0.224 C 
ATOM      5  O   UNL A   1      33.597  26.233  23.570  1.00  0.00    -0.275 OA
ATOM      6  H   UNL A   1      35.047  24.513  22.768  1.00  0.00     0.163 HD
BRANCH   4   7
ATOM      7  C   UNL A   1      34.040  25.552  25.813  1.00  0.00     0.137 C 
BRANCH   7   8
ATOM      8  C   UNL A   1      33.200  26.734  26.243  1.00  0.00    -0.015 A 
ATOM      9  C   UNL A   1      33.933  30.411  26.979  1.00  0.00     0.044 C 
ATOM     10  C   UNL A   1      33.201  29.112  26.822  1.00  0.00    -0.051 A 
ATOM     11  C   UNL A   1      31.899  28.977  27.297  1.00  0.00     0.005 A 
ATOM     12  C   UNL A   1      33.828  27.999  26.260  1.00  0.00     0.009 A 
ATOM     13  C   UNL A   1      31.243  27.743  27.225  1.00  0.00     0.026 A 
ATOM     14  C   UNL A   1      31.874  26.597  26.713  1.00  0.00     0.042 A 
BRANCH  14  15
ATOM     15  N   UNL A   1      31.198  25.356  26.648  1.00  0.00    -0.353 N 
ATOM     16  H   UNL A   1      30.582  25.170  27.393  1.00  0.00     0.167 HD
BRANCH  15  17
ATOM     17  C   UNL A   1      31.282  24.345  25.659  1.00  0.00     0.076 A 
ATOM     18  C   UNL A   1      31.952  23.122  25.871  1.00  0.00     0.067 A 
ATOM     19  C   UNL A   1      30.758  24.585  24.370  1.00  0.00     0.067 A 
ATOM     20  Cl  UNL A   1      32.538  22.649  27.431  1.00  0.00    -0.082 Cl
ATOM     21  C   UNL A   1      32.121  22.201  24.831  1.00  0.00     0.043 A 
ATOM     22  C   UNL A   1      30.918  23.662  23.332  1.00  0.00     0.043 A 
ATOM     23  Cl  UNL A   1      29.922  26.056  24.006  1.00  0.00    -0.082 Cl
ATOM     24  C   UNL A   1      31.610  22.481  23.568  1.00  0.00     0.044 A 
ATOM     25  Cl  UNL A   1      31.836  21.352  22.290  1.00  0.00    -0.084 Cl
ENDBRANCH  15  17
ENDBRANCH  14  15
ENDBRANCH   7   8
ENDBRANCH   4   7
ENDBRANCH   2   3
ENDBRANCH   1   2
BRANCH   1  26
ATOM     26  C   UNL A   1      37.505  22.695  26.000  1.00  0.00     0.023 C 
BRANCH  26  27
ATOM     27  C   UNL A   1      38.835  22.044  25.674  1.00  0.00     0.116 C 
BRANCH  27  28
ATOM     28  N   UNL A   1      39.733  21.934  26.809  1.00  0.00    -0.352 N 
ATOM     29  C   UNL A   1      40.387  22.928  27.514  1.00  0.00     0.251 C 
ATOM     30  H   UNL A   1      39.902  21.015  27.123  1.00  0.00     0.163 HD
ATOM     31  O   UNL A   1      41.293  22.602  28.279  1.00  0.00    -0.269 OA
BRANCH  29  32
ATOM     32  C   UNL A   1      39.888  24.329  27.474  1.00  0.00     0.039 A 
ATOM     33  C   UNL A   1      40.548  25.219  26.614  1.00  0.00     0.014 A 
ATOM     34  C   UNL A   1      39.024  24.824  28.445  1.00  0.00     0.014 A 
ATOM     35  C   UNL A   1      40.596  26.572  26.931  1.00  0.00     0.010 A 
ATOM     36  C   UNL A   1      39.148  26.139  28.825  1.00  0.00     0.010 A 
ATOM     37  C   UNL A   1      40.008  26.984  28.118  1.00  0.00    -0.014 A 
BRANCH  37  38
ATOM     38  C   UNL A   1      40.262  28.251  28.775  1.00  0.00     0.031 A 
ATOM     39  C   UNL A   1      39.286  29.341  28.653  1.00  0.00     0.074 A 
ATOM     40  C   UNL A   1      41.241  28.288  29.708  1.00  0.00     0.049 A 
ATOM     41  N   UNL A   1      39.480  30.512  29.147  1.00  0.00    -0.248 NA
ATOM     42  C   UNL A   1      38.018  29.211  27.940  1.00  0.00     0.031 C 
ATOM     43  C   UNL A   1      41.383  29.217  30.823  1.00  0.00     0.029 A 
ATOM     44  N   UNL A   1      42.456  27.591  29.698  1.00  0.00    -0.354 N 
ATOM     45  C   UNL A   1      38.262  31.143  29.145  1.00  0.00     0.074 A 
ATOM     46  C   UNL A   1      37.439  30.377  28.246  1.00  0.00     0.031 C 
ATOM     47  C   UNL A   1      42.671  29.247  31.198  1.00  0.00     0.029 A 
ATOM     48  C   UNL A   1      43.411  28.497  30.200  1.00  0.00     0.049 A 
ATOM     49  H   UNL A   1      42.609  26.665  29.403  1.00  0.00     0.167 HD
ATOM     50  C   UNL A   1      38.060  32.142  30.042  1.00  0.00     0.034 A 
ATOM     51  C   UNL A   1      44.429  28.996  29.434  1.00  0.00     0.034 A 
ATOM     52  C   UNL A   1      39.330  32.589  30.638  1.00  0.00     0.049 A 
ATOM     53  C   UNL A   1      44.388  30.518  29.287  1.00  0.00     0.074 A 
ATOM     54  C   UNL A   1      39.919  32.513  31.887  1.00  0.00     0.029 A 
ATOM     55  N   UNL A   1      40.331  33.017  29.776  1.00  0.00    -0.354 N 
ATOM     56  N   UNL A   1      43.546  31.315  29.893  1.00  0.00    -0.248 NA
ATOM     57  C   UNL A   1      45.248  31.243  28.354  1.00  0.00     0.031 C 
ATOM     58  C   UNL A   1      41.309  32.836  31.742  1.00  0.00     0.029 A 
ATOM     59  C   UNL A   1      41.548  33.162  30.419  1.00  0.00     0.049 A 
ATOM     60  H   UNL A   1      40.191  33.197  28.817  1.00  0.00     0.167 HD
ATOM     61  C   UNL A   1      43.608  32.571  29.333  1.00  0.00     0.074 A 
ATOM     62  C   UNL A   1      44.719  32.477  28.398  1.00  0.00     0.031 C 
ATOM     63  C   UNL A   1      42.701  33.565  29.615  1.00  0.00     0.034 A 
BRANCH  50  64
ATOM     64  C   UNL A   1      36.701  32.646  30.480  1.00  0.00     0.023 A 
ATOM     65  C   UNL A   1      36.274  32.315  31.783  1.00  0.00     0.012 A 
ATOM     66  C   UNL A   1      35.762  33.340  29.672  1.00  0.00     0.148 A 
ATOM     67  C   UNL A   1      35.001  32.652  32.261  1.00  0.00     0.002 A 
ATOM     68  C   UNL A   1      34.523  33.749  30.177  1.00  0.00     0.091 A 
ATOM     69  F   UNL A   1      35.997  33.521  28.369  1.00  0.00    -0.205 F 
ATOM     70  C   UNL A   1      34.133  33.391  31.468  1.00  0.00     0.022 A 
BRANCH  68  71
ATOM     71  S   UNL A   1      33.389  34.769  29.217  1.00  0.00     0.127 S 
ATOM     72  O   UNL A   1      34.273  35.812  28.699  1.00  0.00    -0.237 OA
ATOM     73  O   UNL A   1      32.896  33.833  28.205  1.00  0.00    -0.237 OA
ATOM     74  O   UNL A   1      32.367  35.222  30.154  1.00  0.00    -0.744 OA
ENDBRANCH  68  71
ENDBRANCH  50  64
BRANCH  51  75
ATOM     75  C   UNL A   1      44.890  28.030  28.385  1.00  0.00     0.023 A 
ATOM     76  C   UNL A   1      44.245  28.101  27.125  1.00  0.00     0.012 A 
ATOM     77  C   UNL A   1      46.139  27.393  28.467  1.00  0.00     0.148 A 
ATOM     78  C   UNL A   1      44.903  27.700  25.960  1.00  0.00     0.002 A 
ATOM     79  C   UNL A   1      46.780  26.975  27.301  1.00  0.00     0.091 A 
ATOM     80  F   UNL A   1      46.727  27.276  29.665  1.00  0.00    -0.205 F 
ATOM     81  C   UNL A   1      46.186  27.174  26.045  1.00  0.00     0.022 A 
BRANCH  79  82
ATOM     82  S   UNL A   1      48.438  26.281  27.348  1.00  0.00     0.127 S 
ATOM     83  O   UNL A   1      48.620  25.871  25.959  1.00  0.00    -0.237 OA
ATOM     84  O   UNL A   1      49.249  27.424  27.766  1.00  0.00    -0.237 OA
ATOM     85  O   UNL A   1      48.363  25.213  28.333  1.00  0.00    -0.744 OA
ENDBRANCH  79  82
ENDBRANCH  51  75
BRANCH  63  86
ATOM     86  C   UNL A   1      42.765  34.989  29.056  1.00  0.00     0.023 A 
ATOM     87  C   UNL A   1      42.103  35.347  27.865  1.00  0.00     0.012 A 
ATOM     88  C   UNL A   1      43.568  36.007  29.647  1.00  0.00     0.148 A 
ATOM     89  C   UNL A   1      42.103  36.661  27.374  1.00  0.00     0.002 A 
ATOM     90  C   UNL A   1      43.593  37.305  29.143  1.00  0.00     0.091 A 
ATOM     91  F   UNL A   1      44.363  35.719  30.681  1.00  0.00    -0.205 F 
ATOM     92  C   UNL A   1      42.832  37.645  28.024  1.00  0.00     0.022 A 
BRANCH  90  93
ATOM     93  S   UNL A   1      44.614  38.602  29.864  1.00  0.00     0.127 S 
ATOM     94  O   UNL A   1      45.951  38.021  29.745  1.00  0.00    -0.237 OA
ATOM     95  O   UNL A   1      44.356  39.726  28.963  1.00  0.00    -0.237 OA
ATOM     96  O   UNL A   1      44.136  38.792  31.224  1.00  0.00    -0.744 OA
ENDBRANCH  90  93
ENDBRANCH  63  86
ENDBRANCH  37  38
ENDBRANCH  29  32
ENDBRANCH  27  28
ENDBRANCH  26  27
ENDBRANCH   1  26
TORSDOF 17
ENDMDL
MODEL 2
REMARK VINA RESULT:     -12.0      1.792      2.408
REMARK SMILES Cc1ccc(Nc2c(Cl)cc(Cl)cc2Cl)c(CC(=O)NCCCCNC(=O)c2ccc(-c3c4nc(c(-c5cccc(S(=O)(=O)[O-])c5F)c5ccc([nH]5)c(-c5cccc(S(=O)(=O)[O-])c5F)c5nc(c(-c6cccc(S(=O)(=O)[O-])c6F)c6ccc3[nH]6)C=C5)C=C4)cc2)c1
REMARK SMILES IDX 22 1 21 2 20 3 18 4 19 5 17 7 16 8 1 9 2 10 3 11 91 12 4 13
REMARK SMILES IDX 5 14 6 15 7 17 8 18 14 19 9 20 10 21 13 22 15 23 11 24 12 25
REMARK SMILES IDX 23 26 24 27 25 28 26 29 27 31 28 32 29 33 90 34 30 35 89 36
REMARK SMILES IDX 31 37 32 38 33 39 83 40 34 41 88 42 82 43 84 44 35 45 87 46
REMARK SMILES IDX 81 47 80 48 36 50 68 51 48 52 67 53 49 54 52 55 66 56 85 57
REMARK SMILES IDX 50 58 51 59 65 61 86 62 53 63 37 64 38 65 46 66 39 67 41 68
REMARK SMILES IDX 47 69 40 70 42 71 43 72 44 73 45 74 69 75 70 76 78 77 71 78
REMARK SMILES IDX 73 79 79 80 72 81 74 82 75 83 76 84 77 85 54 86 55 87 63 88
REMARK SMILES IDX 56 89 58 90 64 91 57 92 59 93 60 94 61 95 62 96
REMARK H PARENT 20 6 6 16 25 30 84 49 52 60
REMARK Flexibility Score: inf
ROOT
ATOM      1  C   UNL A   1      36.922  23.072  24.671  1.00  0.00     0.023 C 
ENDROOT
BRANCH   1   2
ATOM      2  C   UNL A   1      35.697  22.478  23.955  1.00  0.00     0.116 C 
BRANCH   2   3
ATOM      3  N   UNL A   1      35.062  23.409  23.035  1.00  0.00    -0.356 N 
ATOM      4  C   UNL A   1      34.393  24.568  23.291  1.00  0.00     0.224 C 
ATOM      5  O   UNL A   1      33.794  25.127  22.367  1.00  0.00    -0.275 OA
ATOM      6  H   UNL A   1      35.125  23.164  22.084  1.00  0.00     0.163 HD
BRANCH   4   7
ATOM      7  C   UNL A   1      34.336  25.152  24.690  1.00  0.00     0.137 C 
BRANCH   7   8
ATOM      8  C   UNL A   1      33.001  25.782  25.021  1.00  0.00    -0.015 A 
ATOM      9  C   UNL A   1      31.462  29.234  24.465  1.00  0.00     0.044 C 
ATOM     10  C   UNL A   1      31.638  27.812  24.902  1.00  0.00    -0.051 A 
ATOM     11  C   UNL A   1      30.725  27.225  25.775  1.00  0.00     0.005 A 
ATOM     12  C   UNL A   1      32.750  27.070  24.498  1.00  0.00     0.009 A 
ATOM     13  C   UNL A   1      30.930  25.924  26.247  1.00  0.00     0.026 A 
ATOM     14  C   UNL A   1      32.070  25.180  25.896  1.00  0.00     0.042 A 
BRANCH  14  15
ATOM     15  N   UNL A   1      32.264  23.866  26.383  1.00  0.00    -0.353 N 
ATOM     16  H   UNL A   1      32.274  23.775  27.363  1.00  0.00     0.167 HD
BRANCH  15  17
ATOM     17  C   UNL A   1      32.448  22.663  25.657  1.00  0.00     0.076 A 
ATOM     18  C   UNL A   1      31.781  22.393  24.444  1.00  0.00     0.067 A 
ATOM     19  C   UNL A   1      33.258  21.640  26.196  1.00  0.00     0.067 A 
ATOM     20  Cl  UNL A   1      30.853  23.596  23.612  1.00  0.00    -0.082 Cl
ATOM     21  C   UNL A   1      31.893  21.144  23.821  1.00  0.00     0.043 A 
ATOM     22  C   UNL A   1      33.377  20.396  25.572  1.00  0.00     0.043 A 
ATOM     23  Cl  UNL A   1      34.115  21.870  27.682  1.00  0.00    -0.082 Cl
ATOM     24  C   UNL A   1      32.683  20.153  24.393  1.00  0.00     0.044 A 
ATOM     25  Cl  UNL A   1      32.802  18.615  23.631  1.00  0.00    -0.084 Cl
ENDBRANCH  15  17
ENDBRANCH  14  15
ENDBRANCH   7   8
ENDBRANCH   4   7
ENDBRANCH   2   3
ENDBRANCH   1   2
BRANCH   1  26
ATOM     26  C   UNL A   1      37.552  22.196  25.753  1.00  0.00     0.023 C 
BRANCH  26  27
ATOM     27  C   UNL A   1      39.014  21.883  25.501  1.00  0.00     0.116 C 
BRANCH  27  28
ATOM     28  N   UNL A   1      39.785  21.649  26.708  1.00  0.00    -0.352 N 
ATOM     29  C   UNL A   1      40.532  22.536  27.462  1.00  0.00     0.251 C 
ATOM     30  H   UNL A   1      39.775  20.721  27.040  1.00  0.00     0.163 HD
ATOM     31  O   UNL A   1      41.306  22.082  28.302  1.00  0.00    -0.269 OA
BRANCH  29  32
ATOM     32  C   UNL A   1      40.273  23.999  27.374  1.00  0.00     0.039 A 
ATOM     33  C   UNL A   1      41.298  24.799  26.849  1.00  0.00     0.014 A 
ATOM     34  C   UNL A   1      39.212  24.594  28.048  1.00  0.00     0.014 A 
ATOM     35  C   UNL A   1      41.424  26.118  27.270  1.00  0.00     0.010 A 
ATOM     36  C   UNL A   1      39.383  25.862  28.551  1.00  0.00     0.010 A 
ATOM     37  C   UNL A   1      40.538  26.582  28.231  1.00  0.00    -0.014 A 
BRANCH  37  38
ATOM     38  C   UNL A   1      40.730  27.774  29.033  1.00  0.00     0.031 A 
ATOM     39  C   UNL A   1      39.826  28.917  28.865  1.00  0.00     0.074 A 
ATOM     40  C   UNL A   1      41.553  27.682  30.104  1.00  0.00     0.049 A 
ATOM     41  N   UNL A   1      39.982  30.031  29.489  1.00  0.00    -0.248 NA
ATOM     42  C   UNL A   1      38.681  28.912  27.958  1.00  0.00     0.031 C 
ATOM     43  C   UNL A   1      41.552  28.505  31.308  1.00  0.00     0.029 A 
ATOM     44  N   UNL A   1      42.728  26.929  30.215  1.00  0.00    -0.354 N 
ATOM     45  C   UNL A   1      38.803  30.719  29.359  1.00  0.00     0.074 A 
ATOM     46  C   UNL A   1      38.103  30.075  28.278  1.00  0.00     0.031 C 
ATOM     47  C   UNL A   1      42.766  28.438  31.877  1.00  0.00     0.029 A 
ATOM     48  C   UNL A   1      43.625  27.740  30.938  1.00  0.00     0.049 A 
ATOM     49  H   UNL A   1      42.893  26.025  29.862  1.00  0.00     0.167 HD
ATOM     50  C   UNL A   1      38.498  31.647  30.303  1.00  0.00     0.034 A 
ATOM     51  C   UNL A   1      44.767  28.252  30.386  1.00  0.00     0.034 A 
ATOM     52  C   UNL A   1      39.675  31.977  31.124  1.00  0.00     0.049 A 
ATOM     53  C   UNL A   1      44.804  29.781  30.375  1.00  0.00     0.074 A 
ATOM     54  C   UNL A   1      40.058  31.766  32.436  1.00  0.00     0.029 A 
ATOM     55  N   UNL A   1      40.814  32.427  30.468  1.00  0.00    -0.354 N 
ATOM     56  N   UNL A   1      43.908  30.564  30.917  1.00  0.00    -0.248 NA
ATOM     57  C   UNL A   1      45.825  30.540  29.655  1.00  0.00     0.031 C 
ATOM     58  C   UNL A   1      41.464  32.030  32.536  1.00  0.00     0.029 A 
ATOM     59  C   UNL A   1      41.920  32.456  31.300  1.00  0.00     0.049 A 
ATOM     60  H   UNL A   1      40.832  32.696  29.521  1.00  0.00     0.167 HD
ATOM     61  C   UNL A   1      44.101  31.859  30.492  1.00  0.00     0.074 A 
ATOM     62  C   UNL A   1      45.341  31.790  29.732  1.00  0.00     0.031 C 
ATOM     63  C   UNL A   1      43.198  32.868  30.722  1.00  0.00     0.034 A 
BRANCH  50  64
ATOM     64  C   UNL A   1      37.107  32.179  30.573  1.00  0.00     0.023 A 
ATOM     65  C   UNL A   1      36.554  31.934  31.848  1.00  0.00     0.012 A 
ATOM     66  C   UNL A   1      36.254  32.818  29.635  1.00  0.00     0.148 A 
ATOM     67  C   UNL A   1      35.243  32.302  32.177  1.00  0.00     0.002 A 
ATOM     68  C   UNL A   1      34.975  33.258  29.989  1.00  0.00     0.091 A 
ATOM     69  F   UNL A   1      36.616  32.911  28.351  1.00  0.00    -0.205 F 
ATOM     70  C   UNL A   1      34.461  32.987  31.257  1.00  0.00     0.022 A 
BRANCH  68  71
ATOM     71  S   UNL A   1      33.946  34.213  28.859  1.00  0.00     0.127 S 
ATOM     72  O   UNL A   1      33.530  33.201  27.889  1.00  0.00    -0.237 OA
ATOM     73  O   UNL A   1      32.873  34.693  29.733  1.00  0.00    -0.237 OA
ATOM     74  O   UNL A   1      34.802  35.271  28.334  1.00  0.00    -0.744 OA
ENDBRANCH  68  71
ENDBRANCH  50  64
BRANCH  51  75
ATOM     75  C   UNL A   1      45.352  27.358  29.335  1.00  0.00     0.023 A 
ATOM     76  C   UNL A   1      45.764  26.067  29.752  1.00  0.00     0.012 A 
ATOM     77  C   UNL A   1      45.127  27.582  27.966  1.00  0.00     0.148 A 
ATOM     78  C   UNL A   1      45.786  24.996  28.856  1.00  0.00     0.002 A 
ATOM     79  C   UNL A   1      45.172  26.512  27.074  1.00  0.00     0.091 A 
ATOM     80  F   UNL A   1      44.789  28.813  27.561  1.00  0.00    -0.205 F 
ATOM     81  C   UNL A   1      45.451  25.212  27.525  1.00  0.00     0.022 A 
BRANCH  79  82
ATOM     82  S   UNL A   1      44.756  26.729  25.338  1.00  0.00     0.127 S 
ATOM     83  O   UNL A   1      45.882  27.530  24.868  1.00  0.00    -0.237 OA
ATOM     84  O   UNL A   1      44.727  25.354  24.843  1.00  0.00    -0.237 OA
ATOM     85  O   UNL A   1      43.456  27.385  25.350  1.00  0.00    -0.744 OA
ENDBRANCH  79  82
ENDBRANCH  51  75
BRANCH  63  86
ATOM     86  C   UNL A   1      43.400  34.330  30.313  1.00  0.00     0.023 A 
ATOM     87  C   UNL A   1      43.389  35.372  31.262  1.00  0.00     0.012 A 
ATOM     88  C   UNL A   1      43.515  34.735  28.952  1.00  0.00     0.148 A 
ATOM     89  C   UNL A   1      43.632  36.707  30.910  1.00  0.00     0.002 A 
ATOM     90  C   UNL A   1      43.728  36.065  28.599  1.00  0.00     0.091 A 
ATOM     91  F   UNL A   1      43.370  33.840  27.971  1.00  0.00    -0.205 F 
ATOM     92  C   UNL A   1      43.822  37.052  29.581  1.00  0.00     0.022 A 
BRANCH  90  93
ATOM     93  S   UNL A   1      43.858  36.601  26.884  1.00  0.00     0.127 S 
ATOM     94  O   UNL A   1      44.016  38.046  27.041  1.00  0.00    -0.237 OA
ATOM     95  O   UNL A   1      45.064  35.900  26.440  1.00  0.00    -0.237 OA
ATOM     96  O   UNL A   1      42.632  36.175  26.227  1.00  0.00    -0.744 OA
ENDBRANCH  90  93
ENDBRANCH  63  86
ENDBRANCH  37  38
ENDBRANCH  29  32
ENDBRANCH  27  28
ENDBRANCH  26  27
ENDBRANCH   1  26
TORSDOF 17
ENDMDL
MODEL 3
REMARK VINA RESULT:     -11.7      2.139      3.430
REMARK SMILES Cc1ccc(Nc2c(Cl)cc(Cl)cc2Cl)c(CC(=O)NCCCCNC(=O)c2ccc(-c3c4nc(c(-c5cccc(S(=O)(=O)[O-])c5F)c5ccc([nH]5)c(-c5cccc(S(=O)(=O)[O-])c5F)c5nc(c(-c6cccc(S(=O)(=O)[O-])c6F)c6ccc3[nH]6)C=C5)C=C4)cc2)c1
REMARK SMILES IDX 22 1 21 2 20 3 18 4 19 5 17 7 16 8 1 9 2 10 3 11 91 12 4 13
REMARK SMILES IDX 5 14 6 15 7 17 8 18 14 19 9 20 10 21 13 22 15 23 11 24 12 25
REMARK SMILES IDX 23 26 24 27 25 28 26 29 27 31 28 32 29 33 90 34 30 35 89 36
REMARK SMILES IDX 31 37 32 38 33 39 83 40 34 41 88 42 82 43 84 44 35 45 87 46
REMARK SMILES IDX 81 47 80 48 36 50 68 51 48 52 67 53 49 54 52 55 66 56 85 57
REMARK SMILES IDX 50 58 51 59 65 61 86 62 53 63 37 64 38 65 46 66 39 67 41 68
REMARK SMILES IDX 47 69 40 70 42 71 43 72 44 73 45 74 69 75 70 76 78 77 71 78
REMARK SMILES IDX 73 79 79 80 72 81 74 82 75 83 76 84 77 85 54 86 55 87 63 88
REMARK SMILES IDX 56 89 58 90 64 91 57 92 59 93 60 94 61 95 62 96
REMARK H PARENT 20 6 6 16 25 30 84 49 52 60
REMARK Flexibility Score: inf
ROOT
ATOM      1  C   UNL A   1      36.842  22.752  24.953  1.00  0.00     0.023 C 
ENDROOT
BRANCH   1   2
ATOM      2  C   UNL A   1      36.026  23.674  25.874  1.00  0.00     0.116 C 
BRANCH   2   3
ATOM      3  N   UNL A   1      35.227  22.949  26.851  1.00  0.00    -0.356 N 
ATOM      4  C   UNL A   1      33.901  23.057  27.146  1.00  0.00     0.224 C 
ATOM      5  O   UNL A   1      33.457  22.450  28.125  1.00  0.00    -0.275 OA
ATOM      6  H   UNL A   1      35.720  22.281  27.379  1.00  0.00     0.163 HD
BRANCH   4   7
ATOM      7  C   UNL A   1      32.981  23.938  26.322  1.00  0.00     0.137 C 
BRANCH   7   8
ATOM      8  C   UNL A   1      32.731  23.403  24.930  1.00  0.00    -0.015 A 
ATOM      9  C   UNL A   1      32.392  19.905  23.429  1.00  0.00     0.044 C 
ATOM     10  C   UNL A   1      32.467  21.397  23.551  1.00  0.00    -0.051 A 
ATOM     11  C   UNL A   1      32.558  22.193  22.412  1.00  0.00     0.005 A 
ATOM     12  C   UNL A   1      32.512  22.013  24.803  1.00  0.00     0.009 A 
ATOM     13  C   UNL A   1      32.708  23.579  22.525  1.00  0.00     0.026 A 
ATOM     14  C   UNL A   1      32.811  24.213  23.776  1.00  0.00     0.042 A 
BRANCH  14  15
ATOM     15  N   UNL A   1      32.965  25.616  23.874  1.00  0.00    -0.353 N 
ATOM     16  H   UNL A   1      33.819  25.923  24.257  1.00  0.00     0.167 HD
BRANCH  15  17
ATOM     17  C   UNL A   1      32.061  26.641  23.499  1.00  0.00     0.076 A 
ATOM     18  C   UNL A   1      32.482  27.865  22.939  1.00  0.00     0.067 A 
ATOM     19  C   UNL A   1      30.684  26.489  23.770  1.00  0.00     0.067 A 
ATOM     20  Cl  UNL A   1      34.121  28.140  22.448  1.00  0.00    -0.082 Cl
ATOM     21  C   UNL A   1      31.572  28.900  22.698  1.00  0.00     0.043 A 
ATOM     22  C   UNL A   1      29.772  27.519  23.522  1.00  0.00     0.043 A 
ATOM     23  Cl  UNL A   1      30.065  25.027  24.460  1.00  0.00    -0.082 Cl
ATOM     24  C   UNL A   1      30.226  28.723  22.998  1.00  0.00     0.044 A 
ATOM     25  Cl  UNL A   1      29.115  30.006  22.714  1.00  0.00    -0.084 Cl
ENDBRANCH  15  17
ENDBRANCH  14  15
ENDBRANCH   7   8
ENDBRANCH   4   7
ENDBRANCH   2   3
ENDBRANCH   1   2
BRANCH   1  26
ATOM     26  C   UNL A   1      37.716  21.713  25.654  1.00  0.00     0.023 C 
BRANCH  26  27
ATOM     27  C   UNL A   1      39.202  21.984  25.520  1.00  0.00     0.116 C 
BRANCH  27  28
ATOM     28  N   UNL A   1      39.957  21.756  26.739  1.00  0.00    -0.352 N 
ATOM     29  C   UNL A   1      40.663  22.655  27.518  1.00  0.00     0.251 C 
ATOM     30  H   UNL A   1      39.968  20.825  27.059  1.00  0.00     0.163 HD
ATOM     31  O   UNL A   1      41.434  22.213  28.367  1.00  0.00    -0.269 OA
BRANCH  29  32
ATOM     32  C   UNL A   1      40.364  24.111  27.442  1.00  0.00     0.039 A 
ATOM     33  C   UNL A   1      41.354  24.940  26.896  1.00  0.00     0.014 A 
ATOM     34  C   UNL A   1      39.304  24.675  28.144  1.00  0.00     0.014 A 
ATOM     35  C   UNL A   1      41.456  26.261  27.321  1.00  0.00     0.010 A 
ATOM     36  C   UNL A   1      39.453  25.946  28.648  1.00  0.00     0.010 A 
ATOM     37  C   UNL A   1      40.581  26.697  28.304  1.00  0.00    -0.014 A 
BRANCH  37  38
ATOM     38  C   UNL A   1      40.761  27.890  29.107  1.00  0.00     0.031 A 
ATOM     39  C   UNL A   1      39.850  29.028  28.932  1.00  0.00     0.074 A 
ATOM     40  C   UNL A   1      41.577  27.804  30.183  1.00  0.00     0.049 A 
ATOM     41  N   UNL A   1      39.995  30.143  29.557  1.00  0.00    -0.248 NA
ATOM     42  C   UNL A   1      38.711  29.016  28.018  1.00  0.00     0.031 C 
ATOM     43  C   UNL A   1      41.563  28.627  31.387  1.00  0.00     0.029 A 
ATOM     44  N   UNL A   1      42.756  27.059  30.302  1.00  0.00    -0.354 N 
ATOM     45  C   UNL A   1      38.813  30.824  29.419  1.00  0.00     0.074 A 
ATOM     46  C   UNL A   1      38.124  30.175  28.334  1.00  0.00     0.031 C 
ATOM     47  C   UNL A   1      42.774  28.568  31.963  1.00  0.00     0.029 A 
ATOM     48  C   UNL A   1      43.643  27.875  31.030  1.00  0.00     0.049 A 
ATOM     49  H   UNL A   1      42.929  26.156  29.951  1.00  0.00     0.167 HD
ATOM     50  C   UNL A   1      38.497  31.751  30.361  1.00  0.00     0.034 A 
ATOM     51  C   UNL A   1      44.786  28.394  30.486  1.00  0.00     0.034 A 
ATOM     52  C   UNL A   1      39.666  32.088  31.189  1.00  0.00     0.049 A 
ATOM     53  C   UNL A   1      44.814  29.923  30.474  1.00  0.00     0.074 A 
ATOM     54  C   UNL A   1      40.043  31.880  32.504  1.00  0.00     0.029 A 
ATOM     55  N   UNL A   1      40.806  32.545  30.540  1.00  0.00    -0.354 N 
ATOM     56  N   UNL A   1      43.909  30.701  31.009  1.00  0.00    -0.248 NA
ATOM     57  C   UNL A   1      45.834  30.688  29.760  1.00  0.00     0.031 C 
ATOM     58  C   UNL A   1      41.446  32.153  32.612  1.00  0.00     0.029 A 
ATOM     59  C   UNL A   1      41.907  32.581  31.379  1.00  0.00     0.049 A 
ATOM     60  H   UNL A   1      40.829  32.813  29.592  1.00  0.00     0.167 HD
ATOM     61  C   UNL A   1      44.097  31.997  30.584  1.00  0.00     0.074 A 
ATOM     62  C   UNL A   1      45.342  31.935  29.833  1.00  0.00     0.031 C 
ATOM     63  C   UNL A   1      43.186  33.001  30.809  1.00  0.00     0.034 A 
BRANCH  50  64
ATOM     64  C   UNL A   1      37.100  32.274  30.621  1.00  0.00     0.023 A 
ATOM     65  C   UNL A   1      36.560  32.068  31.908  1.00  0.00     0.012 A 
ATOM     66  C   UNL A   1      36.234  32.868  29.667  1.00  0.00     0.148 A 
ATOM     67  C   UNL A   1      35.246  32.431  32.233  1.00  0.00     0.002 A 
ATOM     68  C   UNL A   1      34.951  33.304  30.014  1.00  0.00     0.091 A 
ATOM     69  F   UNL A   1      36.585  32.920  28.378  1.00  0.00    -0.205 F 
ATOM     70  C   UNL A   1      34.449  33.072  31.295  1.00  0.00     0.022 A 
BRANCH  68  71
ATOM     71  S   UNL A   1      33.902  34.205  28.858  1.00  0.00     0.127 S 
ATOM     72  O   UNL A   1      32.843  34.712  29.730  1.00  0.00    -0.237 OA
ATOM     73  O   UNL A   1      34.807  35.233  28.340  1.00  0.00    -0.237 OA
ATOM     74  O   UNL A   1      33.479  33.230  27.859  1.00  0.00    -0.744 OA
ENDBRANCH  68  71
ENDBRANCH  50  64
BRANCH  51  75
ATOM     75  C   UNL A   1      45.383  27.503  29.439  1.00  0.00     0.023 A 
ATOM     76  C   UNL A   1      45.808  26.218  29.861  1.00  0.00     0.012 A 
ATOM     77  C   UNL A   1      45.159  27.721  28.069  1.00  0.00     0.148 A 
ATOM     78  C   UNL A   1      45.843  25.145  28.968  1.00  0.00     0.002 A 
ATOM     79  C   UNL A   1      45.218  26.648  27.179  1.00  0.00     0.091 A 
ATOM     80  F   UNL A   1      44.809  28.946  27.659  1.00  0.00    -0.205 F 
ATOM     81  C   UNL A   1      45.510  25.353  27.635  1.00  0.00     0.022 A 
BRANCH  79  82
ATOM     82  S   UNL A   1      44.803  26.856  25.442  1.00  0.00     0.127 S 
ATOM     83  O   UNL A   1      43.823  27.936  25.505  1.00  0.00    -0.237 OA
ATOM     84  O   UNL A   1      46.089  27.223  24.850  1.00  0.00    -0.237 OA
ATOM     85  O   UNL A   1      44.305  25.554  25.024  1.00  0.00    -0.744 OA
ENDBRANCH  79  82
ENDBRANCH  51  75
BRANCH  63  86
ATOM     86  C   UNL A   1      43.381  34.464  30.400  1.00  0.00     0.023 A 
ATOM     87  C   UNL A   1      43.548  35.484  31.358  1.00  0.00     0.012 A 
ATOM     88  C   UNL A   1      43.313  34.895  29.044  1.00  0.00     0.148 A 
ATOM     89  C   UNL A   1      43.789  36.817  30.998  1.00  0.00     0.002 A 
ATOM     90  C   UNL A   1      43.522  36.225  28.687  1.00  0.00     0.091 A 
ATOM     91  F   UNL A   1      42.992  34.029  28.080  1.00  0.00    -0.205 F 
ATOM     92  C   UNL A   1      43.796  37.185  29.662  1.00  0.00     0.022 A 
BRANCH  90  93
ATOM     93  S   UNL A   1      43.422  36.794  26.981  1.00  0.00     0.127 S 
ATOM     94  O   UNL A   1      44.077  35.698  26.269  1.00  0.00    -0.237 OA
ATOM     95  O   UNL A   1      41.975  36.878  26.775  1.00  0.00    -0.237 OA
ATOM     96  O   UNL A   1      44.116  38.072  26.934  1.00  0.00    -0.744 OA
ENDBRANCH  90  93
ENDBRANCH  63  86
ENDBRANCH  37  38
ENDBRANCH  29  32
ENDBRANCH  27  28
ENDBRANCH  26  27
ENDBRANCH   1  26
TORSDOF 17
ENDMDL
