MODEL 1
REMARK VINA RESULT:     -11.9      0.000      0.000
REMARK SMILES O=C(NCCCCNC(=O)[C@@H]1C=C[C@H](NS(=O)(=O)c2ccc(Cl)cc2)C1)c1ccc(-c2c3nc(c(-c4cccc(S(=O)(=O)[O-])c4F)c4ccc([nH]4)c(-c4cccc(S(=O)(=O)[O-])c4F)c4nc(c(-c5cccc(S(=O)(=O)[O-])c5F)c5ccc2[nH]5)C=C4)C=C3)cc1
REMARK SMILES IDX 5 1 4 2 3 3 1 4 2 5 27 7 28 8 89 9 29 10 88 11 30 12 31 13
REMARK SMILES IDX 32 14 82 15 33 16 87 17 81 18 83 19 34 20 86 21 80 22 79 23
REMARK SMILES IDX 35 25 67 26 47 27 66 28 48 29 51 30 65 31 84 32 49 33 50 34
REMARK SMILES IDX 64 36 85 37 52 38 36 39 37 40 45 41 38 42 40 43 46 44 39 45
REMARK SMILES IDX 41 46 42 47 43 48 44 49 68 50 69 51 77 52 70 53 72 54 78 55
REMARK SMILES IDX 71 56 73 57 74 58 75 59 76 60 53 61 54 62 62 63 55 64 57 65
REMARK SMILES IDX 63 66 56 67 58 68 59 69 60 70 61 71 6 72 7 73 8 74 9 75
REMARK SMILES IDX 10 77 11 78 12 79 26 80 13 81 14 82 15 83 16 85 17 86 18 87
REMARK SMILES IDX 19 88 20 89 25 90 21 91 24 92 22 93 23 94
REMARK H PARENT 3 6 83 24 51 35 8 76 15 84
REMARK Flexibility Score: inf
ROOT
ATOM      1  C   UNL A   1      35.322  22.332  26.272  1.00  0.00     0.023 C 
ENDROOT
BRANCH   1   2
ATOM      2  C   UNL A   1      36.359  22.248  25.158  1.00  0.00     0.116 C 
BRANCH   2   3
ATOM      3  N   UNL A   1      37.290  21.141  25.337  1.00  0.00    -0.352 N 
ATOM      4  O   UNL A   1      39.267  20.126  25.706  1.00  0.00    -0.269 OA
ATOM      5  C   UNL A   1      38.586  21.144  25.801  1.00  0.00     0.251 C 
ATOM      6  H   UNL A   1      36.938  20.256  25.089  1.00  0.00     0.163 HD
BRANCH   5   7
ATOM      7  C   UNL A   1      39.159  22.380  26.377  1.00  0.00     0.039 A 
ATOM      8  C   UNL A   1      38.672  23.628  25.989  1.00  0.00     0.014 A 
ATOM      9  C   UNL A   1      40.211  22.294  27.292  1.00  0.00     0.014 A 
ATOM     10  C   UNL A   1      39.361  24.778  26.351  1.00  0.00     0.010 A 
ATOM     11  C   UNL A   1      40.834  23.463  27.744  1.00  0.00     0.010 A 
ATOM     12  C   UNL A   1      40.452  24.713  27.234  1.00  0.00    -0.014 A 
BRANCH  12  13
ATOM     13  C   UNL A   1      41.145  25.971  27.619  1.00  0.00     0.031 A 
ATOM     14  C   UNL A   1      42.564  26.246  27.195  1.00  0.00     0.074 A 
ATOM     15  C   UNL A   1      40.470  26.890  28.339  1.00  0.00     0.049 A 
ATOM     16  N   UNL A   1      43.290  27.317  27.398  1.00  0.00    -0.248 NA
ATOM     17  C   UNL A   1      43.268  25.185  26.455  1.00  0.00     0.031 C 
ATOM     18  C   UNL A   1      39.103  26.726  28.842  1.00  0.00     0.029 A 
ATOM     19  N   UNL A   1      40.830  28.142  28.766  1.00  0.00    -0.354 N 
ATOM     20  C   UNL A   1      44.542  27.044  26.860  1.00  0.00     0.074 A 
ATOM     21  C   UNL A   1      44.483  25.701  26.325  1.00  0.00     0.031 C 
ATOM     22  C   UNL A   1      38.726  27.849  29.470  1.00  0.00     0.029 A 
ATOM     23  C   UNL A   1      39.842  28.786  29.473  1.00  0.00     0.049 A 
ATOM     24  H   UNL A   1      41.711  28.542  28.583  1.00  0.00     0.167 HD
ATOM     25  C   UNL A   1      45.638  27.840  26.806  1.00  0.00     0.034 A 
ATOM     26  C   UNL A   1      39.834  29.991  30.072  1.00  0.00     0.034 A 
ATOM     27  C   UNL A   1      45.682  29.189  27.312  1.00  0.00     0.049 A 
ATOM     28  C   UNL A   1      41.057  30.857  29.979  1.00  0.00     0.074 A 
ATOM     29  C   UNL A   1      46.722  30.100  27.241  1.00  0.00     0.029 A 
ATOM     30  N   UNL A   1      44.651  29.815  27.995  1.00  0.00    -0.354 N 
ATOM     31  N   UNL A   1      42.187  30.625  29.358  1.00  0.00    -0.248 NA
ATOM     32  C   UNL A   1      40.990  32.166  30.644  1.00  0.00     0.031 C 
ATOM     33  C   UNL A   1      46.335  31.261  27.918  1.00  0.00     0.029 A 
ATOM     34  C   UNL A   1      45.035  31.094  28.366  1.00  0.00     0.049 A 
ATOM     35  H   UNL A   1      43.774  29.411  28.189  1.00  0.00     0.167 HD
ATOM     36  C   UNL A   1      42.951  31.775  29.519  1.00  0.00     0.074 A 
ATOM     37  C   UNL A   1      42.145  32.707  30.280  1.00  0.00     0.031 C 
ATOM     38  C   UNL A   1      44.208  32.032  29.080  1.00  0.00     0.034 A 
BRANCH  25  39
ATOM     39  C   UNL A   1      46.887  27.285  26.167  1.00  0.00     0.023 A 
ATOM     40  C   UNL A   1      47.145  27.515  24.800  1.00  0.00     0.012 A 
ATOM     41  C   UNL A   1      47.840  26.589  26.940  1.00  0.00     0.148 A 
ATOM     42  C   UNL A   1      48.311  27.030  24.205  1.00  0.00     0.002 A 
ATOM     43  C   UNL A   1      49.021  26.152  26.351  1.00  0.00     0.091 A 
ATOM     44  F   UNL A   1      47.572  26.364  28.234  1.00  0.00    -0.205 F 
ATOM     45  C   UNL A   1      49.251  26.359  24.981  1.00  0.00     0.022 A 
BRANCH  43  46
ATOM     46  S   UNL A   1      50.332  25.354  27.283  1.00  0.00     0.127 S 
ATOM     47  O   UNL A   1      51.304  25.058  26.232  1.00  0.00    -0.237 OA
ATOM     48  O   UNL A   1      50.739  26.412  28.209  1.00  0.00    -0.237 OA
ATOM     49  O   UNL A   1      49.726  24.192  27.918  1.00  0.00    -0.744 OA
ENDBRANCH  43  46
ENDBRANCH  25  39
BRANCH  26  50
ATOM     50  C   UNL A   1      38.610  30.463  30.778  1.00  0.00     0.023 A 
ATOM     51  C   UNL A   1      38.479  30.248  32.163  1.00  0.00     0.012 A 
ATOM     52  C   UNL A   1      37.588  31.145  30.088  1.00  0.00     0.148 A 
ATOM     53  C   UNL A   1      37.336  30.671  32.842  1.00  0.00     0.002 A 
ATOM     54  C   UNL A   1      36.482  31.617  30.781  1.00  0.00     0.091 A 
ATOM     55  F   UNL A   1      37.730  31.333  28.768  1.00  0.00    -0.205 F 
ATOM     56  C   UNL A   1      36.343  31.363  32.154  1.00  0.00     0.022 A 
BRANCH  54  57
ATOM     57  S   UNL A   1      35.221  32.633  30.005  1.00  0.00     0.127 S 
ATOM     58  O   UNL A   1      34.671  31.716  29.010  1.00  0.00    -0.237 OA
ATOM     59  O   UNL A   1      34.336  32.925  31.132  1.00  0.00    -0.237 OA
ATOM     60  O   UNL A   1      35.922  33.794  29.474  1.00  0.00    -0.744 OA
ENDBRANCH  54  57
ENDBRANCH  26  50
BRANCH  38  61
ATOM     61  C   UNL A   1      44.772  33.401  29.357  1.00  0.00     0.023 A 
ATOM     62  C   UNL A   1      45.481  33.654  30.547  1.00  0.00     0.012 A 
ATOM     63  C   UNL A   1      44.635  34.430  28.403  1.00  0.00     0.148 A 
ATOM     64  C   UNL A   1      46.005  34.922  30.805  1.00  0.00     0.002 A 
ATOM     65  C   UNL A   1      45.208  35.672  28.640  1.00  0.00     0.091 A 
ATOM     66  F   UNL A   1      43.939  34.177  27.285  1.00  0.00    -0.205 F 
ATOM     67  C   UNL A   1      45.879  35.926  29.848  1.00  0.00     0.022 A 
BRANCH  65  68
ATOM     68  S   UNL A   1      45.184  36.990  27.420  1.00  0.00     0.127 S 
ATOM     69  O   UNL A   1      45.844  38.076  28.142  1.00  0.00    -0.237 OA
ATOM     70  O   UNL A   1      45.970  36.416  26.327  1.00  0.00    -0.237 OA
ATOM     71  O   UNL A   1      43.780  37.213  27.100  1.00  0.00    -0.744 OA
ENDBRANCH  65  68
ENDBRANCH  38  61
ENDBRANCH  12  13
ENDBRANCH   5   7
ENDBRANCH   2   3
ENDBRANCH   1   2
BRANCH   1  72
ATOM     72  C   UNL A   1      34.022  23.056  25.900  1.00  0.00     0.023 C 
BRANCH  72  73
ATOM     73  C   UNL A   1      34.057  24.576  26.079  1.00  0.00     0.116 C 
BRANCH  73  74
ATOM     74  N   UNL A   1      32.716  25.116  26.108  1.00  0.00    -0.356 N 
ATOM     75  C   UNL A   1      32.238  26.329  26.495  1.00  0.00     0.226 C 
ATOM     76  H   UNL A   1      32.023  24.494  25.788  1.00  0.00     0.163 HD
ATOM     77  O   UNL A   1      31.015  26.384  26.648  1.00  0.00    -0.274 OA
BRANCH  75  78
ATOM     78  C   UNL A   1      33.171  27.547  26.696  1.00  0.00     0.103 C 
ATOM     79  C   UNL A   1      32.370  28.626  27.373  1.00  0.00    -0.016 C 
ATOM     80  C   UNL A   1      33.577  28.323  25.420  1.00  0.00     0.042 C 
ATOM     81  C   UNL A   1      31.915  29.522  26.481  1.00  0.00    -0.011 C 
ATOM     82  C   UNL A   1      32.384  29.222  25.078  1.00  0.00     0.093 C 
BRANCH  82  83
ATOM     83  N   UNL A   1      31.310  28.519  24.376  1.00  0.00    -0.204 NA
ATOM     84  H   UNL A   1      30.495  29.131  24.417  1.00  0.00     0.142 HD
BRANCH  83  85
ATOM     85  S   UNL A   1      31.453  28.037  22.777  1.00  0.00     0.241 S 
ATOM     86  O   UNL A   1      30.157  28.275  22.186  1.00  0.00    -0.207 OA
ATOM     87  O   UNL A   1      32.661  28.618  22.226  1.00  0.00    -0.207 OA
BRANCH  85  88
ATOM     88  C   UNL A   1      31.689  26.265  22.819  1.00  0.00     0.082 A 
ATOM     89  C   UNL A   1      32.915  25.709  22.471  1.00  0.00     0.023 A 
ATOM     90  C   UNL A   1      30.649  25.413  23.199  1.00  0.00     0.023 A 
ATOM     91  C   UNL A   1      33.134  24.334  22.484  1.00  0.00     0.022 A 
ATOM     92  C   UNL A   1      30.858  24.023  23.207  1.00  0.00     0.022 A 
ATOM     93  C   UNL A   1      32.099  23.491  22.849  1.00  0.00     0.041 A 
ATOM     94  Cl  UNL A   1      32.367  21.795  22.852  1.00  0.00    -0.084 Cl
ENDBRANCH  85  88
ENDBRANCH  83  85
ENDBRANCH  82  83
ENDBRANCH  75  78
ENDBRANCH  73  74
ENDBRANCH  72  73
ENDBRANCH   1  72
TORSDOF 17
ENDMDL
MODEL 2
REMARK VINA RESULT:     -11.7      4.836      9.900
REMARK SMILES O=C(NCCCCNC(=O)[C@@H]1C=C[C@H](NS(=O)(=O)c2ccc(Cl)cc2)C1)c1ccc(-c2c3nc(c(-c4cccc(S(=O)(=O)[O-])c4F)c4ccc([nH]4)c(-c4cccc(S(=O)(=O)[O-])c4F)c4nc(c(-c5cccc(S(=O)(=O)[O-])c5F)c5ccc2[nH]5)C=C4)C=C3)cc1
REMARK SMILES IDX 5 1 4 2 3 3 1 4 2 5 27 7 28 8 89 9 29 10 88 11 30 12 31 13
REMARK SMILES IDX 32 14 82 15 33 16 87 17 81 18 83 19 34 20 86 21 80 22 79 23
REMARK SMILES IDX 35 25 67 26 47 27 66 28 48 29 51 30 65 31 84 32 49 33 50 34
REMARK SMILES IDX 64 36 85 37 52 38 36 39 37 40 45 41 38 42 40 43 46 44 39 45
REMARK SMILES IDX 41 46 42 47 43 48 44 49 68 50 69 51 77 52 70 53 72 54 78 55
REMARK SMILES IDX 71 56 73 57 74 58 75 59 76 60 53 61 54 62 62 63 55 64 57 65
REMARK SMILES IDX 63 66 56 67 58 68 59 69 60 70 61 71 6 72 7 73 8 74 9 75
REMARK SMILES IDX 10 77 11 78 12 79 26 80 13 81 14 82 15 83 16 85 17 86 18 87
REMARK SMILES IDX 19 88 20 89 25 90 21 91 24 92 22 93 23 94
REMARK H PARENT 3 6 83 24 51 35 8 76 15 84
REMARK Flexibility Score: inf
ROOT
ATOM      1  C   UNL A   1      32.076  28.709  24.545  1.00  0.00     0.023 C 
ENDROOT
BRANCH   1   2
ATOM      2  C   UNL A   1      32.993  29.231  25.646  1.00  0.00     0.116 C 
BRANCH   2   3
ATOM      3  N   UNL A   1      32.611  30.557  26.115  1.00  0.00    -0.352 N 
ATOM      4  O   UNL A   1      32.624  32.376  27.443  1.00  0.00    -0.269 OA
ATOM      5  C   UNL A   1      33.205  31.366  27.057  1.00  0.00     0.251 C 
ATOM      6  H   UNL A   1      31.804  30.932  25.693  1.00  0.00     0.163 HD
BRANCH   5   7
ATOM      7  C   UNL A   1      34.521  30.994  27.622  1.00  0.00     0.039 A 
ATOM      8  C   UNL A   1      34.786  29.670  27.974  1.00  0.00     0.014 A 
ATOM      9  C   UNL A   1      35.490  31.980  27.827  1.00  0.00     0.014 A 
ATOM     10  C   UNL A   1      35.923  29.370  28.712  1.00  0.00     0.010 A 
ATOM     11  C   UNL A   1      36.687  31.650  28.472  1.00  0.00     0.010 A 
ATOM     12  C   UNL A   1      36.891  30.355  28.972  1.00  0.00    -0.014 A 
BRANCH  12  13
ATOM     13  C   UNL A   1      38.109  29.986  29.741  1.00  0.00     0.031 A 
ATOM     14  C   UNL A   1      38.322  30.468  31.152  1.00  0.00     0.074 A 
ATOM     15  C   UNL A   1      39.021  29.178  29.163  1.00  0.00     0.049 A 
ATOM     16  N   UNL A   1      39.299  30.189  31.977  1.00  0.00    -0.248 NA
ATOM     17  C   UNL A   1      37.318  31.390  31.711  1.00  0.00     0.031 C 
ATOM     18  C   UNL A   1      38.947  28.673  27.789  1.00  0.00     0.029 A 
ATOM     19  N   UNL A   1      40.180  28.632  29.653  1.00  0.00    -0.354 N 
ATOM     20  C   UNL A   1      39.059  30.932  33.128  1.00  0.00     0.074 A 
ATOM     21  C   UNL A   1      37.843  31.682  32.894  1.00  0.00     0.031 C 
ATOM     22  C   UNL A   1      39.989  27.860  27.561  1.00  0.00     0.029 A 
ATOM     23  C   UNL A   1      40.837  27.836  28.745  1.00  0.00     0.049 A 
ATOM     24  H   UNL A   1      40.508  28.794  30.567  1.00  0.00     0.167 HD
ATOM     25  C   UNL A   1      39.775  30.978  34.278  1.00  0.00     0.034 A 
ATOM     26  C   UNL A   1      42.003  27.169  28.844  1.00  0.00     0.034 A 
ATOM     27  C   UNL A   1      40.967  30.205  34.518  1.00  0.00     0.049 A 
ATOM     28  C   UNL A   1      42.765  27.226  30.137  1.00  0.00     0.074 A 
ATOM     29  C   UNL A   1      41.724  30.128  35.673  1.00  0.00     0.029 A 
ATOM     30  N   UNL A   1      41.585  29.387  33.584  1.00  0.00    -0.354 N 
ATOM     31  N   UNL A   1      42.452  27.836  31.253  1.00  0.00    -0.248 NA
ATOM     32  C   UNL A   1      44.025  26.472  30.193  1.00  0.00     0.031 C 
ATOM     33  C   UNL A   1      42.823  29.298  35.425  1.00  0.00     0.029 A 
ATOM     34  C   UNL A   1      42.723  28.816  34.131  1.00  0.00     0.049 A 
ATOM     35  H   UNL A   1      41.264  29.235  32.665  1.00  0.00     0.167 HD
ATOM     36  C   UNL A   1      43.454  27.507  32.158  1.00  0.00     0.074 A 
ATOM     37  C   UNL A   1      44.371  26.628  31.463  1.00  0.00     0.031 C 
ATOM     38  C   UNL A   1      43.602  27.903  33.447  1.00  0.00     0.034 A 
BRANCH  25  39
ATOM     39  C   UNL A   1      39.290  31.888  35.379  1.00  0.00     0.023 A 
ATOM     40  C   UNL A   1      38.379  31.409  36.342  1.00  0.00     0.012 A 
ATOM     41  C   UNL A   1      39.792  33.200  35.498  1.00  0.00     0.148 A 
ATOM     42  C   UNL A   1      37.945  32.233  37.382  1.00  0.00     0.002 A 
ATOM     43  C   UNL A   1      39.392  33.998  36.565  1.00  0.00     0.091 A 
ATOM     44  F   UNL A   1      40.645  33.645  34.566  1.00  0.00    -0.205 F 
ATOM     45  C   UNL A   1      38.458  33.521  37.498  1.00  0.00     0.022 A 
BRANCH  43  46
ATOM     46  S   UNL A   1      40.061  35.640  36.851  1.00  0.00     0.127 S 
ATOM     47  O   UNL A   1      39.568  36.368  35.683  1.00  0.00    -0.237 OA
ATOM     48  O   UNL A   1      39.426  36.015  38.115  1.00  0.00    -0.237 OA
ATOM     49  O   UNL A   1      41.507  35.480  36.922  1.00  0.00    -0.744 OA
ENDBRANCH  43  46
ENDBRANCH  25  39
BRANCH  26  50
ATOM     50  C   UNL A   1      42.496  26.359  27.696  1.00  0.00     0.023 A 
ATOM     51  C   UNL A   1      43.405  26.926  26.784  1.00  0.00     0.012 A 
ATOM     52  C   UNL A   1      42.088  25.022  27.519  1.00  0.00     0.148 A 
ATOM     53  C   UNL A   1      43.871  26.190  25.694  1.00  0.00     0.002 A 
ATOM     54  C   UNL A   1      42.602  24.276  26.468  1.00  0.00     0.091 A 
ATOM     55  F   UNL A   1      41.216  24.504  28.396  1.00  0.00    -0.205 F 
ATOM     56  C   UNL A   1      43.479  24.863  25.542  1.00  0.00     0.022 A 
BRANCH  54  57
ATOM     57  S   UNL A   1      42.257  22.524  26.271  1.00  0.00     0.127 S 
ATOM     58  O   UNL A   1      40.798  22.512  26.220  1.00  0.00    -0.237 OA
ATOM     59  O   UNL A   1      42.923  22.228  25.002  1.00  0.00    -0.237 OA
ATOM     60  O   UNL A   1      42.854  21.872  27.429  1.00  0.00    -0.744 OA
ENDBRANCH  54  57
ENDBRANCH  26  50
BRANCH  38  61
ATOM     61  C   UNL A   1      44.768  27.338  34.215  1.00  0.00     0.023 A 
ATOM     62  C   UNL A   1      46.007  28.010  34.229  1.00  0.00     0.012 A 
ATOM     63  C   UNL A   1      44.616  26.155  34.967  1.00  0.00     0.148 A 
ATOM     64  C   UNL A   1      47.088  27.488  34.940  1.00  0.00     0.002 A 
ATOM     65  C   UNL A   1      45.679  25.673  35.719  1.00  0.00     0.091 A 
ATOM     66  F   UNL A   1      43.436  25.519  34.925  1.00  0.00    -0.205 F 
ATOM     67  C   UNL A   1      46.921  26.328  35.694  1.00  0.00     0.022 A 
BRANCH  65  68
ATOM     68  S   UNL A   1      45.523  24.247  36.798  1.00  0.00     0.127 S 
ATOM     69  O   UNL A   1      45.047  23.222  35.870  1.00  0.00    -0.237 OA
ATOM     70  O   UNL A   1      46.896  24.058  37.265  1.00  0.00    -0.237 OA
ATOM     71  O   UNL A   1      44.580  24.634  37.839  1.00  0.00    -0.744 OA
ENDBRANCH  65  68
ENDBRANCH  38  61
ENDBRANCH  12  13
ENDBRANCH   5   7
ENDBRANCH   2   3
ENDBRANCH   1   2
BRANCH   1  72
ATOM     72  C   UNL A   1      32.666  27.586  23.683  1.00  0.00     0.023 C 
BRANCH  72  73
ATOM     73  C   UNL A   1      33.668  26.679  24.402  1.00  0.00     0.116 C 
BRANCH  73  74
ATOM     74  N   UNL A   1      33.933  25.492  23.620  1.00  0.00    -0.356 N 
ATOM     75  C   UNL A   1      34.826  24.480  23.787  1.00  0.00     0.226 C 
ATOM     76  H   UNL A   1      33.364  25.399  22.822  1.00  0.00     0.163 HD
ATOM     77  O   UNL A   1      34.983  23.754  22.801  1.00  0.00    -0.274 OA
BRANCH  75  78
ATOM     78  C   UNL A   1      35.560  24.253  25.130  1.00  0.00     0.103 C 
ATOM     79  C   UNL A   1      36.811  23.472  24.837  1.00  0.00    -0.016 C 
ATOM     80  C   UNL A   1      34.895  23.268  26.121  1.00  0.00     0.042 C 
ATOM     81  C   UNL A   1      36.631  22.162  25.078  1.00  0.00    -0.011 C 
ATOM     82  C   UNL A   1      35.255  21.865  25.624  1.00  0.00     0.093 C 
BRANCH  82  83
ATOM     83  N   UNL A   1      34.412  21.407  24.517  1.00  0.00    -0.204 NA
ATOM     84  H   UNL A   1      34.886  20.599  24.114  1.00  0.00     0.142 HD
BRANCH  83  85
ATOM     85  S   UNL A   1      32.815  20.951  24.740  1.00  0.00     0.241 S 
ATOM     86  O   UNL A   1      32.480  20.147  23.589  1.00  0.00    -0.207 OA
ATOM     87  O   UNL A   1      32.663  20.450  26.092  1.00  0.00    -0.207 OA
BRANCH  85  88
ATOM     88  C   UNL A   1      31.855  22.455  24.622  1.00  0.00     0.082 A 
ATOM     89  C   UNL A   1      31.507  23.161  25.768  1.00  0.00     0.023 A 
ATOM     90  C   UNL A   1      31.439  22.943  23.381  1.00  0.00     0.023 A 
ATOM     91  C   UNL A   1      30.754  24.331  25.716  1.00  0.00     0.022 A 
ATOM     92  C   UNL A   1      30.671  24.119  23.319  1.00  0.00     0.022 A 
ATOM     93  C   UNL A   1      30.333  24.806  24.487  1.00  0.00     0.041 A 
ATOM     94  Cl  UNL A   1      29.393  26.243  24.426  1.00  0.00    -0.084 Cl
ENDBRANCH  85  88
ENDBRANCH  83  85
ENDBRANCH  82  83
ENDBRANCH  75  78
ENDBRANCH  73  74
ENDBRANCH  72  73
ENDBRANCH   1  72
TORSDOF 17
ENDMDL
MODEL 3
REMARK VINA RESULT:     -11.6      5.076      9.943
REMARK SMILES O=C(NCCCCNC(=O)[C@@H]1C=C[C@H](NS(=O)(=O)c2ccc(Cl)cc2)C1)c1ccc(-c2c3nc(c(-c4cccc(S(=O)(=O)[O-])c4F)c4ccc([nH]4)c(-c4cccc(S(=O)(=O)[O-])c4F)c4nc(c(-c5cccc(S(=O)(=O)[O-])c5F)c5ccc2[nH]5)C=C4)C=C3)cc1
REMARK SMILES IDX 5 1 4 2 3 3 1 4 2 5 27 7 28 8 89 9 29 10 88 11 30 12 31 13
REMARK SMILES IDX 32 14 82 15 33 16 87 17 81 18 83 19 34 20 86 21 80 22 79 23
REMARK SMILES IDX 35 25 67 26 47 27 66 28 48 29 51 30 65 31 84 32 49 33 50 34
REMARK SMILES IDX 64 36 85 37 52 38 36 39 37 40 45 41 38 42 40 43 46 44 39 45
REMARK SMILES IDX 41 46 42 47 43 48 44 49 68 50 69 51 77 52 70 53 72 54 78 55
REMARK SMILES IDX 71 56 73 57 74 58 75 59 76 60 53 61 54 62 62 63 55 64 57 65
REMARK SMILES IDX 63 66 56 67 58 68 59 69 60 70 61 71 6 72 7 73 8 74 9 75
REMARK SMILES IDX 10 77 11 78 12 79 26 80 13 81 14 82 15 83 16 85 17 86 18 87
REMARK SMILES IDX 19 88 20 89 25 90 21 91 24 92 22 93 23 94
REMARK H PARENT 3 6 83 24 51 35 8 76 15 84
REMARK Flexibility Score: inf
ROOT
ATOM      1  C   UNL A   1      31.519  29.471  26.812  1.00  0.00     0.023 C 
ENDROOT
BRANCH   1   2
ATOM      2  C   UNL A   1      32.720  30.284  26.341  1.00  0.00     0.116 C 
BRANCH   2   3
ATOM      3  N   UNL A   1      32.618  31.695  26.692  1.00  0.00    -0.352 N 
ATOM      4  O   UNL A   1      33.076  33.598  27.806  1.00  0.00    -0.269 OA
ATOM      5  C   UNL A   1      33.435  32.468  27.486  1.00  0.00     0.251 C 
ATOM      6  H   UNL A   1      31.847  32.166  26.302  1.00  0.00     0.163 HD
BRANCH   5   7
ATOM      7  C   UNL A   1      34.720  31.921  27.973  1.00  0.00     0.039 A 
ATOM      8  C   UNL A   1      34.804  30.595  28.398  1.00  0.00     0.014 A 
ATOM      9  C   UNL A   1      35.846  32.747  28.032  1.00  0.00     0.014 A 
ATOM     10  C   UNL A   1      35.940  30.158  29.067  1.00  0.00     0.010 A 
ATOM     11  C   UNL A   1      37.028  32.266  28.606  1.00  0.00     0.010 A 
ATOM     12  C   UNL A   1      37.069  30.986  29.180  1.00  0.00    -0.014 A 
BRANCH  12  13
ATOM     13  C   UNL A   1      38.277  30.470  29.878  1.00  0.00     0.031 A 
ATOM     14  C   UNL A   1      38.575  30.842  31.307  1.00  0.00     0.074 A 
ATOM     15  C   UNL A   1      39.098  29.630  29.217  1.00  0.00     0.049 A 
ATOM     16  N   UNL A   1      39.552  30.431  32.076  1.00  0.00    -0.248 NA
ATOM     17  C   UNL A   1      37.671  31.804  31.960  1.00  0.00     0.031 C 
ATOM     18  C   UNL A   1      38.937  29.222  27.819  1.00  0.00     0.029 A 
ATOM     19  N   UNL A   1      40.222  28.960  29.629  1.00  0.00    -0.354 N 
ATOM     20  C   UNL A   1      39.413  31.115  33.278  1.00  0.00     0.074 A 
ATOM     21  C   UNL A   1      38.257  31.975  33.137  1.00  0.00     0.031 C 
ATOM     22  C   UNL A   1      39.898  28.343  27.501  1.00  0.00     0.029 A 
ATOM     23  C   UNL A   1      40.780  28.173  28.649  1.00  0.00     0.049 A 
ATOM     24  H   UNL A   1      40.593  29.035  30.537  1.00  0.00     0.167 HD
ATOM     25  C   UNL A   1      40.168  31.028  34.401  1.00  0.00     0.034 A 
ATOM     26  C   UNL A   1      41.888  27.409  28.662  1.00  0.00     0.034 A 
ATOM     27  C   UNL A   1      41.298  30.146  34.547  1.00  0.00     0.049 A 
ATOM     28  C   UNL A   1      42.694  27.319  29.926  1.00  0.00     0.074 A 
ATOM     29  C   UNL A   1      42.083  29.934  35.666  1.00  0.00     0.029 A 
ATOM     30  N   UNL A   1      41.814  29.343  33.542  1.00  0.00    -0.354 N 
ATOM     31  N   UNL A   1      42.471  27.880  31.089  1.00  0.00    -0.248 NA
ATOM     32  C   UNL A   1      43.888  26.463  29.888  1.00  0.00     0.031 C 
ATOM     33  C   UNL A   1      43.100  29.035  35.326  1.00  0.00     0.029 A 
ATOM     34  C   UNL A   1      42.917  28.646  34.009  1.00  0.00     0.049 A 
ATOM     35  H   UNL A   1      41.451  29.277  32.629  1.00  0.00     0.167 HD
ATOM     36  C   UNL A   1      43.470  27.412  31.933  1.00  0.00     0.074 A 
ATOM     37  C   UNL A   1      44.287  26.507  31.151  1.00  0.00     0.031 C 
ATOM     38  C   UNL A   1      43.694  27.711  33.237  1.00  0.00     0.034 A 
BRANCH  25  39
ATOM     39  C   UNL A   1      39.798  31.902  35.574  1.00  0.00     0.023 A 
ATOM     40  C   UNL A   1      40.340  33.198  35.690  1.00  0.00     0.012 A 
ATOM     41  C   UNL A   1      38.858  31.460  36.528  1.00  0.00     0.148 A 
ATOM     42  C   UNL A   1      39.983  34.025  36.755  1.00  0.00     0.002 A 
ATOM     43  C   UNL A   1      38.471  32.309  37.560  1.00  0.00     0.091 A 
ATOM     44  F   UNL A   1      38.365  30.220  36.413  1.00  0.00    -0.205 F 
ATOM     45  C   UNL A   1      39.043  33.586  37.682  1.00  0.00     0.022 A 
BRANCH  43  46
ATOM     46  S   UNL A   1      37.205  31.868  38.754  1.00  0.00     0.127 S 
ATOM     47  O   UNL A   1      36.971  30.462  38.432  1.00  0.00    -0.237 OA
ATOM     48  O   UNL A   1      37.890  32.096  40.027  1.00  0.00    -0.237 OA
ATOM     49  O   UNL A   1      36.083  32.761  38.500  1.00  0.00    -0.744 OA
ENDBRANCH  43  46
ENDBRANCH  25  39
BRANCH  26  50
ATOM     50  C   UNL A   1      42.274  26.636  27.448  1.00  0.00     0.023 A 
ATOM     51  C   UNL A   1      42.918  27.292  26.382  1.00  0.00     0.012 A 
ATOM     52  C   UNL A   1      42.028  25.252  27.357  1.00  0.00     0.148 A 
ATOM     53  C   UNL A   1      43.277  26.591  25.231  1.00  0.00     0.002 A 
ATOM     54  C   UNL A   1      42.443  24.549  26.235  1.00  0.00     0.091 A 
ATOM     55  F   UNL A   1      41.407  24.649  28.381  1.00  0.00    -0.205 F 
ATOM     56  C   UNL A   1      43.049  25.219  25.161  1.00  0.00     0.022 A 
BRANCH  54  57
ATOM     57  S   UNL A   1      42.312  22.762  26.115  1.00  0.00     0.127 S 
ATOM     58  O   UNL A   1      43.112  22.327  27.256  1.00  0.00    -0.237 OA
ATOM     59  O   UNL A   1      40.870  22.557  26.258  1.00  0.00    -0.237 OA
ATOM     60  O   UNL A   1      42.841  22.414  24.803  1.00  0.00    -0.744 OA
ENDBRANCH  54  57
ENDBRANCH  26  50
BRANCH  38  61
ATOM     61  C   UNL A   1      44.833  27.004  33.924  1.00  0.00     0.023 A 
ATOM     62  C   UNL A   1      46.149  27.494  33.812  1.00  0.00     0.012 A 
ATOM     63  C   UNL A   1      44.584  25.872  34.726  1.00  0.00     0.148 A 
ATOM     64  C   UNL A   1      47.206  26.841  34.448  1.00  0.00     0.002 A 
ATOM     65  C   UNL A   1      45.632  25.261  35.403  1.00  0.00     0.091 A 
ATOM     66  F   UNL A   1      43.328  25.407  34.805  1.00  0.00    -0.205 F 
ATOM     67  C   UNL A   1      46.946  25.733  35.252  1.00  0.00     0.022 A 
BRANCH  65  68
ATOM     68  S   UNL A   1      45.374  23.895  36.540  1.00  0.00     0.127 S 
ATOM     69  O   UNL A   1      44.764  22.893  35.668  1.00  0.00    -0.237 OA
ATOM     70  O   UNL A   1      46.739  23.584  36.967  1.00  0.00    -0.237 OA
ATOM     71  O   UNL A   1      44.514  24.411  37.597  1.00  0.00    -0.744 OA
ENDBRANCH  65  68
ENDBRANCH  38  61
ENDBRANCH  12  13
ENDBRANCH   5   7
ENDBRANCH   2   3
ENDBRANCH   1   2
BRANCH   1  72
ATOM     72  C   UNL A   1      31.859  28.211  27.618  1.00  0.00     0.023 C 
BRANCH  72  73
ATOM     73  C   UNL A   1      32.498  27.081  26.807  1.00  0.00     0.116 C 
BRANCH  73  74
ATOM     74  N   UNL A   1      31.486  26.328  26.098  1.00  0.00    -0.356 N 
ATOM     75  C   UNL A   1      30.941  26.487  24.862  1.00  0.00     0.226 C 
ATOM     76  H   UNL A   1      31.126  25.562  26.601  1.00  0.00     0.163 HD
ATOM     77  O   UNL A   1      29.911  25.839  24.658  1.00  0.00    -0.274 OA
BRANCH  75  78
ATOM     78  C   UNL A   1      31.595  27.395  23.793  1.00  0.00     0.103 C 
ATOM     79  C   UNL A   1      30.684  27.417  22.597  1.00  0.00    -0.016 C 
ATOM     80  C   UNL A   1      32.869  26.847  23.108  1.00  0.00     0.042 C 
ATOM     81  C   UNL A   1      31.099  26.550  21.658  1.00  0.00    -0.011 C 
ATOM     82  C   UNL A   1      32.382  25.855  22.047  1.00  0.00     0.093 C 
BRANCH  82  83
ATOM     83  N   UNL A   1      32.042  24.540  22.594  1.00  0.00    -0.204 NA
ATOM     84  H   UNL A   1      31.149  24.280  22.176  1.00  0.00     0.142 HD
BRANCH  83  85
ATOM     85  S   UNL A   1      33.048  23.211  22.414  1.00  0.00     0.241 S 
ATOM     86  O   UNL A   1      32.285  22.084  22.896  1.00  0.00    -0.207 OA
ATOM     87  O   UNL A   1      33.611  23.237  21.079  1.00  0.00    -0.207 OA
BRANCH  85  88
ATOM     88  C   UNL A   1      34.396  23.458  23.563  1.00  0.00     0.082 A 
ATOM     89  C   UNL A   1      35.684  23.051  23.236  1.00  0.00     0.023 A 
ATOM     90  C   UNL A   1      34.177  24.062  24.804  1.00  0.00     0.023 A 
ATOM     91  C   UNL A   1      36.757  23.219  24.107  1.00  0.00     0.022 A 
ATOM     92  C   UNL A   1      35.253  24.229  25.694  1.00  0.00     0.022 A 
ATOM     93  C   UNL A   1      36.536  23.806  25.341  1.00  0.00     0.041 A 
ATOM     94  Cl  UNL A   1      37.858  24.001  26.420  1.00  0.00    -0.084 Cl
ENDBRANCH  85  88
ENDBRANCH  83  85
ENDBRANCH  82  83
ENDBRANCH  75  78
ENDBRANCH  73  74
ENDBRANCH  72  73
ENDBRANCH   1  72
TORSDOF 17
ENDMDL
