MODEL 1
REMARK VINA RESULT:     -11.9      0.000      0.000
REMARK SMILES O=C(CC[NH+]1CCC(n2nccc2NC(=O)c2ccccc2Cl)CC1)NCCCCNC(=O)c1ccc(-c2c3nc(c(-c4cccc(S(=O)(=O)[O-])c4F)c4ccc([nH]4)c(-c4cccc(S(=O)(=O)[O-])c4F)c4nc(c(-c5cccc(S(=O)(=O)[O-])c5F)c5ccc2[nH]5)C=C4)C=C3)cc1
REMARK SMILES IDX 27 1 26 2 1 3 2 4 3 6 4 7 5 8 6 9 25 10 7 12 24 13 8 14 9 15
REMARK SMILES IDX 10 16 13 17 11 18 12 19 14 20 15 21 16 23 17 24 18 25 22 26
REMARK SMILES IDX 19 27 21 28 23 29 20 30 28 31 29 32 30 33 31 34 32 35 33 37
REMARK SMILES IDX 34 38 35 39 96 40 36 41 95 42 37 43 38 44 39 45 89 46 40 47
REMARK SMILES IDX 94 48 88 49 90 50 41 51 93 52 87 53 86 54 42 56 74 57 54 58
REMARK SMILES IDX 73 59 55 60 58 61 72 62 91 63 56 64 57 65 71 67 92 68 59 69
REMARK SMILES IDX 43 70 44 71 52 72 45 73 47 74 53 75 46 76 48 77 49 78 50 79
REMARK SMILES IDX 51 80 75 81 76 82 84 83 77 84 79 85 85 86 78 87 80 88 81 89
REMARK SMILES IDX 82 90 83 91 60 92 61 93 69 94 62 95 64 96 70 97 63 98 65 99
REMARK SMILES IDX 66 100 67 101 68 102
REMARK H PARENT 26 5 5 11 14 22 31 36 90 55 58 66
REMARK Flexibility Score: inf
ROOT
ATOM      1  C   UNL A   1      33.596  27.573  26.050  1.00  0.00     0.116 C 
ENDROOT
BRANCH   1   2
ATOM      2  N   UNL A   1      32.550  27.124  25.146  1.00  0.00    -0.356 N 
ATOM      3  O   UNL A   1      30.997  26.887  26.816  1.00  0.00    -0.275 OA
ATOM      4  C   UNL A   1      31.252  26.957  25.619  1.00  0.00     0.225 C 
ATOM      5  H   UNL A   1      32.759  26.938  24.202  1.00  0.00     0.163 HD
BRANCH   4   6
ATOM      6  C   UNL A   1      30.169  26.882  24.552  1.00  0.00     0.161 C 
BRANCH   6   7
ATOM      7  C   UNL A   1      30.409  25.745  23.533  1.00  0.00     0.272 C 
BRANCH   7   8
ATOM      8  N   UNL A   1      31.295  24.615  23.905  1.00  0.00    -0.334 N 
ATOM      9  C   UNL A   1      30.639  23.767  24.919  1.00  0.00     0.264 C 
ATOM     10  C   UNL A   1      31.845  23.894  22.784  1.00  0.00     0.264 C 
ATOM     11  H   UNL A   1      32.131  25.012  24.334  1.00  0.00     0.348 HD
ATOM     12  C   UNL A   1      31.396  22.482  25.243  1.00  0.00     0.089 C 
ATOM     13  C   UNL A   1      32.676  22.696  23.153  1.00  0.00     0.089 C 
ATOM     14  C   UNL A   1      31.819  21.727  23.965  1.00  0.00     0.121 C 
BRANCH  14  15
ATOM     15  N   UNL A   1      32.528  20.489  24.256  1.00  0.00    -0.246 N 
ATOM     16  N   UNL A   1      32.663  19.604  23.266  1.00  0.00    -0.179 NA
ATOM     17  C   UNL A   1      32.934  19.962  25.471  1.00  0.00     0.131 A 
ATOM     18  C   UNL A   1      32.528  18.452  23.911  1.00  0.00     0.137 A 
ATOM     19  C   UNL A   1      32.770  18.604  25.294  1.00  0.00     0.069 A 
BRANCH  17  20
ATOM     20  N   UNL A   1      33.262  20.663  26.620  1.00  0.00    -0.307 N 
ATOM     21  C   UNL A   1      34.439  21.417  26.886  1.00  0.00     0.258 C 
ATOM     22  H   UNL A   1      32.596  20.635  27.346  1.00  0.00     0.171 HD
ATOM     23  O   UNL A   1      34.740  21.561  28.052  1.00  0.00    -0.269 OA
BRANCH  21  24
ATOM     24  C   UNL A   1      35.121  22.158  25.824  1.00  0.00     0.058 A 
ATOM     25  C   UNL A   1      34.831  23.513  25.643  1.00  0.00     0.015 A 
ATOM     26  C   UNL A   1      35.962  21.482  24.936  1.00  0.00     0.053 A 
ATOM     27  C   UNL A   1      35.445  24.208  24.601  1.00  0.00     0.001 A 
ATOM     28  C   UNL A   1      36.570  22.183  23.896  1.00  0.00     0.021 A 
ATOM     29  Cl  UNL A   1      36.227  19.781  25.032  1.00  0.00    -0.083 Cl
ATOM     30  C   UNL A   1      36.318  23.546  23.735  1.00  0.00     0.002 A 
ENDBRANCH  21  24
ENDBRANCH  17  20
ENDBRANCH  14  15
ENDBRANCH   7   8
ENDBRANCH   6   7
ENDBRANCH   4   6
ENDBRANCH   1   2
BRANCH   1  31
ATOM     31  C   UNL A   1      33.959  29.061  25.919  1.00  0.00     0.023 C 
BRANCH  31  32
ATOM     32  C   UNL A   1      33.545  29.972  27.090  1.00  0.00     0.023 C 
BRANCH  32  33
ATOM     33  C   UNL A   1      34.625  30.966  27.511  1.00  0.00     0.116 C 
BRANCH  33  34
ATOM     34  N   UNL A   1      34.320  31.759  28.701  1.00  0.00    -0.352 N 
ATOM     35  C   UNL A   1      35.024  31.854  29.898  1.00  0.00     0.251 C 
ATOM     36  H   UNL A   1      33.501  32.304  28.648  1.00  0.00     0.163 HD
ATOM     37  O   UNL A   1      34.511  32.420  30.860  1.00  0.00    -0.269 OA
BRANCH  35  38
ATOM     38  C   UNL A   1      36.377  31.250  30.032  1.00  0.00     0.039 A 
ATOM     39  C   UNL A   1      36.569  29.867  30.200  1.00  0.00     0.014 A 
ATOM     40  C   UNL A   1      37.486  32.076  29.992  1.00  0.00     0.014 A 
ATOM     41  C   UNL A   1      37.871  29.333  30.254  1.00  0.00     0.010 A 
ATOM     42  C   UNL A   1      38.742  31.543  29.846  1.00  0.00     0.010 A 
ATOM     43  C   UNL A   1      38.967  30.181  30.064  1.00  0.00    -0.014 A 
BRANCH  43  44
ATOM     44  C   UNL A   1      40.387  29.767  30.105  1.00  0.00     0.031 A 
ATOM     45  C   UNL A   1      41.090  29.666  31.444  1.00  0.00     0.074 A 
ATOM     46  C   UNL A   1      40.850  29.113  29.003  1.00  0.00     0.049 A 
ATOM     47  N   UNL A   1      42.360  29.526  31.681  1.00  0.00    -0.248 NA
ATOM     48  C   UNL A   1      40.295  29.692  32.688  1.00  0.00     0.031 C 
ATOM     49  C   UNL A   1      40.151  28.937  27.708  1.00  0.00     0.029 A 
ATOM     50  N   UNL A   1      41.921  28.276  28.866  1.00  0.00    -0.354 N 
ATOM     51  C   UNL A   1      42.502  29.258  33.051  1.00  0.00     0.074 A 
ATOM     52  C   UNL A   1      41.191  29.357  33.623  1.00  0.00     0.031 C 
ATOM     53  C   UNL A   1      40.646  27.861  27.063  1.00  0.00     0.029 A 
ATOM     54  C   UNL A   1      41.811  27.397  27.784  1.00  0.00     0.049 A 
ATOM     55  H   UNL A   1      42.696  28.290  29.472  1.00  0.00     0.167 HD
ATOM     56  C   UNL A   1      43.695  28.935  33.623  1.00  0.00     0.034 A 
ATOM     57  C   UNL A   1      42.612  26.351  27.475  1.00  0.00     0.034 A 
ATOM     58  C   UNL A   1      44.768  29.550  32.902  1.00  0.00     0.049 A 
ATOM     59  C   UNL A   1      43.870  26.537  28.213  1.00  0.00     0.074 A 
ATOM     60  C   UNL A   1      45.141  30.859  32.690  1.00  0.00     0.029 A 
ATOM     61  N   UNL A   1      45.459  28.788  31.999  1.00  0.00    -0.354 N 
ATOM     62  N   UNL A   1      44.714  27.497  27.970  1.00  0.00    -0.248 NA
ATOM     63  C   UNL A   1      44.081  25.806  29.450  1.00  0.00     0.031 C 
ATOM     64  C   UNL A   1      45.701  30.871  31.385  1.00  0.00     0.029 A 
ATOM     65  C   UNL A   1      45.672  29.564  30.891  1.00  0.00     0.049 A 
ATOM     66  H   UNL A   1      45.750  27.855  32.125  1.00  0.00     0.167 HD
ATOM     67  C   UNL A   1      45.268  27.779  29.205  1.00  0.00     0.074 A 
ATOM     68  C   UNL A   1      44.994  26.597  30.017  1.00  0.00     0.031 C 
ATOM     69  C   UNL A   1      45.624  29.055  29.535  1.00  0.00     0.034 A 
BRANCH  56  70
ATOM     70  C   UNL A   1      43.974  27.866  34.665  1.00  0.00     0.023 A 
ATOM     71  C   UNL A   1      45.077  28.061  35.532  1.00  0.00     0.012 A 
ATOM     72  C   UNL A   1      43.446  26.563  34.606  1.00  0.00     0.148 A 
ATOM     73  C   UNL A   1      45.700  26.996  36.197  1.00  0.00     0.002 A 
ATOM     74  C   UNL A   1      44.084  25.495  35.240  1.00  0.00     0.091 A 
ATOM     75  F   UNL A   1      42.325  26.355  33.919  1.00  0.00    -0.205 F 
ATOM     76  C   UNL A   1      45.226  25.704  36.020  1.00  0.00     0.022 A 
BRANCH  74  77
ATOM     77  S   UNL A   1      43.538  23.793  35.019  1.00  0.00     0.127 S 
ATOM     78  O   UNL A   1      43.760  23.598  33.589  1.00  0.00    -0.237 OA
ATOM     79  O   UNL A   1      44.454  23.066  35.896  1.00  0.00    -0.237 OA
ATOM     80  O   UNL A   1      42.145  23.774  35.454  1.00  0.00    -0.744 OA
ENDBRANCH  74  77
ENDBRANCH  56  70
BRANCH  57  81
ATOM     81  C   UNL A   1      42.408  25.161  26.624  1.00  0.00     0.023 A 
ATOM     82  C   UNL A   1      43.309  24.904  25.572  1.00  0.00     0.012 A 
ATOM     83  C   UNL A   1      41.503  24.148  27.001  1.00  0.00     0.148 A 
ATOM     84  C   UNL A   1      43.339  23.658  24.937  1.00  0.00     0.002 A 
ATOM     85  C   UNL A   1      41.544  22.904  26.374  1.00  0.00     0.091 A 
ATOM     86  F   UNL A   1      40.669  24.384  28.024  1.00  0.00    -0.205 F 
ATOM     87  C   UNL A   1      42.468  22.654  25.347  1.00  0.00     0.022 A 
BRANCH  85  88
ATOM     88  S   UNL A   1      40.496  21.532  26.874  1.00  0.00     0.127 S 
ATOM     89  O   UNL A   1      39.167  22.008  26.491  1.00  0.00    -0.237 OA
ATOM     90  O   UNL A   1      41.016  20.441  26.053  1.00  0.00    -0.237 OA
ATOM     91  O   UNL A   1      40.697  21.382  28.310  1.00  0.00    -0.744 OA
ENDBRANCH  85  88
ENDBRANCH  57  81
BRANCH  69  92
ATOM     92  C   UNL A   1      45.646  30.101  28.438  1.00  0.00     0.023 A 
ATOM     93  C   UNL A   1      44.469  30.737  27.990  1.00  0.00     0.012 A 
ATOM     94  C   UNL A   1      46.882  30.612  28.012  1.00  0.00     0.148 A 
ATOM     95  C   UNL A   1      44.516  31.839  27.134  1.00  0.00     0.002 A 
ATOM     96  C   UNL A   1      46.930  31.751  27.213  1.00  0.00     0.091 A 
ATOM     97  F   UNL A   1      48.002  30.008  28.440  1.00  0.00    -0.205 F 
ATOM     98  C   UNL A   1      45.750  32.360  26.762  1.00  0.00     0.022 A 
BRANCH  96  99
ATOM     99  S   UNL A   1      48.488  32.567  26.862  1.00  0.00     0.127 S 
ATOM    100  O   UNL A   1      48.111  33.508  25.811  1.00  0.00    -0.237 OA
ATOM    101  O   UNL A   1      48.824  33.184  28.147  1.00  0.00    -0.237 OA
ATOM    102  O   UNL A   1      49.403  31.503  26.466  1.00  0.00    -0.744 OA
ENDBRANCH  96  99
ENDBRANCH  69  92
ENDBRANCH  43  44
ENDBRANCH  35  38
ENDBRANCH  33  34
ENDBRANCH  32  33
ENDBRANCH  31  32
ENDBRANCH   1  31
TORSDOF 19
ENDMDL
MODEL 2
REMARK VINA RESULT:     -11.8      3.892      9.363
REMARK SMILES O=C(CC[NH+]1CCC(n2nccc2NC(=O)c2ccccc2Cl)CC1)NCCCCNC(=O)c1ccc(-c2c3nc(c(-c4cccc(S(=O)(=O)[O-])c4F)c4ccc([nH]4)c(-c4cccc(S(=O)(=O)[O-])c4F)c4nc(c(-c5cccc(S(=O)(=O)[O-])c5F)c5ccc2[nH]5)C=C4)C=C3)cc1
REMARK SMILES IDX 27 1 26 2 1 3 2 4 3 6 4 7 5 8 6 9 25 10 7 12 24 13 8 14 9 15
REMARK SMILES IDX 10 16 13 17 11 18 12 19 14 20 15 21 16 23 17 24 18 25 22 26
REMARK SMILES IDX 19 27 21 28 23 29 20 30 28 31 29 32 30 33 31 34 32 35 33 37
REMARK SMILES IDX 34 38 35 39 96 40 36 41 95 42 37 43 38 44 39 45 89 46 40 47
REMARK SMILES IDX 94 48 88 49 90 50 41 51 93 52 87 53 86 54 42 56 74 57 54 58
REMARK SMILES IDX 73 59 55 60 58 61 72 62 91 63 56 64 57 65 71 67 92 68 59 69
REMARK SMILES IDX 43 70 44 71 52 72 45 73 47 74 53 75 46 76 48 77 49 78 50 79
REMARK SMILES IDX 51 80 75 81 76 82 84 83 77 84 79 85 85 86 78 87 80 88 81 89
REMARK SMILES IDX 82 90 83 91 60 92 61 93 69 94 62 95 64 96 70 97 63 98 65 99
REMARK SMILES IDX 66 100 67 101 68 102
REMARK H PARENT 26 5 5 11 14 22 31 36 90 55 58 66
REMARK Flexibility Score: inf
ROOT
ATOM      1  C   UNL A   1      43.423  21.687  26.053  1.00  0.00     0.116 C 
ENDROOT
BRANCH   1   2
ATOM      2  N   UNL A   1      42.073  21.273  25.711  1.00  0.00    -0.356 N 
ATOM      3  O   UNL A   1      42.322  19.181  26.616  1.00  0.00    -0.275 OA
ATOM      4  C   UNL A   1      41.584  20.056  26.176  1.00  0.00     0.225 C 
ATOM      5  H   UNL A   1      41.506  21.851  25.151  1.00  0.00     0.163 HD
BRANCH   4   6
ATOM      6  C   UNL A   1      40.072  19.889  26.117  1.00  0.00     0.161 C 
BRANCH   6   7
ATOM      7  C   UNL A   1      39.326  21.237  25.990  1.00  0.00     0.272 C 
BRANCH   7   8
ATOM      8  N   UNL A   1      37.844  21.242  25.935  1.00  0.00    -0.334 N 
ATOM      9  C   UNL A   1      37.348  22.616  25.721  1.00  0.00     0.264 C 
ATOM     10  C   UNL A   1      37.275  20.254  25.051  1.00  0.00     0.264 C 
ATOM     11  H   UNL A   1      37.503  20.934  26.846  1.00  0.00     0.348 HD
ATOM     12  C   UNL A   1      35.844  22.705  25.478  1.00  0.00     0.089 C 
ATOM     13  C   UNL A   1      35.778  20.309  24.926  1.00  0.00     0.089 C 
ATOM     14  C   UNL A   1      35.372  21.691  24.415  1.00  0.00     0.121 C 
BRANCH  14  15
ATOM     15  N   UNL A   1      33.941  21.774  24.159  1.00  0.00    -0.246 N 
ATOM     16  N   UNL A   1      33.129  21.046  24.930  1.00  0.00    -0.179 NA
ATOM     17  C   UNL A   1      33.259  22.344  23.096  1.00  0.00     0.131 A 
ATOM     18  C   UNL A   1      32.201  20.663  24.063  1.00  0.00     0.137 A 
ATOM     19  C   UNL A   1      32.185  21.498  22.923  1.00  0.00     0.069 A 
BRANCH  17  20
ATOM     20  N   UNL A   1      33.672  23.409  22.312  1.00  0.00    -0.307 N 
ATOM     21  C   UNL A   1      33.285  24.775  22.408  1.00  0.00     0.258 C 
ATOM     22  H   UNL A   1      34.315  23.193  21.597  1.00  0.00     0.171 HD
ATOM     23  O   UNL A   1      33.382  25.439  21.398  1.00  0.00    -0.269 OA
BRANCH  21  24
ATOM     24  C   UNL A   1      32.997  25.393  23.703  1.00  0.00     0.058 A 
ATOM     25  C   UNL A   1      34.054  25.875  24.480  1.00  0.00     0.015 A 
ATOM     26  C   UNL A   1      31.689  25.389  24.198  1.00  0.00     0.053 A 
ATOM     27  C   UNL A   1      33.783  26.420  25.735  1.00  0.00     0.001 A 
ATOM     28  C   UNL A   1      31.427  25.933  25.454  1.00  0.00     0.021 A 
ATOM     29  Cl  UNL A   1      30.381  24.667  23.337  1.00  0.00    -0.083 Cl
ATOM     30  C   UNL A   1      32.473  26.456  26.216  1.00  0.00     0.002 A 
ENDBRANCH  21  24
ENDBRANCH  17  20
ENDBRANCH  14  15
ENDBRANCH   7   8
ENDBRANCH   6   7
ENDBRANCH   4   6
ENDBRANCH   1   2
BRANCH   1  31
ATOM     31  C   UNL A   1      44.059  22.676  25.062  1.00  0.00     0.023 C 
BRANCH  31  32
ATOM     32  C   UNL A   1      44.293  24.107  25.579  1.00  0.00     0.023 C 
BRANCH  32  33
ATOM     33  C   UNL A   1      43.150  25.071  25.266  1.00  0.00     0.116 C 
BRANCH  33  34
ATOM     34  N   UNL A   1      41.803  24.542  25.480  1.00  0.00    -0.352 N 
ATOM     35  C   UNL A   1      40.866  24.891  26.447  1.00  0.00     0.251 C 
ATOM     36  H   UNL A   1      41.520  23.839  24.850  1.00  0.00     0.163 HD
ATOM     37  O   UNL A   1      39.861  24.200  26.595  1.00  0.00    -0.269 OA
BRANCH  35  38
ATOM     38  C   UNL A   1      41.084  26.074  27.323  1.00  0.00     0.039 A 
ATOM     39  C   UNL A   1      41.920  26.028  28.452  1.00  0.00     0.014 A 
ATOM     40  C   UNL A   1      40.442  27.260  27.018  1.00  0.00     0.014 A 
ATOM     41  C   UNL A   1      42.150  27.191  29.213  1.00  0.00     0.010 A 
ATOM     42  C   UNL A   1      40.816  28.429  27.633  1.00  0.00     0.010 A 
ATOM     43  C   UNL A   1      41.600  28.405  28.790  1.00  0.00    -0.014 A 
BRANCH  43  44
ATOM     44  C   UNL A   1      41.746  29.700  29.489  1.00  0.00     0.031 A 
ATOM     45  C   UNL A   1      42.811  30.675  29.027  1.00  0.00     0.074 A 
ATOM     46  C   UNL A   1      40.669  30.110  30.218  1.00  0.00     0.049 A 
ATOM     47  N   UNL A   1      43.233  31.751  29.619  1.00  0.00    -0.248 NA
ATOM     48  C   UNL A   1      43.482  30.458  27.729  1.00  0.00     0.031 C 
ATOM     49  C   UNL A   1      39.455  29.324  30.537  1.00  0.00     0.029 A 
ATOM     50  N   UNL A   1      40.316  31.363  30.631  1.00  0.00    -0.354 N 
ATOM     51  C   UNL A   1      44.056  32.433  28.710  1.00  0.00     0.074 A 
ATOM     52  C   UNL A   1      44.162  31.596  27.551  1.00  0.00     0.031 C 
ATOM     53  C   UNL A   1      38.429  30.157  30.812  1.00  0.00     0.029 A 
ATOM     54  C   UNL A   1      38.950  31.505  30.888  1.00  0.00     0.049 A 
ATOM     55  H   UNL A   1      40.963  32.098  30.736  1.00  0.00     0.167 HD
ATOM     56  C   UNL A   1      44.572  33.669  28.960  1.00  0.00     0.034 A 
ATOM     57  C   UNL A   1      38.263  32.641  31.152  1.00  0.00     0.034 A 
ATOM     58  C   UNL A   1      44.766  33.845  30.368  1.00  0.00     0.049 A 
ATOM     59  C   UNL A   1      39.249  33.657  31.551  1.00  0.00     0.074 A 
ATOM     60  C   UNL A   1      45.581  33.237  31.296  1.00  0.00     0.029 A 
ATOM     61  N   UNL A   1      43.821  34.546  31.066  1.00  0.00    -0.354 N 
ATOM     62  N   UNL A   1      39.942  33.597  32.651  1.00  0.00    -0.248 NA
ATOM     63  C   UNL A   1      39.692  34.637  30.575  1.00  0.00     0.031 C 
ATOM     64  C   UNL A   1      44.828  33.241  32.500  1.00  0.00     0.029 A 
ATOM     65  C   UNL A   1      43.612  33.884  32.246  1.00  0.00     0.049 A 
ATOM     66  H   UNL A   1      43.374  35.374  30.774  1.00  0.00     0.167 HD
ATOM     67  C   UNL A   1      41.145  34.194  32.324  1.00  0.00     0.074 A 
ATOM     68  C   UNL A   1      40.861  34.975  31.123  1.00  0.00     0.031 C 
ATOM     69  C   UNL A   1      42.314  33.758  32.877  1.00  0.00     0.034 A 
BRANCH  56  70
ATOM     70  C   UNL A   1      44.675  34.849  28.009  1.00  0.00     0.023 A 
ATOM     71  C   UNL A   1      45.941  35.129  27.441  1.00  0.00     0.012 A 
ATOM     72  C   UNL A   1      43.711  35.870  27.927  1.00  0.00     0.148 A 
ATOM     73  C   UNL A   1      46.269  36.397  26.941  1.00  0.00     0.002 A 
ATOM     74  C   UNL A   1      44.044  37.143  27.459  1.00  0.00     0.091 A 
ATOM     75  F   UNL A   1      42.464  35.610  28.316  1.00  0.00    -0.205 F 
ATOM     76  C   UNL A   1      45.331  37.417  26.986  1.00  0.00     0.022 A 
BRANCH  74  77
ATOM     77  S   UNL A   1      42.881  38.517  27.527  1.00  0.00     0.127 S 
ATOM     78  O   UNL A   1      42.679  38.659  28.965  1.00  0.00    -0.237 OA
ATOM     79  O   UNL A   1      43.646  39.591  26.895  1.00  0.00    -0.237 OA
ATOM     80  O   UNL A   1      41.718  38.077  26.762  1.00  0.00    -0.744 OA
ENDBRANCH  74  77
ENDBRANCH  56  70
BRANCH  57  81
ATOM     81  C   UNL A   1      36.828  32.977  31.068  1.00  0.00     0.023 A 
ATOM     82  C   UNL A   1      36.190  33.556  32.182  1.00  0.00     0.012 A 
ATOM     83  C   UNL A   1      36.157  32.980  29.829  1.00  0.00     0.148 A 
ATOM     84  C   UNL A   1      34.934  34.159  32.061  1.00  0.00     0.002 A 
ATOM     85  C   UNL A   1      34.910  33.592  29.709  1.00  0.00     0.091 A 
ATOM     86  F   UNL A   1      36.780  32.458  28.762  1.00  0.00    -0.205 F 
ATOM     87  C   UNL A   1      34.300  34.190  30.823  1.00  0.00     0.022 A 
BRANCH  85  88
ATOM     88  S   UNL A   1      34.043  33.729  28.139  1.00  0.00     0.127 S 
ATOM     89  O   UNL A   1      33.868  32.326  27.766  1.00  0.00    -0.237 OA
ATOM     90  O   UNL A   1      32.816  34.416  28.532  1.00  0.00    -0.237 OA
ATOM     91  O   UNL A   1      34.929  34.485  27.263  1.00  0.00    -0.744 OA
ENDBRANCH  85  88
ENDBRANCH  57  81
BRANCH  69  92
ATOM     92  C   UNL A   1      42.239  32.793  34.044  1.00  0.00     0.023 A 
ATOM     93  C   UNL A   1      42.070  33.239  35.372  1.00  0.00     0.012 A 
ATOM     94  C   UNL A   1      42.110  31.420  33.782  1.00  0.00     0.148 A 
ATOM     95  C   UNL A   1      41.794  32.349  36.411  1.00  0.00     0.002 A 
ATOM     96  C   UNL A   1      41.769  30.542  34.806  1.00  0.00     0.091 A 
ATOM     97  F   UNL A   1      42.269  30.995  32.518  1.00  0.00    -0.205 F 
ATOM     98  C   UNL A   1      41.623  30.999  36.124  1.00  0.00     0.022 A 
BRANCH  96  99
ATOM     99  S   UNL A   1      41.355  28.831  34.456  1.00  0.00     0.127 S 
ATOM    100  O   UNL A   1      42.437  28.431  33.561  1.00  0.00    -0.237 OA
ATOM    101  O   UNL A   1      41.396  28.213  35.784  1.00  0.00    -0.237 OA
ATOM    102  O   UNL A   1      40.021  28.868  33.869  1.00  0.00    -0.744 OA
ENDBRANCH  96  99
ENDBRANCH  69  92
ENDBRANCH  43  44
ENDBRANCH  35  38
ENDBRANCH  33  34
ENDBRANCH  32  33
ENDBRANCH  31  32
ENDBRANCH   1  31
TORSDOF 19
ENDMDL
MODEL 3
REMARK VINA RESULT:     -11.8      3.639      9.044
REMARK SMILES O=C(CC[NH+]1CCC(n2nccc2NC(=O)c2ccccc2Cl)CC1)NCCCCNC(=O)c1ccc(-c2c3nc(c(-c4cccc(S(=O)(=O)[O-])c4F)c4ccc([nH]4)c(-c4cccc(S(=O)(=O)[O-])c4F)c4nc(c(-c5cccc(S(=O)(=O)[O-])c5F)c5ccc2[nH]5)C=C4)C=C3)cc1
REMARK SMILES IDX 27 1 26 2 1 3 2 4 3 6 4 7 5 8 6 9 25 10 7 12 24 13 8 14 9 15
REMARK SMILES IDX 10 16 13 17 11 18 12 19 14 20 15 21 16 23 17 24 18 25 22 26
REMARK SMILES IDX 19 27 21 28 23 29 20 30 28 31 29 32 30 33 31 34 32 35 33 37
REMARK SMILES IDX 34 38 35 39 96 40 36 41 95 42 37 43 38 44 39 45 89 46 40 47
REMARK SMILES IDX 94 48 88 49 90 50 41 51 93 52 87 53 86 54 42 56 74 57 54 58
REMARK SMILES IDX 73 59 55 60 58 61 72 62 91 63 56 64 57 65 71 67 92 68 59 69
REMARK SMILES IDX 43 70 44 71 52 72 45 73 47 74 53 75 46 76 48 77 49 78 50 79
REMARK SMILES IDX 51 80 75 81 76 82 84 83 77 84 79 85 85 86 78 87 80 88 81 89
REMARK SMILES IDX 82 90 83 91 60 92 61 93 69 94 62 95 64 96 70 97 63 98 65 99
REMARK SMILES IDX 66 100 67 101 68 102
REMARK H PARENT 26 5 5 11 14 22 31 36 90 55 58 66
REMARK Flexibility Score: inf
ROOT
ATOM      1  C   UNL A   1      34.753  22.604  26.477  1.00  0.00     0.116 C 
ENDROOT
BRANCH   1   2
ATOM      2  N   UNL A   1      34.443  21.582  25.492  1.00  0.00    -0.356 N 
ATOM      3  O   UNL A   1      32.176  21.797  25.757  1.00  0.00    -0.275 OA
ATOM      4  C   UNL A   1      33.124  21.371  25.105  1.00  0.00     0.225 C 
ATOM      5  H   UNL A   1      35.165  21.040  25.100  1.00  0.00     0.163 HD
BRANCH   4   6
ATOM      6  C   UNL A   1      32.934  20.591  23.811  1.00  0.00     0.161 C 
BRANCH   6   7
ATOM      7  C   UNL A   1      31.832  21.188  22.908  1.00  0.00     0.272 C 
BRANCH   7   8
ATOM      8  N   UNL A   1      31.928  22.608  22.490  1.00  0.00    -0.334 N 
ATOM      9  C   UNL A   1      30.973  23.430  23.259  1.00  0.00     0.264 C 
ATOM     10  C   UNL A   1      33.272  23.129  22.450  1.00  0.00     0.264 C 
ATOM     11  H   UNL A   1      31.651  22.657  21.510  1.00  0.00     0.348 HD
ATOM     12  C   UNL A   1      31.113  24.932  23.027  1.00  0.00     0.089 C 
ATOM     13  C   UNL A   1      33.370  24.591  22.109  1.00  0.00     0.089 C 
ATOM     14  C   UNL A   1      32.581  25.396  23.140  1.00  0.00     0.121 C 
BRANCH  14  15
ATOM     15  N   UNL A   1      32.731  26.830  22.937  1.00  0.00    -0.246 N 
ATOM     16  N   UNL A   1      33.320  27.238  21.811  1.00  0.00    -0.179 NA
ATOM     17  C   UNL A   1      32.539  27.878  23.822  1.00  0.00     0.131 A 
ATOM     18  C   UNL A   1      34.020  28.284  22.234  1.00  0.00     0.137 A 
ATOM     19  C   UNL A   1      33.518  28.778  23.458  1.00  0.00     0.069 A 
BRANCH  17  20
ATOM     20  N   UNL A   1      31.675  27.912  24.905  1.00  0.00    -0.307 N 
ATOM     21  C   UNL A   1      31.997  28.065  26.283  1.00  0.00     0.258 C 
ATOM     22  H   UNL A   1      30.718  27.818  24.694  1.00  0.00     0.171 HD
ATOM     23  O   UNL A   1      31.195  27.624  27.079  1.00  0.00    -0.269 OA
BRANCH  21  24
ATOM     24  C   UNL A   1      33.120  28.899  26.712  1.00  0.00     0.058 A 
ATOM     25  C   UNL A   1      34.324  28.287  27.075  1.00  0.00     0.015 A 
ATOM     26  C   UNL A   1      32.943  30.276  26.865  1.00  0.00     0.053 A 
ATOM     27  C   UNL A   1      35.379  29.078  27.530  1.00  0.00     0.001 A 
ATOM     28  C   UNL A   1      34.002  31.060  27.321  1.00  0.00     0.021 A 
ATOM     29  Cl  UNL A   1      31.429  31.049  26.573  1.00  0.00    -0.083 Cl
ATOM     30  C   UNL A   1      35.220  30.461  27.644  1.00  0.00     0.002 A 
ENDBRANCH  21  24
ENDBRANCH  17  20
ENDBRANCH  14  15
ENDBRANCH   7   8
ENDBRANCH   6   7
ENDBRANCH   4   6
ENDBRANCH   1   2
BRANCH   1  31
ATOM     31  C   UNL A   1      35.681  23.721  25.971  1.00  0.00     0.023 C 
BRANCH  31  32
ATOM     32  C   UNL A   1      37.006  23.907  26.733  1.00  0.00     0.023 C 
BRANCH  32  33
ATOM     33  C   UNL A   1      38.230  24.018  25.827  1.00  0.00     0.116 C 
BRANCH  33  34
ATOM     34  N   UNL A   1      39.382  23.209  26.222  1.00  0.00    -0.352 N 
ATOM     35  C   UNL A   1      40.574  23.609  26.818  1.00  0.00     0.251 C 
ATOM     36  H   UNL A   1      39.302  22.243  26.042  1.00  0.00     0.163 HD
ATOM     37  O   UNL A   1      41.508  22.815  26.899  1.00  0.00    -0.269 OA
BRANCH  35  38
ATOM     38  C   UNL A   1      40.738  24.996  27.330  1.00  0.00     0.039 A 
ATOM     39  C   UNL A   1      39.971  26.070  26.846  1.00  0.00     0.014 A 
ATOM     40  C   UNL A   1      41.677  25.239  28.316  1.00  0.00     0.014 A 
ATOM     41  C   UNL A   1      40.113  27.354  27.409  1.00  0.00     0.010 A 
ATOM     42  C   UNL A   1      41.676  26.432  28.995  1.00  0.00     0.010 A 
ATOM     43  C   UNL A   1      40.967  27.531  28.501  1.00  0.00    -0.014 A 
BRANCH  43  44
ATOM     44  C   UNL A   1      41.225  28.817  29.187  1.00  0.00     0.031 A 
ATOM     45  C   UNL A   1      42.348  29.707  28.691  1.00  0.00     0.074 A 
ATOM     46  C   UNL A   1      40.201  29.308  29.938  1.00  0.00     0.049 A 
ATOM     47  N   UNL A   1      42.862  30.752  29.265  1.00  0.00    -0.248 NA
ATOM     48  C   UNL A   1      42.968  29.435  27.379  1.00  0.00     0.031 C 
ATOM     49  C   UNL A   1      38.940  28.616  30.294  1.00  0.00     0.029 A 
ATOM     50  N   UNL A   1      39.951  30.587  30.351  1.00  0.00    -0.354 N 
ATOM     51  C   UNL A   1      43.710  31.367  28.331  1.00  0.00     0.074 A 
ATOM     52  C   UNL A   1      43.725  30.518  27.175  1.00  0.00     0.031 C 
ATOM     53  C   UNL A   1      37.986  29.524  30.587  1.00  0.00     0.029 A 
ATOM     54  C   UNL A   1      38.606  30.830  30.641  1.00  0.00     0.049 A 
ATOM     55  H   UNL A   1      40.653  31.272  30.435  1.00  0.00     0.167 HD
ATOM     56  C   UNL A   1      44.322  32.563  28.559  1.00  0.00     0.034 A 
ATOM     57  C   UNL A   1      38.012  32.015  30.913  1.00  0.00     0.034 A 
ATOM     58  C   UNL A   1      44.563  32.731  29.960  1.00  0.00     0.049 A 
ATOM     59  C   UNL A   1      39.079  32.958  31.281  1.00  0.00     0.074 A 
ATOM     60  C   UNL A   1      45.355  32.070  30.872  1.00  0.00     0.029 A 
ATOM     61  N   UNL A   1      43.690  33.505  30.677  1.00  0.00    -0.354 N 
ATOM     62  N   UNL A   1      39.793  32.853  32.363  1.00  0.00    -0.248 NA
ATOM     63  C   UNL A   1      39.568  33.897  30.287  1.00  0.00     0.031 C 
ATOM     64  C   UNL A   1      44.634  32.136  32.094  1.00  0.00     0.029 A 
ATOM     65  C   UNL A   1      43.464  32.866  31.866  1.00  0.00     0.049 A 
ATOM     66  H   UNL A   1      43.299  34.361  30.389  1.00  0.00     0.167 HD
ATOM     67  C   UNL A   1      41.029  33.357  32.002  1.00  0.00     0.074 A 
ATOM     68  C   UNL A   1      40.773  34.151  30.803  1.00  0.00     0.031 C 
ATOM     69  C   UNL A   1      42.176  32.839  32.530  1.00  0.00     0.034 A 
BRANCH  56  70
ATOM     70  C   UNL A   1      44.487  33.727  27.597  1.00  0.00     0.023 A 
ATOM     71  C   UNL A   1      45.690  33.801  26.853  1.00  0.00     0.012 A 
ATOM     72  C   UNL A   1      43.708  34.897  27.648  1.00  0.00     0.148 A 
ATOM     73  C   UNL A   1      46.153  35.005  26.305  1.00  0.00     0.002 A 
ATOM     74  C   UNL A   1      44.182  36.105  27.132  1.00  0.00     0.091 A 
ATOM     75  F   UNL A   1      42.503  34.843  28.212  1.00  0.00    -0.205 F 
ATOM     76  C   UNL A   1      45.417  36.168  26.478  1.00  0.00     0.022 A 
BRANCH  74  77
ATOM     77  S   UNL A   1      43.290  37.653  27.357  1.00  0.00     0.127 S 
ATOM     78  O   UNL A   1      43.316  37.796  28.809  1.00  0.00    -0.237 OA
ATOM     79  O   UNL A   1      44.131  38.596  26.622  1.00  0.00    -0.237 OA
ATOM     80  O   UNL A   1      41.975  37.431  26.764  1.00  0.00    -0.744 OA
ENDBRANCH  74  77
ENDBRANCH  56  70
BRANCH  57  81
ATOM     81  C   UNL A   1      36.603  32.456  30.863  1.00  0.00     0.023 A 
ATOM     82  C   UNL A   1      35.846  32.481  32.050  1.00  0.00     0.012 A 
ATOM     83  C   UNL A   1      36.087  33.097  29.719  1.00  0.00     0.148 A 
ATOM     84  C   UNL A   1      34.625  33.160  32.112  1.00  0.00     0.002 A 
ATOM     85  C   UNL A   1      34.875  33.783  29.787  1.00  0.00     0.091 A 
ATOM     86  F   UNL A   1      36.825  33.100  28.599  1.00  0.00    -0.205 F 
ATOM     87  C   UNL A   1      34.146  33.823  30.986  1.00  0.00     0.022 A 
BRANCH  85  88
ATOM     88  S   UNL A   1      34.207  34.712  28.401  1.00  0.00     0.127 S 
ATOM     89  O   UNL A   1      35.129  34.356  27.323  1.00  0.00    -0.237 OA
ATOM     90  O   UNL A   1      32.867  34.144  28.275  1.00  0.00    -0.237 OA
ATOM     91  O   UNL A   1      34.256  36.113  28.803  1.00  0.00    -0.744 OA
ENDBRANCH  85  88
ENDBRANCH  57  81
BRANCH  69  92
ATOM     92  C   UNL A   1      42.060  31.889  33.705  1.00  0.00     0.023 A 
ATOM     93  C   UNL A   1      41.779  32.346  35.010  1.00  0.00     0.012 A 
ATOM     94  C   UNL A   1      42.006  30.508  33.458  1.00  0.00     0.148 A 
ATOM     95  C   UNL A   1      41.469  31.460  36.043  1.00  0.00     0.002 A 
ATOM     96  C   UNL A   1      41.632  29.631  34.472  1.00  0.00     0.091 A 
ATOM     97  F   UNL A   1      42.272  30.072  32.216  1.00  0.00    -0.205 F 
ATOM     98  C   UNL A   1      41.374  30.101  35.768  1.00  0.00     0.022 A 
BRANCH  96  99
ATOM     99  S   UNL A   1      41.315  27.900  34.124  1.00  0.00     0.127 S 
ATOM    100  O   UNL A   1      40.040  27.959  33.414  1.00  0.00    -0.237 OA
ATOM    101  O   UNL A   1      42.462  27.524  33.294  1.00  0.00    -0.237 OA
ATOM    102  O   UNL A   1      41.291  27.241  35.424  1.00  0.00    -0.744 OA
ENDBRANCH  96  99
ENDBRANCH  69  92
ENDBRANCH  43  44
ENDBRANCH  35  38
ENDBRANCH  33  34
ENDBRANCH  32  33
ENDBRANCH  31  32
ENDBRANCH   1  31
TORSDOF 19
ENDMDL
