MODEL 1
REMARK VINA RESULT:     -12.4      0.000      0.000
REMARK SMILES Cc1cc(C)c2nc(NS(=O)(=O)c3cc(C(=O)NCCCCNC(=O)c4ccc(-c5c6nc(c(-c7cccc(S(=O)(=O)[O-])c7F)c7ccc([nH]7)c(-c7cccc(S(=O)(=O)[O-])c7F)c7nc(c(-c8cccc(S(=O)(=O)[O-])c8F)c8ccc5[nH]8)C=C7)C=C6)cc4)ccc3Cl)sc2c1
REMARK SMILES IDX 20 1 19 2 18 3 16 4 17 5 15 7 13 8 14 9 91 10 90 11 92 12
REMARK SMILES IDX 89 13 10 14 11 15 12 16 9 17 8 19 1 20 2 21 3 22 95 23 4 24
REMARK SMILES IDX 94 25 5 26 6 27 93 28 7 29 21 30 22 31 23 32 24 33 25 35
REMARK SMILES IDX 26 36 27 37 88 38 28 39 87 40 29 41 30 42 31 43 81 44 32 45
REMARK SMILES IDX 86 46 80 47 82 48 33 49 85 50 79 51 78 52 34 54 66 55 46 56
REMARK SMILES IDX 65 57 47 58 50 59 64 60 83 61 48 62 49 63 63 65 84 66 51 67
REMARK SMILES IDX 35 68 36 69 44 70 37 71 39 72 45 73 38 74 40 75 41 76 42 77
REMARK SMILES IDX 43 78 67 79 68 80 76 81 69 82 71 83 77 84 70 85 72 86 73 87
REMARK SMILES IDX 74 88 75 89 52 90 53 91 61 92 54 93 56 94 62 95 55 96 57 97
REMARK SMILES IDX 58 98 59 99 60 100
REMARK H PARENT 18 6 9 18 23 34 82 53 50 64
REMARK Flexibility Score: inf
ROOT
ATOM      1  C   UNL A   1      33.306  31.499  27.444  1.00  0.00     0.023 C 
ENDROOT
BRANCH   1   2
ATOM      2  C   UNL A   1      32.615  30.197  27.017  1.00  0.00     0.116 C 
BRANCH   2   3
ATOM      3  N   UNL A   1      32.670  30.057  25.573  1.00  0.00    -0.352 N 
ATOM      4  C   UNL A   1      32.996  29.044  24.709  1.00  0.00     0.251 C 
ATOM      5  O   UNL A   1      33.141  29.358  23.526  1.00  0.00    -0.269 OA
ATOM      6  H   UNL A   1      32.414  30.884  25.104  1.00  0.00     0.163 HD
BRANCH   4   7
ATOM      7  C   UNL A   1      33.119  27.598  25.074  1.00  0.00     0.041 A 
ATOM      8  C   UNL A   1      31.963  25.621  25.968  1.00  0.00     0.107 A 
ATOM      9  C   UNL A   1      31.940  26.940  25.473  1.00  0.00     0.037 A 
ATOM     10  C   UNL A   1      33.183  25.013  26.230  1.00  0.00     0.061 A 
ATOM     11  C   UNL A   1      34.338  25.596  25.704  1.00  0.00     0.023 A 
ATOM     12  Cl  UNL A   1      33.365  23.557  27.134  1.00  0.00    -0.083 Cl
ATOM     13  C   UNL A   1      34.289  26.845  25.068  1.00  0.00     0.015 A 
BRANCH   8  14
ATOM     14  S   UNL A   1      30.419  24.746  25.977  1.00  0.00     0.265 S 
ATOM     15  O   UNL A   1      29.370  25.729  25.798  1.00  0.00    -0.201 OA
ATOM     16  O   UNL A   1      30.431  23.887  27.143  1.00  0.00    -0.201 OA
BRANCH  14  17
ATOM     17  N   UNL A   1      30.301  23.728  24.663  1.00  0.00    -0.255 N 
ATOM     18  H   UNL A   1      29.409  23.584  24.273  1.00  0.00     0.182 HD
BRANCH  17  19
ATOM     19  C   UNL A   1      31.388  23.058  24.071  1.00  0.00     0.197 A 
ATOM     20  C   UNL A   1      37.323  21.860  24.342  1.00  0.00     0.044 C 
ATOM     21  C   UNL A   1      35.831  21.727  24.216  1.00  0.00    -0.049 A 
ATOM     22  C   UNL A   1      35.183  20.653  24.838  1.00  0.00     0.009 A 
ATOM     23  C   UNL A   1      35.084  22.680  23.514  1.00  0.00     0.024 A 
ATOM     24  C   UNL A   1      33.779  20.551  24.873  1.00  0.00    -0.024 A 
ATOM     25  C   UNL A   1      33.685  22.609  23.593  1.00  0.00     0.057 A 
ATOM     26  C   UNL A   1      33.127  19.377  25.544  1.00  0.00     0.047 C 
ATOM     27  C   UNL A   1      33.031  21.625  24.337  1.00  0.00     0.087 A 
ATOM     28  S   UNL A   1      32.474  23.621  22.880  1.00  0.00    -0.096 S 
ATOM     29  N   UNL A   1      31.681  21.872  24.548  1.00  0.00    -0.219 NA
ENDBRANCH  17  19
ENDBRANCH  14  17
ENDBRANCH   8  14
ENDBRANCH   4   7
ENDBRANCH   2   3
ENDBRANCH   1   2
BRANCH   1  30
ATOM     30  C   UNL A   1      34.837  31.376  27.539  1.00  0.00     0.023 C 
BRANCH  30  31
ATOM     31  C   UNL A   1      35.533  32.657  27.994  1.00  0.00     0.116 C 
BRANCH  31  32
ATOM     32  N   UNL A   1      35.387  32.883  29.432  1.00  0.00    -0.352 N 
ATOM     33  C   UNL A   1      36.059  32.263  30.464  1.00  0.00     0.251 C 
ATOM     34  H   UNL A   1      34.726  33.563  29.697  1.00  0.00     0.163 HD
ATOM     35  O   UNL A   1      35.615  32.281  31.607  1.00  0.00    -0.269 OA
BRANCH  33  36
ATOM     36  C   UNL A   1      37.327  31.581  30.167  1.00  0.00     0.039 A 
ATOM     37  C   UNL A   1      38.534  32.288  30.162  1.00  0.00     0.014 A 
ATOM     38  C   UNL A   1      37.296  30.205  29.946  1.00  0.00     0.014 A 
ATOM     39  C   UNL A   1      39.728  31.584  30.020  1.00  0.00     0.010 A 
ATOM     40  C   UNL A   1      38.479  29.502  29.909  1.00  0.00     0.010 A 
ATOM     41  C   UNL A   1      39.698  30.187  29.914  1.00  0.00    -0.014 A 
BRANCH  41  42
ATOM     42  C   UNL A   1      40.943  29.416  29.951  1.00  0.00     0.031 A 
ATOM     43  C   UNL A   1      41.425  29.022  31.313  1.00  0.00     0.074 A 
ATOM     44  C   UNL A   1      41.461  28.853  28.836  1.00  0.00     0.049 A 
ATOM     45  N   UNL A   1      42.587  29.229  31.846  1.00  0.00    -0.248 NA
ATOM     46  C   UNL A   1      40.460  28.383  32.225  1.00  0.00     0.031 C 
ATOM     47  C   UNL A   1      40.891  28.878  27.481  1.00  0.00     0.029 A 
ATOM     48  N   UNL A   1      42.499  27.978  28.710  1.00  0.00    -0.354 N 
ATOM     49  C   UNL A   1      42.565  28.571  33.079  1.00  0.00     0.074 A 
ATOM     50  C   UNL A   1      41.193  28.211  33.325  1.00  0.00     0.031 C 
ATOM     51  C   UNL A   1      41.397  27.852  26.767  1.00  0.00     0.029 A 
ATOM     52  C   UNL A   1      42.444  27.219  27.543  1.00  0.00     0.049 A 
ATOM     53  H   UNL A   1      43.217  27.891  29.379  1.00  0.00     0.167 HD
ATOM     54  C   UNL A   1      43.702  28.175  33.717  1.00  0.00     0.034 A 
ATOM     55  C   UNL A   1      43.160  26.105  27.266  1.00  0.00     0.034 A 
ATOM     56  C   UNL A   1      44.871  28.802  33.171  1.00  0.00     0.049 A 
ATOM     57  C   UNL A   1      44.329  26.102  28.170  1.00  0.00     0.074 A 
ATOM     58  C   UNL A   1      45.333  30.096  33.055  1.00  0.00     0.029 A 
ATOM     59  N   UNL A   1      45.626  28.046  32.312  1.00  0.00    -0.354 N 
ATOM     60  N   UNL A   1      45.287  26.983  28.124  1.00  0.00    -0.248 NA
ATOM     61  C   UNL A   1      44.263  25.308  29.384  1.00  0.00     0.031 C 
ATOM     62  C   UNL A   1      46.025  30.128  31.809  1.00  0.00     0.029 A 
ATOM     63  C   UNL A   1      45.982  28.845  31.259  1.00  0.00     0.049 A 
ATOM     64  H   UNL A   1      45.868  27.099  32.431  1.00  0.00     0.167 HD
ATOM     65  C   UNL A   1      45.650  27.164  29.450  1.00  0.00     0.074 A 
ATOM     66  C   UNL A   1      45.099  26.009  30.151  1.00  0.00     0.031 C 
ATOM     67  C   UNL A   1      46.101  28.375  29.893  1.00  0.00     0.034 A 
BRANCH  54  68
ATOM     68  C   UNL A   1      43.813  26.973  34.627  1.00  0.00     0.023 A 
ATOM     69  C   UNL A   1      43.941  27.199  36.017  1.00  0.00     0.012 A 
ATOM     70  C   UNL A   1      44.051  25.657  34.170  1.00  0.00     0.148 A 
ATOM     71  C   UNL A   1      44.303  26.174  36.899  1.00  0.00     0.002 A 
ATOM     72  C   UNL A   1      44.318  24.623  35.061  1.00  0.00     0.091 A 
ATOM     73  F   UNL A   1      44.158  25.419  32.858  1.00  0.00    -0.205 F 
ATOM     74  C   UNL A   1      44.473  24.880  36.423  1.00  0.00     0.022 A 
BRANCH  72  75
ATOM     75  S   UNL A   1      44.463  22.921  34.503  1.00  0.00     0.127 S 
ATOM     76  O   UNL A   1      43.230  22.753  33.743  1.00  0.00    -0.237 OA
ATOM     77  O   UNL A   1      45.686  22.973  33.700  1.00  0.00    -0.237 OA
ATOM     78  O   UNL A   1      44.586  22.129  35.721  1.00  0.00    -0.744 OA
ENDBRANCH  72  75
ENDBRANCH  54  68
BRANCH  55  79
ATOM     79  C   UNL A   1      42.798  24.913  26.466  1.00  0.00     0.023 A 
ATOM     80  C   UNL A   1      43.627  24.527  25.395  1.00  0.00     0.012 A 
ATOM     81  C   UNL A   1      41.833  23.993  26.930  1.00  0.00     0.148 A 
ATOM     82  C   UNL A   1      43.539  23.245  24.839  1.00  0.00     0.002 A 
ATOM     83  C   UNL A   1      41.746  22.720  26.371  1.00  0.00     0.091 A 
ATOM     84  F   UNL A   1      41.071  24.328  27.979  1.00  0.00    -0.205 F 
ATOM     85  C   UNL A   1      42.608  22.338  25.337  1.00  0.00     0.022 A 
BRANCH  83  86
ATOM     86  S   UNL A   1      40.593  21.484  26.987  1.00  0.00     0.127 S 
ATOM     87  O   UNL A   1      41.000  21.361  28.387  1.00  0.00    -0.237 OA
ATOM     88  O   UNL A   1      39.308  22.145  26.776  1.00  0.00    -0.237 OA
ATOM     89  O   UNL A   1      40.833  20.289  26.186  1.00  0.00    -0.744 OA
ENDBRANCH  83  86
ENDBRANCH  55  79
BRANCH  67  90
ATOM     90  C   UNL A   1      46.480  29.416  28.866  1.00  0.00     0.023 A 
ATOM     91  C   UNL A   1      47.752  29.447  28.257  1.00  0.00     0.012 A 
ATOM     92  C   UNL A   1      45.472  30.257  28.365  1.00  0.00     0.148 A 
ATOM     93  C   UNL A   1      48.018  30.306  27.189  1.00  0.00     0.002 A 
ATOM     94  C   UNL A   1      45.722  31.071  27.267  1.00  0.00     0.091 A 
ATOM     95  F   UNL A   1      44.265  30.218  28.952  1.00  0.00    -0.205 F 
ATOM     96  C   UNL A   1      46.998  31.106  26.682  1.00  0.00     0.022 A 
BRANCH  94  97
ATOM     97  S   UNL A   1      44.414  32.010  26.476  1.00  0.00     0.127 S 
ATOM     98  O   UNL A   1      45.095  32.556  25.305  1.00  0.00    -0.237 OA
ATOM     99  O   UNL A   1      43.420  30.977  26.179  1.00  0.00    -0.237 OA
ATOM    100  O   UNL A   1      43.973  32.990  27.461  1.00  0.00    -0.744 OA
ENDBRANCH  94  97
ENDBRANCH  67  90
ENDBRANCH  41  42
ENDBRANCH  33  36
ENDBRANCH  31  32
ENDBRANCH  30  31
ENDBRANCH   1  30
TORSDOF 17
ENDMDL
MODEL 2
REMARK VINA RESULT:     -12.4      1.286      1.611
REMARK SMILES Cc1cc(C)c2nc(NS(=O)(=O)c3cc(C(=O)NCCCCNC(=O)c4ccc(-c5c6nc(c(-c7cccc(S(=O)(=O)[O-])c7F)c7ccc([nH]7)c(-c7cccc(S(=O)(=O)[O-])c7F)c7nc(c(-c8cccc(S(=O)(=O)[O-])c8F)c8ccc5[nH]8)C=C7)C=C6)cc4)ccc3Cl)sc2c1
REMARK SMILES IDX 20 1 19 2 18 3 16 4 17 5 15 7 13 8 14 9 91 10 90 11 92 12
REMARK SMILES IDX 89 13 10 14 11 15 12 16 9 17 8 19 1 20 2 21 3 22 95 23 4 24
REMARK SMILES IDX 94 25 5 26 6 27 93 28 7 29 21 30 22 31 23 32 24 33 25 35
REMARK SMILES IDX 26 36 27 37 88 38 28 39 87 40 29 41 30 42 31 43 81 44 32 45
REMARK SMILES IDX 86 46 80 47 82 48 33 49 85 50 79 51 78 52 34 54 66 55 46 56
REMARK SMILES IDX 65 57 47 58 50 59 64 60 83 61 48 62 49 63 63 65 84 66 51 67
REMARK SMILES IDX 35 68 36 69 44 70 37 71 39 72 45 73 38 74 40 75 41 76 42 77
REMARK SMILES IDX 43 78 67 79 68 80 76 81 69 82 71 83 77 84 70 85 72 86 73 87
REMARK SMILES IDX 74 88 75 89 52 90 53 91 61 92 54 93 56 94 62 95 55 96 57 97
REMARK SMILES IDX 58 98 59 99 60 100
REMARK H PARENT 18 6 9 18 23 34 82 53 50 64
REMARK Flexibility Score: inf
ROOT
ATOM      1  C   UNL A   1      33.304  30.679  26.333  1.00  0.00     0.023 C 
ENDROOT
BRANCH   1   2
ATOM      2  C   UNL A   1      31.811  30.960  26.543  1.00  0.00     0.116 C 
BRANCH   2   3
ATOM      3  N   UNL A   1      31.064  30.596  25.353  1.00  0.00    -0.352 N 
ATOM      4  C   UNL A   1      31.087  29.540  24.479  1.00  0.00     0.251 C 
ATOM      5  O   UNL A   1      30.441  29.676  23.438  1.00  0.00    -0.269 OA
ATOM      6  H   UNL A   1      30.381  31.264  25.118  1.00  0.00     0.163 HD
BRANCH   4   7
ATOM      7  C   UNL A   1      31.770  28.230  24.718  1.00  0.00     0.041 A 
ATOM      8  C   UNL A   1      31.636  26.039  25.826  1.00  0.00     0.107 A 
ATOM      9  C   UNL A   1      31.044  27.255  25.427  1.00  0.00     0.037 A 
ATOM     10  C   UNL A   1      33.004  25.866  25.672  1.00  0.00     0.061 A 
ATOM     11  C   UNL A   1      33.694  26.757  24.847  1.00  0.00     0.023 A 
ATOM     12  Cl  UNL A   1      33.908  24.595  26.406  1.00  0.00    -0.083 Cl
ATOM     13  C   UNL A   1      33.059  27.889  24.318  1.00  0.00     0.015 A 
BRANCH   8  14
ATOM     14  S   UNL A   1      30.532  24.721  26.265  1.00  0.00     0.265 S 
ATOM     15  O   UNL A   1      29.230  25.313  26.494  1.00  0.00    -0.201 OA
ATOM     16  O   UNL A   1      31.186  23.956  27.307  1.00  0.00    -0.201 OA
BRANCH  14  17
ATOM     17  N   UNL A   1      30.323  23.668  24.991  1.00  0.00    -0.255 N 
ATOM     18  H   UNL A   1      29.404  23.506  24.677  1.00  0.00     0.182 HD
BRANCH  17  19
ATOM     19  C   UNL A   1      31.367  22.993  24.332  1.00  0.00     0.197 A 
ATOM     20  C   UNL A   1      37.306  21.791  24.211  1.00  0.00     0.044 C 
ATOM     21  C   UNL A   1      35.809  21.659  24.187  1.00  0.00    -0.049 A 
ATOM     22  C   UNL A   1      35.204  20.590  24.860  1.00  0.00     0.009 A 
ATOM     23  C   UNL A   1      35.016  22.608  23.529  1.00  0.00     0.024 A 
ATOM     24  C   UNL A   1      33.805  20.489  24.990  1.00  0.00    -0.024 A 
ATOM     25  C   UNL A   1      33.626  22.538  23.703  1.00  0.00     0.057 A 
ATOM     26  C   UNL A   1      33.200  19.321  25.712  1.00  0.00     0.047 C 
ATOM     27  C   UNL A   1      33.023  21.560  24.497  1.00  0.00     0.087 A 
ATOM     28  S   UNL A   1      32.370  23.546  23.066  1.00  0.00    -0.096 S 
ATOM     29  N   UNL A   1      31.691  21.810  24.797  1.00  0.00    -0.219 NA
ENDBRANCH  17  19
ENDBRANCH  14  17
ENDBRANCH   8  14
ENDBRANCH   4   7
ENDBRANCH   2   3
ENDBRANCH   1   2
BRANCH   1  30
ATOM     30  C   UNL A   1      34.095  30.561  27.648  1.00  0.00     0.023 C 
BRANCH  30  31
ATOM     31  C   UNL A   1      35.109  31.682  27.862  1.00  0.00     0.116 C 
BRANCH  31  32
ATOM     32  N   UNL A   1      35.066  32.211  29.226  1.00  0.00    -0.352 N 
ATOM     33  C   UNL A   1      35.874  31.883  30.293  1.00  0.00     0.251 C 
ATOM     34  H   UNL A   1      34.372  32.887  29.404  1.00  0.00     0.163 HD
ATOM     35  O   UNL A   1      35.529  32.124  31.444  1.00  0.00    -0.269 OA
BRANCH  33  36
ATOM     36  C   UNL A   1      37.169  31.238  30.021  1.00  0.00     0.039 A 
ATOM     37  C   UNL A   1      38.353  31.982  30.035  1.00  0.00     0.014 A 
ATOM     38  C   UNL A   1      37.184  29.862  29.806  1.00  0.00     0.014 A 
ATOM     39  C   UNL A   1      39.570  31.315  29.918  1.00  0.00     0.010 A 
ATOM     40  C   UNL A   1      38.388  29.196  29.792  1.00  0.00     0.010 A 
ATOM     41  C   UNL A   1      39.585  29.918  29.817  1.00  0.00    -0.014 A 
BRANCH  41  42
ATOM     42  C   UNL A   1      40.852  29.185  29.881  1.00  0.00     0.031 A 
ATOM     43  C   UNL A   1      41.324  28.816  31.252  1.00  0.00     0.074 A 
ATOM     44  C   UNL A   1      41.405  28.631  28.778  1.00  0.00     0.049 A 
ATOM     45  N   UNL A   1      42.470  29.062  31.802  1.00  0.00    -0.248 NA
ATOM     46  C   UNL A   1      40.364  28.155  32.154  1.00  0.00     0.031 C 
ATOM     47  C   UNL A   1      40.857  28.629  27.414  1.00  0.00     0.029 A 
ATOM     48  N   UNL A   1      42.471  27.787  28.675  1.00  0.00    -0.354 N 
ATOM     49  C   UNL A   1      42.448  28.413  33.040  1.00  0.00     0.074 A 
ATOM     50  C   UNL A   1      41.084  28.013  33.267  1.00  0.00     0.031 C 
ATOM     51  C   UNL A   1      41.405  27.613  26.715  1.00  0.00     0.029 A 
ATOM     52  C   UNL A   1      42.458  27.018  27.514  1.00  0.00     0.049 A 
ATOM     53  H   UNL A   1      43.180  27.727  29.357  1.00  0.00     0.167 HD
ATOM     54  C   UNL A   1      43.586  28.056  33.699  1.00  0.00     0.034 A 
ATOM     55  C   UNL A   1      43.213  25.925  27.256  1.00  0.00     0.034 A 
ATOM     56  C   UNL A   1      44.744  28.715  33.168  1.00  0.00     0.049 A 
ATOM     57  C   UNL A   1      44.366  25.964  28.179  1.00  0.00     0.074 A 
ATOM     58  C   UNL A   1      45.168  30.021  33.049  1.00  0.00     0.029 A 
ATOM     59  N   UNL A   1      45.535  27.976  32.326  1.00  0.00    -0.354 N 
ATOM     60  N   UNL A   1      45.298  26.873  28.141  1.00  0.00    -0.248 NA
ATOM     61  C   UNL A   1      44.305  25.177  29.398  1.00  0.00     0.031 C 
ATOM     62  C   UNL A   1      45.879  30.066  31.814  1.00  0.00     0.029 A 
ATOM     63  C   UNL A   1      45.885  28.778  31.273  1.00  0.00     0.049 A 
ATOM     64  H   UNL A   1      45.805  27.038  32.456  1.00  0.00     0.167 HD
ATOM     65  C   UNL A   1      45.633  27.075  29.472  1.00  0.00     0.074 A 
ATOM     66  C   UNL A   1      45.107  25.909  30.173  1.00  0.00     0.031 C 
ATOM     67  C   UNL A   1      46.040  28.302  29.913  1.00  0.00     0.034 A 
BRANCH  54  68
ATOM     68  C   UNL A   1      43.719  26.864  34.620  1.00  0.00     0.023 A 
ATOM     69  C   UNL A   1      43.143  25.639  34.212  1.00  0.00     0.012 A 
ATOM     70  C   UNL A   1      44.152  26.950  35.962  1.00  0.00     0.148 A 
ATOM     71  C   UNL A   1      42.993  24.565  35.097  1.00  0.00     0.002 A 
ATOM     72  C   UNL A   1      44.086  25.850  36.811  1.00  0.00     0.091 A 
ATOM     73  F   UNL A   1      44.505  28.135  36.472  1.00  0.00    -0.205 F 
ATOM     74  C   UNL A   1      43.482  24.664  36.394  1.00  0.00     0.022 A 
BRANCH  72  75
ATOM     75  S   UNL A   1      44.781  25.904  38.467  1.00  0.00     0.127 S 
ATOM     76  O   UNL A   1      43.764  26.661  39.189  1.00  0.00    -0.237 OA
ATOM     77  O   UNL A   1      44.854  24.482  38.807  1.00  0.00    -0.237 OA
ATOM     78  O   UNL A   1      46.081  26.546  38.316  1.00  0.00    -0.744 OA
ENDBRANCH  72  75
ENDBRANCH  54  68
BRANCH  55  79
ATOM     79  C   UNL A   1      42.900  24.717  26.460  1.00  0.00     0.023 A 
ATOM     80  C   UNL A   1      43.788  24.316  25.442  1.00  0.00     0.012 A 
ATOM     81  C   UNL A   1      41.915  23.799  26.887  1.00  0.00     0.148 A 
ATOM     82  C   UNL A   1      43.736  23.024  24.905  1.00  0.00     0.002 A 
ATOM     83  C   UNL A   1      41.865  22.516  26.348  1.00  0.00     0.091 A 
ATOM     84  F   UNL A   1      41.096  24.149  27.887  1.00  0.00    -0.205 F 
ATOM     85  C   UNL A   1      42.784  22.120  25.369  1.00  0.00     0.022 A 
BRANCH  83  86
ATOM     86  S   UNL A   1      40.686  21.285  26.922  1.00  0.00     0.127 S 
ATOM     87  O   UNL A   1      39.407  21.918  26.600  1.00  0.00    -0.237 OA
ATOM     88  O   UNL A   1      41.030  20.135  26.092  1.00  0.00    -0.237 OA
ATOM     89  O   UNL A   1      40.937  21.136  28.351  1.00  0.00    -0.744 OA
ENDBRANCH  83  86
ENDBRANCH  55  79
BRANCH  67  90
ATOM     90  C   UNL A   1      46.403  29.347  28.884  1.00  0.00     0.023 A 
ATOM     91  C   UNL A   1      47.677  29.400  28.280  1.00  0.00     0.012 A 
ATOM     92  C   UNL A   1      45.382  30.168  28.377  1.00  0.00     0.148 A 
ATOM     93  C   UNL A   1      47.932  30.260  27.210  1.00  0.00     0.002 A 
ATOM     94  C   UNL A   1      45.622  30.983  27.277  1.00  0.00     0.091 A 
ATOM     95  F   UNL A   1      44.174  30.108  28.960  1.00  0.00    -0.205 F 
ATOM     96  C   UNL A   1      46.899  31.040  26.696  1.00  0.00     0.022 A 
BRANCH  94  97
ATOM     97  S   UNL A   1      44.299  31.896  26.479  1.00  0.00     0.127 S 
ATOM     98  O   UNL A   1      43.335  30.839  26.182  1.00  0.00    -0.237 OA
ATOM     99  O   UNL A   1      43.882  32.828  27.527  1.00  0.00    -0.237 OA
ATOM    100  O   UNL A   1      44.902  32.541  25.319  1.00  0.00    -0.744 OA
ENDBRANCH  94  97
ENDBRANCH  67  90
ENDBRANCH  41  42
ENDBRANCH  33  36
ENDBRANCH  31  32
ENDBRANCH  30  31
ENDBRANCH   1  30
TORSDOF 17
ENDMDL
MODEL 3
REMARK VINA RESULT:     -12.2      1.912      2.455
REMARK SMILES Cc1cc(C)c2nc(NS(=O)(=O)c3cc(C(=O)NCCCCNC(=O)c4ccc(-c5c6nc(c(-c7cccc(S(=O)(=O)[O-])c7F)c7ccc([nH]7)c(-c7cccc(S(=O)(=O)[O-])c7F)c7nc(c(-c8cccc(S(=O)(=O)[O-])c8F)c8ccc5[nH]8)C=C7)C=C6)cc4)ccc3Cl)sc2c1
REMARK SMILES IDX 20 1 19 2 18 3 16 4 17 5 15 7 13 8 14 9 91 10 90 11 92 12
REMARK SMILES IDX 89 13 10 14 11 15 12 16 9 17 8 19 1 20 2 21 3 22 95 23 4 24
REMARK SMILES IDX 94 25 5 26 6 27 93 28 7 29 21 30 22 31 23 32 24 33 25 35
REMARK SMILES IDX 26 36 27 37 88 38 28 39 87 40 29 41 30 42 31 43 81 44 32 45
REMARK SMILES IDX 86 46 80 47 82 48 33 49 85 50 79 51 78 52 34 54 66 55 46 56
REMARK SMILES IDX 65 57 47 58 50 59 64 60 83 61 48 62 49 63 63 65 84 66 51 67
REMARK SMILES IDX 35 68 36 69 44 70 37 71 39 72 45 73 38 74 40 75 41 76 42 77
REMARK SMILES IDX 43 78 67 79 68 80 76 81 69 82 71 83 77 84 70 85 72 86 73 87
REMARK SMILES IDX 74 88 75 89 52 90 53 91 61 92 54 93 56 94 62 95 55 96 57 97
REMARK SMILES IDX 58 98 59 99 60 100
REMARK H PARENT 18 6 9 18 23 34 82 53 50 64
REMARK Flexibility Score: inf
ROOT
ATOM      1  C   UNL A   1      35.122  29.813  27.543  1.00  0.00     0.023 C 
ENDROOT
BRANCH   1   2
ATOM      2  C   UNL A   1      34.462  28.695  26.725  1.00  0.00     0.116 C 
BRANCH   2   3
ATOM      3  N   UNL A   1      34.482  29.035  25.314  1.00  0.00    -0.352 N 
ATOM      4  C   UNL A   1      33.647  28.810  24.250  1.00  0.00     0.251 C 
ATOM      5  O   UNL A   1      34.102  29.065  23.133  1.00  0.00    -0.269 OA
ATOM      6  H   UNL A   1      35.283  29.548  25.061  1.00  0.00     0.163 HD
BRANCH   4   7
ATOM      7  C   UNL A   1      32.226  28.349  24.345  1.00  0.00     0.041 A 
ATOM      8  C   UNL A   1      30.727  26.475  24.879  1.00  0.00     0.107 A 
ATOM      9  C   UNL A   1      32.009  27.062  24.870  1.00  0.00     0.037 A 
ATOM     10  C   UNL A   1      29.688  27.101  24.204  1.00  0.00     0.061 A 
ATOM     11  C   UNL A   1      29.860  28.430  23.813  1.00  0.00     0.023 A 
ATOM     12  Cl  UNL A   1      28.177  26.353  23.848  1.00  0.00    -0.083 Cl
ATOM     13  C   UNL A   1      31.101  29.067  23.952  1.00  0.00     0.015 A 
BRANCH   8  14
ATOM     14  S   UNL A   1      30.487  25.100  25.975  1.00  0.00     0.265 S 
ATOM     15  O   UNL A   1      29.185  25.266  26.588  1.00  0.00    -0.201 OA
ATOM     16  O   UNL A   1      31.679  25.003  26.792  1.00  0.00    -0.201 OA
BRANCH  14  17
ATOM     17  N   UNL A   1      30.399  23.669  25.126  1.00  0.00    -0.255 N 
ATOM     18  H   UNL A   1      29.527  23.214  25.086  1.00  0.00     0.182 HD
BRANCH  17  19
ATOM     19  C   UNL A   1      31.483  23.064  24.464  1.00  0.00     0.197 A 
ATOM     20  C   UNL A   1      37.372  21.651  24.686  1.00  0.00     0.044 C 
ATOM     21  C   UNL A   1      35.881  21.586  24.507  1.00  0.00    -0.049 A 
ATOM     22  C   UNL A   1      35.186  20.450  24.940  1.00  0.00     0.009 A 
ATOM     23  C   UNL A   1      35.180  22.659  23.942  1.00  0.00     0.024 A 
ATOM     24  C   UNL A   1      33.779  20.388  24.926  1.00  0.00    -0.024 A 
ATOM     25  C   UNL A   1      33.779  22.620  23.976  1.00  0.00     0.057 A 
ATOM     26  C   UNL A   1      33.077  19.147  25.392  1.00  0.00     0.047 C 
ATOM     27  C   UNL A   1      33.077  21.555  24.544  1.00  0.00     0.087 A 
ATOM     28  S   UNL A   1      32.617  23.768  23.400  1.00  0.00    -0.096 S 
ATOM     29  N   UNL A   1      31.729  21.809  24.759  1.00  0.00    -0.219 NA
ENDBRANCH  17  19
ENDBRANCH  14  17
ENDBRANCH   8  14
ENDBRANCH   4   7
ENDBRANCH   2   3
ENDBRANCH   1   2
BRANCH   1  30
ATOM     30  C   UNL A   1      34.242  31.067  27.686  1.00  0.00     0.023 C 
BRANCH  30  31
ATOM     31  C   UNL A   1      35.015  32.323  28.082  1.00  0.00     0.116 C 
BRANCH  31  32
ATOM     32  N   UNL A   1      34.489  32.932  29.304  1.00  0.00    -0.352 N 
ATOM     33  C   UNL A   1      34.830  32.651  30.610  1.00  0.00     0.251 C 
ATOM     34  H   UNL A   1      33.806  33.630  29.178  1.00  0.00     0.163 HD
ATOM     35  O   UNL A   1      34.092  32.966  31.536  1.00  0.00    -0.269 OA
BRANCH  33  36
ATOM     36  C   UNL A   1      36.106  31.967  30.872  1.00  0.00     0.039 A 
ATOM     37  C   UNL A   1      36.153  30.578  31.028  1.00  0.00     0.014 A 
ATOM     38  C   UNL A   1      37.268  32.737  30.904  1.00  0.00     0.014 A 
ATOM     39  C   UNL A   1      37.393  29.952  31.130  1.00  0.00     0.010 A 
ATOM     40  C   UNL A   1      38.492  32.108  30.903  1.00  0.00     0.010 A 
ATOM     41  C   UNL A   1      38.563  30.718  31.047  1.00  0.00    -0.014 A 
BRANCH  41  42
ATOM     42  C   UNL A   1      39.871  30.064  30.964  1.00  0.00     0.031 A 
ATOM     43  C   UNL A   1      40.642  29.984  32.245  1.00  0.00     0.074 A 
ATOM     44  C   UNL A   1      40.230  29.334  29.885  1.00  0.00     0.049 A 
ATOM     45  N   UNL A   1      41.852  30.378  32.482  1.00  0.00    -0.248 NA
ATOM     46  C   UNL A   1      39.943  29.468  33.436  1.00  0.00     0.031 C 
ATOM     47  C   UNL A   1      39.417  29.049  28.694  1.00  0.00     0.029 A 
ATOM     48  N   UNL A   1      41.318  28.531  29.706  1.00  0.00    -0.354 N 
ATOM     49  C   UNL A   1      42.136  29.977  33.790  1.00  0.00     0.074 A 
ATOM     50  C   UNL A   1      40.885  29.571  34.374  1.00  0.00     0.031 C 
ATOM     51  C   UNL A   1      39.891  27.942  28.086  1.00  0.00     0.029 A 
ATOM     52  C   UNL A   1      41.130  27.554  28.730  1.00  0.00     0.049 A 
ATOM     53  H   UNL A   1      42.154  28.631  30.218  1.00  0.00     0.167 HD
ATOM     54  C   UNL A   1      43.410  29.799  34.241  1.00  0.00     0.034 A 
ATOM     55  C   UNL A   1      41.902  26.464  28.514  1.00  0.00     0.034 A 
ATOM     56  C   UNL A   1      44.378  30.392  33.364  1.00  0.00     0.049 A 
ATOM     57  C   UNL A   1      43.213  26.726  29.145  1.00  0.00     0.074 A 
ATOM     58  C   UNL A   1      44.661  31.668  32.926  1.00  0.00     0.029 A 
ATOM     59  N   UNL A   1      45.038  29.540  32.516  1.00  0.00    -0.354 N 
ATOM     60  N   UNL A   1      44.040  27.650  28.746  1.00  0.00    -0.248 NA
ATOM     61  C   UNL A   1      43.465  26.184  30.468  1.00  0.00     0.031 C 
ATOM     62  C   UNL A   1      45.099  31.506  31.579  1.00  0.00     0.029 A 
ATOM     63  C   UNL A   1      45.098  30.140  31.287  1.00  0.00     0.049 A 
ATOM     64  H   UNL A   1      45.403  28.656  32.750  1.00  0.00     0.167 HD
ATOM     65  C   UNL A   1      44.622  28.116  29.915  1.00  0.00     0.074 A 
ATOM     66  C   UNL A   1      44.347  27.084  30.909  1.00  0.00     0.031 C 
ATOM     67  C   UNL A   1      45.010  29.420  30.033  1.00  0.00     0.034 A 
BRANCH  54  68
ATOM     68  C   UNL A   1      43.824  28.812  35.308  1.00  0.00     0.023 A 
ATOM     69  C   UNL A   1      44.574  29.293  36.406  1.00  0.00     0.012 A 
ATOM     70  C   UNL A   1      43.734  27.410  35.162  1.00  0.00     0.148 A 
ATOM     71  C   UNL A   1      45.213  28.424  37.298  1.00  0.00     0.002 A 
ATOM     72  C   UNL A   1      44.292  26.551  36.104  1.00  0.00     0.091 A 
ATOM     73  F   UNL A   1      43.228  26.890  34.039  1.00  0.00    -0.205 F 
ATOM     74  C   UNL A   1      45.057  27.050  37.159  1.00  0.00     0.022 A 
BRANCH  72  75
ATOM     75  S   UNL A   1      44.045  24.774  36.011  1.00  0.00     0.127 S 
ATOM     76  O   UNL A   1      44.653  24.326  37.259  1.00  0.00    -0.237 OA
ATOM     77  O   UNL A   1      42.586  24.676  35.960  1.00  0.00    -0.237 OA
ATOM     78  O   UNL A   1      44.711  24.360  34.782  1.00  0.00    -0.744 OA
ENDBRANCH  72  75
ENDBRANCH  54  68
BRANCH  55  79
ATOM     79  C   UNL A   1      41.532  25.115  28.032  1.00  0.00     0.023 A 
ATOM     80  C   UNL A   1      40.173  24.740  28.016  1.00  0.00     0.012 A 
ATOM     81  C   UNL A   1      42.452  24.322  27.313  1.00  0.00     0.148 A 
ATOM     82  C   UNL A   1      39.735  23.644  27.263  1.00  0.00     0.002 A 
ATOM     83  C   UNL A   1      42.013  23.230  26.568  1.00  0.00     0.091 A 
ATOM     84  F   UNL A   1      43.738  24.693  27.279  1.00  0.00    -0.205 F 
ATOM     85  C   UNL A   1      40.653  22.899  26.527  1.00  0.00     0.022 A 
BRANCH  83  86
ATOM     86  S   UNL A   1      43.134  22.244  25.566  1.00  0.00     0.127 S 
ATOM     87  O   UNL A   1      44.329  22.194  26.410  1.00  0.00    -0.237 OA
ATOM     88  O   UNL A   1      42.405  20.984  25.457  1.00  0.00    -0.237 OA
ATOM     89  O   UNL A   1      43.310  22.987  24.324  1.00  0.00    -0.744 OA
ENDBRANCH  83  86
ENDBRANCH  55  79
BRANCH  67  90
ATOM     90  C   UNL A   1      45.070  30.264  28.781  1.00  0.00     0.023 A 
ATOM     91  C   UNL A   1      43.908  30.705  28.112  1.00  0.00     0.012 A 
ATOM     92  C   UNL A   1      46.314  30.782  28.384  1.00  0.00     0.148 A 
ATOM     93  C   UNL A   1      43.987  31.624  27.063  1.00  0.00     0.002 A 
ATOM     94  C   UNL A   1      46.384  31.738  27.378  1.00  0.00     0.091 A 
ATOM     95  F   UNL A   1      47.412  30.356  29.029  1.00  0.00    -0.205 F 
ATOM     96  C   UNL A   1      45.224  32.155  26.707  1.00  0.00     0.022 A 
BRANCH  94  97
ATOM     97  S   UNL A   1      47.924  32.567  26.977  1.00  0.00     0.127 S 
ATOM     98  O   UNL A   1      48.763  31.455  26.535  1.00  0.00    -0.237 OA
ATOM     99  O   UNL A   1      47.519  33.488  25.914  1.00  0.00    -0.237 OA
ATOM    100  O   UNL A   1      48.353  33.230  28.203  1.00  0.00    -0.744 OA
ENDBRANCH  94  97
ENDBRANCH  67  90
ENDBRANCH  41  42
ENDBRANCH  33  36
ENDBRANCH  31  32
ENDBRANCH  30  31
ENDBRANCH   1  30
TORSDOF 17
ENDMDL
