MODEL 1
REMARK VINA RESULT:     -11.8      0.000      0.000
REMARK SMILES CCC(CC)(NC(=O)c1ccc(NC(C)=O)cc1)C(=O)NCCCCNC(=O)c1ccc(-c2c3nc(c(-c4cccc(S(=O)(=O)[O-])c4F)c4ccc([nH]4)c(-c4cccc(S(=O)(=O)[O-])c4F)c4nc(c(-c5cccc(S(=O)(=O)[O-])c5F)c5ccc2[nH]5)C=C4)C=C3)cc1
REMARK SMILES IDX 23 1 22 2 21 3 19 4 20 5 3 7 2 8 1 9 4 10 5 11 6 12 7 13
REMARK SMILES IDX 8 15 9 16 10 17 18 18 11 19 17 20 12 21 13 22 14 23 15 25
REMARK SMILES IDX 16 26 24 27 25 28 26 29 27 30 28 32 29 33 30 34 91 35 31 36
REMARK SMILES IDX 90 37 32 38 33 39 34 40 84 41 35 42 89 43 83 44 85 45 36 46
REMARK SMILES IDX 88 47 82 48 81 49 37 51 69 52 49 53 68 54 50 55 53 56 67 57
REMARK SMILES IDX 86 58 51 59 52 60 66 62 87 63 54 64 38 65 39 66 47 67 40 68
REMARK SMILES IDX 42 69 48 70 41 71 43 72 44 73 45 74 46 75 70 76 71 77 79 78
REMARK SMILES IDX 72 79 74 80 80 81 73 82 75 83 76 84 77 85 78 86 55 87 56 88
REMARK SMILES IDX 64 89 57 90 59 91 65 92 58 93 60 94 61 95 62 96 63 97
REMARK H PARENT 21 6 6 14 13 24 26 31 85 50 53 61
REMARK Flexibility Score: inf
ROOT
ATOM      1  C   UNL A   1      31.515  30.459  25.951  1.00  0.00     0.023 C 
ENDROOT
BRANCH   1   2
ATOM      2  C   UNL A   1      32.847  29.713  26.035  1.00  0.00     0.116 C 
BRANCH   2   3
ATOM      3  N   UNL A   1      33.661  29.602  24.834  1.00  0.00    -0.354 N 
ATOM      4  C   UNL A   1      33.669  28.731  23.774  1.00  0.00     0.245 C 
ATOM      5  O   UNL A   1      34.290  29.117  22.777  1.00  0.00    -0.272 OA
ATOM      6  H   UNL A   1      34.352  30.300  24.769  1.00  0.00     0.163 HD
BRANCH   4   7
ATOM      7  C   UNL A   1      32.872  27.387  23.764  1.00  0.00     0.118 C 
BRANCH   7   8
ATOM      8  C   UNL A   1      31.464  27.466  24.431  1.00  0.00     0.035 C 
ATOM      9  C   UNL A   1      30.302  28.043  23.636  1.00  0.00     0.007 C 
ENDBRANCH   7   8
BRANCH   7  10
ATOM     10  C   UNL A   1      33.826  26.463  24.599  1.00  0.00     0.035 C 
ATOM     11  C   UNL A   1      33.280  25.818  25.860  1.00  0.00     0.007 C 
ENDBRANCH   7  10
BRANCH   7  12
ATOM     12  N   UNL A   1      32.637  26.832  22.393  1.00  0.00    -0.338 N 
ATOM     13  C   UNL A   1      32.890  25.593  21.805  1.00  0.00     0.252 C 
ATOM     14  H   UNL A   1      32.215  27.475  21.779  1.00  0.00     0.164 HD
ATOM     15  O   UNL A   1      33.142  25.627  20.596  1.00  0.00    -0.269 OA
BRANCH  13  16
ATOM     16  C   UNL A   1      32.784  24.242  22.465  1.00  0.00     0.039 A 
ATOM     17  C   UNL A   1      31.595  23.852  23.107  1.00  0.00     0.016 A 
ATOM     18  C   UNL A   1      33.863  23.392  22.637  1.00  0.00     0.016 A 
ATOM     19  C   UNL A   1      31.535  22.687  23.919  1.00  0.00     0.027 A 
ATOM     20  C   UNL A   1      33.830  22.261  23.446  1.00  0.00     0.027 A 
ATOM     21  C   UNL A   1      32.673  21.906  24.115  1.00  0.00     0.041 A 
BRANCH  21  22
ATOM     22  N   UNL A   1      32.807  20.801  24.968  1.00  0.00    -0.326 N 
ATOM     23  C   UNL A   1      32.591  19.470  24.698  1.00  0.00     0.221 C 
ATOM     24  H   UNL A   1      33.094  21.007  25.888  1.00  0.00     0.169 HD
ATOM     25  C   UNL A   1      32.776  18.603  25.925  1.00  0.00     0.114 C 
ATOM     26  O   UNL A   1      32.327  19.005  23.589  1.00  0.00    -0.275 OA
ENDBRANCH  21  22
ENDBRANCH  13  16
ENDBRANCH   7  12
ENDBRANCH   4   7
ENDBRANCH   2   3
ENDBRANCH   1   2
BRANCH   1  27
ATOM     27  C   UNL A   1      31.376  31.799  26.666  1.00  0.00     0.023 C 
BRANCH  27  28
ATOM     28  C   UNL A   1      32.650  32.422  27.204  1.00  0.00     0.116 C 
BRANCH  28  29
ATOM     29  N   UNL A   1      32.491  33.826  27.536  1.00  0.00    -0.352 N 
ATOM     30  C   UNL A   1      33.161  34.572  28.471  1.00  0.00     0.251 C 
ATOM     31  H   UNL A   1      31.807  34.309  27.020  1.00  0.00     0.163 HD
ATOM     32  O   UNL A   1      32.784  35.721  28.712  1.00  0.00    -0.269 OA
BRANCH  30  33
ATOM     33  C   UNL A   1      34.315  34.003  29.204  1.00  0.00     0.039 A 
ATOM     34  C   UNL A   1      34.078  33.049  30.198  1.00  0.00     0.014 A 
ATOM     35  C   UNL A   1      35.623  34.414  28.930  1.00  0.00     0.014 A 
ATOM     36  C   UNL A   1      35.152  32.480  30.887  1.00  0.00     0.010 A 
ATOM     37  C   UNL A   1      36.695  33.793  29.565  1.00  0.00     0.010 A 
ATOM     38  C   UNL A   1      36.471  32.833  30.563  1.00  0.00    -0.014 A 
BRANCH  38  39
ATOM     39  C   UNL A   1      37.630  32.230  31.272  1.00  0.00     0.031 A 
ATOM     40  C   UNL A   1      38.395  31.097  30.641  1.00  0.00     0.074 A 
ATOM     41  C   UNL A   1      37.944  32.645  32.515  1.00  0.00     0.049 A 
ATOM     42  N   UNL A   1      39.391  30.404  31.126  1.00  0.00    -0.248 NA
ATOM     43  C   UNL A   1      37.962  30.666  29.301  1.00  0.00     0.031 C 
ATOM     44  C   UNL A   1      37.234  33.680  33.268  1.00  0.00     0.029 A 
ATOM     45  N   UNL A   1      38.929  32.226  33.374  1.00  0.00    -0.354 N 
ATOM     46  C   UNL A   1      39.676  29.430  30.175  1.00  0.00     0.074 A 
ATOM     47  C   UNL A   1      38.725  29.601  29.098  1.00  0.00     0.031 C 
ATOM     48  C   UNL A   1      37.811  33.820  34.473  1.00  0.00     0.029 A 
ATOM     49  C   UNL A   1      38.914  32.872  34.588  1.00  0.00     0.049 A 
ATOM     50  H   UNL A   1      39.585  31.529  33.143  1.00  0.00     0.167 HD
ATOM     51  C   UNL A   1      40.658  28.498  30.180  1.00  0.00     0.034 A 
ATOM     52  C   UNL A   1      39.701  32.717  35.672  1.00  0.00     0.034 A 
ATOM     53  C   UNL A   1      41.643  28.373  31.220  1.00  0.00     0.049 A 
ATOM     54  C   UNL A   1      40.820  31.712  35.629  1.00  0.00     0.074 A 
ATOM     55  C   UNL A   1      42.740  27.532  31.268  1.00  0.00     0.029 A 
ATOM     56  N   UNL A   1      41.651  29.108  32.394  1.00  0.00    -0.354 N 
ATOM     57  N   UNL A   1      41.172  30.911  34.653  1.00  0.00    -0.248 NA
ATOM     58  C   UNL A   1      41.673  31.617  36.823  1.00  0.00     0.031 C 
ATOM     59  C   UNL A   1      43.403  27.748  32.480  1.00  0.00     0.029 A 
ATOM     60  C   UNL A   1      42.728  28.737  33.179  1.00  0.00     0.049 A 
ATOM     61  H   UNL A   1      40.987  29.794  32.635  1.00  0.00     0.167 HD
ATOM     62  C   UNL A   1      42.307  30.244  35.099  1.00  0.00     0.074 A 
ATOM     63  C   UNL A   1      42.594  30.748  36.427  1.00  0.00     0.031 C 
ATOM     64  C   UNL A   1      43.036  29.288  34.473  1.00  0.00     0.034 A 
BRANCH  51  65
ATOM     65  C   UNL A   1      40.755  27.575  28.994  1.00  0.00     0.023 A 
ATOM     66  C   UNL A   1      39.871  26.482  28.890  1.00  0.00     0.012 A 
ATOM     67  C   UNL A   1      41.678  27.818  27.958  1.00  0.00     0.148 A 
ATOM     68  C   UNL A   1      39.926  25.624  27.792  1.00  0.00     0.002 A 
ATOM     69  C   UNL A   1      41.698  26.983  26.846  1.00  0.00     0.091 A 
ATOM     70  F   UNL A   1      42.527  28.847  28.085  1.00  0.00    -0.205 F 
ATOM     71  C   UNL A   1      40.832  25.881  26.767  1.00  0.00     0.022 A 
BRANCH  69  72
ATOM     72  S   UNL A   1      42.777  27.276  25.439  1.00  0.00     0.127 S 
ATOM     73  O   UNL A   1      44.071  27.462  26.095  1.00  0.00    -0.237 OA
ATOM     74  O   UNL A   1      42.651  26.025  24.688  1.00  0.00    -0.237 OA
ATOM     75  O   UNL A   1      42.242  28.446  24.761  1.00  0.00    -0.744 OA
ENDBRANCH  69  72
ENDBRANCH  51  65
BRANCH  52  76
ATOM     76  C   UNL A   1      39.501  33.585  36.865  1.00  0.00     0.023 A 
ATOM     77  C   UNL A   1      39.938  34.923  36.826  1.00  0.00     0.012 A 
ATOM     78  C   UNL A   1      38.860  33.103  38.022  1.00  0.00     0.148 A 
ATOM     79  C   UNL A   1      39.765  35.760  37.928  1.00  0.00     0.002 A 
ATOM     80  C   UNL A   1      38.645  33.957  39.097  1.00  0.00     0.091 A 
ATOM     81  F   UNL A   1      38.464  31.823  38.041  1.00  0.00    -0.205 F 
ATOM     82  C   UNL A   1      39.110  35.282  39.058  1.00  0.00     0.022 A 
BRANCH  80  83
ATOM     83  S   UNL A   1      37.703  33.460  40.542  1.00  0.00     0.127 S 
ATOM     84  O   UNL A   1      36.455  32.999  39.940  1.00  0.00    -0.237 OA
ATOM     85  O   UNL A   1      38.548  32.405  41.102  1.00  0.00    -0.237 OA
ATOM     86  O   UNL A   1      37.604  34.657  41.367  1.00  0.00    -0.744 OA
ENDBRANCH  80  83
ENDBRANCH  52  76
BRANCH  64  87
ATOM     87  C   UNL A   1      44.239  28.742  35.194  1.00  0.00     0.023 A 
ATOM     88  C   UNL A   1      45.511  29.293  34.948  1.00  0.00     0.012 A 
ATOM     89  C   UNL A   1      44.096  27.739  36.173  1.00  0.00     0.148 A 
ATOM     90  C   UNL A   1      46.629  28.834  35.644  1.00  0.00     0.002 A 
ATOM     91  C   UNL A   1      45.206  27.320  36.898  1.00  0.00     0.091 A 
ATOM     92  F   UNL A   1      42.880  27.213  36.378  1.00  0.00    -0.205 F 
ATOM     93  C   UNL A   1      46.474  27.858  36.627  1.00  0.00     0.022 A 
BRANCH  91  94
ATOM     94  S   UNL A   1      45.082  26.139  38.245  1.00  0.00     0.127 S 
ATOM     95  O   UNL A   1      46.323  26.388  38.976  1.00  0.00    -0.237 OA
ATOM     96  O   UNL A   1      43.869  26.578  38.935  1.00  0.00    -0.237 OA
ATOM     97  O   UNL A   1      44.976  24.828  37.617  1.00  0.00    -0.744 OA
ENDBRANCH  91  94
ENDBRANCH  64  87
ENDBRANCH  38  39
ENDBRANCH  30  33
ENDBRANCH  28  29
ENDBRANCH  27  28
ENDBRANCH   1  27
TORSDOF 19
ENDMDL
MODEL 2
REMARK VINA RESULT:     -11.4      6.201     11.486
REMARK SMILES CCC(CC)(NC(=O)c1ccc(NC(C)=O)cc1)C(=O)NCCCCNC(=O)c1ccc(-c2c3nc(c(-c4cccc(S(=O)(=O)[O-])c4F)c4ccc([nH]4)c(-c4cccc(S(=O)(=O)[O-])c4F)c4nc(c(-c5cccc(S(=O)(=O)[O-])c5F)c5ccc2[nH]5)C=C4)C=C3)cc1
REMARK SMILES IDX 23 1 22 2 21 3 19 4 20 5 3 7 2 8 1 9 4 10 5 11 6 12 7 13
REMARK SMILES IDX 8 15 9 16 10 17 18 18 11 19 17 20 12 21 13 22 14 23 15 25
REMARK SMILES IDX 16 26 24 27 25 28 26 29 27 30 28 32 29 33 30 34 91 35 31 36
REMARK SMILES IDX 90 37 32 38 33 39 34 40 84 41 35 42 89 43 83 44 85 45 36 46
REMARK SMILES IDX 88 47 82 48 81 49 37 51 69 52 49 53 68 54 50 55 53 56 67 57
REMARK SMILES IDX 86 58 51 59 52 60 66 62 87 63 54 64 38 65 39 66 47 67 40 68
REMARK SMILES IDX 42 69 48 70 41 71 43 72 44 73 45 74 46 75 70 76 71 77 79 78
REMARK SMILES IDX 72 79 74 80 80 81 73 82 75 83 76 84 77 85 78 86 55 87 56 88
REMARK SMILES IDX 64 89 57 90 59 91 65 92 58 93 60 94 61 95 62 96 63 97
REMARK H PARENT 21 6 6 14 13 24 26 31 85 50 53 61
REMARK Flexibility Score: inf
ROOT
ATOM      1  C   UNL A   1      36.334  19.923  24.986  1.00  0.00     0.023 C 
ENDROOT
BRANCH   1   2
ATOM      2  C   UNL A   1      35.757  21.310  25.272  1.00  0.00     0.116 C 
BRANCH   2   3
ATOM      3  N   UNL A   1      35.073  21.534  26.536  1.00  0.00    -0.354 N 
ATOM      4  C   UNL A   1      33.871  22.104  26.875  1.00  0.00     0.245 C 
ATOM      5  O   UNL A   1      33.465  21.845  28.013  1.00  0.00    -0.272 OA
ATOM      6  H   UNL A   1      35.580  21.206  27.314  1.00  0.00     0.163 HD
BRANCH   4   7
ATOM      7  C   UNL A   1      33.010  22.941  25.875  1.00  0.00     0.118 C 
BRANCH   7   8
ATOM      8  C   UNL A   1      33.092  24.484  26.087  1.00  0.00     0.035 C 
ATOM      9  C   UNL A   1      34.370  25.215  25.702  1.00  0.00     0.007 C 
ENDBRANCH   7   8
BRANCH   7  10
ATOM     10  C   UNL A   1      31.568  22.415  26.205  1.00  0.00     0.035 C 
ATOM     11  C   UNL A   1      30.588  23.371  26.861  1.00  0.00     0.007 C 
ENDBRANCH   7  10
BRANCH   7  12
ATOM     12  N   UNL A   1      33.358  22.713  24.437  1.00  0.00    -0.338 N 
ATOM     13  C   UNL A   1      32.742  23.063  23.236  1.00  0.00     0.252 C 
ATOM     14  H   UNL A   1      34.197  22.214  24.313  1.00  0.00     0.164 HD
ATOM     15  O   UNL A   1      32.915  22.268  22.305  1.00  0.00    -0.269 OA
BRANCH  13  16
ATOM     16  C   UNL A   1      31.992  24.337  22.943  1.00  0.00     0.039 A 
ATOM     17  C   UNL A   1      32.639  25.420  22.321  1.00  0.00     0.016 A 
ATOM     18  C   UNL A   1      30.713  24.592  23.406  1.00  0.00     0.016 A 
ATOM     19  C   UNL A   1      32.029  26.700  22.229  1.00  0.00     0.027 A 
ATOM     20  C   UNL A   1      30.108  25.843  23.347  1.00  0.00     0.027 A 
ATOM     21  C   UNL A   1      30.766  26.918  22.778  1.00  0.00     0.041 A 
BRANCH  21  22
ATOM     22  N   UNL A   1      30.080  28.138  22.870  1.00  0.00    -0.326 N 
ATOM     23  C   UNL A   1      30.386  29.246  23.625  1.00  0.00     0.221 C 
ATOM     24  H   UNL A   1      29.268  28.212  22.317  1.00  0.00     0.169 HD
ATOM     25  C   UNL A   1      29.339  30.331  23.493  1.00  0.00     0.114 C 
ATOM     26  O   UNL A   1      31.406  29.385  24.299  1.00  0.00    -0.275 OA
ENDBRANCH  21  22
ENDBRANCH  13  16
ENDBRANCH   7  12
ENDBRANCH   4   7
ENDBRANCH   2   3
ENDBRANCH   1   2
BRANCH   1  27
ATOM     27  C   UNL A   1      37.823  19.796  24.675  1.00  0.00     0.023 C 
BRANCH  27  28
ATOM     28  C   UNL A   1      38.787  20.194  25.777  1.00  0.00     0.116 C 
BRANCH  28  29
ATOM     29  N   UNL A   1      39.860  19.234  25.956  1.00  0.00    -0.352 N 
ATOM     30  C   UNL A   1      41.188  19.462  26.211  1.00  0.00     0.251 C 
ATOM     31  H   UNL A   1      39.599  18.287  25.885  1.00  0.00     0.163 HD
ATOM     32  O   UNL A   1      41.980  18.517  26.187  1.00  0.00    -0.269 OA
BRANCH  30  33
ATOM     33  C   UNL A   1      41.677  20.831  26.490  1.00  0.00     0.039 A 
ATOM     34  C   UNL A   1      41.763  21.745  25.436  1.00  0.00     0.014 A 
ATOM     35  C   UNL A   1      42.067  21.213  27.778  1.00  0.00     0.014 A 
ATOM     36  C   UNL A   1      42.199  23.050  25.680  1.00  0.00     0.010 A 
ATOM     37  C   UNL A   1      42.430  22.533  28.032  1.00  0.00     0.010 A 
ATOM     38  C   UNL A   1      42.518  23.461  26.984  1.00  0.00    -0.014 A 
BRANCH  38  39
ATOM     39  C   UNL A   1      42.971  24.847  27.269  1.00  0.00     0.031 A 
ATOM     40  C   UNL A   1      42.033  25.827  27.922  1.00  0.00     0.074 A 
ATOM     41  C   UNL A   1      44.193  25.249  26.869  1.00  0.00     0.049 A 
ATOM     42  N   UNL A   1      42.221  27.092  28.196  1.00  0.00    -0.248 NA
ATOM     43  C   UNL A   1      40.695  25.329  28.287  1.00  0.00     0.031 C 
ATOM     44  C   UNL A   1      45.167  24.420  26.158  1.00  0.00     0.029 A 
ATOM     45  N   UNL A   1      44.815  26.467  26.982  1.00  0.00    -0.354 N 
ATOM     46  C   UNL A   1      41.019  27.551  28.722  1.00  0.00     0.074 A 
ATOM     47  C   UNL A   1      40.095  26.437  28.699  1.00  0.00     0.031 C 
ATOM     48  C   UNL A   1      46.266  25.150  25.905  1.00  0.00     0.029 A 
ATOM     49  C   UNL A   1      46.066  26.503  26.414  1.00  0.00     0.049 A 
ATOM     50  H   UNL A   1      44.404  27.242  27.429  1.00  0.00     0.167 HD
ATOM     51  C   UNL A   1      40.717  28.777  29.210  1.00  0.00     0.034 A 
ATOM     52  C   UNL A   1      46.952  27.514  26.313  1.00  0.00     0.034 A 
ATOM     53  C   UNL A   1      41.655  29.863  29.293  1.00  0.00     0.049 A 
ATOM     54  C   UNL A   1      46.613  28.851  26.914  1.00  0.00     0.074 A 
ATOM     55  C   UNL A   1      41.479  31.110  29.866  1.00  0.00     0.029 A 
ATOM     56  N   UNL A   1      42.945  29.833  28.789  1.00  0.00    -0.354 N 
ATOM     57  N   UNL A   1      45.528  29.217  27.551  1.00  0.00    -0.248 NA
ATOM     58  C   UNL A   1      47.635  29.903  26.813  1.00  0.00     0.031 C 
ATOM     59  C   UNL A   1      42.659  31.840  29.694  1.00  0.00     0.029 A 
ATOM     60  C   UNL A   1      43.576  31.041  29.030  1.00  0.00     0.049 A 
ATOM     61  H   UNL A   1      43.354  29.065  28.327  1.00  0.00     0.167 HD
ATOM     62  C   UNL A   1      45.751  30.527  27.960  1.00  0.00     0.074 A 
ATOM     63  C   UNL A   1      47.082  30.884  27.513  1.00  0.00     0.031 C 
ATOM     64  C   UNL A   1      44.921  31.364  28.631  1.00  0.00     0.034 A 
BRANCH  51  65
ATOM     65  C   UNL A   1      39.328  28.994  29.750  1.00  0.00     0.023 A 
ATOM     66  C   UNL A   1      39.021  28.583  31.064  1.00  0.00     0.012 A 
ATOM     67  C   UNL A   1      38.344  29.650  28.984  1.00  0.00     0.148 A 
ATOM     68  C   UNL A   1      37.748  28.790  31.595  1.00  0.00     0.002 A 
ATOM     69  C   UNL A   1      37.091  29.892  29.536  1.00  0.00     0.091 A 
ATOM     70  F   UNL A   1      38.646  30.012  27.729  1.00  0.00    -0.205 F 
ATOM     71  C   UNL A   1      36.789  29.453  30.835  1.00  0.00     0.022 A 
BRANCH  69  72
ATOM     72  S   UNL A   1      35.812  30.805  28.664  1.00  0.00     0.127 S 
ATOM     73  O   UNL A   1      34.977  31.270  29.771  1.00  0.00    -0.237 OA
ATOM     74  O   UNL A   1      36.583  31.857  28.000  1.00  0.00    -0.237 OA
ATOM     75  O   UNL A   1      35.186  29.852  27.762  1.00  0.00    -0.744 OA
ENDBRANCH  69  72
ENDBRANCH  51  65
BRANCH  52  76
ATOM     76  C   UNL A   1      48.278  27.279  25.677  1.00  0.00     0.023 A 
ATOM     77  C   UNL A   1      49.355  26.836  26.469  1.00  0.00     0.012 A 
ATOM     78  C   UNL A   1      48.470  27.464  24.295  1.00  0.00     0.148 A 
ATOM     79  C   UNL A   1      50.608  26.607  25.902  1.00  0.00     0.002 A 
ATOM     80  C   UNL A   1      49.707  27.185  23.727  1.00  0.00     0.091 A 
ATOM     81  F   UNL A   1      47.435  27.898  23.563  1.00  0.00    -0.205 F 
ATOM     82  C   UNL A   1      50.783  26.771  24.531  1.00  0.00     0.022 A 
BRANCH  80  83
ATOM     83  S   UNL A   1      49.986  27.251  21.955  1.00  0.00     0.127 S 
ATOM     84  O   UNL A   1      48.993  26.300  21.462  1.00  0.00    -0.237 OA
ATOM     85  O   UNL A   1      49.700  28.655  21.659  1.00  0.00    -0.237 OA
ATOM     86  O   UNL A   1      51.379  26.865  21.770  1.00  0.00    -0.744 OA
ENDBRANCH  80  83
ENDBRANCH  52  76
BRANCH  64  87
ATOM     87  C   UNL A   1      45.433  32.741  28.957  1.00  0.00     0.023 A 
ATOM     88  C   UNL A   1      46.117  32.964  30.168  1.00  0.00     0.012 A 
ATOM     89  C   UNL A   1      45.307  33.794  28.029  1.00  0.00     0.148 A 
ATOM     90  C   UNL A   1      46.643  34.222  30.464  1.00  0.00     0.002 A 
ATOM     91  C   UNL A   1      45.874  35.031  28.309  1.00  0.00     0.091 A 
ATOM     92  F   UNL A   1      44.634  33.567  26.892  1.00  0.00    -0.205 F 
ATOM     93  C   UNL A   1      46.533  35.250  29.530  1.00  0.00     0.022 A 
BRANCH  91  94
ATOM     94  S   UNL A   1      45.864  36.382  27.126  1.00  0.00     0.127 S 
ATOM     95  O   UNL A   1      46.812  37.316  27.729  1.00  0.00    -0.237 OA
ATOM     96  O   UNL A   1      46.341  35.731  25.904  1.00  0.00    -0.237 OA
ATOM     97  O   UNL A   1      44.483  36.844  27.061  1.00  0.00    -0.744 OA
ENDBRANCH  91  94
ENDBRANCH  64  87
ENDBRANCH  38  39
ENDBRANCH  30  33
ENDBRANCH  28  29
ENDBRANCH  27  28
ENDBRANCH   1  27
TORSDOF 19
ENDMDL
MODEL 3
REMARK VINA RESULT:     -11.3      3.359      8.606
REMARK SMILES CCC(CC)(NC(=O)c1ccc(NC(C)=O)cc1)C(=O)NCCCCNC(=O)c1ccc(-c2c3nc(c(-c4cccc(S(=O)(=O)[O-])c4F)c4ccc([nH]4)c(-c4cccc(S(=O)(=O)[O-])c4F)c4nc(c(-c5cccc(S(=O)(=O)[O-])c5F)c5ccc2[nH]5)C=C4)C=C3)cc1
REMARK SMILES IDX 23 1 22 2 21 3 19 4 20 5 3 7 2 8 1 9 4 10 5 11 6 12 7 13
REMARK SMILES IDX 8 15 9 16 10 17 18 18 11 19 17 20 12 21 13 22 14 23 15 25
REMARK SMILES IDX 16 26 24 27 25 28 26 29 27 30 28 32 29 33 30 34 91 35 31 36
REMARK SMILES IDX 90 37 32 38 33 39 34 40 84 41 35 42 89 43 83 44 85 45 36 46
REMARK SMILES IDX 88 47 82 48 81 49 37 51 69 52 49 53 68 54 50 55 53 56 67 57
REMARK SMILES IDX 86 58 51 59 52 60 66 62 87 63 54 64 38 65 39 66 47 67 40 68
REMARK SMILES IDX 42 69 48 70 41 71 43 72 44 73 45 74 46 75 70 76 71 77 79 78
REMARK SMILES IDX 72 79 74 80 80 81 73 82 75 83 76 84 77 85 78 86 55 87 56 88
REMARK SMILES IDX 64 89 57 90 59 91 65 92 58 93 60 94 61 95 62 96 63 97
REMARK H PARENT 21 6 6 14 13 24 26 31 85 50 53 61
REMARK Flexibility Score: inf
ROOT
ATOM      1  C   UNL A   1      32.544  28.519  24.192  1.00  0.00     0.023 C 
ENDROOT
BRANCH   1   2
ATOM      2  C   UNL A   1      31.695  27.283  23.891  1.00  0.00     0.116 C 
BRANCH   2   3
ATOM      3  N   UNL A   1      30.792  26.790  24.920  1.00  0.00    -0.354 N 
ATOM      4  C   UNL A   1      30.742  25.636  25.661  1.00  0.00     0.245 C 
ATOM      5  O   UNL A   1      30.022  25.682  26.665  1.00  0.00    -0.272 OA
ATOM      6  H   UNL A   1      30.063  27.418  25.129  1.00  0.00     0.163 HD
BRANCH   4   7
ATOM      7  C   UNL A   1      31.603  24.373  25.337  1.00  0.00     0.118 C 
BRANCH   7   8
ATOM      8  C   UNL A   1      30.881  23.015  25.600  1.00  0.00     0.035 C 
ATOM      9  C   UNL A   1      30.056  22.851  26.868  1.00  0.00     0.007 C 
ENDBRANCH   7   8
BRANCH   7  10
ATOM     10  C   UNL A   1      32.802  24.561  26.331  1.00  0.00     0.035 C 
ATOM     11  C   UNL A   1      33.302  23.345  27.092  1.00  0.00     0.007 C 
ENDBRANCH   7  10
BRANCH   7  12
ATOM     12  N   UNL A   1      32.074  24.309  23.917  1.00  0.00    -0.338 N 
ATOM     13  C   UNL A   1      32.950  23.463  23.237  1.00  0.00     0.252 C 
ATOM     14  H   UNL A   1      31.684  25.008  23.345  1.00  0.00     0.164 HD
ATOM     15  O   UNL A   1      33.572  23.989  22.307  1.00  0.00    -0.269 OA
BRANCH  13  16
ATOM     16  C   UNL A   1      33.129  21.982  23.454  1.00  0.00     0.039 A 
ATOM     17  C   UNL A   1      32.227  21.064  22.887  1.00  0.00     0.016 A 
ATOM     18  C   UNL A   1      34.049  21.448  24.338  1.00  0.00     0.016 A 
ATOM     19  C   UNL A   1      32.238  19.690  23.248  1.00  0.00     0.027 A 
ATOM     20  C   UNL A   1      34.061  20.111  24.722  1.00  0.00     0.027 A 
ATOM     21  C   UNL A   1      33.142  19.220  24.200  1.00  0.00     0.041 A 
BRANCH  21  22
ATOM     22  N   UNL A   1      33.206  17.928  24.743  1.00  0.00    -0.326 N 
ATOM     23  C   UNL A   1      33.431  16.732  24.102  1.00  0.00     0.221 C 
ATOM     24  H   UNL A   1      33.071  17.870  25.717  1.00  0.00     0.169 HD
ATOM     25  C   UNL A   1      33.345  15.554  25.050  1.00  0.00     0.114 C 
ATOM     26  O   UNL A   1      33.718  16.608  22.912  1.00  0.00    -0.275 OA
ENDBRANCH  21  22
ENDBRANCH  13  16
ENDBRANCH   7  12
ENDBRANCH   4   7
ENDBRANCH   2   3
ENDBRANCH   1   2
BRANCH   1  27
ATOM     27  C   UNL A   1      33.867  28.341  24.931  1.00  0.00     0.023 C 
BRANCH  27  28
ATOM     28  C   UNL A   1      33.841  28.532  26.436  1.00  0.00     0.116 C 
BRANCH  28  29
ATOM     29  N   UNL A   1      33.705  29.924  26.821  1.00  0.00    -0.352 N 
ATOM     30  C   UNL A   1      34.527  30.684  27.613  1.00  0.00     0.251 C 
ATOM     31  H   UNL A   1      32.912  30.387  26.467  1.00  0.00     0.163 HD
ATOM     32  O   UNL A   1      34.168  31.815  27.950  1.00  0.00    -0.269 OA
BRANCH  30  33
ATOM     33  C   UNL A   1      35.826  30.150  28.081  1.00  0.00     0.039 A 
ATOM     34  C   UNL A   1      36.944  30.271  27.251  1.00  0.00     0.014 A 
ATOM     35  C   UNL A   1      35.945  29.517  29.323  1.00  0.00     0.014 A 
ATOM     36  C   UNL A   1      38.185  29.795  27.680  1.00  0.00     0.010 A 
ATOM     37  C   UNL A   1      37.196  29.111  29.779  1.00  0.00     0.010 A 
ATOM     38  C   UNL A   1      38.326  29.229  28.957  1.00  0.00    -0.014 A 
BRANCH  38  39
ATOM     39  C   UNL A   1      39.639  28.729  29.441  1.00  0.00     0.031 A 
ATOM     40  C   UNL A   1      40.346  29.435  30.567  1.00  0.00     0.074 A 
ATOM     41  C   UNL A   1      40.233  27.693  28.817  1.00  0.00     0.049 A 
ATOM     42  N   UNL A   1      41.520  29.189  31.087  1.00  0.00    -0.248 NA
ATOM     43  C   UNL A   1      39.657  30.590  31.168  1.00  0.00     0.031 C 
ATOM     44  C   UNL A   1      39.689  26.972  27.665  1.00  0.00     0.029 A 
ATOM     45  N   UNL A   1      41.440  27.083  29.051  1.00  0.00    -0.354 N 
ATOM     46  C   UNL A   1      41.729  30.179  32.041  1.00  0.00     0.074 A 
ATOM     47  C   UNL A   1      40.575  31.050  32.006  1.00  0.00     0.031 C 
ATOM     48  C   UNL A   1      40.555  26.014  27.297  1.00  0.00     0.029 A 
ATOM     49  C   UNL A   1      41.724  26.066  28.169  1.00  0.00     0.049 A 
ATOM     50  H   UNL A   1      42.046  27.348  29.780  1.00  0.00     0.167 HD
ATOM     51  C   UNL A   1      42.771  30.333  32.892  1.00  0.00     0.034 A 
ATOM     52  C   UNL A   1      42.805  25.266  28.075  1.00  0.00     0.034 A 
ATOM     53  C   UNL A   1      43.886  29.429  32.971  1.00  0.00     0.049 A 
ATOM     54  C   UNL A   1      43.924  25.423  29.069  1.00  0.00     0.074 A 
ATOM     55  C   UNL A   1      44.939  29.438  33.869  1.00  0.00     0.029 A 
ATOM     56  N   UNL A   1      44.094  28.354  32.121  1.00  0.00    -0.354 N 
ATOM     57  N   UNL A   1      44.027  26.266  30.067  1.00  0.00    -0.248 NA
ATOM     58  C   UNL A   1      45.057  24.495  28.945  1.00  0.00     0.031 C 
ATOM     59  C   UNL A   1      45.793  28.376  33.551  1.00  0.00     0.029 A 
ATOM     60  C   UNL A   1      45.262  27.696  32.467  1.00  0.00     0.049 A 
ATOM     61  H   UNL A   1      43.499  28.096  31.380  1.00  0.00     0.167 HD
ATOM     62  C   UNL A   1      45.216  25.947  30.713  1.00  0.00     0.074 A 
ATOM     63  C   UNL A   1      45.789  24.821  30.003  1.00  0.00     0.031 C 
ATOM     64  C   UNL A   1      45.790  26.542  31.787  1.00  0.00     0.034 A 
BRANCH  51  65
ATOM     65  C   UNL A   1      42.727  31.493  33.851  1.00  0.00     0.023 A 
ATOM     66  C   UNL A   1      43.225  32.748  33.447  1.00  0.00     0.012 A 
ATOM     67  C   UNL A   1      42.146  31.359  35.128  1.00  0.00     0.148 A 
ATOM     68  C   UNL A   1      43.178  33.844  34.309  1.00  0.00     0.002 A 
ATOM     69  C   UNL A   1      42.064  32.466  35.965  1.00  0.00     0.091 A 
ATOM     70  F   UNL A   1      41.700  30.152  35.504  1.00  0.00    -0.205 F 
ATOM     71  C   UNL A   1      42.588  33.704  35.562  1.00  0.00     0.022 A 
BRANCH  69  72
ATOM     72  S   UNL A   1      41.255  32.405  37.569  1.00  0.00     0.127 S 
ATOM     73  O   UNL A   1      42.150  31.522  38.316  1.00  0.00    -0.237 OA
ATOM     74  O   UNL A   1      41.294  33.807  37.987  1.00  0.00    -0.237 OA
ATOM     75  O   UNL A   1      39.919  31.884  37.323  1.00  0.00    -0.744 OA
ENDBRANCH  69  72
ENDBRANCH  51  65
BRANCH  52  76
ATOM     76  C   UNL A   1      42.849  24.196  27.041  1.00  0.00     0.023 A 
ATOM     77  C   UNL A   1      43.579  24.412  25.855  1.00  0.00     0.012 A 
ATOM     78  C   UNL A   1      42.199  22.964  27.234  1.00  0.00     0.148 A 
ATOM     79  C   UNL A   1      43.637  23.429  24.867  1.00  0.00     0.002 A 
ATOM     80  C   UNL A   1      42.304  21.969  26.269  1.00  0.00     0.091 A 
ATOM     81  F   UNL A   1      41.500  22.786  28.364  1.00  0.00    -0.205 F 
ATOM     82  C   UNL A   1      43.011  22.204  25.078  1.00  0.00     0.022 A 
BRANCH  80  83
ATOM     83  S   UNL A   1      41.632  20.323  26.512  1.00  0.00     0.127 S 
ATOM     84  O   UNL A   1      42.197  19.959  27.808  1.00  0.00    -0.237 OA
ATOM     85  O   UNL A   1      40.192  20.584  26.515  1.00  0.00    -0.237 OA
ATOM     86  O   UNL A   1      42.102  19.543  25.374  1.00  0.00    -0.744 OA
ENDBRANCH  80  83
ENDBRANCH  52  76
BRANCH  64  87
ATOM     87  C   UNL A   1      47.090  25.974  32.290  1.00  0.00     0.023 A 
ATOM     88  C   UNL A   1      48.308  26.434  31.754  1.00  0.00     0.012 A 
ATOM     89  C   UNL A   1      47.107  25.045  33.349  1.00  0.00     0.148 A 
ATOM     90  C   UNL A   1      49.524  25.956  32.243  1.00  0.00     0.002 A 
ATOM     91  C   UNL A   1      48.322  24.609  33.864  1.00  0.00     0.091 A 
ATOM     92  F   UNL A   1      45.937  24.603  33.832  1.00  0.00    -0.205 F 
ATOM     93  C   UNL A   1      49.531  25.055  33.305  1.00  0.00     0.022 A 
BRANCH  91  94
ATOM     94  S   UNL A   1      48.426  23.524  35.291  1.00  0.00     0.127 S 
ATOM     95  O   UNL A   1      47.710  24.294  36.305  1.00  0.00    -0.237 OA
ATOM     96  O   UNL A   1      47.724  22.326  34.826  1.00  0.00    -0.237 OA
ATOM     97  O   UNL A   1      49.848  23.328  35.540  1.00  0.00    -0.744 OA
ENDBRANCH  91  94
ENDBRANCH  64  87
ENDBRANCH  38  39
ENDBRANCH  30  33
ENDBRANCH  28  29
ENDBRANCH  27  28
ENDBRANCH   1  27
TORSDOF 19
ENDMDL
