MODEL 1
REMARK VINA RESULT:     -12.3      0.000      0.000
REMARK SMILES O=C(NCCCCNC(=O)[C@H]1CS[C@H](c2cc(F)ccc2F)[NH2+]1)c1ccc(-c2c3nc(c(-c4cccc(S(=O)(=O)[O-])c4F)c4ccc([nH]4)c(-c4cccc(S(=O)(=O)[O-])c4F)c4nc(c(-c5cccc(S(=O)(=O)[O-])c5F)c5ccc2[nH]5)C=C4)C=C3)cc1
REMARK SMILES IDX 4 1 3 2 1 3 2 4 24 6 25 7 86 8 26 9 85 10 27 11 28 12 29 13
REMARK SMILES IDX 79 14 30 15 84 16 78 17 80 18 31 19 83 20 77 21 76 22 32 24
REMARK SMILES IDX 64 25 44 26 63 27 45 28 48 29 62 30 81 31 46 32 47 33 61 35
REMARK SMILES IDX 82 36 49 37 33 38 34 39 42 40 35 41 37 42 43 43 36 44 38 45
REMARK SMILES IDX 39 46 40 47 41 48 65 49 66 50 74 51 67 52 69 53 75 54 68 55
REMARK SMILES IDX 70 56 71 57 72 58 73 59 50 60 51 61 59 62 52 63 54 64 60 65
REMARK SMILES IDX 53 66 55 67 56 68 57 69 58 70 5 71 6 72 7 73 8 74 9 75 10 77
REMARK SMILES IDX 11 78 12 79 23 80 13 81 14 82 15 85 16 86 21 87 17 88 20 89
REMARK SMILES IDX 22 90 18 91 19 92
REMARK H PARENT 3 5 80 23 48 34 8 76 23 83 23 84
REMARK Flexibility Score: inf
ROOT
ATOM      1  C   UNL A   1      36.432  22.155  25.423  1.00  0.00     0.116 C 
ENDROOT
BRANCH   1   2
ATOM      2  N   UNL A   1      37.353  21.031  25.459  1.00  0.00    -0.352 N 
ATOM      3  O   UNL A   1      39.342  20.007  25.751  1.00  0.00    -0.269 OA
ATOM      4  C   UNL A   1      38.668  21.015  25.876  1.00  0.00     0.251 C 
ATOM      5  H   UNL A   1      36.992  20.170  25.148  1.00  0.00     0.163 HD
BRANCH   4   6
ATOM      6  C   UNL A   1      39.251  22.259  26.428  1.00  0.00     0.039 A 
ATOM      7  C   UNL A   1      38.730  23.502  26.067  1.00  0.00     0.014 A 
ATOM      8  C   UNL A   1      40.367  22.174  27.264  1.00  0.00     0.014 A 
ATOM      9  C   UNL A   1      39.422  24.658  26.403  1.00  0.00     0.010 A 
ATOM     10  C   UNL A   1      41.011  23.345  27.674  1.00  0.00     0.010 A 
ATOM     11  C   UNL A   1      40.571  24.593  27.208  1.00  0.00    -0.014 A 
BRANCH  11  12
ATOM     12  C   UNL A   1      41.260  25.854  27.581  1.00  0.00     0.031 A 
ATOM     13  C   UNL A   1      42.656  26.154  27.105  1.00  0.00     0.074 A 
ATOM     14  C   UNL A   1      40.596  26.750  28.337  1.00  0.00     0.049 A 
ATOM     15  N   UNL A   1      43.367  27.237  27.284  1.00  0.00    -0.248 NA
ATOM     16  C   UNL A   1      43.349  25.105  26.338  1.00  0.00     0.031 C 
ATOM     17  C   UNL A   1      39.255  26.547  28.892  1.00  0.00     0.029 A 
ATOM     18  N   UNL A   1      40.942  28.007  28.757  1.00  0.00    -0.354 N 
ATOM     19  C   UNL A   1      44.604  26.986  26.701  1.00  0.00     0.074 A 
ATOM     20  C   UNL A   1      44.548  25.645  26.159  1.00  0.00     0.031 C 
ATOM     21  C   UNL A   1      38.874  27.658  29.536  1.00  0.00     0.029 A 
ATOM     22  C   UNL A   1      39.958  28.633  29.484  1.00  0.00     0.049 A 
ATOM     23  H   UNL A   1      41.813  28.423  28.557  1.00  0.00     0.167 HD
ATOM     24  C   UNL A   1      45.680  27.805  26.610  1.00  0.00     0.034 A 
ATOM     25  C   UNL A   1      39.926  29.856  30.044  1.00  0.00     0.034 A 
ATOM     26  C   UNL A   1      45.707  29.158  27.099  1.00  0.00     0.049 A 
ATOM     27  C   UNL A   1      41.113  30.760  29.879  1.00  0.00     0.074 A 
ATOM     28  C   UNL A   1      46.722  30.093  26.986  1.00  0.00     0.029 A 
ATOM     29  N   UNL A   1      44.677  29.772  27.793  1.00  0.00    -0.354 N 
ATOM     30  N   UNL A   1      42.220  30.551  29.208  1.00  0.00    -0.248 NA
ATOM     31  C   UNL A   1      41.038  32.076  30.527  1.00  0.00     0.031 C 
ATOM     32  C   UNL A   1      46.307  31.270  27.620  1.00  0.00     0.029 A 
ATOM     33  C   UNL A   1      45.031  31.069  28.122  1.00  0.00     0.049 A 
ATOM     34  H   UNL A   1      43.818  29.347  28.020  1.00  0.00     0.167 HD
ATOM     35  C   UNL A   1      42.965  31.715  29.335  1.00  0.00     0.074 A 
ATOM     36  C   UNL A   1      42.170  32.636  30.122  1.00  0.00     0.031 C 
ATOM     37  C   UNL A   1      44.206  31.989  28.863  1.00  0.00     0.034 A 
BRANCH  24  38
ATOM     38  C   UNL A   1      46.910  27.278  25.917  1.00  0.00     0.023 A 
ATOM     39  C   UNL A   1      47.051  27.454  24.526  1.00  0.00     0.012 A 
ATOM     40  C   UNL A   1      47.953  26.677  26.648  1.00  0.00     0.148 A 
ATOM     41  C   UNL A   1      48.202  27.017  23.869  1.00  0.00     0.002 A 
ATOM     42  C   UNL A   1      49.112  26.276  25.990  1.00  0.00     0.091 A 
ATOM     43  F   UNL A   1      47.791  26.493  27.965  1.00  0.00    -0.205 F 
ATOM     44  C   UNL A   1      49.235  26.439  24.601  1.00  0.00     0.022 A 
BRANCH  42  45
ATOM     45  S   UNL A   1      50.520  25.586  26.868  1.00  0.00     0.127 S 
ATOM     46  O   UNL A   1      51.423  25.257  25.768  1.00  0.00    -0.237 OA
ATOM     47  O   UNL A   1      50.955  26.710  27.697  1.00  0.00    -0.237 OA
ATOM     48  O   UNL A   1      49.998  24.453  27.620  1.00  0.00    -0.744 OA
ENDBRANCH  42  45
ENDBRANCH  24  38
BRANCH  25  49
ATOM     49  C   UNL A   1      38.693  30.312  30.743  1.00  0.00     0.023 A 
ATOM     50  C   UNL A   1      38.575  30.110  32.131  1.00  0.00     0.012 A 
ATOM     51  C   UNL A   1      37.674  31.004  30.060  1.00  0.00     0.148 A 
ATOM     52  C   UNL A   1      37.457  30.577  32.825  1.00  0.00     0.002 A 
ATOM     53  C   UNL A   1      36.594  31.518  30.766  1.00  0.00     0.091 A 
ATOM     54  F   UNL A   1      37.794  31.167  28.734  1.00  0.00    -0.205 F 
ATOM     55  C   UNL A   1      36.476  31.294  32.146  1.00  0.00     0.022 A 
BRANCH  53  56
ATOM     56  S   UNL A   1      35.372  32.581  29.987  1.00  0.00     0.127 S 
ATOM     57  O   UNL A   1      36.192  33.703  29.538  1.00  0.00    -0.237 OA
ATOM     58  O   UNL A   1      34.857  31.727  28.916  1.00  0.00    -0.237 OA
ATOM     59  O   UNL A   1      34.399  32.876  31.032  1.00  0.00    -0.744 OA
ENDBRANCH  53  56
ENDBRANCH  25  49
BRANCH  37  60
ATOM     60  C   UNL A   1      44.776  33.346  29.175  1.00  0.00     0.023 A 
ATOM     61  C   UNL A   1      45.494  33.535  30.373  1.00  0.00     0.012 A 
ATOM     62  C   UNL A   1      44.653  34.413  28.266  1.00  0.00     0.148 A 
ATOM     63  C   UNL A   1      46.054  34.776  30.674  1.00  0.00     0.002 A 
ATOM     64  C   UNL A   1      45.249  35.635  28.553  1.00  0.00     0.091 A 
ATOM     65  F   UNL A   1      43.944  34.221  27.142  1.00  0.00    -0.205 F 
ATOM     66  C   UNL A   1      45.942  35.821  29.761  1.00  0.00     0.022 A 
BRANCH  64  67
ATOM     67  S   UNL A   1      45.219  37.001  27.387  1.00  0.00     0.127 S 
ATOM     68  O   UNL A   1      46.036  36.480  26.294  1.00  0.00    -0.237 OA
ATOM     69  O   UNL A   1      43.793  37.124  27.078  1.00  0.00    -0.237 OA
ATOM     70  O   UNL A   1      45.772  38.141  28.107  1.00  0.00    -0.744 OA
ENDBRANCH  64  67
ENDBRANCH  37  60
ENDBRANCH  11  12
ENDBRANCH   4   6
ENDBRANCH   1   2
BRANCH   1  71
ATOM     71  C   UNL A   1      35.174  21.932  26.246  1.00  0.00     0.023 C 
BRANCH  71  72
ATOM     72  C   UNL A   1      34.179  20.934  25.653  1.00  0.00     0.023 C 
BRANCH  72  73
ATOM     73  C   UNL A   1      33.043  21.555  24.835  1.00  0.00     0.116 C 
BRANCH  73  74
ATOM     74  N   UNL A   1      31.782  21.539  25.552  1.00  0.00    -0.351 N 
ATOM     75  C   UNL A   1      30.950  22.551  25.925  1.00  0.00     0.279 C 
ATOM     76  H   UNL A   1      31.474  20.642  25.815  1.00  0.00     0.163 HD
ATOM     77  O   UNL A   1      29.908  22.215  26.501  1.00  0.00    -0.268 OA
BRANCH  75  78
ATOM     78  C   UNL A   1      31.211  24.039  25.597  1.00  0.00     0.283 C 
ATOM     79  C   UNL A   1      30.758  24.307  24.155  1.00  0.00     0.151 C 
ATOM     80  N   UNL A   1      30.514  24.990  26.501  1.00  0.00    -0.320 N 
ATOM     81  S   UNL A   1      30.071  25.981  24.130  1.00  0.00    -0.087 SA
ATOM     82  C   UNL A   1      30.472  26.305  25.870  1.00  0.00     0.277 C 
ATOM     83  H   UNL A   1      31.018  25.051  27.386  1.00  0.00     0.348 HD
ATOM     84  H   UNL A   1      29.565  24.662  26.677  1.00  0.00     0.348 HD
BRANCH  82  85
ATOM     85  C   UNL A   1      31.665  27.230  25.996  1.00  0.00     0.059 A 
ATOM     86  C   UNL A   1      32.483  27.392  24.853  1.00  0.00     0.053 A 
ATOM     87  C   UNL A   1      32.045  27.925  27.150  1.00  0.00     0.133 A 
ATOM     88  C   UNL A   1      33.644  28.158  24.899  1.00  0.00     0.123 A 
ATOM     89  C   UNL A   1      33.218  28.687  27.194  1.00  0.00     0.043 A 
ATOM     90  F   UNL A   1      31.304  27.894  28.264  1.00  0.00    -0.206 F 
ATOM     91  F   UNL A   1      34.403  28.269  23.802  1.00  0.00    -0.207 F 
ATOM     92  C   UNL A   1      34.028  28.797  26.067  1.00  0.00     0.042 A 
ENDBRANCH  82  85
ENDBRANCH  75  78
ENDBRANCH  73  74
ENDBRANCH  72  73
ENDBRANCH  71  72
ENDBRANCH   1  71
TORSDOF 15
ENDMDL
MODEL 2
REMARK VINA RESULT:     -12.2      4.967     10.133
REMARK SMILES O=C(NCCCCNC(=O)[C@H]1CS[C@H](c2cc(F)ccc2F)[NH2+]1)c1ccc(-c2c3nc(c(-c4cccc(S(=O)(=O)[O-])c4F)c4ccc([nH]4)c(-c4cccc(S(=O)(=O)[O-])c4F)c4nc(c(-c5cccc(S(=O)(=O)[O-])c5F)c5ccc2[nH]5)C=C4)C=C3)cc1
REMARK SMILES IDX 4 1 3 2 1 3 2 4 24 6 25 7 86 8 26 9 85 10 27 11 28 12 29 13
REMARK SMILES IDX 79 14 30 15 84 16 78 17 80 18 31 19 83 20 77 21 76 22 32 24
REMARK SMILES IDX 64 25 44 26 63 27 45 28 48 29 62 30 81 31 46 32 47 33 61 35
REMARK SMILES IDX 82 36 49 37 33 38 34 39 42 40 35 41 37 42 43 43 36 44 38 45
REMARK SMILES IDX 39 46 40 47 41 48 65 49 66 50 74 51 67 52 69 53 75 54 68 55
REMARK SMILES IDX 70 56 71 57 72 58 73 59 50 60 51 61 59 62 52 63 54 64 60 65
REMARK SMILES IDX 53 66 55 67 56 68 57 69 58 70 5 71 6 72 7 73 8 74 9 75 10 77
REMARK SMILES IDX 11 78 12 79 23 80 13 81 14 82 15 85 16 86 21 87 17 88 20 89
REMARK SMILES IDX 22 90 18 91 19 92
REMARK H PARENT 3 5 80 23 48 34 8 76 23 83 23 84
REMARK Flexibility Score: inf
ROOT
ATOM      1  C   UNL A   1      32.776  29.688  25.824  1.00  0.00     0.116 C 
ENDROOT
BRANCH   1   2
ATOM      2  N   UNL A   1      32.382  31.013  26.276  1.00  0.00    -0.352 N 
ATOM      3  O   UNL A   1      32.527  32.895  27.511  1.00  0.00    -0.269 OA
ATOM      4  C   UNL A   1      33.041  31.849  27.154  1.00  0.00     0.251 C 
ATOM      5  H   UNL A   1      31.538  31.358  25.907  1.00  0.00     0.163 HD
BRANCH   4   6
ATOM      6  C   UNL A   1      34.354  31.423  27.687  1.00  0.00     0.039 A 
ATOM      7  C   UNL A   1      34.565  30.096  28.066  1.00  0.00     0.014 A 
ATOM      8  C   UNL A   1      35.358  32.378  27.864  1.00  0.00     0.014 A 
ATOM      9  C   UNL A   1      35.712  29.761  28.773  1.00  0.00     0.010 A 
ATOM     10  C   UNL A   1      36.550  32.016  28.497  1.00  0.00     0.010 A 
ATOM     11  C   UNL A   1      36.716  30.715  28.999  1.00  0.00    -0.014 A 
BRANCH  11  12
ATOM     12  C   UNL A   1      37.947  30.308  29.723  1.00  0.00     0.031 A 
ATOM     13  C   UNL A   1      38.199  30.739  31.142  1.00  0.00     0.074 A 
ATOM     14  C   UNL A   1      38.830  29.512  29.090  1.00  0.00     0.049 A 
ATOM     15  N   UNL A   1      39.187  30.411  31.934  1.00  0.00    -0.248 NA
ATOM     16  C   UNL A   1      37.227  31.662  31.752  1.00  0.00     0.031 C 
ATOM     17  C   UNL A   1      38.710  29.067  27.699  1.00  0.00     0.029 A 
ATOM     18  N   UNL A   1      39.987  28.923  29.529  1.00  0.00    -0.354 N 
ATOM     19  C   UNL A   1      38.988  31.122  33.112  1.00  0.00     0.074 A 
ATOM     20  C   UNL A   1      37.781  31.901  32.934  1.00  0.00     0.031 C 
ATOM     21  C   UNL A   1      39.724  28.238  27.415  1.00  0.00     0.029 A 
ATOM     22  C   UNL A   1      40.591  28.130  28.582  1.00  0.00     0.049 A 
ATOM     23  H   UNL A   1      40.351  29.056  30.435  1.00  0.00     0.167 HD
ATOM     24  C   UNL A   1      39.733  31.112  34.244  1.00  0.00     0.034 A 
ATOM     25  C   UNL A   1      41.716  27.394  28.645  1.00  0.00     0.034 A 
ATOM     26  C   UNL A   1      40.898  30.289  34.436  1.00  0.00     0.049 A 
ATOM     27  C   UNL A   1      42.489  27.360  29.931  1.00  0.00     0.074 A 
ATOM     28  C   UNL A   1      41.676  30.150  35.573  1.00  0.00     0.029 A 
ATOM     29  N   UNL A   1      41.457  29.468  33.469  1.00  0.00    -0.354 N 
ATOM     30  N   UNL A   1      42.209  27.934  31.076  1.00  0.00    -0.248 NA
ATOM     31  C   UNL A   1      43.720  26.559  29.942  1.00  0.00     0.031 C 
ATOM     32  C   UNL A   1      42.709  29.250  35.290  1.00  0.00     0.029 A 
ATOM     33  C   UNL A   1      42.572  28.824  33.979  1.00  0.00     0.049 A 
ATOM     34  H   UNL A   1      41.112  29.358  32.554  1.00  0.00     0.167 HD
ATOM     35  C   UNL A   1      43.215  27.549  31.950  1.00  0.00     0.074 A 
ATOM     36  C   UNL A   1      44.096  26.668  31.210  1.00  0.00     0.031 C 
ATOM     37  C   UNL A   1      43.408  27.910  33.242  1.00  0.00     0.034 A 
BRANCH  24  38
ATOM     38  C   UNL A   1      39.289  31.986  35.388  1.00  0.00     0.023 A 
ATOM     39  C   UNL A   1      38.424  31.459  36.368  1.00  0.00     0.012 A 
ATOM     40  C   UNL A   1      39.779  33.298  35.533  1.00  0.00     0.148 A 
ATOM     41  C   UNL A   1      38.036  32.233  37.463  1.00  0.00     0.002 A 
ATOM     42  C   UNL A   1      39.415  34.051  36.645  1.00  0.00     0.091 A 
ATOM     43  F   UNL A   1      40.579  33.793  34.577  1.00  0.00    -0.205 F 
ATOM     44  C   UNL A   1      38.539  33.523  37.606  1.00  0.00     0.022 A 
BRANCH  42  45
ATOM     45  S   UNL A   1      40.073  35.697  36.943  1.00  0.00     0.127 S 
ATOM     46  O   UNL A   1      41.509  35.438  36.994  1.00  0.00    -0.237 OA
ATOM     47  O   UNL A   1      39.629  36.432  35.757  1.00  0.00    -0.237 OA
ATOM     48  O   UNL A   1      39.464  36.144  38.188  1.00  0.00    -0.744 OA
ENDBRANCH  42  45
ENDBRANCH  24  38
BRANCH  25  49
ATOM     49  C   UNL A   1      42.122  26.572  27.472  1.00  0.00     0.023 A 
ATOM     50  C   UNL A   1      42.905  27.159  26.460  1.00  0.00     0.012 A 
ATOM     51  C   UNL A   1      41.802  25.203  27.386  1.00  0.00     0.148 A 
ATOM     52  C   UNL A   1      43.351  26.401  25.376  1.00  0.00     0.002 A 
ATOM     53  C   UNL A   1      42.298  24.441  26.336  1.00  0.00     0.091 A 
ATOM     54  F   UNL A   1      41.036  24.668  28.348  1.00  0.00    -0.205 F 
ATOM     55  C   UNL A   1      43.061  25.040  25.323  1.00  0.00     0.022 A 
BRANCH  53  56
ATOM     56  S   UNL A   1      42.095  22.656  26.282  1.00  0.00     0.127 S 
ATOM     57  O   UNL A   1      40.642  22.519  26.287  1.00  0.00    -0.237 OA
ATOM     58  O   UNL A   1      42.743  22.310  25.017  1.00  0.00    -0.237 OA
ATOM     59  O   UNL A   1      42.791  22.157  27.462  1.00  0.00    -0.744 OA
ENDBRANCH  53  56
ENDBRANCH  25  49
BRANCH  37  60
ATOM     60  C   UNL A   1      44.611  27.342  33.943  1.00  0.00     0.023 A 
ATOM     61  C   UNL A   1      45.833  28.043  33.897  1.00  0.00     0.012 A 
ATOM     62  C   UNL A   1      44.523  26.153  34.690  1.00  0.00     0.148 A 
ATOM     63  C   UNL A   1      46.957  27.551  34.559  1.00  0.00     0.002 A 
ATOM     64  C   UNL A   1      45.637  25.690  35.381  1.00  0.00     0.091 A 
ATOM     65  F   UNL A   1      43.359  25.486  34.702  1.00  0.00    -0.205 F 
ATOM     66  C   UNL A   1      46.856  26.383  35.309  1.00  0.00     0.022 A 
BRANCH  64  67
ATOM     67  S   UNL A   1      45.560  24.239  36.438  1.00  0.00     0.127 S 
ATOM     68  O   UNL A   1      45.209  23.191  35.483  1.00  0.00    -0.237 OA
ATOM     69  O   UNL A   1      46.925  24.155  36.962  1.00  0.00    -0.237 OA
ATOM     70  O   UNL A   1      44.553  24.544  37.446  1.00  0.00    -0.744 OA
ENDBRANCH  64  67
ENDBRANCH  37  60
ENDBRANCH  11  12
ENDBRANCH   4   6
ENDBRANCH   1   2
BRANCH   1  71
ATOM     71  C   UNL A   1      31.601  28.748  25.609  1.00  0.00     0.023 C 
BRANCH  71  72
ATOM     72  C   UNL A   1      31.183  28.556  24.150  1.00  0.00     0.023 C 
BRANCH  72  73
ATOM     73  C   UNL A   1      32.339  28.422  23.154  1.00  0.00     0.116 C 
BRANCH  73  74
ATOM     74  N   UNL A   1      31.956  27.675  21.971  1.00  0.00    -0.351 N 
ATOM     75  C   UNL A   1      32.043  26.347  21.681  1.00  0.00     0.279 C 
ATOM     76  H   UNL A   1      31.566  28.223  21.253  1.00  0.00     0.163 HD
ATOM     77  O   UNL A   1      31.588  25.998  20.586  1.00  0.00    -0.268 OA
BRANCH  75  78
ATOM     78  C   UNL A   1      32.595  25.291  22.668  1.00  0.00     0.283 C 
ATOM     79  C   UNL A   1      31.423  24.726  23.482  1.00  0.00     0.151 C 
ATOM     80  N   UNL A   1      33.307  24.165  22.011  1.00  0.00    -0.320 N 
ATOM     81  S   UNL A   1      31.781  22.973  23.758  1.00  0.00    -0.087 SA
ATOM     82  C   UNL A   1      33.403  23.049  22.947  1.00  0.00     0.277 C 
ATOM     83  H   UNL A   1      34.244  24.464  21.740  1.00  0.00     0.348 HD
ATOM     84  H   UNL A   1      32.794  23.873  21.179  1.00  0.00     0.348 HD
BRANCH  82  85
ATOM     85  C   UNL A   1      34.526  23.025  23.964  1.00  0.00     0.059 A 
ATOM     86  C   UNL A   1      34.166  23.080  25.330  1.00  0.00     0.053 A 
ATOM     87  C   UNL A   1      35.895  22.973  23.671  1.00  0.00     0.133 A 
ATOM     88  C   UNL A   1      35.132  23.143  26.330  1.00  0.00     0.123 A 
ATOM     89  C   UNL A   1      36.862  23.045  24.680  1.00  0.00     0.043 A 
ATOM     90  F   UNL A   1      36.339  22.850  22.415  1.00  0.00    -0.206 F 
ATOM     91  F   UNL A   1      34.750  23.217  27.610  1.00  0.00    -0.207 F 
ATOM     92  C   UNL A   1      36.481  23.141  26.015  1.00  0.00     0.042 A 
ENDBRANCH  82  85
ENDBRANCH  75  78
ENDBRANCH  73  74
ENDBRANCH  72  73
ENDBRANCH  71  72
ENDBRANCH   1  71
TORSDOF 15
ENDMDL
MODEL 3
REMARK VINA RESULT:     -12.2      1.793      2.137
REMARK SMILES O=C(NCCCCNC(=O)[C@H]1CS[C@H](c2cc(F)ccc2F)[NH2+]1)c1ccc(-c2c3nc(c(-c4cccc(S(=O)(=O)[O-])c4F)c4ccc([nH]4)c(-c4cccc(S(=O)(=O)[O-])c4F)c4nc(c(-c5cccc(S(=O)(=O)[O-])c5F)c5ccc2[nH]5)C=C4)C=C3)cc1
REMARK SMILES IDX 4 1 3 2 1 3 2 4 24 6 25 7 86 8 26 9 85 10 27 11 28 12 29 13
REMARK SMILES IDX 79 14 30 15 84 16 78 17 80 18 31 19 83 20 77 21 76 22 32 24
REMARK SMILES IDX 64 25 44 26 63 27 45 28 48 29 62 30 81 31 46 32 47 33 61 35
REMARK SMILES IDX 82 36 49 37 33 38 34 39 42 40 35 41 37 42 43 43 36 44 38 45
REMARK SMILES IDX 39 46 40 47 41 48 65 49 66 50 74 51 67 52 69 53 75 54 68 55
REMARK SMILES IDX 70 56 71 57 72 58 73 59 50 60 51 61 59 62 52 63 54 64 60 65
REMARK SMILES IDX 53 66 55 67 56 68 57 69 58 70 5 71 6 72 7 73 8 74 9 75 10 77
REMARK SMILES IDX 11 78 12 79 23 80 13 81 14 82 15 85 16 86 21 87 17 88 20 89
REMARK SMILES IDX 22 90 18 91 19 92
REMARK H PARENT 3 5 80 23 48 34 8 76 23 83 23 84
REMARK Flexibility Score: inf
ROOT
ATOM      1  C   UNL A   1      36.318  22.221  25.734  1.00  0.00     0.116 C 
ENDROOT
BRANCH   1   2
ATOM      2  N   UNL A   1      37.280  21.136  25.622  1.00  0.00    -0.352 N 
ATOM      3  O   UNL A   1      39.326  20.188  25.657  1.00  0.00    -0.269 OA
ATOM      4  C   UNL A   1      38.631  21.160  25.898  1.00  0.00     0.251 C 
ATOM      5  H   UNL A   1      36.921  20.275  25.310  1.00  0.00     0.163 HD
BRANCH   4   6
ATOM      6  C   UNL A   1      39.222  22.403  26.443  1.00  0.00     0.039 A 
ATOM      7  C   UNL A   1      38.728  23.648  26.052  1.00  0.00     0.014 A 
ATOM      8  C   UNL A   1      40.318  22.314  27.304  1.00  0.00     0.014 A 
ATOM      9  C   UNL A   1      39.431  24.798  26.385  1.00  0.00     0.010 A 
ATOM     10  C   UNL A   1      40.971  23.481  27.710  1.00  0.00     0.010 A 
ATOM     11  C   UNL A   1      40.561  24.729  27.216  1.00  0.00    -0.014 A 
BRANCH  11  12
ATOM     12  C   UNL A   1      41.262  25.985  27.583  1.00  0.00     0.031 A 
ATOM     13  C   UNL A   1      42.651  26.280  27.087  1.00  0.00     0.074 A 
ATOM     14  C   UNL A   1      40.613  26.880  28.354  1.00  0.00     0.049 A 
ATOM     15  N   UNL A   1      43.370  27.359  27.261  1.00  0.00    -0.248 NA
ATOM     16  C   UNL A   1      43.328  25.232  26.305  1.00  0.00     0.031 C 
ATOM     17  C   UNL A   1      39.280  26.681  28.928  1.00  0.00     0.029 A 
ATOM     18  N   UNL A   1      40.972  28.133  28.774  1.00  0.00    -0.354 N 
ATOM     19  C   UNL A   1      44.597  27.105  26.657  1.00  0.00     0.074 A 
ATOM     20  C   UNL A   1      44.526  25.767  26.110  1.00  0.00     0.031 C 
ATOM     21  C   UNL A   1      38.914  27.791  29.584  1.00  0.00     0.029 A 
ATOM     22  C   UNL A   1      40.002  28.761  29.519  1.00  0.00     0.049 A 
ATOM     23  H   UNL A   1      41.842  28.546  28.563  1.00  0.00     0.167 HD
ATOM     24  C   UNL A   1      45.675  27.919  26.554  1.00  0.00     0.034 A 
ATOM     25  C   UNL A   1      39.984  29.981  30.086  1.00  0.00     0.034 A 
ATOM     26  C   UNL A   1      45.716  29.270  27.048  1.00  0.00     0.049 A 
ATOM     27  C   UNL A   1      41.173  30.880  29.907  1.00  0.00     0.074 A 
ATOM     28  C   UNL A   1      46.734  30.201  26.925  1.00  0.00     0.029 A 
ATOM     29  N   UNL A   1      44.700  29.885  27.762  1.00  0.00    -0.354 N 
ATOM     30  N   UNL A   1      42.268  30.669  29.218  1.00  0.00    -0.248 NA
ATOM     31  C   UNL A   1      41.114  32.193  30.562  1.00  0.00     0.031 C 
ATOM     32  C   UNL A   1      46.334  31.377  27.571  1.00  0.00     0.029 A 
ATOM     33  C   UNL A   1      45.065  31.179  28.091  1.00  0.00     0.049 A 
ATOM     34  H   UNL A   1      43.843  29.464  28.000  1.00  0.00     0.167 HD
ATOM     35  C   UNL A   1      43.021  31.829  29.338  1.00  0.00     0.074 A 
ATOM     36  C   UNL A   1      42.243  32.750  30.142  1.00  0.00     0.031 C 
ATOM     37  C   UNL A   1      44.256  32.100  28.849  1.00  0.00     0.034 A 
BRANCH  24  38
ATOM     38  C   UNL A   1      46.892  27.390  25.840  1.00  0.00     0.023 A 
ATOM     39  C   UNL A   1      47.752  26.494  26.507  1.00  0.00     0.012 A 
ATOM     40  C   UNL A   1      47.145  27.720  24.494  1.00  0.00     0.148 A 
ATOM     41  C   UNL A   1      48.858  25.953  25.852  1.00  0.00     0.002 A 
ATOM     42  C   UNL A   1      48.231  27.149  23.838  1.00  0.00     0.091 A 
ATOM     43  F   UNL A   1      46.333  28.594  23.884  1.00  0.00    -0.205 F 
ATOM     44  C   UNL A   1      49.092  26.272  24.517  1.00  0.00     0.022 A 
BRANCH  42  45
ATOM     45  S   UNL A   1      48.564  27.451  22.098  1.00  0.00     0.127 S 
ATOM     46  O   UNL A   1      48.653  26.091  21.573  1.00  0.00    -0.237 OA
ATOM     47  O   UNL A   1      47.374  28.190  21.674  1.00  0.00    -0.237 OA
ATOM     48  O   UNL A   1      49.797  28.226  22.063  1.00  0.00    -0.744 OA
ENDBRANCH  42  45
ENDBRANCH  24  38
BRANCH  25  49
ATOM     49  C   UNL A   1      38.764  30.439  30.805  1.00  0.00     0.023 A 
ATOM     50  C   UNL A   1      38.695  30.292  32.204  1.00  0.00     0.012 A 
ATOM     51  C   UNL A   1      37.709  31.081  30.129  1.00  0.00     0.148 A 
ATOM     52  C   UNL A   1      37.590  30.764  32.914  1.00  0.00     0.002 A 
ATOM     53  C   UNL A   1      36.641  31.601  30.849  1.00  0.00     0.091 A 
ATOM     54  F   UNL A   1      37.783  31.192  28.795  1.00  0.00    -0.205 F 
ATOM     55  C   UNL A   1      36.572  31.432  32.239  1.00  0.00     0.022 A 
BRANCH  53  56
ATOM     56  S   UNL A   1      35.371  32.605  30.067  1.00  0.00     0.127 S 
ATOM     57  O   UNL A   1      36.144  33.747  29.588  1.00  0.00    -0.237 OA
ATOM     58  O   UNL A   1      34.874  31.713  29.020  1.00  0.00    -0.237 OA
ATOM     59  O   UNL A   1      34.402  32.884  31.120  1.00  0.00    -0.744 OA
ENDBRANCH  53  56
ENDBRANCH  25  49
BRANCH  37  60
ATOM     60  C   UNL A   1      44.837  33.452  29.159  1.00  0.00     0.023 A 
ATOM     61  C   UNL A   1      45.558  33.637  30.355  1.00  0.00     0.012 A 
ATOM     62  C   UNL A   1      44.721  34.519  28.248  1.00  0.00     0.148 A 
ATOM     63  C   UNL A   1      46.128  34.874  30.654  1.00  0.00     0.002 A 
ATOM     64  C   UNL A   1      45.327  35.737  28.534  1.00  0.00     0.091 A 
ATOM     65  F   UNL A   1      44.009  34.331  27.126  1.00  0.00    -0.205 F 
ATOM     66  C   UNL A   1      46.023  35.919  29.740  1.00  0.00     0.022 A 
BRANCH  64  67
ATOM     67  S   UNL A   1      45.306  37.101  27.366  1.00  0.00     0.127 S 
ATOM     68  O   UNL A   1      45.976  38.155  28.124  1.00  0.00    -0.237 OA
ATOM     69  O   UNL A   1      46.082  36.571  26.243  1.00  0.00    -0.237 OA
ATOM     70  O   UNL A   1      43.900  37.334  27.061  1.00  0.00    -0.744 OA
ENDBRANCH  64  67
ENDBRANCH  37  60
ENDBRANCH  11  12
ENDBRANCH   4   6
ENDBRANCH   1   2
BRANCH   1  71
ATOM     71  C   UNL A   1      34.890  21.743  25.943  1.00  0.00     0.023 C 
BRANCH  71  72
ATOM     72  C   UNL A   1      34.460  20.576  25.053  1.00  0.00     0.023 C 
BRANCH  72  73
ATOM     73  C   UNL A   1      32.950  20.328  24.987  1.00  0.00     0.116 C 
BRANCH  73  74
ATOM     74  N   UNL A   1      32.459  20.311  23.623  1.00  0.00    -0.351 N 
ATOM     75  C   UNL A   1      32.143  21.326  22.771  1.00  0.00     0.279 C 
ATOM     76  H   UNL A   1      32.330  19.411  23.248  1.00  0.00     0.163 HD
ATOM     77  O   UNL A   1      31.782  20.992  21.636  1.00  0.00    -0.268 OA
BRANCH  75  78
ATOM     78  C   UNL A   1      32.292  22.823  23.131  1.00  0.00     0.283 C 
ATOM     79  C   UNL A   1      33.420  23.419  22.277  1.00  0.00     0.151 C 
ATOM     80  N   UNL A   1      31.058  23.622  22.917  1.00  0.00    -0.320 N 
ATOM     81  S   UNL A   1      32.928  25.115  21.878  1.00  0.00    -0.087 SA
ATOM     82  C   UNL A   1      31.408  25.038  22.868  1.00  0.00     0.277 C 
ATOM     83  H   UNL A   1      30.407  23.457  23.684  1.00  0.00     0.348 HD
ATOM     84  H   UNL A   1      30.619  23.346  22.038  1.00  0.00     0.348 HD
BRANCH  82  85
ATOM     85  C   UNL A   1      31.556  25.813  24.162  1.00  0.00     0.059 A 
ATOM     86  C   UNL A   1      32.866  26.173  24.556  1.00  0.00     0.053 A 
ATOM     87  C   UNL A   1      30.511  26.189  25.015  1.00  0.00     0.133 A 
ATOM     88  C   UNL A   1      33.104  26.815  25.768  1.00  0.00     0.123 A 
ATOM     89  C   UNL A   1      30.757  26.828  26.236  1.00  0.00     0.043 A 
ATOM     90  F   UNL A   1      29.231  25.958  24.701  1.00  0.00    -0.206 F 
ATOM     91  F   UNL A   1      34.361  27.118  26.115  1.00  0.00    -0.207 F 
ATOM     92  C   UNL A   1      32.060  27.133  26.620  1.00  0.00     0.042 A 
ENDBRANCH  82  85
ENDBRANCH  75  78
ENDBRANCH  73  74
ENDBRANCH  72  73
ENDBRANCH  71  72
ENDBRANCH   1  71
TORSDOF 15
ENDMDL
