MODEL 1
REMARK VINA RESULT:     -11.6      0.000      0.000
REMARK SMILES CCCc1cc(OCC(=O)NCCCCNC(=O)c2ccc(-c3c4nc(c(-c5cccc(S(=O)(=O)[O-])c5F)c5ccc([nH]5)c(-c5cccc(S(=O)(=O)[O-])c5F)c5nc(c(-c6cccc(S(=O)(=O)[O-])c6F)c6ccc3[nH]6)C=C5)C=C4)cc2)nc(Nc2ccc(C#N)cc2)n1
REMARK SMILES IDX 12 1 11 2 9 3 10 4 8 6 7 7 6 8 4 9 5 10 93 11 83 12 82 13
REMARK SMILES IDX 3 14 2 15 1 16 84 17 85 19 86 20 92 21 87 22 91 23 88 24
REMARK SMILES IDX 89 25 90 26 13 27 14 28 15 29 16 30 17 31 18 33 19 34 20 35
REMARK SMILES IDX 81 36 21 37 80 38 22 39 23 40 24 41 74 42 25 43 79 44 73 45
REMARK SMILES IDX 75 46 26 47 78 48 72 49 71 50 27 52 59 53 39 54 58 55 40 56
REMARK SMILES IDX 43 57 57 58 76 59 41 60 42 61 56 63 77 64 44 65 28 66 29 67
REMARK SMILES IDX 37 68 30 69 32 70 38 71 31 72 33 73 34 74 35 75 36 76 60 77
REMARK SMILES IDX 61 78 69 79 62 80 64 81 70 82 63 83 65 84 66 85 67 86 68 87
REMARK SMILES IDX 45 88 46 89 54 90 47 91 49 92 55 93 48 94 50 95 51 96 52 97
REMARK SMILES IDX 53 98
REMARK H PARENT 11 5 84 18 16 32 75 51 43 62
REMARK Flexibility Score: inf
ROOT
ATOM      1  C   UNL A   1      30.191  26.012  25.845  1.00  0.00     0.116 C 
ENDROOT
BRANCH   1   2
ATOM      2  N   UNL A   1      29.734  24.978  26.753  1.00  0.00    -0.353 N 
ATOM      3  C   UNL A   1      30.008  23.643  26.711  1.00  0.00     0.258 C 
ATOM      4  O   UNL A   1      29.588  22.911  27.607  1.00  0.00    -0.271 OA
ATOM      5  H   UNL A   1      29.154  25.276  27.491  1.00  0.00     0.163 HD
BRANCH   3   6
ATOM      6  C   UNL A   1      30.850  23.079  25.559  1.00  0.00     0.331 C 
BRANCH   6   7
ATOM      7  O   UNL A   1      32.224  22.834  25.814  1.00  0.00    -0.467 OA
BRANCH   7   8
ATOM      8  C   UNL A   1      33.124  23.165  24.838  1.00  0.00     0.218 A 
ATOM      9  C   UNL A   1      35.126  23.046  23.642  1.00  0.00     0.050 A 
ATOM     10  C   UNL A   1      34.385  22.627  24.718  1.00  0.00     0.092 A 
ATOM     11  N   UNL A   1      34.644  23.929  22.756  1.00  0.00    -0.218 NA
ATOM     12  C   UNL A   1      33.434  24.460  22.972  1.00  0.00     0.230 A 
ATOM     13  N   UNL A   1      32.651  24.107  23.999  1.00  0.00    -0.177 NA
BRANCH   9  14
ATOM     14  C   UNL A   1      36.527  22.542  23.423  1.00  0.00     0.056 C 
BRANCH  14  15
ATOM     15  C   UNL A   1      37.343  22.440  24.718  1.00  0.00     0.003 C 
ATOM     16  C   UNL A   1      37.795  21.018  25.034  1.00  0.00     0.004 C 
ENDBRANCH  14  15
ENDBRANCH   9  14
BRANCH  12  17
ATOM     17  N   UNL A   1      33.013  25.521  22.172  1.00  0.00    -0.324 N 
ATOM     18  H   UNL A   1      33.320  25.507  21.237  1.00  0.00     0.170 HD
BRANCH  17  19
ATOM     19  C   UNL A   1      32.208  26.606  22.540  1.00  0.00     0.041 A 
ATOM     20  C   UNL A   1      32.795  27.843  22.832  1.00  0.00     0.027 A 
ATOM     21  C   UNL A   1      30.808  26.529  22.496  1.00  0.00     0.027 A 
ATOM     22  C   UNL A   1      32.001  28.973  23.067  1.00  0.00     0.021 A 
ATOM     23  C   UNL A   1      30.009  27.648  22.753  1.00  0.00     0.021 A 
ATOM     24  C   UNL A   1      30.605  28.877  23.029  1.00  0.00     0.052 A 
BRANCH  24  25
ATOM     25  C   UNL A   1      29.799  30.040  23.253  1.00  0.00     0.099 C 
ATOM     26  N   UNL A   1      29.129  30.968  23.458  1.00  0.00    -0.192 NA
ENDBRANCH  24  25
ENDBRANCH  17  19
ENDBRANCH  12  17
ENDBRANCH   7   8
ENDBRANCH   6   7
ENDBRANCH   3   6
ENDBRANCH   1   2
BRANCH   1  27
ATOM     27  C   UNL A   1      31.417  26.752  26.373  1.00  0.00     0.023 C 
BRANCH  27  28
ATOM     28  C   UNL A   1      31.266  28.272  26.454  1.00  0.00     0.023 C 
BRANCH  28  29
ATOM     29  C   UNL A   1      32.533  29.039  26.823  1.00  0.00     0.116 C 
BRANCH  29  30
ATOM     30  N   UNL A   1      32.349  30.483  26.802  1.00  0.00    -0.352 N 
ATOM     31  C   UNL A   1      33.201  31.473  27.237  1.00  0.00     0.251 C 
ATOM     32  H   UNL A   1      31.496  30.796  26.424  1.00  0.00     0.163 HD
ATOM     33  O   UNL A   1      32.820  32.640  27.273  1.00  0.00    -0.269 OA
BRANCH  31  34
ATOM     34  C   UNL A   1      34.563  31.121  27.691  1.00  0.00     0.039 A 
ATOM     35  C   UNL A   1      35.473  32.147  27.954  1.00  0.00     0.014 A 
ATOM     36  C   UNL A   1      34.925  29.788  27.900  1.00  0.00     0.014 A 
ATOM     37  C   UNL A   1      36.716  31.841  28.516  1.00  0.00     0.010 A 
ATOM     38  C   UNL A   1      36.132  29.493  28.530  1.00  0.00     0.010 A 
ATOM     39  C   UNL A   1      37.033  30.517  28.861  1.00  0.00    -0.014 A 
BRANCH  39  40
ATOM     40  C   UNL A   1      38.268  30.186  29.619  1.00  0.00     0.031 A 
ATOM     41  C   UNL A   1      39.265  29.207  29.061  1.00  0.00     0.074 A 
ATOM     42  C   UNL A   1      38.445  30.699  30.854  1.00  0.00     0.049 A 
ATOM     43  N   UNL A   1      40.338  28.714  29.624  1.00  0.00    -0.248 NA
ATOM     44  C   UNL A   1      39.016  28.702  27.701  1.00  0.00     0.031 C 
ATOM     45  C   UNL A   1      37.529  31.622  31.528  1.00  0.00     0.029 A 
ATOM     46  N   UNL A   1      39.441  30.492  31.778  1.00  0.00    -0.354 N 
ATOM     47  C   UNL A   1      40.880  27.829  28.701  1.00  0.00     0.074 A 
ATOM     48  C   UNL A   1      39.999  27.826  27.553  1.00  0.00     0.031 C 
ATOM     49  C   UNL A   1      38.003  31.901  32.753  1.00  0.00     0.029 A 
ATOM     50  C   UNL A   1      39.226  31.138  32.974  1.00  0.00     0.049 A 
ATOM     51  H   UNL A   1      40.233  29.935  31.601  1.00  0.00     0.167 HD
ATOM     52  C   UNL A   1      42.022  27.105  28.788  1.00  0.00     0.034 A 
ATOM     53  C   UNL A   1      39.916  31.097  34.132  1.00  0.00     0.034 A 
ATOM     54  C   UNL A   1      42.903  27.118  29.926  1.00  0.00     0.049 A 
ATOM     55  C   UNL A   1      41.154  30.244  34.214  1.00  0.00     0.074 A 
ATOM     56  C   UNL A   1      44.106  26.454  30.087  1.00  0.00     0.029 A 
ATOM     57  N   UNL A   1      42.671  27.815  31.102  1.00  0.00    -0.354 N 
ATOM     58  N   UNL A   1      41.720  29.516  33.283  1.00  0.00    -0.248 NA
ATOM     59  C   UNL A   1      41.865  30.225  35.502  1.00  0.00     0.031 C 
ATOM     60  C   UNL A   1      44.581  26.715  31.375  1.00  0.00     0.029 A 
ATOM     61  C   UNL A   1      43.699  27.581  32.000  1.00  0.00     0.049 A 
ATOM     62  H   UNL A   1      41.892  28.391  31.273  1.00  0.00     0.167 HD
ATOM     63  C   UNL A   1      42.870  28.987  33.860  1.00  0.00     0.074 A 
ATOM     64  C   UNL A   1      42.935  29.500  35.211  1.00  0.00     0.031 C 
ATOM     65  C   UNL A   1      43.781  28.138  33.325  1.00  0.00     0.034 A 
BRANCH  52  66
ATOM     66  C   UNL A   1      42.413  26.258  27.604  1.00  0.00     0.023 A 
ATOM     67  C   UNL A   1      43.242  26.804  26.604  1.00  0.00     0.012 A 
ATOM     68  C   UNL A   1      42.034  24.904  27.525  1.00  0.00     0.148 A 
ATOM     69  C   UNL A   1      43.666  26.025  25.528  1.00  0.00     0.002 A 
ATOM     70  C   UNL A   1      42.499  24.120  26.475  1.00  0.00     0.091 A 
ATOM     71  F   UNL A   1      41.235  24.407  28.480  1.00  0.00    -0.205 F 
ATOM     72  C   UNL A   1      43.304  24.682  25.471  1.00  0.00     0.022 A 
BRANCH  70  73
ATOM     73  S   UNL A   1      42.156  22.362  26.347  1.00  0.00     0.127 S 
ATOM     74  O   UNL A   1      42.695  22.053  25.022  1.00  0.00    -0.237 OA
ATOM     75  O   UNL A   1      42.931  21.818  27.463  1.00  0.00    -0.237 OA
ATOM     76  O   UNL A   1      40.712  22.220  26.476  1.00  0.00    -0.744 OA
ENDBRANCH  70  73
ENDBRANCH  52  66
BRANCH  53  77
ATOM     77  C   UNL A   1      39.469  31.888  35.315  1.00  0.00     0.023 A 
ATOM     78  C   UNL A   1      38.568  31.315  36.235  1.00  0.00     0.012 A 
ATOM     79  C   UNL A   1      39.901  33.214  35.517  1.00  0.00     0.148 A 
ATOM     80  C   UNL A   1      38.063  32.064  37.298  1.00  0.00     0.002 A 
ATOM     81  C   UNL A   1      39.441  33.934  36.613  1.00  0.00     0.091 A 
ATOM     82  F   UNL A   1      40.751  33.746  34.628  1.00  0.00    -0.205 F 
ATOM     83  C   UNL A   1      38.504  33.370  37.491  1.00  0.00     0.022 A 
BRANCH  81  84
ATOM     84  S   UNL A   1      40.048  35.577  37.008  1.00  0.00     0.127 S 
ATOM     85  O   UNL A   1      39.651  36.335  35.824  1.00  0.00    -0.237 OA
ATOM     86  O   UNL A   1      39.294  35.890  38.223  1.00  0.00    -0.237 OA
ATOM     87  O   UNL A   1      41.483  35.430  37.212  1.00  0.00    -0.744 OA
ENDBRANCH  81  84
ENDBRANCH  53  77
BRANCH  65  88
ATOM     88  C   UNL A   1      44.958  27.741  34.180  1.00  0.00     0.023 A 
ATOM     89  C   UNL A   1      46.105  28.557  34.224  1.00  0.00     0.012 A 
ATOM     90  C   UNL A   1      44.893  26.593  34.996  1.00  0.00     0.148 A 
ATOM     91  C   UNL A   1      47.184  28.219  35.041  1.00  0.00     0.002 A 
ATOM     92  C   UNL A   1      45.948  26.293  35.848  1.00  0.00     0.091 A 
ATOM     93  F   UNL A   1      43.796  25.825  34.930  1.00  0.00    -0.205 F 
ATOM     94  C   UNL A   1      47.100  27.097  35.860  1.00  0.00     0.022 A 
BRANCH  92  95
ATOM     95  S   UNL A   1      45.897  24.925  37.009  1.00  0.00     0.127 S 
ATOM     96  O   UNL A   1      45.852  23.772  36.110  1.00  0.00    -0.237 OA
ATOM     97  O   UNL A   1      47.158  25.088  37.731  1.00  0.00    -0.237 OA
ATOM     98  O   UNL A   1      44.701  25.123  37.818  1.00  0.00    -0.744 OA
ENDBRANCH  92  95
ENDBRANCH  65  88
ENDBRANCH  39  40
ENDBRANCH  31  34
ENDBRANCH  29  30
ENDBRANCH  28  29
ENDBRANCH  27  28
ENDBRANCH   1  27
TORSDOF 21
ENDMDL
MODEL 2
REMARK VINA RESULT:     -11.3      2.234      2.976
REMARK SMILES CCCc1cc(OCC(=O)NCCCCNC(=O)c2ccc(-c3c4nc(c(-c5cccc(S(=O)(=O)[O-])c5F)c5ccc([nH]5)c(-c5cccc(S(=O)(=O)[O-])c5F)c5nc(c(-c6cccc(S(=O)(=O)[O-])c6F)c6ccc3[nH]6)C=C5)C=C4)cc2)nc(Nc2ccc(C#N)cc2)n1
REMARK SMILES IDX 12 1 11 2 9 3 10 4 8 6 7 7 6 8 4 9 5 10 93 11 83 12 82 13
REMARK SMILES IDX 3 14 2 15 1 16 84 17 85 19 86 20 92 21 87 22 91 23 88 24
REMARK SMILES IDX 89 25 90 26 13 27 14 28 15 29 16 30 17 31 18 33 19 34 20 35
REMARK SMILES IDX 81 36 21 37 80 38 22 39 23 40 24 41 74 42 25 43 79 44 73 45
REMARK SMILES IDX 75 46 26 47 78 48 72 49 71 50 27 52 59 53 39 54 58 55 40 56
REMARK SMILES IDX 43 57 57 58 76 59 41 60 42 61 56 63 77 64 44 65 28 66 29 67
REMARK SMILES IDX 37 68 30 69 32 70 38 71 31 72 33 73 34 74 35 75 36 76 60 77
REMARK SMILES IDX 61 78 69 79 62 80 64 81 70 82 63 83 65 84 66 85 67 86 68 87
REMARK SMILES IDX 45 88 46 89 54 90 47 91 49 92 55 93 48 94 50 95 51 96 52 97
REMARK SMILES IDX 53 98
REMARK H PARENT 11 5 84 18 16 32 75 51 43 62
REMARK Flexibility Score: inf
ROOT
ATOM      1  C   UNL A   1      30.888  26.078  25.977  1.00  0.00     0.116 C 
ENDROOT
BRANCH   1   2
ATOM      2  N   UNL A   1      30.383  25.020  26.830  1.00  0.00    -0.353 N 
ATOM      3  C   UNL A   1      30.370  23.679  26.585  1.00  0.00     0.258 C 
ATOM      4  O   UNL A   1      29.960  22.909  27.454  1.00  0.00    -0.271 OA
ATOM      5  H   UNL A   1      30.002  25.305  27.692  1.00  0.00     0.163 HD
BRANCH   3   6
ATOM      6  C   UNL A   1      30.884  23.150  25.239  1.00  0.00     0.331 C 
BRANCH   6   7
ATOM      7  O   UNL A   1      32.082  22.391  25.251  1.00  0.00    -0.467 OA
BRANCH   7   8
ATOM      8  C   UNL A   1      33.141  22.856  24.520  1.00  0.00     0.218 A 
ATOM      9  C   UNL A   1      35.330  22.897  23.711  1.00  0.00     0.050 A 
ATOM     10  C   UNL A   1      34.411  22.327  24.555  1.00  0.00     0.092 A 
ATOM     11  N   UNL A   1      35.005  23.910  22.895  1.00  0.00    -0.218 NA
ATOM     12  C   UNL A   1      33.767  24.415  22.961  1.00  0.00     0.230 A 
ATOM     13  N   UNL A   1      32.814  23.919  23.760  1.00  0.00    -0.177 NA
BRANCH   9  14
ATOM     14  C   UNL A   1      36.757  22.416  23.681  1.00  0.00     0.056 C 
BRANCH  14  15
ATOM     15  C   UNL A   1      37.447  22.483  25.049  1.00  0.00     0.003 C 
ATOM     16  C   UNL A   1      37.225  23.808  25.769  1.00  0.00     0.004 C 
ENDBRANCH  14  15
ENDBRANCH   9  14
BRANCH  12  17
ATOM     17  N   UNL A   1      33.483  25.590  22.267  1.00  0.00    -0.324 N 
ATOM     18  H   UNL A   1      33.974  25.725  21.425  1.00  0.00     0.170 HD
BRANCH  17  19
ATOM     19  C   UNL A   1      32.585  26.602  22.626  1.00  0.00     0.041 A 
ATOM     20  C   UNL A   1      33.064  27.802  23.165  1.00  0.00     0.027 A 
ATOM     21  C   UNL A   1      31.216  26.505  22.337  1.00  0.00     0.027 A 
ATOM     22  C   UNL A   1      32.197  28.876  23.402  1.00  0.00     0.021 A 
ATOM     23  C   UNL A   1      30.340  27.565  22.592  1.00  0.00     0.021 A 
ATOM     24  C   UNL A   1      30.832  28.760  23.116  1.00  0.00     0.052 A 
BRANCH  24  25
ATOM     25  C   UNL A   1      29.953  29.868  23.343  1.00  0.00     0.099 C 
ATOM     26  N   UNL A   1      29.226  30.751  23.552  1.00  0.00    -0.192 NA
ENDBRANCH  24  25
ENDBRANCH  17  19
ENDBRANCH  12  17
ENDBRANCH   7   8
ENDBRANCH   6   7
ENDBRANCH   3   6
ENDBRANCH   1   2
BRANCH   1  27
ATOM     27  C   UNL A   1      32.268  26.567  26.408  1.00  0.00     0.023 C 
BRANCH  27  28
ATOM     28  C   UNL A   1      32.320  28.023  26.872  1.00  0.00     0.023 C 
BRANCH  28  29
ATOM     29  C   UNL A   1      33.717  28.582  27.127  1.00  0.00     0.116 C 
BRANCH  29  30
ATOM     30  N   UNL A   1      33.701  29.961  27.593  1.00  0.00    -0.352 N 
ATOM     31  C   UNL A   1      34.680  30.665  28.257  1.00  0.00     0.251 C 
ATOM     32  H   UNL A   1      32.874  30.462  27.406  1.00  0.00     0.163 HD
ATOM     33  O   UNL A   1      34.439  31.784  28.702  1.00  0.00    -0.269 OA
BRANCH  31  34
ATOM     34  C   UNL A   1      36.010  30.054  28.463  1.00  0.00     0.039 A 
ATOM     35  C   UNL A   1      36.982  30.202  27.471  1.00  0.00     0.014 A 
ATOM     36  C   UNL A   1      36.311  29.378  29.649  1.00  0.00     0.014 A 
ATOM     37  C   UNL A   1      38.284  29.753  27.707  1.00  0.00     0.010 A 
ATOM     38  C   UNL A   1      37.626  29.000  29.911  1.00  0.00     0.010 A 
ATOM     39  C   UNL A   1      38.631  29.200  28.951  1.00  0.00    -0.014 A 
BRANCH  39  40
ATOM     40  C   UNL A   1      40.041  28.878  29.292  1.00  0.00     0.031 A 
ATOM     41  C   UNL A   1      40.731  27.704  28.653  1.00  0.00     0.074 A 
ATOM     42  C   UNL A   1      40.671  29.590  30.249  1.00  0.00     0.049 A 
ATOM     43  N   UNL A   1      41.914  27.205  28.906  1.00  0.00    -0.248 NA
ATOM     44  C   UNL A   1      39.989  26.983  27.605  1.00  0.00     0.031 C 
ATOM     45  C   UNL A   1      40.096  30.723  30.979  1.00  0.00     0.029 A 
ATOM     46  N   UNL A   1      41.923  29.447  30.798  1.00  0.00    -0.354 N 
ATOM     47  C   UNL A   1      42.051  26.106  28.069  1.00  0.00     0.074 A 
ATOM     48  C   UNL A   1      40.817  25.988  27.322  1.00  0.00     0.031 C 
ATOM     49  C   UNL A   1      40.989  31.171  31.876  1.00  0.00     0.029 A 
ATOM     50  C   UNL A   1      42.178  30.328  31.825  1.00  0.00     0.049 A 
ATOM     51  H   UNL A   1      42.575  28.780  30.486  1.00  0.00     0.167 HD
ATOM     52  C   UNL A   1      43.117  25.284  27.915  1.00  0.00     0.034 A 
ATOM     53  C   UNL A   1      43.236  30.427  32.655  1.00  0.00     0.034 A 
ATOM     54  C   UNL A   1      44.348  25.411  28.650  1.00  0.00     0.049 A 
ATOM     55  C   UNL A   1      44.385  29.467  32.492  1.00  0.00     0.074 A 
ATOM     56  C   UNL A   1      45.501  24.655  28.529  1.00  0.00     0.029 A 
ATOM     57  N   UNL A   1      44.583  26.338  29.653  1.00  0.00    -0.354 N 
ATOM     58  N   UNL A   1      44.549  28.517  31.604  1.00  0.00    -0.248 NA
ATOM     59  C   UNL A   1      45.509  29.610  33.429  1.00  0.00     0.031 C 
ATOM     60  C   UNL A   1      46.417  25.097  29.487  1.00  0.00     0.029 A 
ATOM     61  C   UNL A   1      45.854  26.160  30.172  1.00  0.00     0.049 A 
ATOM     62  H   UNL A   1      43.941  27.021  29.952  1.00  0.00     0.167 HD
ATOM     63  C   UNL A   1      45.806  27.977  31.852  1.00  0.00     0.074 A 
ATOM     64  C   UNL A   1      46.373  28.724  32.954  1.00  0.00     0.031 C 
ATOM     65  C   UNL A   1      46.429  26.944  31.235  1.00  0.00     0.034 A 
BRANCH  52  66
ATOM     66  C   UNL A   1      43.022  24.191  26.882  1.00  0.00     0.023 A 
ATOM     67  C   UNL A   1      43.677  24.347  25.643  1.00  0.00     0.012 A 
ATOM     68  C   UNL A   1      42.363  22.979  27.168  1.00  0.00     0.148 A 
ATOM     69  C   UNL A   1      43.652  23.327  24.693  1.00  0.00     0.002 A 
ATOM     70  C   UNL A   1      42.384  21.949  26.235  1.00  0.00     0.091 A 
ATOM     71  F   UNL A   1      41.738  22.855  28.347  1.00  0.00    -0.205 F 
ATOM     72  C   UNL A   1      43.018  22.125  24.994  1.00  0.00     0.022 A 
BRANCH  70  73
ATOM     73  S   UNL A   1      41.663  20.335  26.552  1.00  0.00     0.127 S 
ATOM     74  O   UNL A   1      40.237  20.655  26.607  1.00  0.00    -0.237 OA
ATOM     75  O   UNL A   1      42.074  19.580  25.368  1.00  0.00    -0.237 OA
ATOM     76  O   UNL A   1      42.241  19.872  27.806  1.00  0.00    -0.744 OA
ENDBRANCH  70  73
ENDBRANCH  52  66
BRANCH  53  77
ATOM     77  C   UNL A   1      43.276  31.472  33.719  1.00  0.00     0.023 A 
ATOM     78  C   UNL A   1      43.870  32.721  33.445  1.00  0.00     0.012 A 
ATOM     79  C   UNL A   1      42.763  31.227  35.008  1.00  0.00     0.148 A 
ATOM     80  C   UNL A   1      44.004  33.681  34.448  1.00  0.00     0.002 A 
ATOM     81  C   UNL A   1      42.845  32.212  35.985  1.00  0.00     0.091 A 
ATOM     82  F   UNL A   1      42.210  30.032  35.254  1.00  0.00    -0.205 F 
ATOM     83  C   UNL A   1      43.487  33.430  35.715  1.00  0.00     0.022 A 
BRANCH  81  84
ATOM     84  S   UNL A   1      42.098  32.022  37.607  1.00  0.00     0.127 S 
ATOM     85  O   UNL A   1      40.689  31.841  37.268  1.00  0.00    -0.237 OA
ATOM     86  O   UNL A   1      42.772  30.825  38.109  1.00  0.00    -0.237 OA
ATOM     87  O   UNL A   1      42.420  33.243  38.335  1.00  0.00    -0.744 OA
ENDBRANCH  81  84
ENDBRANCH  53  77
BRANCH  65  88
ATOM     88  C   UNL A   1      47.817  26.582  31.699  1.00  0.00     0.023 A 
ATOM     89  C   UNL A   1      48.936  27.258  31.174  1.00  0.00     0.012 A 
ATOM     90  C   UNL A   1      48.003  25.619  32.712  1.00  0.00     0.148 A 
ATOM     91  C   UNL A   1      50.221  26.958  31.624  1.00  0.00     0.002 A 
ATOM     92  C   UNL A   1      49.281  25.365  33.195  1.00  0.00     0.091 A 
ATOM     93  F   UNL A   1      46.927  24.979  33.190  1.00  0.00    -0.205 F 
ATOM     94  C   UNL A   1      50.392  26.023  32.641  1.00  0.00     0.022 A 
BRANCH  92  95
ATOM     95  S   UNL A   1      49.595  24.249  34.566  1.00  0.00     0.127 S 
ATOM     96  O   UNL A   1      48.581  23.218  34.349  1.00  0.00    -0.237 OA
ATOM     97  O   UNL A   1      50.968  23.821  34.304  1.00  0.00    -0.237 OA
ATOM     98  O   UNL A   1      49.422  25.038  35.779  1.00  0.00    -0.744 OA
ENDBRANCH  92  95
ENDBRANCH  65  88
ENDBRANCH  39  40
ENDBRANCH  31  34
ENDBRANCH  29  30
ENDBRANCH  28  29
ENDBRANCH  27  28
ENDBRANCH   1  27
TORSDOF 21
ENDMDL
MODEL 3
REMARK VINA RESULT:     -11.2      4.664      9.855
REMARK SMILES CCCc1cc(OCC(=O)NCCCCNC(=O)c2ccc(-c3c4nc(c(-c5cccc(S(=O)(=O)[O-])c5F)c5ccc([nH]5)c(-c5cccc(S(=O)(=O)[O-])c5F)c5nc(c(-c6cccc(S(=O)(=O)[O-])c6F)c6ccc3[nH]6)C=C5)C=C4)cc2)nc(Nc2ccc(C#N)cc2)n1
REMARK SMILES IDX 12 1 11 2 9 3 10 4 8 6 7 7 6 8 4 9 5 10 93 11 83 12 82 13
REMARK SMILES IDX 3 14 2 15 1 16 84 17 85 19 86 20 92 21 87 22 91 23 88 24
REMARK SMILES IDX 89 25 90 26 13 27 14 28 15 29 16 30 17 31 18 33 19 34 20 35
REMARK SMILES IDX 81 36 21 37 80 38 22 39 23 40 24 41 74 42 25 43 79 44 73 45
REMARK SMILES IDX 75 46 26 47 78 48 72 49 71 50 27 52 59 53 39 54 58 55 40 56
REMARK SMILES IDX 43 57 57 58 76 59 41 60 42 61 56 63 77 64 44 65 28 66 29 67
REMARK SMILES IDX 37 68 30 69 32 70 38 71 31 72 33 73 34 74 35 75 36 76 60 77
REMARK SMILES IDX 61 78 69 79 62 80 64 81 70 82 63 83 65 84 66 85 67 86 68 87
REMARK SMILES IDX 45 88 46 89 54 90 47 91 49 92 55 93 48 94 50 95 51 96 52 97
REMARK SMILES IDX 53 98
REMARK H PARENT 11 5 84 18 16 32 75 51 43 62
REMARK Flexibility Score: inf
ROOT
ATOM      1  C   UNL A   1      33.775  25.447  25.069  1.00  0.00     0.116 C 
ENDROOT
BRANCH   1   2
ATOM      2  N   UNL A   1      32.867  25.881  26.111  1.00  0.00    -0.353 N 
ATOM      3  C   UNL A   1      32.530  27.157  26.453  1.00  0.00     0.258 C 
ATOM      4  O   UNL A   1      31.685  27.346  27.328  1.00  0.00    -0.271 OA
ATOM      5  H   UNL A   1      32.441  25.167  26.638  1.00  0.00     0.163 HD
BRANCH   3   6
ATOM      6  C   UNL A   1      33.195  28.336  25.730  1.00  0.00     0.331 C 
BRANCH   6   7
ATOM      7  O   UNL A   1      32.346  29.353  25.224  1.00  0.00    -0.467 OA
BRANCH   7   8
ATOM      8  C   UNL A   1      31.476  29.021  24.221  1.00  0.00     0.218 A 
ATOM      9  C   UNL A   1      29.530  29.164  22.940  1.00  0.00     0.050 A 
ATOM     10  C   UNL A   1      30.239  29.593  24.034  1.00  0.00     0.092 A 
ATOM     11  N   UNL A   1      30.021  28.243  22.100  1.00  0.00    -0.218 NA
ATOM     12  C   UNL A   1      31.204  27.683  22.380  1.00  0.00     0.230 A 
ATOM     13  N   UNL A   1      31.955  28.043  23.428  1.00  0.00    -0.177 NA
BRANCH   9  14
ATOM     14  C   UNL A   1      28.154  29.703  22.650  1.00  0.00     0.056 C 
BRANCH  14  15
ATOM     15  C   UNL A   1      28.157  31.183  22.245  1.00  0.00     0.003 C 
ATOM     16  C   UNL A   1      28.030  31.395  20.741  1.00  0.00     0.004 C 
ENDBRANCH  14  15
ENDBRANCH   9  14
BRANCH  12  17
ATOM     17  N   UNL A   1      31.624  26.588  21.628  1.00  0.00    -0.324 N 
ATOM     18  H   UNL A   1      31.840  26.767  20.684  1.00  0.00     0.170 HD
BRANCH  17  19
ATOM     19  C   UNL A   1      31.776  25.263  22.052  1.00  0.00     0.041 A 
ATOM     20  C   UNL A   1      32.887  24.519  21.636  1.00  0.00     0.027 A 
ATOM     21  C   UNL A   1      30.912  24.691  22.997  1.00  0.00     0.027 A 
ATOM     22  C   UNL A   1      33.128  23.241  22.156  1.00  0.00     0.021 A 
ATOM     23  C   UNL A   1      31.134  23.407  23.505  1.00  0.00     0.021 A 
ATOM     24  C   UNL A   1      32.251  22.682  23.093  1.00  0.00     0.052 A 
BRANCH  24  25
ATOM     25  C   UNL A   1      32.512  21.383  23.635  1.00  0.00     0.099 C 
ATOM     26  N   UNL A   1      32.739  20.341  24.102  1.00  0.00    -0.192 NA
ENDBRANCH  24  25
ENDBRANCH  17  19
ENDBRANCH  12  17
ENDBRANCH   7   8
ENDBRANCH   6   7
ENDBRANCH   3   6
ENDBRANCH   1   2
BRANCH   1  27
ATOM     27  C   UNL A   1      35.053  24.826  25.628  1.00  0.00     0.023 C 
BRANCH  27  28
ATOM     28  C   UNL A   1      35.290  23.369  25.227  1.00  0.00     0.023 C 
BRANCH  28  29
ATOM     29  C   UNL A   1      35.844  22.468  26.327  1.00  0.00     0.116 C 
BRANCH  29  30
ATOM     30  N   UNL A   1      36.859  21.541  25.845  1.00  0.00    -0.352 N 
ATOM     31  C   UNL A   1      38.228  21.677  25.843  1.00  0.00     0.251 C 
ATOM     32  H   UNL A   1      36.517  20.699  25.466  1.00  0.00     0.163 HD
ATOM     33  O   UNL A   1      38.927  20.851  25.262  1.00  0.00    -0.269 OA
BRANCH  31  34
ATOM     34  C   UNL A   1      38.851  22.837  26.514  1.00  0.00     0.039 A 
ATOM     35  C   UNL A   1      40.101  22.679  27.115  1.00  0.00     0.014 A 
ATOM     36  C   UNL A   1      38.224  24.086  26.510  1.00  0.00     0.014 A 
ATOM     37  C   UNL A   1      40.767  23.795  27.630  1.00  0.00     0.010 A 
ATOM     38  C   UNL A   1      38.921  25.207  26.955  1.00  0.00     0.010 A 
ATOM     39  C   UNL A   1      40.207  25.077  27.504  1.00  0.00    -0.014 A 
BRANCH  39  40
ATOM     40  C   UNL A   1      40.967  26.297  27.882  1.00  0.00     0.031 A 
ATOM     41  C   UNL A   1      40.288  27.422  28.614  1.00  0.00     0.074 A 
ATOM     42  C   UNL A   1      42.248  26.430  27.480  1.00  0.00     0.049 A 
ATOM     43  N   UNL A   1      40.757  28.602  28.927  1.00  0.00    -0.248 NA
ATOM     44  C   UNL A   1      38.895  27.200  29.035  1.00  0.00     0.031 C 
ATOM     45  C   UNL A   1      43.007  25.432  26.722  1.00  0.00     0.029 A 
ATOM     46  N   UNL A   1      43.131  27.473  27.625  1.00  0.00    -0.354 N 
ATOM     47  C   UNL A   1      39.717  29.269  29.561  1.00  0.00     0.074 A 
ATOM     48  C   UNL A   1      38.579  28.375  29.558  1.00  0.00     0.031 C 
ATOM     49  C   UNL A   1      44.237  25.909  26.469  1.00  0.00     0.029 A 
ATOM     50  C   UNL A   1      44.339  27.264  26.998  1.00  0.00     0.049 A 
ATOM     51  H   UNL A   1      42.920  28.291  28.129  1.00  0.00     0.167 HD
ATOM     52  C   UNL A   1      39.716  30.504  30.119  1.00  0.00     0.034 A 
ATOM     53  C   UNL A   1      45.399  28.082  26.838  1.00  0.00     0.034 A 
ATOM     54  C   UNL A   1      40.852  31.387  30.130  1.00  0.00     0.049 A 
ATOM     55  C   UNL A   1      45.348  29.468  27.427  1.00  0.00     0.074 A 
ATOM     56  C   UNL A   1      40.960  32.638  30.713  1.00  0.00     0.029 A 
ATOM     57  N   UNL A   1      42.069  31.125  29.520  1.00  0.00    -0.354 N 
ATOM     58  N   UNL A   1      44.402  30.030  28.137  1.00  0.00    -0.248 NA
ATOM     59  C   UNL A   1      46.525  30.324  27.215  1.00  0.00     0.031 C 
ATOM     60  C   UNL A   1      42.226  33.149  30.419  1.00  0.00     0.029 A 
ATOM     61  C   UNL A   1      42.926  32.198  29.695  1.00  0.00     0.049 A 
ATOM     62  H   UNL A   1      42.290  30.298  29.035  1.00  0.00     0.167 HD
ATOM     63  C   UNL A   1      44.883  31.287  28.486  1.00  0.00     0.074 A 
ATOM     64  C   UNL A   1      46.217  31.392  27.935  1.00  0.00     0.031 C 
ATOM     65  C   UNL A   1      44.271  32.272  29.186  1.00  0.00     0.034 A 
BRANCH  52  66
ATOM     66  C   UNL A   1      38.455  30.968  30.803  1.00  0.00     0.023 A 
ATOM     67  C   UNL A   1      38.351  30.873  32.205  1.00  0.00     0.012 A 
ATOM     68  C   UNL A   1      37.416  31.575  30.071  1.00  0.00     0.148 A 
ATOM     69  C   UNL A   1      37.219  31.348  32.867  1.00  0.00     0.002 A 
ATOM     70  C   UNL A   1      36.312  32.090  30.742  1.00  0.00     0.091 A 
ATOM     71  F   UNL A   1      37.529  31.646  28.737  1.00  0.00    -0.205 F 
ATOM     72  C   UNL A   1      36.207  31.967  32.138  1.00  0.00     0.022 A 
BRANCH  70  73
ATOM     73  S   UNL A   1      34.990  32.972  29.907  1.00  0.00     0.127 S 
ATOM     74  O   UNL A   1      35.725  34.059  29.260  1.00  0.00    -0.237 OA
ATOM     75  O   UNL A   1      34.475  31.954  28.991  1.00  0.00    -0.237 OA
ATOM     76  O   UNL A   1      34.059  33.388  30.947  1.00  0.00    -0.744 OA
ENDBRANCH  70  73
ENDBRANCH  52  66
BRANCH  53  77
ATOM     77  C   UNL A   1      46.609  27.626  26.094  1.00  0.00     0.023 A 
ATOM     78  C   UNL A   1      46.711  27.876  24.711  1.00  0.00     0.012 A 
ATOM     79  C   UNL A   1      47.641  26.917  26.738  1.00  0.00     0.148 A 
ATOM     80  C   UNL A   1      47.787  27.380  23.974  1.00  0.00     0.002 A 
ATOM     81  C   UNL A   1      48.741  26.478  26.010  1.00  0.00     0.091 A 
ATOM     82  F   UNL A   1      47.524  26.679  28.052  1.00  0.00    -0.205 F 
ATOM     83  C   UNL A   1      48.804  26.687  24.624  1.00  0.00     0.022 A 
BRANCH  81  84
ATOM     84  S   UNL A   1      50.154  25.686  26.783  1.00  0.00     0.127 S 
ATOM     85  O   UNL A   1      51.057  25.511  25.649  1.00  0.00    -0.237 OA
ATOM     86  O   UNL A   1      50.571  26.698  27.754  1.00  0.00    -0.237 OA
ATOM     87  O   UNL A   1      49.642  24.459  27.378  1.00  0.00    -0.744 OA
ENDBRANCH  81  84
ENDBRANCH  53  77
BRANCH  65  88
ATOM     88  C   UNL A   1      45.047  33.539  29.442  1.00  0.00     0.023 A 
ATOM     89  C   UNL A   1      45.904  33.629  30.557  1.00  0.00     0.012 A 
ATOM     90  C   UNL A   1      44.980  34.614  28.532  1.00  0.00     0.148 A 
ATOM     91  C   UNL A   1      46.656  34.782  30.782  1.00  0.00     0.002 A 
ATOM     92  C   UNL A   1      45.773  35.737  28.732  1.00  0.00     0.091 A 
ATOM     93  F   UNL A   1      44.150  34.512  27.484  1.00  0.00    -0.205 F 
ATOM     94  C   UNL A   1      46.600  35.828  29.864  1.00  0.00     0.022 A 
BRANCH  92  95
ATOM     95  S   UNL A   1      45.843  37.095  27.560  1.00  0.00     0.127 S 
ATOM     96  O   UNL A   1      46.814  37.986  28.195  1.00  0.00    -0.237 OA
ATOM     97  O   UNL A   1      46.324  36.431  26.349  1.00  0.00    -0.237 OA
ATOM     98  O   UNL A   1      44.489  37.623  27.470  1.00  0.00    -0.744 OA
ENDBRANCH  92  95
ENDBRANCH  65  88
ENDBRANCH  39  40
ENDBRANCH  31  34
ENDBRANCH  29  30
ENDBRANCH  28  29
ENDBRANCH  27  28
ENDBRANCH   1  27
TORSDOF 21
ENDMDL
