MODEL 1
REMARK VINA RESULT:     -12.7      0.000      0.000
REMARK SMILES Cn1c(=O)c(=O)n(C)c2cc(S(=O)(=O)N3CCC[C@H]3C(=O)NCCCCNC(=O)c3ccc(-c4c5nc(c(-c6cccc(S(=O)(=O)[O-])c6F)c6ccc([nH]6)c(-c6cccc(S(=O)(=O)[O-])c6F)c6nc(c(-c7cccc(S(=O)(=O)[O-])c7F)c7ccc4[nH]7)C=C6)C=C5)cc3)ccc21
REMARK SMILES IDX 25 1 24 2 23 3 22 4 20 5 21 6 19 8 15 9 16 10 17 11 18 12
REMARK SMILES IDX 12 13 13 14 14 15 11 16 1 17 2 18 3 19 95 20 4 21 5 22 9 23
REMARK SMILES IDX 94 24 6 25 7 26 10 27 93 28 8 29 26 30 27 31 28 32 29 34
REMARK SMILES IDX 30 35 31 36 92 37 32 38 91 39 33 40 34 41 35 42 85 43 36 44
REMARK SMILES IDX 90 45 84 46 86 47 37 48 89 49 83 50 82 51 38 53 70 54 50 55
REMARK SMILES IDX 69 56 51 57 54 58 68 59 87 60 52 61 53 62 67 64 88 65 55 66
REMARK SMILES IDX 39 67 40 68 48 69 41 70 43 71 49 72 42 73 44 74 45 75 46 76
REMARK SMILES IDX 47 77 71 78 72 79 80 80 73 81 75 82 81 83 74 84 76 85 77 86
REMARK SMILES IDX 78 87 79 88 56 89 57 90 65 91 58 92 60 93 66 94 59 95 61 96
REMARK SMILES IDX 62 97 63 98 64 99
REMARK H PARENT 22 7 27 33 86 52 54 63
REMARK Flexibility Score: inf
ROOT
ATOM      1  C   UNL A   1      32.544  30.847  27.259  1.00  0.00     0.023 C 
ENDROOT
BRANCH   1   2
ATOM      2  C   UNL A   1      33.149  29.467  27.079  1.00  0.00     0.023 C 
BRANCH   2   3
ATOM      3  C   UNL A   1      33.914  29.302  25.781  1.00  0.00     0.116 C 
BRANCH   3   4
ATOM      4  N   UNL A   1      33.109  29.560  24.613  1.00  0.00    -0.355 N 
ATOM      5  C   UNL A   1      32.646  28.718  23.649  1.00  0.00     0.238 C 
ATOM      6  O   UNL A   1      31.933  29.221  22.774  1.00  0.00    -0.273 OA
ATOM      7  H   UNL A   1      32.852  30.502  24.491  1.00  0.00     0.163 HD
BRANCH   5   8
ATOM      8  C   UNL A   1      32.960  27.217  23.615  1.00  0.00     0.162 C 
ATOM      9  N   UNL A   1      31.779  26.354  23.884  1.00  0.00    -0.185 NA
ATOM     10  C   UNL A   1      31.329  25.749  22.624  1.00  0.00     0.103 C 
ATOM     11  C   UNL A   1      32.591  25.626  21.780  1.00  0.00     0.019 C 
ATOM     12  C   UNL A   1      33.577  26.669  22.318  1.00  0.00     0.032 C 
BRANCH   9  13
ATOM     13  S   UNL A   1      31.704  25.430  25.306  1.00  0.00     0.243 S 
ATOM     14  O   UNL A   1      30.342  24.956  25.428  1.00  0.00    -0.207 OA
ATOM     15  O   UNL A   1      32.355  26.149  26.377  1.00  0.00    -0.207 OA
BRANCH  13  16
ATOM     16  C   UNL A   1      32.705  23.976  25.007  1.00  0.00     0.084 A 
ATOM     17  C   UNL A   1      34.100  19.103  24.598  1.00  0.00     0.154 C 
ATOM     18  N   UNL A   1      34.844  20.345  24.765  1.00  0.00    -0.305 N 
ATOM     19  C   UNL A   1      36.215  20.273  24.979  1.00  0.00     0.316 A 
ATOM     20  C   UNL A   1      34.161  21.585  24.786  1.00  0.00     0.068 A 
ATOM     21  O   UNL A   1      36.845  19.218  24.994  1.00  0.00    -0.263 OA
ATOM     22  C   UNL A   1      36.971  21.593  25.185  1.00  0.00     0.316 A 
ATOM     23  C   UNL A   1      34.806  22.761  25.212  1.00  0.00     0.069 A 
ATOM     24  C   UNL A   1      32.840  21.663  24.351  1.00  0.00     0.030 A 
ATOM     25  O   UNL A   1      38.199  21.569  25.179  1.00  0.00    -0.263 OA
ATOM     26  N   UNL A   1      36.217  22.754  25.382  1.00  0.00    -0.305 N 
ATOM     27  C   UNL A   1      34.045  23.936  25.405  1.00  0.00     0.050 A 
ATOM     28  C   UNL A   1      32.163  22.873  24.371  1.00  0.00     0.024 A 
ATOM     29  C   UNL A   1      36.933  24.002  25.593  1.00  0.00     0.154 C 
ENDBRANCH  13  16
ENDBRANCH   9  13
ENDBRANCH   5   8
ENDBRANCH   3   4
ENDBRANCH   2   3
ENDBRANCH   1   2
BRANCH   1  30
ATOM     30  C   UNL A   1      33.552  31.943  27.571  1.00  0.00     0.116 C 
BRANCH  30  31
ATOM     31  N   UNL A   1      32.964  33.279  27.643  1.00  0.00    -0.352 N 
ATOM     32  C   UNL A   1      33.268  34.294  28.525  1.00  0.00     0.251 C 
ATOM     33  H   UNL A   1      32.266  33.480  26.979  1.00  0.00     0.163 HD
ATOM     34  O   UNL A   1      32.622  35.334  28.535  1.00  0.00    -0.269 OA
BRANCH  32  35
ATOM     35  C   UNL A   1      34.366  34.059  29.483  1.00  0.00     0.039 A 
ATOM     36  C   UNL A   1      35.667  34.391  29.106  1.00  0.00     0.014 A 
ATOM     37  C   UNL A   1      34.117  33.329  30.644  1.00  0.00     0.014 A 
ATOM     38  C   UNL A   1      36.727  33.781  29.760  1.00  0.00     0.010 A 
ATOM     39  C   UNL A   1      35.197  32.825  31.374  1.00  0.00     0.010 A 
ATOM     40  C   UNL A   1      36.507  32.984  30.897  1.00  0.00    -0.014 A 
BRANCH  40  41
ATOM     41  C   UNL A   1      37.668  32.331  31.559  1.00  0.00     0.031 A 
ATOM     42  C   UNL A   1      38.150  32.777  32.918  1.00  0.00     0.074 A 
ATOM     43  C   UNL A   1      38.262  31.290  30.944  1.00  0.00     0.049 A 
ATOM     44  N   UNL A   1      39.164  32.326  33.612  1.00  0.00    -0.248 NA
ATOM     45  C   UNL A   1      37.412  33.864  33.587  1.00  0.00     0.031 C 
ATOM     46  C   UNL A   1      37.894  30.770  29.623  1.00  0.00     0.029 A 
ATOM     47  N   UNL A   1      39.294  30.479  31.340  1.00  0.00    -0.354 N 
ATOM     48  C   UNL A   1      39.212  33.094  34.770  1.00  0.00     0.074 A 
ATOM     49  C   UNL A   1      38.126  34.044  34.692  1.00  0.00     0.031 C 
ATOM     50  C   UNL A   1      38.660  29.711  29.335  1.00  0.00     0.029 A 
ATOM     51  C   UNL A   1      39.628  29.525  30.409  1.00  0.00     0.049 A 
ATOM     52  H   UNL A   1      39.751  30.571  32.208  1.00  0.00     0.167 HD
ATOM     53  C   UNL A   1      40.071  32.999  35.812  1.00  0.00     0.034 A 
ATOM     54  C   UNL A   1      40.625  28.620  30.393  1.00  0.00     0.034 A 
ATOM     55  C   UNL A   1      41.117  32.017  35.913  1.00  0.00     0.049 A 
ATOM     56  C   UNL A   1      41.565  28.546  31.556  1.00  0.00     0.074 A 
ATOM     57  C   UNL A   1      42.011  31.827  36.953  1.00  0.00     0.029 A 
ATOM     58  N   UNL A   1      41.407  31.061  34.954  1.00  0.00    -0.354 N 
ATOM     59  N   UNL A   1      41.554  29.248  32.662  1.00  0.00    -0.248 NA
ATOM     60  C   UNL A   1      42.643  27.551  31.481  1.00  0.00     0.031 C 
ATOM     61  C   UNL A   1      42.851  30.764  36.618  1.00  0.00     0.029 A 
ATOM     62  C   UNL A   1      42.466  30.279  35.378  1.00  0.00     0.049 A 
ATOM     63  H   UNL A   1      40.931  30.954  34.099  1.00  0.00     0.167 HD
ATOM     64  C   UNL A   1      42.613  28.770  33.421  1.00  0.00     0.074 A 
ATOM     65  C   UNL A   1      43.233  27.706  32.659  1.00  0.00     0.031 C 
ATOM     66  C   UNL A   1      43.040  29.191  34.635  1.00  0.00     0.034 A 
BRANCH  53  67
ATOM     67  C   UNL A   1      39.908  33.937  36.976  1.00  0.00     0.023 A 
ATOM     68  C   UNL A   1      40.221  35.299  36.809  1.00  0.00     0.012 A 
ATOM     69  C   UNL A   1      39.286  33.506  38.166  1.00  0.00     0.148 A 
ATOM     70  C   UNL A   1      39.910  36.224  37.805  1.00  0.00     0.002 A 
ATOM     71  C   UNL A   1      38.955  34.438  39.143  1.00  0.00     0.091 A 
ATOM     72  F   UNL A   1      38.999  32.203  38.299  1.00  0.00    -0.205 F 
ATOM     73  C   UNL A   1      39.267  35.796  38.964  1.00  0.00     0.022 A 
BRANCH  71  74
ATOM     74  S   UNL A   1      38.078  34.003  40.650  1.00  0.00     0.127 S 
ATOM     75  O   UNL A   1      36.876  33.362  40.116  1.00  0.00    -0.237 OA
ATOM     76  O   UNL A   1      39.019  33.091  41.298  1.00  0.00    -0.237 OA
ATOM     77  O   UNL A   1      37.842  35.255  41.356  1.00  0.00    -0.744 OA
ENDBRANCH  71  74
ENDBRANCH  53  67
BRANCH  54  78
ATOM     78  C   UNL A   1      40.769  27.722  29.218  1.00  0.00     0.023 A 
ATOM     79  C   UNL A   1      39.991  26.554  29.132  1.00  0.00     0.012 A 
ATOM     80  C   UNL A   1      41.624  28.066  28.152  1.00  0.00     0.148 A 
ATOM     81  C   UNL A   1      40.072  25.733  28.007  1.00  0.00     0.002 A 
ATOM     82  C   UNL A   1      41.666  27.270  27.016  1.00  0.00     0.091 A 
ATOM     83  F   UNL A   1      42.352  29.187  28.261  1.00  0.00    -0.205 F 
ATOM     84  C   UNL A   1      40.899  26.097  26.946  1.00  0.00     0.022 A 
BRANCH  82  85
ATOM     85  S   UNL A   1      42.617  27.715  25.560  1.00  0.00     0.127 S 
ATOM     86  O   UNL A   1      43.964  27.838  26.112  1.00  0.00    -0.237 OA
ATOM     87  O   UNL A   1      42.405  26.552  24.699  1.00  0.00    -0.237 OA
ATOM     88  O   UNL A   1      42.027  28.951  25.063  1.00  0.00    -0.744 OA
ENDBRANCH  82  85
ENDBRANCH  54  78
BRANCH  66  89
ATOM     89  C   UNL A   1      44.220  28.494  35.249  1.00  0.00     0.023 A 
ATOM     90  C   UNL A   1      45.521  28.913  34.918  1.00  0.00     0.012 A 
ATOM     91  C   UNL A   1      44.031  27.523  36.251  1.00  0.00     0.148 A 
ATOM     92  C   UNL A   1      46.625  28.371  35.575  1.00  0.00     0.002 A 
ATOM     93  C   UNL A   1      45.133  27.011  36.925  1.00  0.00     0.091 A 
ATOM     94  F   UNL A   1      42.779  27.141  36.541  1.00  0.00    -0.205 F 
ATOM     95  C   UNL A   1      46.429  27.431  36.586  1.00  0.00     0.022 A 
BRANCH  93  96
ATOM     96  S   UNL A   1      44.981  25.849  38.285  1.00  0.00     0.127 S 
ATOM     97  O   UNL A   1      44.371  24.696  37.624  1.00  0.00    -0.237 OA
ATOM     98  O   UNL A   1      46.375  25.658  38.683  1.00  0.00    -0.237 OA
ATOM     99  O   UNL A   1      44.143  26.499  39.284  1.00  0.00    -0.744 OA
ENDBRANCH  93  96
ENDBRANCH  66  89
ENDBRANCH  40  41
ENDBRANCH  32  35
ENDBRANCH  30  31
ENDBRANCH   1  30
TORSDOF 16
ENDMDL
MODEL 2
REMARK VINA RESULT:     -12.7      5.773      9.656
REMARK SMILES Cn1c(=O)c(=O)n(C)c2cc(S(=O)(=O)N3CCC[C@H]3C(=O)NCCCCNC(=O)c3ccc(-c4c5nc(c(-c6cccc(S(=O)(=O)[O-])c6F)c6ccc([nH]6)c(-c6cccc(S(=O)(=O)[O-])c6F)c6nc(c(-c7cccc(S(=O)(=O)[O-])c7F)c7ccc4[nH]7)C=C6)C=C5)cc3)ccc21
REMARK SMILES IDX 25 1 24 2 23 3 22 4 20 5 21 6 19 8 15 9 16 10 17 11 18 12
REMARK SMILES IDX 12 13 13 14 14 15 11 16 1 17 2 18 3 19 95 20 4 21 5 22 9 23
REMARK SMILES IDX 94 24 6 25 7 26 10 27 93 28 8 29 26 30 27 31 28 32 29 34
REMARK SMILES IDX 30 35 31 36 92 37 32 38 91 39 33 40 34 41 35 42 85 43 36 44
REMARK SMILES IDX 90 45 84 46 86 47 37 48 89 49 83 50 82 51 38 53 70 54 50 55
REMARK SMILES IDX 69 56 51 57 54 58 68 59 87 60 52 61 53 62 67 64 88 65 55 66
REMARK SMILES IDX 39 67 40 68 48 69 41 70 43 71 49 72 42 73 44 74 45 75 46 76
REMARK SMILES IDX 47 77 71 78 72 79 80 80 73 81 75 82 81 83 74 84 76 85 77 86
REMARK SMILES IDX 78 87 79 88 56 89 57 90 65 91 58 92 60 93 66 94 59 95 61 96
REMARK SMILES IDX 62 97 63 98 64 99
REMARK H PARENT 22 7 27 33 86 52 54 63
REMARK Flexibility Score: inf
ROOT
ATOM      1  C   UNL A   1      38.185  19.934  24.749  1.00  0.00     0.023 C 
ENDROOT
BRANCH   1   2
ATOM      2  C   UNL A   1      37.433  21.246  24.618  1.00  0.00     0.023 C 
BRANCH   2   3
ATOM      3  C   UNL A   1      36.470  21.513  25.757  1.00  0.00     0.116 C 
BRANCH   3   4
ATOM      4  N   UNL A   1      35.337  20.620  25.762  1.00  0.00    -0.355 N 
ATOM      5  C   UNL A   1      34.002  20.878  25.723  1.00  0.00     0.238 C 
ATOM      6  O   UNL A   1      33.251  19.896  25.697  1.00  0.00    -0.273 OA
ATOM      7  H   UNL A   1      35.568  19.663  25.800  1.00  0.00     0.163 HD
BRANCH   5   8
ATOM      8  C   UNL A   1      33.414  22.294  25.703  1.00  0.00     0.162 C 
ATOM      9  N   UNL A   1      32.178  22.417  24.884  1.00  0.00    -0.185 NA
ATOM     10  C   UNL A   1      31.019  22.520  25.778  1.00  0.00     0.103 C 
ATOM     11  C   UNL A   1      31.557  23.191  27.035  1.00  0.00     0.019 C 
ATOM     12  C   UNL A   1      33.064  22.917  27.064  1.00  0.00     0.032 C 
BRANCH   9  13
ATOM     13  S   UNL A   1      32.190  23.329  23.453  1.00  0.00     0.243 S 
ATOM     14  O   UNL A   1      30.870  23.214  22.871  1.00  0.00    -0.207 OA
ATOM     15  O   UNL A   1      33.382  23.016  22.698  1.00  0.00    -0.207 OA
BRANCH  13  16
ATOM     16  C   UNL A   1      32.359  25.039  23.955  1.00  0.00     0.084 A 
ATOM     17  C   UNL A   1      33.675  29.152  26.641  1.00  0.00     0.154 C 
ATOM     18  N   UNL A   1      32.641  28.897  25.647  1.00  0.00    -0.305 N 
ATOM     19  C   UNL A   1      31.701  29.889  25.398  1.00  0.00     0.316 A 
ATOM     20  C   UNL A   1      32.560  27.632  25.015  1.00  0.00     0.068 A 
ATOM     21  O   UNL A   1      31.717  30.991  25.942  1.00  0.00    -0.263 OA
ATOM     22  C   UNL A   1      30.602  29.583  24.370  1.00  0.00     0.316 A 
ATOM     23  C   UNL A   1      31.426  27.268  24.264  1.00  0.00     0.069 A 
ATOM     24  C   UNL A   1      33.625  26.738  25.102  1.00  0.00     0.030 A 
ATOM     25  O   UNL A   1      29.885  30.505  23.991  1.00  0.00    -0.263 OA
ATOM     26  N   UNL A   1      30.470  28.264  23.928  1.00  0.00    -0.305 N 
ATOM     27  C   UNL A   1      31.296  25.936  23.812  1.00  0.00     0.050 A 
ATOM     28  C   UNL A   1      33.552  25.497  24.486  1.00  0.00     0.024 A 
ATOM     29  C   UNL A   1      29.418  27.970  22.967  1.00  0.00     0.154 C 
ENDBRANCH  13  16
ENDBRANCH   9  13
ENDBRANCH   5   8
ENDBRANCH   3   4
ENDBRANCH   2   3
ENDBRANCH   1   2
BRANCH   1  30
ATOM     30  C   UNL A   1      38.901  19.747  26.078  1.00  0.00     0.116 C 
BRANCH  30  31
ATOM     31  N   UNL A   1      40.236  19.168  25.951  1.00  0.00    -0.352 N 
ATOM     32  C   UNL A   1      41.452  19.780  26.176  1.00  0.00     0.251 C 
ATOM     33  H   UNL A   1      40.273  18.225  25.672  1.00  0.00     0.163 HD
ATOM     34  O   UNL A   1      42.503  19.200  25.932  1.00  0.00    -0.269 OA
BRANCH  32  35
ATOM     35  C   UNL A   1      41.435  21.169  26.673  1.00  0.00     0.039 A 
ATOM     36  C   UNL A   1      41.087  22.192  25.792  1.00  0.00     0.014 A 
ATOM     37  C   UNL A   1      41.959  21.452  27.934  1.00  0.00     0.014 A 
ATOM     38  C   UNL A   1      41.494  23.486  26.078  1.00  0.00     0.010 A 
ATOM     39  C   UNL A   1      42.248  22.777  28.267  1.00  0.00     0.010 A 
ATOM     40  C   UNL A   1      42.086  23.796  27.316  1.00  0.00    -0.014 A 
BRANCH  40  41
ATOM     41  C   UNL A   1      42.527  25.192  27.578  1.00  0.00     0.031 A 
ATOM     42  C   UNL A   1      41.631  26.179  28.285  1.00  0.00     0.074 A 
ATOM     43  C   UNL A   1      43.773  25.556  27.213  1.00  0.00     0.049 A 
ATOM     44  N   UNL A   1      41.862  27.437  28.563  1.00  0.00    -0.248 NA
ATOM     45  C   UNL A   1      40.311  25.706  28.741  1.00  0.00     0.031 C 
ATOM     46  C   UNL A   1      44.732  24.696  26.513  1.00  0.00     0.029 A 
ATOM     47  N   UNL A   1      44.451  26.736  27.380  1.00  0.00    -0.354 N 
ATOM     48  C   UNL A   1      40.712  27.914  29.180  1.00  0.00     0.074 A 
ATOM     49  C   UNL A   1      39.778  26.814  29.241  1.00  0.00     0.031 C 
ATOM     50  C   UNL A   1      45.881  25.361  26.342  1.00  0.00     0.029 A 
ATOM     51  C   UNL A   1      45.716  26.719  26.845  1.00  0.00     0.049 A 
ATOM     52  H   UNL A   1      44.068  27.519  27.839  1.00  0.00     0.167 HD
ATOM     53  C   UNL A   1      40.468  29.152  29.670  1.00  0.00     0.034 A 
ATOM     54  C   UNL A   1      46.638  27.694  26.731  1.00  0.00     0.034 A 
ATOM     55  C   UNL A   1      41.418  30.231  29.658  1.00  0.00     0.049 A 
ATOM     56  C   UNL A   1      46.334  29.056  27.274  1.00  0.00     0.074 A 
ATOM     57  C   UNL A   1      41.265  31.509  30.168  1.00  0.00     0.029 A 
ATOM     58  N   UNL A   1      42.693  30.163  29.121  1.00  0.00    -0.354 N 
ATOM     59  N   UNL A   1      45.260  29.465  27.902  1.00  0.00    -0.248 NA
ATOM     60  C   UNL A   1      47.368  30.086  27.110  1.00  0.00     0.031 C 
ATOM     61  C   UNL A   1      42.442  32.219  29.927  1.00  0.00     0.029 A 
ATOM     62  C   UNL A   1      43.336  31.376  29.287  1.00  0.00     0.049 A 
ATOM     63  H   UNL A   1      43.082  29.371  28.687  1.00  0.00     0.167 HD
ATOM     64  C   UNL A   1      45.494  30.795  28.221  1.00  0.00     0.074 A 
ATOM     65  C   UNL A   1      46.819  31.119  27.736  1.00  0.00     0.031 C 
ATOM     66  C   UNL A   1      44.672  31.671  28.846  1.00  0.00     0.034 A 
BRANCH  53  67
ATOM     67  C   UNL A   1      39.140  29.427  30.323  1.00  0.00     0.023 A 
ATOM     68  C   UNL A   1      38.897  28.929  31.617  1.00  0.00     0.012 A 
ATOM     69  C   UNL A   1      38.217  30.313  29.732  1.00  0.00     0.148 A 
ATOM     70  C   UNL A   1      37.756  29.316  32.321  1.00  0.00     0.002 A 
ATOM     71  C   UNL A   1      37.097  30.715  30.450  1.00  0.00     0.091 A 
ATOM     72  F   UNL A   1      38.474  30.771  28.499  1.00  0.00    -0.205 F 
ATOM     73  C   UNL A   1      36.865  30.217  31.743  1.00  0.00     0.022 A 
BRANCH  71  74
ATOM     74  S   UNL A   1      35.913  31.912  29.823  1.00  0.00     0.127 S 
ATOM     75  O   UNL A   1      34.906  31.914  30.884  1.00  0.00    -0.237 OA
ATOM     76  O   UNL A   1      36.721  33.129  29.746  1.00  0.00    -0.237 OA
ATOM     77  O   UNL A   1      35.452  31.394  28.542  1.00  0.00    -0.744 OA
ENDBRANCH  71  74
ENDBRANCH  53  67
BRANCH  54  78
ATOM     78  C   UNL A   1      47.931  27.394  26.062  1.00  0.00     0.023 A 
ATOM     79  C   UNL A   1      48.996  26.862  26.810  1.00  0.00     0.012 A 
ATOM     80  C   UNL A   1      48.077  27.568  24.672  1.00  0.00     0.148 A 
ATOM     81  C   UNL A   1      50.195  26.519  26.184  1.00  0.00     0.002 A 
ATOM     82  C   UNL A   1      49.256  27.182  24.048  1.00  0.00     0.091 A 
ATOM     83  F   UNL A   1      47.044  28.075  23.985  1.00  0.00    -0.205 F 
ATOM     84  C   UNL A   1      50.321  26.668  24.804  1.00  0.00     0.022 A 
BRANCH  82  85
ATOM     85  S   UNL A   1      49.468  27.236  22.266  1.00  0.00     0.127 S 
ATOM     86  O   UNL A   1      50.887  26.917  22.127  1.00  0.00    -0.237 OA
ATOM     87  O   UNL A   1      48.552  26.184  21.826  1.00  0.00    -0.237 OA
ATOM     88  O   UNL A   1      49.083  28.581  21.861  1.00  0.00    -0.744 OA
ENDBRANCH  82  85
ENDBRANCH  54  78
BRANCH  66  89
ATOM     89  C   UNL A   1      45.173  33.067  29.078  1.00  0.00     0.023 A 
ATOM     90  C   UNL A   1      45.950  33.344  30.217  1.00  0.00     0.012 A 
ATOM     91  C   UNL A   1      44.986  34.062  28.099  1.00  0.00     0.148 A 
ATOM     92  C   UNL A   1      46.534  34.599  30.383  1.00  0.00     0.002 A 
ATOM     93  C   UNL A   1      45.599  35.299  28.254  1.00  0.00     0.091 A 
ATOM     94  F   UNL A   1      44.237  33.768  27.027  1.00  0.00    -0.205 F 
ATOM     95  C   UNL A   1      46.370  35.570  29.396  1.00  0.00     0.022 A 
BRANCH  93  96
ATOM     96  S   UNL A   1      45.502  36.589  27.010  1.00  0.00     0.127 S 
ATOM     97  O   UNL A   1      44.057  36.735  26.845  1.00  0.00    -0.237 OA
ATOM     98  O   UNL A   1      46.156  37.713  27.680  1.00  0.00    -0.237 OA
ATOM     99  O   UNL A   1      46.207  36.081  25.841  1.00  0.00    -0.744 OA
ENDBRANCH  93  96
ENDBRANCH  66  89
ENDBRANCH  40  41
ENDBRANCH  32  35
ENDBRANCH  30  31
ENDBRANCH   1  30
TORSDOF 16
ENDMDL
MODEL 3
REMARK VINA RESULT:     -12.5      3.401      4.882
REMARK SMILES Cn1c(=O)c(=O)n(C)c2cc(S(=O)(=O)N3CCC[C@H]3C(=O)NCCCCNC(=O)c3ccc(-c4c5nc(c(-c6cccc(S(=O)(=O)[O-])c6F)c6ccc([nH]6)c(-c6cccc(S(=O)(=O)[O-])c6F)c6nc(c(-c7cccc(S(=O)(=O)[O-])c7F)c7ccc4[nH]7)C=C6)C=C5)cc3)ccc21
REMARK SMILES IDX 25 1 24 2 23 3 22 4 20 5 21 6 19 8 15 9 16 10 17 11 18 12
REMARK SMILES IDX 12 13 13 14 14 15 11 16 1 17 2 18 3 19 95 20 4 21 5 22 9 23
REMARK SMILES IDX 94 24 6 25 7 26 10 27 93 28 8 29 26 30 27 31 28 32 29 34
REMARK SMILES IDX 30 35 31 36 92 37 32 38 91 39 33 40 34 41 35 42 85 43 36 44
REMARK SMILES IDX 90 45 84 46 86 47 37 48 89 49 83 50 82 51 38 53 70 54 50 55
REMARK SMILES IDX 69 56 51 57 54 58 68 59 87 60 52 61 53 62 67 64 88 65 55 66
REMARK SMILES IDX 39 67 40 68 48 69 41 70 43 71 49 72 42 73 44 74 45 75 46 76
REMARK SMILES IDX 47 77 71 78 72 79 80 80 73 81 75 82 81 83 74 84 76 85 77 86
REMARK SMILES IDX 78 87 79 88 56 89 57 90 65 91 58 92 60 93 66 94 59 95 61 96
REMARK SMILES IDX 62 97 63 98 64 99
REMARK H PARENT 22 7 27 33 86 52 54 63
REMARK Flexibility Score: inf
ROOT
ATOM      1  C   UNL A   1      32.621  28.645  27.240  1.00  0.00     0.023 C 
ENDROOT
BRANCH   1   2
ATOM      2  C   UNL A   1      31.427  29.464  26.787  1.00  0.00     0.023 C 
BRANCH   2   3
ATOM      3  C   UNL A   1      31.742  30.430  25.662  1.00  0.00     0.116 C 
BRANCH   3   4
ATOM      4  N   UNL A   1      30.958  30.190  24.475  1.00  0.00    -0.355 N 
ATOM      5  C   UNL A   1      30.928  29.124  23.630  1.00  0.00     0.238 C 
ATOM      6  O   UNL A   1      30.114  29.178  22.702  1.00  0.00    -0.273 OA
ATOM      7  H   UNL A   1      30.342  30.920  24.235  1.00  0.00     0.163 HD
BRANCH   5   8
ATOM      8  C   UNL A   1      31.832  27.895  23.787  1.00  0.00     0.162 C 
ATOM      9  N   UNL A   1      31.255  26.651  23.211  1.00  0.00    -0.185 NA
ATOM     10  C   UNL A   1      31.944  26.339  21.953  1.00  0.00     0.103 C 
ATOM     11  C   UNL A   1      33.349  26.899  22.131  1.00  0.00     0.019 C 
ATOM     12  C   UNL A   1      33.247  27.997  23.195  1.00  0.00     0.032 C 
BRANCH   9  13
ATOM     13  S   UNL A   1      30.795  25.374  24.229  1.00  0.00     0.243 S 
ATOM     14  O   UNL A   1      30.053  24.434  23.416  1.00  0.00    -0.207 OA
ATOM     15  O   UNL A   1      30.247  25.913  25.454  1.00  0.00    -0.207 OA
BRANCH  13  16
ATOM     16  C   UNL A   1      32.308  24.537  24.692  1.00  0.00     0.084 A 
ATOM     17  C   UNL A   1      37.231  23.685  25.643  1.00  0.00     0.154 C 
ATOM     18  N   UNL A   1      36.104  22.810  25.346  1.00  0.00    -0.305 N 
ATOM     19  C   UNL A   1      36.350  21.456  25.150  1.00  0.00     0.316 A 
ATOM     20  C   UNL A   1      34.806  23.352  25.184  1.00  0.00     0.068 A 
ATOM     21  O   UNL A   1      37.463  20.946  25.255  1.00  0.00    -0.263 OA
ATOM     22  C   UNL A   1      35.151  20.561  24.805  1.00  0.00     0.316 A 
ATOM     23  C   UNL A   1      33.763  22.583  24.636  1.00  0.00     0.069 A 
ATOM     24  C   UNL A   1      34.537  24.654  25.599  1.00  0.00     0.030 A 
ATOM     25  O   UNL A   1      35.309  19.342  24.823  1.00  0.00    -0.263 OA
ATOM     26  N   UNL A   1      33.943  21.183  24.478  1.00  0.00    -0.305 N 
ATOM     27  C   UNL A   1      32.539  23.212  24.311  1.00  0.00     0.050 A 
ATOM     28  C   UNL A   1      33.269  25.193  25.442  1.00  0.00     0.024 A 
ATOM     29  C   UNL A   1      32.812  20.336  24.135  1.00  0.00     0.154 C 
ENDBRANCH  13  16
ENDBRANCH   9  13
ENDBRANCH   5   8
ENDBRANCH   3   4
ENDBRANCH   2   3
ENDBRANCH   1   2
BRANCH   1  30
ATOM     30  C   UNL A   1      33.954  29.373  27.160  1.00  0.00     0.116 C 
BRANCH  30  31
ATOM     31  N   UNL A   1      34.015  30.581  27.981  1.00  0.00    -0.352 N 
ATOM     32  C   UNL A   1      35.039  30.997  28.805  1.00  0.00     0.251 C 
ATOM     33  H   UNL A   1      33.227  31.171  27.940  1.00  0.00     0.163 HD
ATOM     34  O   UNL A   1      34.912  31.986  29.516  1.00  0.00    -0.269 OA
BRANCH  32  35
ATOM     35  C   UNL A   1      36.268  30.181  28.830  1.00  0.00     0.039 A 
ATOM     36  C   UNL A   1      36.493  29.342  29.921  1.00  0.00     0.014 A 
ATOM     37  C   UNL A   1      37.265  30.415  27.884  1.00  0.00     0.014 A 
ATOM     38  C   UNL A   1      37.791  28.936  30.193  1.00  0.00     0.010 A 
ATOM     39  C   UNL A   1      38.542  29.892  28.100  1.00  0.00     0.010 A 
ATOM     40  C   UNL A   1      38.834  29.210  29.292  1.00  0.00    -0.014 A 
BRANCH  40  41
ATOM     41  C   UNL A   1      40.216  28.775  29.629  1.00  0.00     0.031 A 
ATOM     42  C   UNL A   1      41.007  29.451  30.721  1.00  0.00     0.074 A 
ATOM     43  C   UNL A   1      40.741  27.723  28.971  1.00  0.00     0.049 A 
ATOM     44  N   UNL A   1      42.232  29.204  31.114  1.00  0.00    -0.248 NA
ATOM     45  C   UNL A   1      40.355  30.541  31.470  1.00  0.00     0.031 C 
ATOM     46  C   UNL A   1      40.079  26.990  27.887  1.00  0.00     0.029 A 
ATOM     47  N   UNL A   1      41.945  27.082  29.112  1.00  0.00    -0.354 N 
ATOM     48  C   UNL A   1      42.510  30.126  32.116  1.00  0.00     0.074 A 
ATOM     49  C   UNL A   1      41.329  30.943  32.278  1.00  0.00     0.031 C 
ATOM     50  C   UNL A   1      40.865  25.984  27.487  1.00  0.00     0.029 A 
ATOM     51  C   UNL A   1      42.120  26.046  28.227  1.00  0.00     0.049 A 
ATOM     52  H   UNL A   1      42.618  27.338  29.784  1.00  0.00     0.167 HD
ATOM     53  C   UNL A   1      43.640  30.263  32.848  1.00  0.00     0.034 A 
ATOM     54  C   UNL A   1      43.183  25.252  27.998  1.00  0.00     0.034 A 
ATOM     55  C   UNL A   1      44.794  29.414  32.724  1.00  0.00     0.049 A 
ATOM     56  C   UNL A   1      44.422  25.434  28.818  1.00  0.00     0.074 A 
ATOM     57  C   UNL A   1      45.970  29.460  33.454  1.00  0.00     0.029 A 
ATOM     58  N   UNL A   1      44.920  28.368  31.825  1.00  0.00    -0.354 N 
ATOM     59  N   UNL A   1      44.639  26.278  29.796  1.00  0.00    -0.248 NA
ATOM     60  C   UNL A   1      45.557  24.551  28.518  1.00  0.00     0.031 C 
ATOM     61  C   UNL A   1      46.813  28.450  32.987  1.00  0.00     0.029 A 
ATOM     62  C   UNL A   1      46.153  27.762  31.982  1.00  0.00     0.049 A 
ATOM     63  H   UNL A   1      44.235  28.097  31.173  1.00  0.00     0.167 HD
ATOM     64  C   UNL A   1      45.928  26.018  30.239  1.00  0.00     0.074 A 
ATOM     65  C   UNL A   1      46.438  24.926  29.437  1.00  0.00     0.031 C 
ATOM     66  C   UNL A   1      46.629  26.644  31.213  1.00  0.00     0.034 A 
BRANCH  53  67
ATOM     67  C   UNL A   1      43.697  31.333  33.905  1.00  0.00     0.023 A 
ATOM     68  C   UNL A   1      44.235  32.591  33.578  1.00  0.00     0.012 A 
ATOM     69  C   UNL A   1      43.064  31.147  35.151  1.00  0.00     0.148 A 
ATOM     70  C   UNL A   1      44.137  33.657  34.473  1.00  0.00     0.002 A 
ATOM     71  C   UNL A   1      42.947  32.220  36.026  1.00  0.00     0.091 A 
ATOM     72  F   UNL A   1      42.561  29.938  35.436  1.00  0.00    -0.205 F 
ATOM     73  C   UNL A   1      43.482  33.475  35.688  1.00  0.00     0.022 A 
BRANCH  71  74
ATOM     74  S   UNL A   1      42.077  32.111  37.595  1.00  0.00     0.127 S 
ATOM     75  O   UNL A   1      40.729  31.744  37.159  1.00  0.00    -0.237 OA
ATOM     76  O   UNL A   1      42.809  31.045  38.276  1.00  0.00    -0.237 OA
ATOM     77  O   UNL A   1      42.185  33.427  38.210  1.00  0.00    -0.744 OA
ENDBRANCH  71  74
ENDBRANCH  53  67
BRANCH  54  78
ATOM     78  C   UNL A   1      43.099  24.219  26.933  1.00  0.00     0.023 A 
ATOM     79  C   UNL A   1      43.729  24.440  25.696  1.00  0.00     0.012 A 
ATOM     80  C   UNL A   1      42.459  22.987  27.176  1.00  0.00     0.148 A 
ATOM     81  C   UNL A   1      43.710  23.454  24.709  1.00  0.00     0.002 A 
ATOM     82  C   UNL A   1      42.483  21.994  26.207  1.00  0.00     0.091 A 
ATOM     83  F   UNL A   1      41.869  22.804  28.366  1.00  0.00    -0.205 F 
ATOM     84  C   UNL A   1      43.098  22.229  24.968  1.00  0.00     0.022 A 
BRANCH  82  85
ATOM     85  S   UNL A   1      41.817  20.351  26.493  1.00  0.00     0.127 S 
ATOM     86  O   UNL A   1      42.304  19.626  25.321  1.00  0.00    -0.237 OA
ATOM     87  O   UNL A   1      42.459  19.985  27.755  1.00  0.00    -0.237 OA
ATOM     88  O   UNL A   1      40.372  20.516  26.575  1.00  0.00    -0.744 OA
ENDBRANCH  82  85
ENDBRANCH  54  78
BRANCH  66  89
ATOM     89  C   UNL A   1      48.021  26.161  31.504  1.00  0.00     0.023 A 
ATOM     90  C   UNL A   1      49.104  26.695  30.783  1.00  0.00     0.012 A 
ATOM     91  C   UNL A   1      48.259  25.284  32.580  1.00  0.00     0.148 A 
ATOM     92  C   UNL A   1      50.412  26.359  31.126  1.00  0.00     0.002 A 
ATOM     93  C   UNL A   1      49.567  24.980  32.938  1.00  0.00     0.091 A 
ATOM     94  F   UNL A   1      47.206  24.789  33.245  1.00  0.00    -0.205 F 
ATOM     95  C   UNL A   1      50.643  25.513  32.211  1.00  0.00     0.022 A 
BRANCH  93  96
ATOM     96  S   UNL A   1      49.968  23.957  34.358  1.00  0.00     0.127 S 
ATOM     97  O   UNL A   1      51.429  23.941  34.309  1.00  0.00    -0.237 OA
ATOM     98  O   UNL A   1      49.401  24.730  35.463  1.00  0.00    -0.237 OA
ATOM     99  O   UNL A   1      49.331  22.668  34.124  1.00  0.00    -0.744 OA
ENDBRANCH  93  96
ENDBRANCH  66  89
ENDBRANCH  40  41
ENDBRANCH  32  35
ENDBRANCH  30  31
ENDBRANCH   1  30
TORSDOF 16
ENDMDL
