MODEL 1
REMARK VINA RESULT:     -12.0      0.000      0.000
REMARK SMILES O=C(NCCCCNC(=O)c1c(-c2ccc(Cl)cc2)noc1CO[C@@H]1CCCCO1)c1ccc(-c2c3nc(c(-c4cccc(S(=O)(=O)[O-])c4F)c4ccc([nH]4)c(-c4cccc(S(=O)(=O)[O-])c4F)c4nc(c(-c5cccc(S(=O)(=O)[O-])c5F)c5ccc2[nH]5)C=C4)C=C3)cc1
REMARK SMILES IDX 5 1 4 2 3 3 1 4 2 5 31 7 32 8 93 9 33 10 92 11 34 12 35 13
REMARK SMILES IDX 36 14 86 15 37 16 91 17 85 18 87 19 38 20 90 21 84 22 83 23
REMARK SMILES IDX 39 25 71 26 51 27 70 28 52 29 55 30 69 31 88 32 53 33 54 34
REMARK SMILES IDX 68 36 89 37 56 38 40 39 41 40 49 41 42 42 44 43 50 44 43 45
REMARK SMILES IDX 45 46 46 47 47 48 48 49 72 50 73 51 81 52 74 53 76 54 82 55
REMARK SMILES IDX 75 56 77 57 78 58 79 59 80 60 57 61 58 62 66 63 59 64 61 65
REMARK SMILES IDX 67 66 60 67 62 68 63 69 64 70 65 71 6 72 7 73 8 74 9 75
REMARK SMILES IDX 10 77 11 78 12 79 22 80 20 81 21 82 13 83 14 84 19 85 15 86
REMARK SMILES IDX 18 87 16 88 17 89 23 90 24 91 25 92 26 93 30 94 27 95 29 96
REMARK SMILES IDX 28 97
REMARK H PARENT 3 6 87 24 55 35 8 76
REMARK Flexibility Score: inf
ROOT
ATOM      1  C   UNL A   1      32.170  27.950  27.598  1.00  0.00     0.023 C 
ENDROOT
BRANCH   1   2
ATOM      2  C   UNL A   1      33.516  28.489  27.115  1.00  0.00     0.116 C 
BRANCH   2   3
ATOM      3  N   UNL A   1      33.600  29.935  27.149  1.00  0.00    -0.352 N 
ATOM      4  O   UNL A   1      34.420  31.966  27.601  1.00  0.00    -0.269 OA
ATOM      5  C   UNL A   1      34.607  30.752  27.603  1.00  0.00     0.251 C 
ATOM      6  H   UNL A   1      32.813  30.405  26.791  1.00  0.00     0.163 HD
BRANCH   5   7
ATOM      7  C   UNL A   1      35.883  30.200  28.118  1.00  0.00     0.039 A 
ATOM      8  C   UNL A   1      37.069  30.236  27.378  1.00  0.00     0.014 A 
ATOM      9  C   UNL A   1      35.898  29.689  29.423  1.00  0.00     0.014 A 
ATOM     10  C   UNL A   1      38.243  29.695  27.910  1.00  0.00     0.010 A 
ATOM     11  C   UNL A   1      37.079  29.175  29.966  1.00  0.00     0.010 A 
ATOM     12  C   UNL A   1      38.256  29.156  29.206  1.00  0.00    -0.014 A 
BRANCH  12  13
ATOM     13  C   UNL A   1      39.515  28.627  29.781  1.00  0.00     0.031 A 
ATOM     14  C   UNL A   1      40.212  27.451  29.159  1.00  0.00     0.074 A 
ATOM     15  C   UNL A   1      40.033  29.208  30.879  1.00  0.00     0.049 A 
ATOM     16  N   UNL A   1      41.385  26.949  29.446  1.00  0.00    -0.248 NA
ATOM     17  C   UNL A   1      39.509  26.755  28.071  1.00  0.00     0.031 C 
ATOM     18  C   UNL A   1      39.436  30.334  31.598  1.00  0.00     0.029 A 
ATOM     19  N   UNL A   1      41.176  28.928  31.584  1.00  0.00    -0.354 N 
ATOM     20  C   UNL A   1      41.569  25.886  28.573  1.00  0.00     0.074 A 
ATOM     21  C   UNL A   1      40.375  25.797  27.761  1.00  0.00     0.031 C 
ATOM     22  C   UNL A   1      40.223  30.656  32.637  1.00  0.00     0.029 A 
ATOM     23  C   UNL A   1      41.372  29.755  32.665  1.00  0.00     0.049 A 
ATOM     24  H   UNL A   1      41.797  28.204  31.340  1.00  0.00     0.167 HD
ATOM     25  C   UNL A   1      42.657  25.090  28.431  1.00  0.00     0.034 A 
ATOM     26  C   UNL A   1      42.367  29.785  33.572  1.00  0.00     0.034 A 
ATOM     27  C   UNL A   1      43.865  25.228  29.201  1.00  0.00     0.049 A 
ATOM     28  C   UNL A   1      43.493  28.798  33.467  1.00  0.00     0.074 A 
ATOM     29  C   UNL A   1      45.103  24.645  28.995  1.00  0.00     0.029 A 
ATOM     30  N   UNL A   1      43.968  25.981  30.360  1.00  0.00    -0.354 N 
ATOM     31  N   UNL A   1      43.763  27.966  32.493  1.00  0.00    -0.248 NA
ATOM     32  C   UNL A   1      44.449  28.755  34.582  1.00  0.00     0.031 C 
ATOM     33  C   UNL A   1      45.952  25.034  30.041  1.00  0.00     0.029 A 
ATOM     34  C   UNL A   1      45.228  25.832  30.910  1.00  0.00     0.049 A 
ATOM     35  H   UNL A   1      43.249  26.539  30.736  1.00  0.00     0.167 HD
ATOM     36  C   UNL A   1      44.936  27.320  32.861  1.00  0.00     0.074 A 
ATOM     37  C   UNL A   1      45.321  27.851  34.153  1.00  0.00     0.031 C 
ATOM     38  C   UNL A   1      45.624  26.372  32.183  1.00  0.00     0.034 A 
BRANCH  25  39
ATOM     39  C   UNL A   1      42.627  24.077  27.326  1.00  0.00     0.023 A 
ATOM     40  C   UNL A   1      43.162  24.434  26.073  1.00  0.00     0.012 A 
ATOM     41  C   UNL A   1      42.097  22.788  27.508  1.00  0.00     0.148 A 
ATOM     42  C   UNL A   1      43.177  23.520  25.020  1.00  0.00     0.002 A 
ATOM     43  C   UNL A   1      42.107  21.884  26.449  1.00  0.00     0.091 A 
ATOM     44  F   UNL A   1      41.562  22.466  28.695  1.00  0.00    -0.205 F 
ATOM     45  C   UNL A   1      42.650  22.242  25.207  1.00  0.00     0.022 A 
BRANCH  43  46
ATOM     46  S   UNL A   1      41.388  20.253  26.669  1.00  0.00     0.127 S 
ATOM     47  O   UNL A   1      39.974  20.559  26.860  1.00  0.00    -0.237 OA
ATOM     48  O   UNL A   1      41.690  19.576  25.406  1.00  0.00    -0.237 OA
ATOM     49  O   UNL A   1      42.103  19.718  27.821  1.00  0.00    -0.744 OA
ENDBRANCH  43  46
ENDBRANCH  25  39
BRANCH  26  50
ATOM     50  C   UNL A   1      42.373  30.835  34.621  1.00  0.00     0.023 A 
ATOM     51  C   UNL A   1      41.821  30.542  35.882  1.00  0.00     0.012 A 
ATOM     52  C   UNL A   1      42.965  32.091  34.406  1.00  0.00     0.148 A 
ATOM     53  C   UNL A   1      41.858  31.485  36.909  1.00  0.00     0.002 A 
ATOM     54  C   UNL A   1      43.024  33.015  35.443  1.00  0.00     0.091 A 
ATOM     55  F   UNL A   1      43.487  32.362  33.200  1.00  0.00    -0.205 F 
ATOM     56  C   UNL A   1      42.467  32.721  36.695  1.00  0.00     0.022 A 
BRANCH  54  57
ATOM     57  S   UNL A   1      43.885  34.568  35.186  1.00  0.00     0.127 S 
ATOM     58  O   UNL A   1      43.746  35.233  36.476  1.00  0.00    -0.237 OA
ATOM     59  O   UNL A   1      45.250  34.148  34.865  1.00  0.00    -0.237 OA
ATOM     60  O   UNL A   1      43.160  35.155  34.064  1.00  0.00    -0.744 OA
ENDBRANCH  54  57
ENDBRANCH  26  50
BRANCH  38  61
ATOM     61  C   UNL A   1      46.860  25.818  32.826  1.00  0.00     0.023 A 
ATOM     62  C   UNL A   1      48.088  26.467  32.603  1.00  0.00     0.012 A 
ATOM     63  C   UNL A   1      46.811  24.707  33.684  1.00  0.00     0.148 A 
ATOM     64  C   UNL A   1      49.253  26.009  33.220  1.00  0.00     0.002 A 
ATOM     65  C   UNL A   1      47.974  24.265  34.308  1.00  0.00     0.091 A 
ATOM     66  F   UNL A   1      45.635  24.095  33.892  1.00  0.00    -0.205 F 
ATOM     67  C   UNL A   1      49.197  24.911  34.078  1.00  0.00     0.022 A 
BRANCH  65  68
ATOM     68  S   UNL A   1      47.896  22.870  35.437  1.00  0.00     0.127 S 
ATOM     69  O   UNL A   1      46.797  23.235  36.326  1.00  0.00    -0.237 OA
ATOM     70  O   UNL A   1      47.606  21.736  34.557  1.00  0.00    -0.237 OA
ATOM     71  O   UNL A   1      49.229  22.842  36.028  1.00  0.00    -0.744 OA
ENDBRANCH  65  68
ENDBRANCH  38  61
ENDBRANCH  12  13
ENDBRANCH   5   7
ENDBRANCH   2   3
ENDBRANCH   1   2
BRANCH   1  72
ATOM     72  C   UNL A   1      31.378  27.086  26.609  1.00  0.00     0.023 C 
BRANCH  72  73
ATOM     73  C   UNL A   1      32.039  25.780  26.172  1.00  0.00     0.116 C 
BRANCH  73  74
ATOM     74  N   UNL A   1      31.190  24.984  25.303  1.00  0.00    -0.352 N 
ATOM     75  C   UNL A   1      31.173  24.866  23.938  1.00  0.00     0.257 C 
ATOM     76  H   UNL A   1      30.515  24.440  25.771  1.00  0.00     0.163 HD
ATOM     77  O   UNL A   1      30.266  24.223  23.413  1.00  0.00    -0.269 OA
BRANCH  75  78
ATOM     78  C   UNL A   1      32.207  25.493  23.156  1.00  0.00     0.113 A 
ATOM     79  C   UNL A   1      32.288  26.846  22.714  1.00  0.00     0.127 A 
ATOM     80  C   UNL A   1      33.259  24.869  22.517  1.00  0.00     0.175 A 
ATOM     81  N   UNL A   1      33.381  27.030  21.954  1.00  0.00    -0.079 NA
ATOM     82  O   UNL A   1      33.982  25.795  21.836  1.00  0.00    -0.357 OA
BRANCH  79  83
ATOM     83  C   UNL A   1      31.369  27.950  22.974  1.00  0.00     0.005 A 
ATOM     84  C   UNL A   1      31.684  28.955  23.898  1.00  0.00     0.012 A 
ATOM     85  C   UNL A   1      30.138  28.004  22.300  1.00  0.00     0.012 A 
ATOM     86  C   UNL A   1      30.780  29.991  24.151  1.00  0.00     0.021 A 
ATOM     87  C   UNL A   1      29.233  29.037  22.556  1.00  0.00     0.021 A 
ATOM     88  C   UNL A   1      29.558  30.026  23.481  1.00  0.00     0.041 A 
ATOM     89  Cl  UNL A   1      28.443  31.298  23.798  1.00  0.00    -0.084 Cl
ENDBRANCH  79  83
BRANCH  80  90
ATOM     90  C   UNL A   1      33.710  23.464  22.398  1.00  0.00     0.242 C 
BRANCH  90  91
ATOM     91  O   UNL A   1      35.050  23.354  22.874  1.00  0.00    -0.345 OA
BRANCH  91  92
ATOM     92  C   UNL A   1      35.201  23.556  24.279  1.00  0.00     0.250 C 
ATOM     93  C   UNL A   1      36.672  23.512  24.708  1.00  0.00     0.062 C 
ATOM     94  O   UNL A   1      34.456  22.567  24.998  1.00  0.00    -0.353 OA
ATOM     95  C   UNL A   1      37.256  22.114  24.523  1.00  0.00     0.008 C 
ATOM     96  C   UNL A   1      34.919  21.240  24.759  1.00  0.00     0.163 C 
ATOM     97  C   UNL A   1      36.368  21.076  25.197  1.00  0.00     0.029 C 
ENDBRANCH  91  92
ENDBRANCH  90  91
ENDBRANCH  80  90
ENDBRANCH  75  78
ENDBRANCH  73  74
ENDBRANCH  72  73
ENDBRANCH   1  72
TORSDOF 18
ENDMDL
MODEL 2
REMARK VINA RESULT:     -11.9      5.033      8.457
REMARK SMILES O=C(NCCCCNC(=O)c1c(-c2ccc(Cl)cc2)noc1CO[C@@H]1CCCCO1)c1ccc(-c2c3nc(c(-c4cccc(S(=O)(=O)[O-])c4F)c4ccc([nH]4)c(-c4cccc(S(=O)(=O)[O-])c4F)c4nc(c(-c5cccc(S(=O)(=O)[O-])c5F)c5ccc2[nH]5)C=C4)C=C3)cc1
REMARK SMILES IDX 5 1 4 2 3 3 1 4 2 5 31 7 32 8 93 9 33 10 92 11 34 12 35 13
REMARK SMILES IDX 36 14 86 15 37 16 91 17 85 18 87 19 38 20 90 21 84 22 83 23
REMARK SMILES IDX 39 25 71 26 51 27 70 28 52 29 55 30 69 31 88 32 53 33 54 34
REMARK SMILES IDX 68 36 89 37 56 38 40 39 41 40 49 41 42 42 44 43 50 44 43 45
REMARK SMILES IDX 45 46 46 47 47 48 48 49 72 50 73 51 81 52 74 53 76 54 82 55
REMARK SMILES IDX 75 56 77 57 78 58 79 59 80 60 57 61 58 62 66 63 59 64 61 65
REMARK SMILES IDX 67 66 60 67 62 68 63 69 64 70 65 71 6 72 7 73 8 74 9 75
REMARK SMILES IDX 10 77 11 78 12 79 22 80 20 81 21 82 13 83 14 84 19 85 15 86
REMARK SMILES IDX 18 87 16 88 17 89 23 90 24 91 25 92 26 93 30 94 27 95 29 96
REMARK SMILES IDX 28 97
REMARK H PARENT 3 6 87 24 55 35 8 76
REMARK Flexibility Score: inf
ROOT
ATOM      1  C   UNL A   1      37.856  19.838  24.840  1.00  0.00     0.023 C 
ENDROOT
BRANCH   1   2
ATOM      2  C   UNL A   1      38.882  20.504  25.757  1.00  0.00     0.116 C 
BRANCH   2   3
ATOM      3  N   UNL A   1      40.015  19.654  26.062  1.00  0.00    -0.352 N 
ATOM      4  O   UNL A   1      42.109  19.085  26.600  1.00  0.00    -0.269 OA
ATOM      5  C   UNL A   1      41.282  19.985  26.474  1.00  0.00     0.251 C 
ATOM      6  H   UNL A   1      39.849  18.689  25.959  1.00  0.00     0.163 HD
BRANCH   5   7
ATOM      7  C   UNL A   1      41.673  21.392  26.734  1.00  0.00     0.039 A 
ATOM      8  C   UNL A   1      41.766  22.344  25.714  1.00  0.00     0.014 A 
ATOM      9  C   UNL A   1      41.887  21.779  28.063  1.00  0.00     0.014 A 
ATOM     10  C   UNL A   1      42.145  23.656  26.014  1.00  0.00     0.010 A 
ATOM     11  C   UNL A   1      42.236  23.098  28.366  1.00  0.00     0.010 A 
ATOM     12  C   UNL A   1      42.388  24.042  27.341  1.00  0.00    -0.014 A 
BRANCH  12  13
ATOM     13  C   UNL A   1      42.744  25.445  27.656  1.00  0.00     0.031 A 
ATOM     14  C   UNL A   1      44.105  25.988  27.329  1.00  0.00     0.074 A 
ATOM     15  C   UNL A   1      41.833  26.238  28.251  1.00  0.00     0.049 A 
ATOM     16  N   UNL A   1      44.536  27.221  27.407  1.00  0.00    -0.248 NA
ATOM     17  C   UNL A   1      45.108  25.030  26.841  1.00  0.00     0.031 C 
ATOM     18  C   UNL A   1      40.489  25.823  28.654  1.00  0.00     0.029 A 
ATOM     19  N   UNL A   1      41.903  27.556  28.626  1.00  0.00    -0.354 N 
ATOM     20  C   UNL A   1      45.854  27.192  26.972  1.00  0.00     0.074 A 
ATOM     21  C   UNL A   1      46.162  25.814  26.654  1.00  0.00     0.031 C 
ATOM     22  C   UNL A   1      39.856  26.869  29.210  1.00  0.00     0.029 A 
ATOM     23  C   UNL A   1      40.751  28.022  29.214  1.00  0.00     0.049 A 
ATOM     24  H   UNL A   1      42.702  28.115  28.487  1.00  0.00     0.167 HD
ATOM     25  C   UNL A   1      46.709  28.230  26.807  1.00  0.00     0.034 A 
ATOM     26  C   UNL A   1      40.450  29.243  29.697  1.00  0.00     0.034 A 
ATOM     27  C   UNL A   1      46.371  29.605  27.065  1.00  0.00     0.049 A 
ATOM     28  C   UNL A   1      41.472  30.340  29.623  1.00  0.00     0.074 A 
ATOM     29  C   UNL A   1      47.062  30.754  26.721  1.00  0.00     0.029 A 
ATOM     30  N   UNL A   1      45.254  30.011  27.777  1.00  0.00    -0.354 N 
ATOM     31  N   UNL A   1      42.618  30.349  28.989  1.00  0.00    -0.248 NA
ATOM     32  C   UNL A   1      41.161  31.591  30.328  1.00  0.00     0.031 C 
ATOM     33  C   UNL A   1      46.368  31.857  27.239  1.00  0.00     0.029 A 
ATOM     34  C   UNL A   1      45.266  31.386  27.932  1.00  0.00     0.049 A 
ATOM     35  H   UNL A   1      44.556  29.410  28.123  1.00  0.00     0.167 HD
ATOM     36  C   UNL A   1      43.152  31.615  29.192  1.00  0.00     0.074 A 
ATOM     37  C   UNL A   1      42.210  32.343  30.016  1.00  0.00     0.031 C 
ATOM     38  C   UNL A   1      44.322  32.118  28.732  1.00  0.00     0.034 A 
BRANCH  25  39
ATOM     39  C   UNL A   1      48.053  27.925  26.215  1.00  0.00     0.023 A 
ATOM     40  C   UNL A   1      49.150  27.770  27.085  1.00  0.00     0.012 A 
ATOM     41  C   UNL A   1      48.244  27.779  24.831  1.00  0.00     0.148 A 
ATOM     42  C   UNL A   1      50.415  27.464  26.585  1.00  0.00     0.002 A 
ATOM     43  C   UNL A   1      49.513  27.484  24.339  1.00  0.00     0.091 A 
ATOM     44  F   UNL A   1      47.201  27.959  24.008  1.00  0.00    -0.205 F 
ATOM     45  C   UNL A   1      50.599  27.319  25.211  1.00  0.00     0.022 A 
BRANCH  43  46
ATOM     46  S   UNL A   1      49.765  27.342  22.566  1.00  0.00     0.127 S 
ATOM     47  O   UNL A   1      51.176  26.975  22.481  1.00  0.00    -0.237 OA
ATOM     48  O   UNL A   1      48.843  26.274  22.177  1.00  0.00    -0.237 OA
ATOM     49  O   UNL A   1      49.402  28.661  22.063  1.00  0.00    -0.744 OA
ENDBRANCH  43  46
ENDBRANCH  25  39
BRANCH  26  50
ATOM     50  C   UNL A   1      39.092  29.507  30.234  1.00  0.00     0.023 A 
ATOM     51  C   UNL A   1      38.741  28.979  31.490  1.00  0.00     0.012 A 
ATOM     52  C   UNL A   1      38.170  30.314  29.546  1.00  0.00     0.148 A 
ATOM     53  C   UNL A   1      37.492  29.251  32.050  1.00  0.00     0.002 A 
ATOM     54  C   UNL A   1      36.939  30.605  30.123  1.00  0.00     0.091 A 
ATOM     55  F   UNL A   1      38.513  30.811  28.347  1.00  0.00    -0.205 F 
ATOM     56  C   UNL A   1      36.591  30.072  31.371  1.00  0.00     0.022 A 
BRANCH  54  57
ATOM     57  S   UNL A   1      35.821  31.730  29.284  1.00  0.00     0.127 S 
ATOM     58  O   UNL A   1      35.354  30.938  28.153  1.00  0.00    -0.237 OA
ATOM     59  O   UNL A   1      34.798  32.005  30.295  1.00  0.00    -0.237 OA
ATOM     60  O   UNL A   1      36.680  32.869  28.979  1.00  0.00    -0.744 OA
ENDBRANCH  54  57
ENDBRANCH  26  50
BRANCH  38  61
ATOM     61  C   UNL A   1      44.675  33.522  29.124  1.00  0.00     0.023 A 
ATOM     62  C   UNL A   1      45.241  33.750  30.391  1.00  0.00     0.012 A 
ATOM     63  C   UNL A   1      44.504  34.600  28.239  1.00  0.00     0.148 A 
ATOM     64  C   UNL A   1      45.625  35.036  30.774  1.00  0.00     0.002 A 
ATOM     65  C   UNL A   1      44.902  35.877  28.622  1.00  0.00     0.091 A 
ATOM     66  F   UNL A   1      43.964  34.373  27.032  1.00  0.00    -0.205 F 
ATOM     67  C   UNL A   1      45.461  36.101  29.889  1.00  0.00     0.022 A 
BRANCH  65  68
ATOM     68  S   UNL A   1      44.721  37.242  27.469  1.00  0.00     0.127 S 
ATOM     69  O   UNL A   1      45.710  36.932  26.442  1.00  0.00    -0.237 OA
ATOM     70  O   UNL A   1      43.332  37.125  27.020  1.00  0.00    -0.237 OA
ATOM     71  O   UNL A   1      44.984  38.416  28.295  1.00  0.00    -0.744 OA
ENDBRANCH  65  68
ENDBRANCH  38  61
ENDBRANCH  12  13
ENDBRANCH   5   7
ENDBRANCH   2   3
ENDBRANCH   1   2
BRANCH   1  72
ATOM     72  C   UNL A   1      36.401  20.304  24.978  1.00  0.00     0.023 C 
BRANCH  72  73
ATOM     73  C   UNL A   1      36.192  21.794  25.243  1.00  0.00     0.116 C 
BRANCH  73  74
ATOM     74  N   UNL A   1      35.594  22.054  26.541  1.00  0.00    -0.352 N 
ATOM     75  C   UNL A   1      34.306  22.377  26.881  1.00  0.00     0.257 C 
ATOM     76  H   UNL A   1      36.215  21.986  27.303  1.00  0.00     0.163 HD
ATOM     77  O   UNL A   1      34.063  22.682  28.047  1.00  0.00    -0.269 OA
BRANCH  75  78
ATOM     78  C   UNL A   1      33.277  22.357  25.873  1.00  0.00     0.113 A 
ATOM     79  C   UNL A   1      32.506  23.446  25.370  1.00  0.00     0.127 A 
ATOM     80  C   UNL A   1      32.694  21.244  25.303  1.00  0.00     0.175 A 
ATOM     81  N   UNL A   1      31.602  23.011  24.476  1.00  0.00    -0.079 NA
ATOM     82  O   UNL A   1      31.725  21.638  24.439  1.00  0.00    -0.357 OA
BRANCH  79  83
ATOM     83  C   UNL A   1      32.591  24.862  25.714  1.00  0.00     0.005 A 
ATOM     84  C   UNL A   1      33.762  25.596  25.486  1.00  0.00     0.012 A 
ATOM     85  C   UNL A   1      31.485  25.503  26.296  1.00  0.00     0.012 A 
ATOM     86  C   UNL A   1      33.830  26.946  25.845  1.00  0.00     0.021 A 
ATOM     87  C   UNL A   1      31.555  26.851  26.658  1.00  0.00     0.021 A 
ATOM     88  C   UNL A   1      32.729  27.566  26.431  1.00  0.00     0.041 A 
ATOM     89  Cl  UNL A   1      32.817  29.226  26.877  1.00  0.00    -0.084 Cl
ENDBRANCH  79  83
BRANCH  80  90
ATOM     90  C   UNL A   1      32.877  19.783  25.467  1.00  0.00     0.242 C 
BRANCH  90  91
ATOM     91  O   UNL A   1      33.129  19.191  24.195  1.00  0.00    -0.345 OA
BRANCH  91  92
ATOM     92  C   UNL A   1      32.399  17.992  23.940  1.00  0.00     0.250 C 
ATOM     93  C   UNL A   1      32.336  17.088  25.177  1.00  0.00     0.062 C 
ATOM     94  O   UNL A   1      32.993  17.280  22.850  1.00  0.00    -0.353 OA
ATOM     95  C   UNL A   1      33.718  16.550  25.535  1.00  0.00     0.008 C 
ATOM     96  C   UNL A   1      34.327  16.856  23.123  1.00  0.00     0.163 C 
ATOM     97  C   UNL A   1      34.369  15.910  24.314  1.00  0.00     0.029 C 
ENDBRANCH  91  92
ENDBRANCH  90  91
ENDBRANCH  80  90
ENDBRANCH  75  78
ENDBRANCH  73  74
ENDBRANCH  72  73
ENDBRANCH   1  72
TORSDOF 18
ENDMDL
MODEL 3
REMARK VINA RESULT:     -11.8      5.198      9.051
REMARK SMILES O=C(NCCCCNC(=O)c1c(-c2ccc(Cl)cc2)noc1CO[C@@H]1CCCCO1)c1ccc(-c2c3nc(c(-c4cccc(S(=O)(=O)[O-])c4F)c4ccc([nH]4)c(-c4cccc(S(=O)(=O)[O-])c4F)c4nc(c(-c5cccc(S(=O)(=O)[O-])c5F)c5ccc2[nH]5)C=C4)C=C3)cc1
REMARK SMILES IDX 5 1 4 2 3 3 1 4 2 5 31 7 32 8 93 9 33 10 92 11 34 12 35 13
REMARK SMILES IDX 36 14 86 15 37 16 91 17 85 18 87 19 38 20 90 21 84 22 83 23
REMARK SMILES IDX 39 25 71 26 51 27 70 28 52 29 55 30 69 31 88 32 53 33 54 34
REMARK SMILES IDX 68 36 89 37 56 38 40 39 41 40 49 41 42 42 44 43 50 44 43 45
REMARK SMILES IDX 45 46 46 47 47 48 48 49 72 50 73 51 81 52 74 53 76 54 82 55
REMARK SMILES IDX 75 56 77 57 78 58 79 59 80 60 57 61 58 62 66 63 59 64 61 65
REMARK SMILES IDX 67 66 60 67 62 68 63 69 64 70 65 71 6 72 7 73 8 74 9 75
REMARK SMILES IDX 10 77 11 78 12 79 22 80 20 81 21 82 13 83 14 84 19 85 15 86
REMARK SMILES IDX 18 87 16 88 17 89 23 90 24 91 25 92 26 93 30 94 27 95 29 96
REMARK SMILES IDX 28 97
REMARK H PARENT 3 6 87 24 55 35 8 76
REMARK Flexibility Score: inf
ROOT
ATOM      1  C   UNL A   1      37.858  19.647  24.784  1.00  0.00     0.023 C 
ENDROOT
BRANCH   1   2
ATOM      2  C   UNL A   1      38.877  20.312  25.709  1.00  0.00     0.116 C 
BRANCH   2   3
ATOM      3  N   UNL A   1      40.040  19.488  25.967  1.00  0.00    -0.352 N 
ATOM      4  O   UNL A   1      42.152  18.964  26.486  1.00  0.00    -0.269 OA
ATOM      5  C   UNL A   1      41.291  19.838  26.413  1.00  0.00     0.251 C 
ATOM      6  H   UNL A   1      39.913  18.526  25.797  1.00  0.00     0.163 HD
BRANCH   5   7
ATOM      7  C   UNL A   1      41.625  21.238  26.771  1.00  0.00     0.039 A 
ATOM      8  C   UNL A   1      41.922  21.627  28.081  1.00  0.00     0.014 A 
ATOM      9  C   UNL A   1      41.708  22.178  25.735  1.00  0.00     0.014 A 
ATOM     10  C   UNL A   1      42.225  22.962  28.364  1.00  0.00     0.010 A 
ATOM     11  C   UNL A   1      42.040  23.507  26.014  1.00  0.00     0.010 A 
ATOM     12  C   UNL A   1      42.280  23.913  27.333  1.00  0.00    -0.014 A 
BRANCH  12  13
ATOM     13  C   UNL A   1      42.647  25.317  27.634  1.00  0.00     0.031 A 
ATOM     14  C   UNL A   1      44.014  25.844  27.304  1.00  0.00     0.074 A 
ATOM     15  C   UNL A   1      41.742  26.124  28.217  1.00  0.00     0.049 A 
ATOM     16  N   UNL A   1      44.455  27.074  27.369  1.00  0.00    -0.248 NA
ATOM     17  C   UNL A   1      45.010  24.872  26.829  1.00  0.00     0.031 C 
ATOM     18  C   UNL A   1      40.393  25.725  28.621  1.00  0.00     0.029 A 
ATOM     19  N   UNL A   1      41.823  27.445  28.578  1.00  0.00    -0.354 N 
ATOM     20  C   UNL A   1      45.774  27.030  26.939  1.00  0.00     0.074 A 
ATOM     21  C   UNL A   1      46.072  25.646  26.637  1.00  0.00     0.031 C 
ATOM     22  C   UNL A   1      39.768  26.783  29.163  1.00  0.00     0.029 A 
ATOM     23  C   UNL A   1      40.673  27.928  29.157  1.00  0.00     0.049 A 
ATOM     24  H   UNL A   1      42.626  27.996  28.435  1.00  0.00     0.167 HD
ATOM     25  C   UNL A   1      46.639  28.059  26.765  1.00  0.00     0.034 A 
ATOM     26  C   UNL A   1      40.381  29.156  29.626  1.00  0.00     0.034 A 
ATOM     27  C   UNL A   1      46.312  29.439  27.007  1.00  0.00     0.049 A 
ATOM     28  C   UNL A   1      41.412  30.244  29.543  1.00  0.00     0.074 A 
ATOM     29  C   UNL A   1      47.014  30.578  26.651  1.00  0.00     0.029 A 
ATOM     30  N   UNL A   1      45.197  29.862  27.711  1.00  0.00    -0.354 N 
ATOM     31  N   UNL A   1      42.560  30.236  28.912  1.00  0.00    -0.248 NA
ATOM     32  C   UNL A   1      41.110  31.506  30.233  1.00  0.00     0.031 C 
ATOM     33  C   UNL A   1      46.328  31.692  27.155  1.00  0.00     0.029 A 
ATOM     34  C   UNL A   1      45.220  31.239  27.850  1.00  0.00     0.049 A 
ATOM     35  H   UNL A   1      44.492  29.271  28.062  1.00  0.00     0.167 HD
ATOM     36  C   UNL A   1      43.105  31.499  29.102  1.00  0.00     0.074 A 
ATOM     37  C   UNL A   1      42.166  32.245  29.915  1.00  0.00     0.031 C 
ATOM     38  C   UNL A   1      44.280  31.988  28.640  1.00  0.00     0.034 A 
BRANCH  25  39
ATOM     39  C   UNL A   1      47.982  27.735  26.180  1.00  0.00     0.023 A 
ATOM     40  C   UNL A   1      49.057  27.500  27.059  1.00  0.00     0.012 A 
ATOM     41  C   UNL A   1      48.192  27.650  24.793  1.00  0.00     0.148 A 
ATOM     42  C   UNL A   1      50.320  27.174  26.564  1.00  0.00     0.002 A 
ATOM     43  C   UNL A   1      49.458  27.335  24.307  1.00  0.00     0.091 A 
ATOM     44  F   UNL A   1      47.170  27.906  23.963  1.00  0.00    -0.205 F 
ATOM     45  C   UNL A   1      50.522  27.090  25.187  1.00  0.00     0.022 A 
BRANCH  43  46
ATOM     46  S   UNL A   1      49.737  27.270  22.534  1.00  0.00     0.127 S 
ATOM     47  O   UNL A   1      48.778  26.255  22.105  1.00  0.00    -0.237 OA
ATOM     48  O   UNL A   1      49.413  28.626  22.090  1.00  0.00    -0.237 OA
ATOM     49  O   UNL A   1      51.148  26.923  22.422  1.00  0.00    -0.744 OA
ENDBRANCH  43  46
ENDBRANCH  25  39
BRANCH  26  50
ATOM     50  C   UNL A   1      39.024  29.438  30.156  1.00  0.00     0.023 A 
ATOM     51  C   UNL A   1      38.701  29.020  31.460  1.00  0.00     0.012 A 
ATOM     52  C   UNL A   1      38.074  30.158  29.411  1.00  0.00     0.148 A 
ATOM     53  C   UNL A   1      37.453  29.314  32.011  1.00  0.00     0.002 A 
ATOM     54  C   UNL A   1      36.844  30.473  29.977  1.00  0.00     0.091 A 
ATOM     55  F   UNL A   1      38.390  30.550  28.167  1.00  0.00    -0.205 F 
ATOM     56  C   UNL A   1      36.525  30.049  31.274  1.00  0.00     0.022 A 
BRANCH  54  57
ATOM     57  S   UNL A   1      35.689  31.490  29.055  1.00  0.00     0.127 S 
ATOM     58  O   UNL A   1      34.756  31.934  30.084  1.00  0.00    -0.237 OA
ATOM     59  O   UNL A   1      36.537  32.551  28.508  1.00  0.00    -0.237 OA
ATOM     60  O   UNL A   1      35.171  30.564  28.055  1.00  0.00    -0.744 OA
ENDBRANCH  54  57
ENDBRANCH  26  50
BRANCH  38  61
ATOM     61  C   UNL A   1      44.644  33.393  29.017  1.00  0.00     0.023 A 
ATOM     62  C   UNL A   1      45.320  33.615  30.231  1.00  0.00     0.012 A 
ATOM     63  C   UNL A   1      44.375  34.478  28.167  1.00  0.00     0.148 A 
ATOM     64  C   UNL A   1      45.716  34.903  30.595  1.00  0.00     0.002 A 
ATOM     65  C   UNL A   1      44.785  35.758  28.530  1.00  0.00     0.091 A 
ATOM     66  F   UNL A   1      43.730  34.256  27.011  1.00  0.00    -0.205 F 
ATOM     67  C   UNL A   1      45.454  35.976  29.743  1.00  0.00     0.022 A 
BRANCH  65  68
ATOM     68  S   UNL A   1      44.475  37.133  27.417  1.00  0.00     0.127 S 
ATOM     69  O   UNL A   1      44.551  38.290  28.304  1.00  0.00    -0.237 OA
ATOM     70  O   UNL A   1      45.573  37.043  26.452  1.00  0.00    -0.237 OA
ATOM     71  O   UNL A   1      43.163  36.824  26.859  1.00  0.00    -0.744 OA
ENDBRANCH  65  68
ENDBRANCH  38  61
ENDBRANCH  12  13
ENDBRANCH   5   7
ENDBRANCH   2   3
ENDBRANCH   1   2
BRANCH   1  72
ATOM     72  C   UNL A   1      36.391  20.058  24.965  1.00  0.00     0.023 C 
BRANCH  72  73
ATOM     73  C   UNL A   1      36.138  21.523  25.314  1.00  0.00     0.116 C 
BRANCH  73  74
ATOM     74  N   UNL A   1      35.082  21.692  26.297  1.00  0.00    -0.352 N 
ATOM     75  C   UNL A   1      33.750  21.969  26.135  1.00  0.00     0.257 C 
ATOM     76  H   UNL A   1      35.370  21.590  27.234  1.00  0.00     0.163 HD
ATOM     77  O   UNL A   1      33.070  22.197  27.134  1.00  0.00    -0.269 OA
BRANCH  75  78
ATOM     78  C   UNL A   1      33.182  21.989  24.812  1.00  0.00     0.113 A 
ATOM     79  C   UNL A   1      32.790  20.887  23.997  1.00  0.00     0.127 A 
ATOM     80  C   UNL A   1      33.059  23.081  23.978  1.00  0.00     0.175 A 
ATOM     81  N   UNL A   1      32.357  21.315  22.799  1.00  0.00    -0.079 NA
ATOM     82  O   UNL A   1      32.528  22.684  22.793  1.00  0.00    -0.357 OA
BRANCH  79  83
ATOM     83  C   UNL A   1      32.823  19.461  24.310  1.00  0.00     0.005 A 
ATOM     84  C   UNL A   1      32.604  18.999  25.614  1.00  0.00     0.012 A 
ATOM     85  C   UNL A   1      33.092  18.532  23.292  1.00  0.00     0.012 A 
ATOM     86  C   UNL A   1      32.664  17.631  25.897  1.00  0.00     0.021 A 
ATOM     87  C   UNL A   1      33.156  17.166  23.576  1.00  0.00     0.021 A 
ATOM     88  C   UNL A   1      32.942  16.721  24.879  1.00  0.00     0.041 A 
ATOM     89  Cl  UNL A   1      33.021  15.038  25.230  1.00  0.00    -0.084 Cl
ENDBRANCH  79  83
BRANCH  80  90
ATOM     90  C   UNL A   1      33.409  24.516  24.094  1.00  0.00     0.242 C 
BRANCH  90  91
ATOM     91  O   UNL A   1      32.298  25.310  23.682  1.00  0.00    -0.345 OA
BRANCH  91  92
ATOM     92  C   UNL A   1      31.414  25.688  24.736  1.00  0.00     0.250 C 
ATOM     93  C   UNL A   1      29.995  25.959  24.222  1.00  0.00     0.062 C 
ATOM     94  O   UNL A   1      31.918  26.851  25.402  1.00  0.00    -0.353 OA
ATOM     95  C   UNL A   1      29.963  27.190  23.320  1.00  0.00     0.008 C 
ATOM     96  C   UNL A   1      31.995  27.991  24.549  1.00  0.00     0.163 C 
ATOM     97  C   UNL A   1      30.621  28.374  24.018  1.00  0.00     0.029 C 
ENDBRANCH  91  92
ENDBRANCH  90  91
ENDBRANCH  80  90
ENDBRANCH  75  78
ENDBRANCH  73  74
ENDBRANCH  72  73
ENDBRANCH   1  72
TORSDOF 18
ENDMDL
