MODEL 1
REMARK VINA RESULT:     -10.3      0.000      0.000
REMARK SMILES O=C(/C=C\C(F)(C(F)(F)F)C(F)(F)F)NCCCCNC(=O)c1ccc(-c2c3nc(c(-c4cccc(S(=O)(=O)[O-])c4F)c4ccc([nH]4)c(-c4cccc(S(=O)(=O)[O-])c4F)c4nc(c(-c5cccc(S(=O)(=O)[O-])c5F)c5ccc2[nH]5)C=C4)C=C3)cc1
REMARK SMILES IDX 18 1 17 2 16 3 15 4 1 5 2 6 3 8 4 9 5 10 6 11 7 12 8 13 9 14
REMARK SMILES IDX 10 15 11 16 12 17 13 18 14 19 19 20 20 21 21 22 22 24 23 25
REMARK SMILES IDX 24 26 85 27 25 28 84 29 26 30 27 31 28 32 78 33 29 34 83 35
REMARK SMILES IDX 77 36 79 37 30 38 82 39 76 40 75 41 31 43 63 44 43 45 62 46
REMARK SMILES IDX 44 47 47 48 61 49 80 50 45 51 46 52 60 54 81 55 48 56 32 57
REMARK SMILES IDX 33 58 41 59 34 60 36 61 42 62 35 63 37 64 38 65 39 66 40 67
REMARK SMILES IDX 64 68 65 69 73 70 66 71 68 72 74 73 67 74 69 75 70 76 71 77
REMARK SMILES IDX 72 78 49 79 50 80 58 81 51 82 53 83 59 84 52 85 54 86 55 87
REMARK SMILES IDX 56 88 57 89
REMARK H PARENT 15 7 20 23 79 42 47 53
REMARK Flexibility Score: inf
ROOT
ATOM      1  C   UNL A   1      41.314  19.951  27.465  1.00  0.00     0.023 C 
ENDROOT
BRANCH   1   2
ATOM      2  C   UNL A   1      41.512  19.219  26.134  1.00  0.00     0.023 C 
BRANCH   2   3
ATOM      3  C   UNL A   1      42.925  18.730  25.799  1.00  0.00     0.116 C 
BRANCH   3   4
ATOM      4  N   UNL A   1      43.946  19.765  25.832  1.00  0.00    -0.353 N 
ATOM      5  O   UNL A   1      45.214  18.919  24.137  1.00  0.00    -0.270 OA
ATOM      6  C   UNL A   1      45.024  19.770  25.004  1.00  0.00     0.243 C 
ATOM      7  H   UNL A   1      43.852  20.496  26.486  1.00  0.00     0.163 HD
BRANCH   6   8
ATOM      8  C   UNL A   1      45.984  20.916  25.078  1.00  0.00     0.071 C 
ATOM      9  C   UNL A   1      45.997  22.246  25.286  1.00  0.00     0.038 C 
BRANCH   9  10
ATOM     10  C   UNL A   1      45.009  23.381  25.580  1.00  0.00     0.317 C 
ATOM     11  F   UNL A   1      45.695  24.549  25.337  1.00  0.00    -0.219 F 
BRANCH  10  12
ATOM     12  C   UNL A   1      43.818  23.311  24.632  1.00  0.00     0.435 C 
ATOM     13  F   UNL A   1      44.192  22.883  23.401  1.00  0.00    -0.167 F 
ATOM     14  F   UNL A   1      42.833  22.499  25.058  1.00  0.00    -0.167 F 
ATOM     15  F   UNL A   1      43.269  24.541  24.456  1.00  0.00    -0.167 F 
ENDBRANCH  10  12
BRANCH  10  16
ATOM     16  C   UNL A   1      44.406  23.477  26.956  1.00  0.00     0.435 C 
ATOM     17  F   UNL A   1      45.252  24.079  27.830  1.00  0.00    -0.167 F 
ATOM     18  F   UNL A   1      43.282  24.228  26.927  1.00  0.00    -0.167 F 
ATOM     19  F   UNL A   1      44.072  22.291  27.497  1.00  0.00    -0.167 F 
ENDBRANCH  10  16
ENDBRANCH   9  10
ENDBRANCH   6   8
ENDBRANCH   3   4
ENDBRANCH   2   3
ENDBRANCH   1   2
BRANCH   1  20
ATOM     20  C   UNL A   1      40.918  21.423  27.396  1.00  0.00     0.116 C 
BRANCH  20  21
ATOM     21  N   UNL A   1      39.784  21.648  26.520  1.00  0.00    -0.352 N 
ATOM     22  C   UNL A   1      39.058  22.793  26.298  1.00  0.00     0.251 C 
ATOM     23  H   UNL A   1      39.489  20.860  26.008  1.00  0.00     0.163 HD
ATOM     24  O   UNL A   1      38.008  22.716  25.661  1.00  0.00    -0.269 OA
BRANCH  22  25
ATOM     25  C   UNL A   1      39.502  24.113  26.815  1.00  0.00     0.039 A 
ATOM     26  C   UNL A   1      39.200  24.442  28.142  1.00  0.00     0.014 A 
ATOM     27  C   UNL A   1      40.140  25.058  26.004  1.00  0.00     0.014 A 
ATOM     28  C   UNL A   1      39.569  25.688  28.663  1.00  0.00     0.010 A 
ATOM     29  C   UNL A   1      40.559  26.280  26.544  1.00  0.00     0.010 A 
ATOM     30  C   UNL A   1      40.274  26.614  27.877  1.00  0.00    -0.014 A 
BRANCH  30  31
ATOM     31  C   UNL A   1      40.729  27.914  28.447  1.00  0.00     0.031 A 
ATOM     32  C   UNL A   1      42.196  28.208  28.640  1.00  0.00     0.074 A 
ATOM     33  C   UNL A   1      39.817  28.820  28.855  1.00  0.00     0.049 A 
ATOM     34  N   UNL A   1      42.765  29.269  29.154  1.00  0.00    -0.248 NA
ATOM     35  C   UNL A   1      43.145  27.168  28.215  1.00  0.00     0.031 C 
ATOM     36  C   UNL A   1      38.366  28.644  28.787  1.00  0.00     0.029 A 
ATOM     37  N   UNL A   1      39.974  30.058  29.432  1.00  0.00    -0.354 N 
ATOM     38  C   UNL A   1      44.133  29.016  29.143  1.00  0.00     0.074 A 
ATOM     39  C   UNL A   1      44.305  27.687  28.595  1.00  0.00     0.031 C 
ATOM     40  C   UNL A   1      37.765  29.727  29.307  1.00  0.00     0.029 A 
ATOM     41  C   UNL A   1      38.785  30.662  29.773  1.00  0.00     0.049 A 
ATOM     42  H   UNL A   1      40.852  30.473  29.586  1.00  0.00     0.167 HD
ATOM     43  C   UNL A   1      45.154  29.820  29.529  1.00  0.00     0.034 A 
ATOM     44  C   UNL A   1      38.537  31.827  30.405  1.00  0.00     0.034 A 
ATOM     45  C   UNL A   1      44.988  31.153  30.050  1.00  0.00     0.049 A 
ATOM     46  C   UNL A   1      39.686  32.709  30.809  1.00  0.00     0.074 A 
ATOM     47  C   UNL A   1      45.967  32.069  30.396  1.00  0.00     0.029 A 
ATOM     48  N   UNL A   1      43.769  31.757  30.314  1.00  0.00    -0.354 N 
ATOM     49  N   UNL A   1      40.973  32.512  30.652  1.00  0.00    -0.248 NA
ATOM     50  C   UNL A   1      39.351  33.992  31.447  1.00  0.00     0.031 C 
ATOM     51  C   UNL A   1      45.340  33.214  30.899  1.00  0.00     0.029 A 
ATOM     52  C   UNL A   1      43.970  33.027  30.831  1.00  0.00     0.049 A 
ATOM     53  H   UNL A   1      42.889  31.345  30.157  1.00  0.00     0.167 HD
ATOM     54  C   UNL A   1      41.597  33.657  31.135  1.00  0.00     0.074 A 
ATOM     55  C   UNL A   1      40.546  34.552  31.572  1.00  0.00     0.031 C 
ATOM     56  C   UNL A   1      42.921  33.935  31.220  1.00  0.00     0.034 A 
BRANCH  43  57
ATOM     57  C   UNL A   1      46.560  29.298  29.362  1.00  0.00     0.023 A 
ATOM     58  C   UNL A   1      47.197  28.654  30.442  1.00  0.00     0.012 A 
ATOM     59  C   UNL A   1      47.226  29.384  28.122  1.00  0.00     0.148 A 
ATOM     60  C   UNL A   1      48.485  28.139  30.305  1.00  0.00     0.002 A 
ATOM     61  C   UNL A   1      48.493  28.827  27.981  1.00  0.00     0.091 A 
ATOM     62  F   UNL A   1      46.613  30.012  27.108  1.00  0.00    -0.205 F 
ATOM     63  C   UNL A   1      49.128  28.217  29.074  1.00  0.00     0.022 A 
BRANCH  61  64
ATOM     64  S   UNL A   1      49.372  28.803  26.413  1.00  0.00     0.127 S 
ATOM     65  O   UNL A   1      49.869  30.176  26.334  1.00  0.00    -0.237 OA
ATOM     66  O   UNL A   1      50.405  27.795  26.656  1.00  0.00    -0.237 OA
ATOM     67  O   UNL A   1      48.388  28.434  25.405  1.00  0.00    -0.744 OA
ENDBRANCH  61  64
ENDBRANCH  43  57
BRANCH  44  68
ATOM     68  C   UNL A   1      37.129  32.249  30.655  1.00  0.00     0.023 A 
ATOM     69  C   UNL A   1      36.567  32.073  31.935  1.00  0.00     0.012 A 
ATOM     70  C   UNL A   1      36.355  32.845  29.640  1.00  0.00     0.148 A 
ATOM     71  C   UNL A   1      35.248  32.453  32.189  1.00  0.00     0.002 A 
ATOM     72  C   UNL A   1      35.063  33.275  29.916  1.00  0.00     0.091 A 
ATOM     73  F   UNL A   1      36.906  32.992  28.426  1.00  0.00    -0.205 F 
ATOM     74  C   UNL A   1      34.501  33.063  31.185  1.00  0.00     0.022 A 
BRANCH  72  75
ATOM     75  S   UNL A   1      34.077  34.188  28.726  1.00  0.00     0.127 S 
ATOM     76  O   UNL A   1      33.830  33.174  27.702  1.00  0.00    -0.237 OA
ATOM     77  O   UNL A   1      32.905  34.554  29.525  1.00  0.00    -0.237 OA
ATOM     78  O   UNL A   1      34.898  35.315  28.313  1.00  0.00    -0.744 OA
ENDBRANCH  72  75
ENDBRANCH  44  68
BRANCH  56  79
ATOM     79  C   UNL A   1      43.324  35.281  31.771  1.00  0.00     0.023 A 
ATOM     80  C   UNL A   1      43.597  36.348  30.893  1.00  0.00     0.012 A 
ATOM     81  C   UNL A   1      43.365  35.503  33.162  1.00  0.00     0.148 A 
ATOM     82  C   UNL A   1      43.939  37.606  31.390  1.00  0.00     0.002 A 
ATOM     83  C   UNL A   1      43.656  36.772  33.650  1.00  0.00     0.091 A 
ATOM     84  F   UNL A   1      43.119  34.471  33.982  1.00  0.00    -0.205 F 
ATOM     85  C   UNL A   1      43.957  37.821  32.767  1.00  0.00     0.022 A 
BRANCH  83  86
ATOM     86  S   UNL A   1      43.608  37.167  35.402  1.00  0.00     0.127 S 
ATOM     87  O   UNL A   1      44.712  36.360  35.920  1.00  0.00    -0.237 OA
ATOM     88  O   UNL A   1      43.856  38.609  35.401  1.00  0.00    -0.237 OA
ATOM     89  O   UNL A   1      42.282  36.782  35.865  1.00  0.00    -0.744 OA
ENDBRANCH  83  86
ENDBRANCH  56  79
ENDBRANCH  30  31
ENDBRANCH  22  25
ENDBRANCH  20  21
ENDBRANCH   1  20
TORSDOF 17
ENDMDL
MODEL 2
REMARK VINA RESULT:     -10.0      4.281     12.059
REMARK SMILES O=C(/C=C\C(F)(C(F)(F)F)C(F)(F)F)NCCCCNC(=O)c1ccc(-c2c3nc(c(-c4cccc(S(=O)(=O)[O-])c4F)c4ccc([nH]4)c(-c4cccc(S(=O)(=O)[O-])c4F)c4nc(c(-c5cccc(S(=O)(=O)[O-])c5F)c5ccc2[nH]5)C=C4)C=C3)cc1
REMARK SMILES IDX 18 1 17 2 16 3 15 4 1 5 2 6 3 8 4 9 5 10 6 11 7 12 8 13 9 14
REMARK SMILES IDX 10 15 11 16 12 17 13 18 14 19 19 20 20 21 21 22 22 24 23 25
REMARK SMILES IDX 24 26 85 27 25 28 84 29 26 30 27 31 28 32 78 33 29 34 83 35
REMARK SMILES IDX 77 36 79 37 30 38 82 39 76 40 75 41 31 43 63 44 43 45 62 46
REMARK SMILES IDX 44 47 47 48 61 49 80 50 45 51 46 52 60 54 81 55 48 56 32 57
REMARK SMILES IDX 33 58 41 59 34 60 36 61 42 62 35 63 37 64 38 65 39 66 40 67
REMARK SMILES IDX 64 68 65 69 73 70 66 71 68 72 74 73 67 74 69 75 70 76 71 77
REMARK SMILES IDX 72 78 49 79 50 80 58 81 51 82 53 83 59 84 52 85 54 86 55 87
REMARK SMILES IDX 56 88 57 89
REMARK H PARENT 15 7 20 23 79 42 47 53
REMARK Flexibility Score: inf
ROOT
ATOM      1  C   UNL A   1      33.394  33.982  28.772  1.00  0.00     0.023 C 
ENDROOT
BRANCH   1   2
ATOM      2  C   UNL A   1      33.661  35.448  28.415  1.00  0.00     0.023 C 
BRANCH   2   3
ATOM      3  C   UNL A   1      33.182  36.515  29.404  1.00  0.00     0.116 C 
BRANCH   3   4
ATOM      4  N   UNL A   1      33.879  36.512  30.680  1.00  0.00    -0.353 N 
ATOM      5  O   UNL A   1      32.282  35.362  31.833  1.00  0.00    -0.270 OA
ATOM      6  C   UNL A   1      33.365  35.946  31.805  1.00  0.00     0.243 C 
ATOM      7  H   UNL A   1      34.763  36.941  30.733  1.00  0.00     0.163 HD
BRANCH   6   8
ATOM      8  C   UNL A   1      34.192  35.943  33.052  1.00  0.00     0.071 C 
ATOM      9  C   UNL A   1      34.998  35.131  33.761  1.00  0.00     0.038 C 
BRANCH   9  10
ATOM     10  C   UNL A   1      35.552  33.702  33.690  1.00  0.00     0.317 C 
ATOM     11  F   UNL A   1      34.603  32.902  34.285  1.00  0.00    -0.219 F 
BRANCH  10  12
ATOM     12  C   UNL A   1      35.718  33.264  32.240  1.00  0.00     0.435 C 
ATOM     13  F   UNL A   1      36.252  34.255  31.484  1.00  0.00    -0.167 F 
ATOM     14  F   UNL A   1      36.498  32.177  32.088  1.00  0.00    -0.167 F 
ATOM     15  F   UNL A   1      34.514  32.969  31.685  1.00  0.00    -0.167 F 
ENDBRANCH  10  12
BRANCH  10  16
ATOM     16  C   UNL A   1      36.877  33.408  34.340  1.00  0.00     0.435 C 
ATOM     17  F   UNL A   1      37.004  34.053  35.528  1.00  0.00    -0.167 F 
ATOM     18  F   UNL A   1      36.990  32.086  34.605  1.00  0.00    -0.167 F 
ATOM     19  F   UNL A   1      37.945  33.752  33.598  1.00  0.00    -0.167 F 
ENDBRANCH  10  16
ENDBRANCH   9  10
ENDBRANCH   6   8
ENDBRANCH   3   4
ENDBRANCH   2   3
ENDBRANCH   1   2
BRANCH   1  20
ATOM     20  C   UNL A   1      34.371  32.945  28.226  1.00  0.00     0.116 C 
BRANCH  20  21
ATOM     21  N   UNL A   1      33.695  31.775  27.699  1.00  0.00    -0.352 N 
ATOM     22  C   UNL A   1      34.179  30.510  27.468  1.00  0.00     0.251 C 
ATOM     23  H   UNL A   1      32.746  31.907  27.472  1.00  0.00     0.163 HD
ATOM     24  O   UNL A   1      33.487  29.717  26.830  1.00  0.00    -0.269 OA
BRANCH  22  25
ATOM     25  C   UNL A   1      35.515  30.082  27.957  1.00  0.00     0.039 A 
ATOM     26  C   UNL A   1      35.635  29.668  29.289  1.00  0.00     0.014 A 
ATOM     27  C   UNL A   1      36.660  30.149  27.156  1.00  0.00     0.014 A 
ATOM     28  C   UNL A   1      36.881  29.287  29.802  1.00  0.00     0.010 A 
ATOM     29  C   UNL A   1      37.895  29.713  27.655  1.00  0.00     0.010 A 
ATOM     30  C   UNL A   1      38.022  29.284  28.984  1.00  0.00    -0.014 A 
BRANCH  30  31
ATOM     31  C   UNL A   1      39.337  28.814  29.507  1.00  0.00     0.031 A 
ATOM     32  C   UNL A   1      40.044  29.557  30.614  1.00  0.00     0.074 A 
ATOM     33  C   UNL A   1      39.937  27.746  28.944  1.00  0.00     0.049 A 
ATOM     34  N   UNL A   1      41.207  29.310  31.162  1.00  0.00    -0.248 NA
ATOM     35  C   UNL A   1      39.363  30.739  31.164  1.00  0.00     0.031 C 
ATOM     36  C   UNL A   1      39.398  26.970  27.826  1.00  0.00     0.029 A 
ATOM     37  N   UNL A   1      41.142  27.142  29.216  1.00  0.00    -0.354 N 
ATOM     38  C   UNL A   1      41.412  30.318  32.099  1.00  0.00     0.074 A 
ATOM     39  C   UNL A   1      40.264  31.196  32.023  1.00  0.00     0.031 C 
ATOM     40  C   UNL A   1      40.269  26.000  27.503  1.00  0.00     0.029 A 
ATOM     41  C   UNL A   1      41.441  26.101  28.368  1.00  0.00     0.049 A 
ATOM     42  H   UNL A   1      41.734  27.428  29.948  1.00  0.00     0.167 HD
ATOM     43  C   UNL A   1      42.447  30.487  32.959  1.00  0.00     0.034 A 
ATOM     44  C   UNL A   1      42.539  25.324  28.279  1.00  0.00     0.034 A 
ATOM     45  C   UNL A   1      43.579  29.602  33.055  1.00  0.00     0.049 A 
ATOM     46  C   UNL A   1      43.666  25.521  29.255  1.00  0.00     0.074 A 
ATOM     47  C   UNL A   1      44.636  29.651  33.947  1.00  0.00     0.029 A 
ATOM     48  N   UNL A   1      43.811  28.515  32.226  1.00  0.00    -0.354 N 
ATOM     49  N   UNL A   1      43.771  26.389  30.231  1.00  0.00    -0.248 NA
ATOM     50  C   UNL A   1      44.814  24.607  29.141  1.00  0.00     0.031 C 
ATOM     51  C   UNL A   1      45.523  28.615  33.637  1.00  0.00     0.029 A 
ATOM     52  C   UNL A   1      45.000  27.896  32.575  1.00  0.00     0.049 A 
ATOM     53  H   UNL A   1      43.218  28.226  31.495  1.00  0.00     0.167 HD
ATOM     54  C   UNL A   1      44.974  26.105  30.869  1.00  0.00     0.074 A 
ATOM     55  C   UNL A   1      45.553  24.969  30.181  1.00  0.00     0.031 C 
ATOM     56  C   UNL A   1      45.550  26.737  31.920  1.00  0.00     0.034 A 
BRANCH  43  57
ATOM     57  C   UNL A   1      42.387  31.660  33.907  1.00  0.00     0.023 A 
ATOM     58  C   UNL A   1      42.887  32.913  33.498  1.00  0.00     0.012 A 
ATOM     59  C   UNL A   1      41.778  31.542  35.173  1.00  0.00     0.148 A 
ATOM     60  C   UNL A   1      42.818  34.019  34.344  1.00  0.00     0.002 A 
ATOM     61  C   UNL A   1      41.672  32.660  35.993  1.00  0.00     0.091 A 
ATOM     62  F   UNL A   1      41.319  30.341  35.554  1.00  0.00    -0.205 F 
ATOM     63  C   UNL A   1      42.203  33.895  35.587  1.00  0.00     0.022 A 
BRANCH  61  64
ATOM     64  S   UNL A   1      40.825  32.624  37.578  1.00  0.00     0.127 S 
ATOM     65  O   UNL A   1      40.754  34.048  37.905  1.00  0.00    -0.237 OA
ATOM     66  O   UNL A   1      39.541  32.016  37.226  1.00  0.00    -0.237 OA
ATOM     67  O   UNL A   1      41.657  31.820  38.461  1.00  0.00    -0.744 OA
ENDBRANCH  61  64
ENDBRANCH  43  57
BRANCH  44  68
ATOM     68  C   UNL A   1      42.605  24.250  27.247  1.00  0.00     0.023 A 
ATOM     69  C   UNL A   1      43.292  24.485  26.040  1.00  0.00     0.012 A 
ATOM     70  C   UNL A   1      42.012  22.990  27.466  1.00  0.00     0.148 A 
ATOM     71  C   UNL A   1      43.359  23.497  25.056  1.00  0.00     0.002 A 
ATOM     72  C   UNL A   1      42.133  21.992  26.507  1.00  0.00     0.091 A 
ATOM     73  F   UNL A   1      41.353  22.791  28.616  1.00  0.00    -0.205 F 
ATOM     74  C   UNL A   1      42.790  22.249  25.294  1.00  0.00     0.022 A 
BRANCH  72  75
ATOM     75  S   UNL A   1      41.549  20.317  26.783  1.00  0.00     0.127 S 
ATOM     76  O   UNL A   1      41.767  19.705  25.474  1.00  0.00    -0.237 OA
ATOM     77  O   UNL A   1      42.454  19.853  27.838  1.00  0.00    -0.237 OA
ATOM     78  O   UNL A   1      40.160  20.445  27.196  1.00  0.00    -0.744 OA
ENDBRANCH  72  75
ENDBRANCH  44  68
BRANCH  56  79
ATOM     79  C   UNL A   1      46.863  26.196  32.432  1.00  0.00     0.023 A 
ATOM     80  C   UNL A   1      48.077  26.760  31.992  1.00  0.00     0.012 A 
ATOM     81  C   UNL A   1      46.888  25.173  33.401  1.00  0.00     0.148 A 
ATOM     82  C   UNL A   1      49.296  26.291  32.482  1.00  0.00     0.002 A 
ATOM     83  C   UNL A   1      48.104  24.747  33.923  1.00  0.00     0.091 A 
ATOM     84  F   UNL A   1      45.724  24.637  33.796  1.00  0.00    -0.205 F 
ATOM     85  C   UNL A   1      49.309  25.294  33.455  1.00  0.00     0.022 A 
BRANCH  83  86
ATOM     86  S   UNL A   1      48.216  23.538  35.247  1.00  0.00     0.127 S 
ATOM     87  O   UNL A   1      49.660  23.463  35.462  1.00  0.00    -0.237 OA
ATOM     88  O   UNL A   1      47.472  24.190  36.326  1.00  0.00    -0.237 OA
ATOM     89  O   UNL A   1      47.597  22.322  34.736  1.00  0.00    -0.744 OA
ENDBRANCH  83  86
ENDBRANCH  56  79
ENDBRANCH  30  31
ENDBRANCH  22  25
ENDBRANCH  20  21
ENDBRANCH   1  20
TORSDOF 17
ENDMDL
MODEL 3
REMARK VINA RESULT:     -10.0      3.744     12.012
REMARK SMILES O=C(/C=C\C(F)(C(F)(F)F)C(F)(F)F)NCCCCNC(=O)c1ccc(-c2c3nc(c(-c4cccc(S(=O)(=O)[O-])c4F)c4ccc([nH]4)c(-c4cccc(S(=O)(=O)[O-])c4F)c4nc(c(-c5cccc(S(=O)(=O)[O-])c5F)c5ccc2[nH]5)C=C4)C=C3)cc1
REMARK SMILES IDX 18 1 17 2 16 3 15 4 1 5 2 6 3 8 4 9 5 10 6 11 7 12 8 13 9 14
REMARK SMILES IDX 10 15 11 16 12 17 13 18 14 19 19 20 20 21 21 22 22 24 23 25
REMARK SMILES IDX 24 26 85 27 25 28 84 29 26 30 27 31 28 32 78 33 29 34 83 35
REMARK SMILES IDX 77 36 79 37 30 38 82 39 76 40 75 41 31 43 63 44 43 45 62 46
REMARK SMILES IDX 44 47 47 48 61 49 80 50 45 51 46 52 60 54 81 55 48 56 32 57
REMARK SMILES IDX 33 58 41 59 34 60 36 61 42 62 35 63 37 64 38 65 39 66 40 67
REMARK SMILES IDX 64 68 65 69 73 70 66 71 68 72 74 73 67 74 69 75 70 76 71 77
REMARK SMILES IDX 72 78 49 79 50 80 58 81 51 82 53 83 59 84 52 85 54 86 55 87
REMARK SMILES IDX 56 88 57 89
REMARK H PARENT 15 7 20 23 79 42 47 53
REMARK Flexibility Score: inf
ROOT
ATOM      1  C   UNL A   1      33.724  33.859  28.927  1.00  0.00     0.023 C 
ENDROOT
BRANCH   1   2
ATOM      2  C   UNL A   1      33.862  35.364  28.675  1.00  0.00     0.023 C 
BRANCH   2   3
ATOM      3  C   UNL A   1      33.346  36.313  29.761  1.00  0.00     0.116 C 
BRANCH   3   4
ATOM      4  N   UNL A   1      34.024  36.191  31.042  1.00  0.00    -0.353 N 
ATOM      5  O   UNL A   1      32.252  35.314  32.178  1.00  0.00    -0.270 OA
ATOM      6  C   UNL A   1      33.416  35.712  32.160  1.00  0.00     0.243 C 
ATOM      7  H   UNL A   1      34.967  36.469  31.102  1.00  0.00     0.163 HD
BRANCH   6   8
ATOM      8  C   UNL A   1      34.222  35.569  33.413  1.00  0.00     0.071 C 
ATOM      9  C   UNL A   1      35.345  34.977  33.862  1.00  0.00     0.038 C 
BRANCH   9  10
ATOM     10  C   UNL A   1      36.477  34.090  33.330  1.00  0.00     0.317 C 
ATOM     11  F   UNL A   1      37.459  34.953  32.898  1.00  0.00    -0.219 F 
BRANCH  10  12
ATOM     12  C   UNL A   1      37.048  33.225  34.446  1.00  0.00     0.435 C 
ATOM     13  F   UNL A   1      36.700  33.702  35.667  1.00  0.00    -0.167 F 
ATOM     14  F   UNL A   1      36.653  31.939  34.391  1.00  0.00    -0.167 F 
ATOM     15  F   UNL A   1      38.405  33.225  34.411  1.00  0.00    -0.167 F 
ENDBRANCH  10  12
BRANCH  10  16
ATOM     16  C   UNL A   1      36.178  33.132  32.208  1.00  0.00     0.435 C 
ATOM     17  F   UNL A   1      37.111  32.150  32.130  1.00  0.00    -0.167 F 
ATOM     18  F   UNL A   1      34.990  32.520  32.415  1.00  0.00    -0.167 F 
ATOM     19  F   UNL A   1      36.117  33.705  30.992  1.00  0.00    -0.167 F 
ENDBRANCH  10  16
ENDBRANCH   9  10
ENDBRANCH   6   8
ENDBRANCH   3   4
ENDBRANCH   2   3
ENDBRANCH   1   2
BRANCH   1  20
ATOM     20  C   UNL A   1      34.595  32.931  28.085  1.00  0.00     0.116 C 
BRANCH  20  21
ATOM     21  N   UNL A   1      33.875  31.751  27.643  1.00  0.00    -0.352 N 
ATOM     22  C   UNL A   1      34.322  30.464  27.467  1.00  0.00     0.251 C 
ATOM     23  H   UNL A   1      32.923  31.895  27.438  1.00  0.00     0.163 HD
ATOM     24  O   UNL A   1      33.592  29.656  26.894  1.00  0.00    -0.269 OA
BRANCH  22  25
ATOM     25  C   UNL A   1      35.663  30.029  27.937  1.00  0.00     0.039 A 
ATOM     26  C   UNL A   1      35.785  29.553  29.248  1.00  0.00     0.014 A 
ATOM     27  C   UNL A   1      36.808  30.149  27.142  1.00  0.00     0.014 A 
ATOM     28  C   UNL A   1      37.035  29.164  29.744  1.00  0.00     0.010 A 
ATOM     29  C   UNL A   1      38.047  29.706  27.622  1.00  0.00     0.010 A 
ATOM     30  C   UNL A   1      38.177  29.214  28.929  1.00  0.00    -0.014 A 
BRANCH  30  31
ATOM     31  C   UNL A   1      39.498  28.736  29.431  1.00  0.00     0.031 A 
ATOM     32  C   UNL A   1      40.220  29.467  30.536  1.00  0.00     0.074 A 
ATOM     33  C   UNL A   1      40.087  27.671  28.851  1.00  0.00     0.049 A 
ATOM     34  N   UNL A   1      41.389  29.212  31.068  1.00  0.00    -0.248 NA
ATOM     35  C   UNL A   1      39.550  30.646  31.105  1.00  0.00     0.031 C 
ATOM     36  C   UNL A   1      39.532  26.907  27.733  1.00  0.00     0.029 A 
ATOM     37  N   UNL A   1      41.294  27.062  29.103  1.00  0.00    -0.354 N 
ATOM     38  C   UNL A   1      41.609  30.211  32.010  1.00  0.00     0.074 A 
ATOM     39  C   UNL A   1      40.463  31.092  31.957  1.00  0.00     0.031 C 
ATOM     40  C   UNL A   1      40.396  25.937  27.391  1.00  0.00     0.029 A 
ATOM     41  C   UNL A   1      41.579  26.028  28.242  1.00  0.00     0.049 A 
ATOM     42  H   UNL A   1      41.896  27.339  29.830  1.00  0.00     0.167 HD
ATOM     43  C   UNL A   1      42.655  30.369  32.859  1.00  0.00     0.034 A 
ATOM     44  C   UNL A   1      42.674  25.248  28.132  1.00  0.00     0.034 A 
ATOM     45  C   UNL A   1      43.786  29.479  32.934  1.00  0.00     0.049 A 
ATOM     46  C   UNL A   1      43.814  25.433  29.095  1.00  0.00     0.074 A 
ATOM     47  C   UNL A   1      44.854  29.518  33.813  1.00  0.00     0.029 A 
ATOM     48  N   UNL A   1      44.004  28.400  32.091  1.00  0.00    -0.354 N 
ATOM     49  N   UNL A   1      43.933  26.292  30.078  1.00  0.00    -0.248 NA
ATOM     50  C   UNL A   1      44.957  24.517  28.960  1.00  0.00     0.031 C 
ATOM     51  C   UNL A   1      45.734  28.482  33.482  1.00  0.00     0.029 A 
ATOM     52  C   UNL A   1      45.196  27.775  32.420  1.00  0.00     0.049 A 
ATOM     53  H   UNL A   1      43.401  28.119  31.366  1.00  0.00     0.167 HD
ATOM     54  C   UNL A   1      45.143  25.999  30.698  1.00  0.00     0.074 A 
ATOM     55  C   UNL A   1      45.710  24.868  29.993  1.00  0.00     0.031 C 
ATOM     56  C   UNL A   1      45.734  26.619  31.748  1.00  0.00     0.034 A 
BRANCH  43  57
ATOM     57  C   UNL A   1      42.610  31.533  33.818  1.00  0.00     0.023 A 
ATOM     58  C   UNL A   1      43.103  32.790  33.412  1.00  0.00     0.012 A 
ATOM     59  C   UNL A   1      42.022  31.404  35.093  1.00  0.00     0.148 A 
ATOM     60  C   UNL A   1      43.048  33.888  34.270  1.00  0.00     0.002 A 
ATOM     61  C   UNL A   1      41.930  32.515  35.925  1.00  0.00     0.091 A 
ATOM     62  F   UNL A   1      41.570  30.199  35.471  1.00  0.00    -0.205 F 
ATOM     63  C   UNL A   1      42.453  33.753  35.521  1.00  0.00     0.022 A 
BRANCH  61  64
ATOM     64  S   UNL A   1      41.108  32.464  37.523  1.00  0.00     0.127 S 
ATOM     65  O   UNL A   1      41.127  33.875  37.908  1.00  0.00    -0.237 OA
ATOM     66  O   UNL A   1      39.785  31.947  37.172  1.00  0.00    -0.237 OA
ATOM     67  O   UNL A   1      41.905  31.577  38.358  1.00  0.00    -0.744 OA
ENDBRANCH  61  64
ENDBRANCH  43  57
BRANCH  44  68
ATOM     68  C   UNL A   1      42.724  24.183  27.089  1.00  0.00     0.023 A 
ATOM     69  C   UNL A   1      43.462  24.398  25.909  1.00  0.00     0.012 A 
ATOM     70  C   UNL A   1      42.065  22.951  27.273  1.00  0.00     0.148 A 
ATOM     71  C   UNL A   1      43.515  23.419  24.916  1.00  0.00     0.002 A 
ATOM     72  C   UNL A   1      42.172  21.958  26.307  1.00  0.00     0.091 A 
ATOM     73  F   UNL A   1      41.359  22.771  28.398  1.00  0.00    -0.205 F 
ATOM     74  C   UNL A   1      42.881  22.197  25.119  1.00  0.00     0.022 A 
BRANCH  72  75
ATOM     75  S   UNL A   1      41.500  20.310  26.542  1.00  0.00     0.127 S 
ATOM     76  O   UNL A   1      40.061  20.565  26.501  1.00  0.00    -0.237 OA
ATOM     77  O   UNL A   1      42.033  19.600  25.377  1.00  0.00    -0.237 OA
ATOM     78  O   UNL A   1      42.023  19.848  27.818  1.00  0.00    -0.744 OA
ENDBRANCH  72  75
ENDBRANCH  44  68
BRANCH  56  79
ATOM     79  C   UNL A   1      47.052  26.071  32.239  1.00  0.00     0.023 A 
ATOM     80  C   UNL A   1      47.082  25.183  33.333  1.00  0.00     0.012 A 
ATOM     81  C   UNL A   1      48.252  26.384  31.571  1.00  0.00     0.148 A 
ATOM     82  C   UNL A   1      48.290  24.643  33.776  1.00  0.00     0.002 A 
ATOM     83  C   UNL A   1      49.445  25.802  31.985  1.00  0.00     0.091 A 
ATOM     84  F   UNL A   1      48.207  27.243  30.542  1.00  0.00    -0.205 F 
ATOM     85  C   UNL A   1      49.468  24.943  33.095  1.00  0.00     0.022 A 
BRANCH  83  86
ATOM     86  S   UNL A   1      50.995  26.051  31.112  1.00  0.00     0.127 S 
ATOM     87  O   UNL A   1      51.885  25.128  31.816  1.00  0.00    -0.237 OA
ATOM     88  O   UNL A   1      50.652  25.646  29.749  1.00  0.00    -0.237 OA
ATOM     89  O   UNL A   1      51.318  27.464  31.261  1.00  0.00    -0.744 OA
ENDBRANCH  83  86
ENDBRANCH  56  79
ENDBRANCH  30  31
ENDBRANCH  22  25
ENDBRANCH  20  21
ENDBRANCH   1  20
TORSDOF 17
ENDMDL
