MODEL 1
REMARK VINA RESULT:     -10.5      0.000      0.000
REMARK SMILES O=C(COC[C@@H]1CCCCO1)NCCCCNC(=O)c1ccc(-c2c3nc(c(-c4cccc(S(=O)(=O)[O-])c4F)c4ccc([nH]4)c(-c4cccc(S(=O)(=O)[O-])c4F)c4nc(c(-c5cccc(S(=O)(=O)[O-])c5F)c5ccc2[nH]5)C=C4)C=C3)cc1
REMARK SMILES IDX 14 1 13 2 12 3 1 4 2 5 3 7 4 8 5 9 6 10 7 11 11 12 8 13
REMARK SMILES IDX 10 14 9 15 15 16 16 17 17 18 18 19 19 21 20 22 21 23 82 24
REMARK SMILES IDX 22 25 81 26 23 27 24 28 25 29 75 30 26 31 80 32 74 33 76 34
REMARK SMILES IDX 27 35 79 36 73 37 72 38 28 40 60 41 40 42 59 43 41 44 44 45
REMARK SMILES IDX 58 46 77 47 42 48 43 49 57 51 78 52 45 53 29 54 30 55 38 56
REMARK SMILES IDX 31 57 33 58 39 59 32 60 34 61 35 62 36 63 37 64 61 65 62 66
REMARK SMILES IDX 70 67 63 68 65 69 71 70 64 71 66 72 67 73 68 74 69 75 46 76
REMARK SMILES IDX 47 77 55 78 48 79 50 80 56 81 49 82 51 83 52 84 53 85 54 86
REMARK H PARENT 12 6 17 20 76 39 44 50
REMARK Flexibility Score: inf
ROOT
ATOM      1  C   UNL A   1      34.349  35.633  28.282  1.00  0.00     0.023 C 
ENDROOT
BRANCH   1   2
ATOM      2  C   UNL A   1      33.259  36.457  28.966  1.00  0.00     0.116 C 
BRANCH   2   3
ATOM      3  N   UNL A   1      33.638  36.814  30.313  1.00  0.00    -0.354 N 
ATOM      4  O   UNL A   1      32.136  35.419  31.359  1.00  0.00    -0.272 OA
ATOM      5  C   UNL A   1      32.999  36.291  31.413  1.00  0.00     0.245 C 
ATOM      6  H   UNL A   1      34.377  37.449  30.449  1.00  0.00     0.163 HD
BRANCH   5   7
ATOM      7  C   UNL A   1      33.425  36.932  32.731  1.00  0.00     0.260 C 
BRANCH   7   8
ATOM      8  O   UNL A   1      34.667  36.542  33.285  1.00  0.00    -0.369 OA
BRANCH   8   9
ATOM      9  C   UNL A   1      35.174  35.281  32.854  1.00  0.00     0.192 C 
BRANCH   9  10
ATOM     10  C   UNL A   1      34.779  34.041  33.696  1.00  0.00     0.144 C 
ATOM     11  C   UNL A   1      35.856  33.388  34.565  1.00  0.00     0.034 C 
ATOM     12  O   UNL A   1      34.170  33.026  32.869  1.00  0.00    -0.376 OA
ATOM     13  C   UNL A   1      36.910  32.699  33.717  1.00  0.00     0.005 C 
ATOM     14  C   UNL A   1      35.089  32.320  32.027  1.00  0.00     0.160 C 
ATOM     15  C   UNL A   1      36.235  31.686  32.806  1.00  0.00     0.029 C 
ENDBRANCH   9  10
ENDBRANCH   8   9
ENDBRANCH   7   8
ENDBRANCH   5   7
ENDBRANCH   2   3
ENDBRANCH   1   2
BRANCH   1  16
ATOM     16  C   UNL A   1      34.783  34.385  29.057  1.00  0.00     0.023 C 
BRANCH  16  17
ATOM     17  C   UNL A   1      35.365  33.262  28.206  1.00  0.00     0.116 C 
BRANCH  17  18
ATOM     18  N   UNL A   1      34.372  32.262  27.843  1.00  0.00    -0.352 N 
ATOM     19  C   UNL A   1      34.506  30.897  27.750  1.00  0.00     0.251 C 
ATOM     20  H   UNL A   1      33.477  32.613  27.634  1.00  0.00     0.163 HD
ATOM     21  O   UNL A   1      33.597  30.224  27.278  1.00  0.00    -0.269 OA
BRANCH  19  22
ATOM     22  C   UNL A   1      35.759  30.248  28.196  1.00  0.00     0.039 A 
ATOM     23  C   UNL A   1      36.843  30.199  27.316  1.00  0.00     0.014 A 
ATOM     24  C   UNL A   1      35.869  29.697  29.475  1.00  0.00     0.014 A 
ATOM     25  C   UNL A   1      38.057  29.655  27.742  1.00  0.00     0.010 A 
ATOM     26  C   UNL A   1      37.101  29.226  29.923  1.00  0.00     0.010 A 
ATOM     27  C   UNL A   1      38.208  29.196  29.061  1.00  0.00    -0.014 A 
BRANCH  27  28
ATOM     28  C   UNL A   1      39.518  28.701  29.559  1.00  0.00     0.031 A 
ATOM     29  C   UNL A   1      40.241  29.432  30.658  1.00  0.00     0.074 A 
ATOM     30  C   UNL A   1      40.097  27.638  28.967  1.00  0.00     0.049 A 
ATOM     31  N   UNL A   1      41.412  29.181  31.185  1.00  0.00    -0.248 NA
ATOM     32  C   UNL A   1      39.574  30.618  31.223  1.00  0.00     0.031 C 
ATOM     33  C   UNL A   1      39.535  26.887  27.841  1.00  0.00     0.029 A 
ATOM     34  N   UNL A   1      41.297  27.019  29.210  1.00  0.00    -0.354 N 
ATOM     35  C   UNL A   1      41.638  30.189  32.114  1.00  0.00     0.074 A 
ATOM     36  C   UNL A   1      40.498  31.078  32.055  1.00  0.00     0.031 C 
ATOM     37  C   UNL A   1      40.386  25.908  27.497  1.00  0.00     0.029 A 
ATOM     38  C   UNL A   1      41.568  25.981  28.348  1.00  0.00     0.049 A 
ATOM     39  H   UNL A   1      41.909  27.292  29.933  1.00  0.00     0.167 HD
ATOM     40  C   UNL A   1      42.684  30.347  32.959  1.00  0.00     0.034 A 
ATOM     41  C   UNL A   1      42.651  25.185  28.245  1.00  0.00     0.034 A 
ATOM     42  C   UNL A   1      43.799  29.443  33.040  1.00  0.00     0.049 A 
ATOM     43  C   UNL A   1      43.789  25.368  29.213  1.00  0.00     0.074 A 
ATOM     44  C   UNL A   1      44.866  29.471  33.921  1.00  0.00     0.029 A 
ATOM     45  N   UNL A   1      44.003  28.359  32.200  1.00  0.00    -0.354 N 
ATOM     46  N   UNL A   1      43.912  26.234  30.189  1.00  0.00    -0.248 NA
ATOM     47  C   UNL A   1      44.923  24.439  29.090  1.00  0.00     0.031 C 
ATOM     48  C   UNL A   1      45.732  28.424  33.591  1.00  0.00     0.029 A 
ATOM     49  C   UNL A   1      45.185  27.719  32.533  1.00  0.00     0.049 A 
ATOM     50  H   UNL A   1      43.396  28.085  31.476  1.00  0.00     0.167 HD
ATOM     51  C   UNL A   1      45.114  25.932  30.818  1.00  0.00     0.074 A 
ATOM     52  C   UNL A   1      45.672  24.789  30.125  1.00  0.00     0.031 C 
ATOM     53  C   UNL A   1      45.708  26.552  31.869  1.00  0.00     0.034 A 
BRANCH  40  54
ATOM     54  C   UNL A   1      42.653  31.526  33.901  1.00  0.00     0.023 A 
ATOM     55  C   UNL A   1      43.189  32.763  33.489  1.00  0.00     0.012 A 
ATOM     56  C   UNL A   1      42.041  31.425  35.165  1.00  0.00     0.148 A 
ATOM     57  C   UNL A   1      43.151  33.871  34.334  1.00  0.00     0.002 A 
ATOM     58  C   UNL A   1      41.964  32.546  35.983  1.00  0.00     0.091 A 
ATOM     59  F   UNL A   1      41.554  30.236  35.548  1.00  0.00    -0.205 F 
ATOM     60  C   UNL A   1      42.530  33.765  35.575  1.00  0.00     0.022 A 
BRANCH  58  61
ATOM     61  S   UNL A   1      41.112  32.537  37.564  1.00  0.00     0.127 S 
ATOM     62  O   UNL A   1      41.959  31.640  38.350  1.00  0.00    -0.237 OA
ATOM     63  O   UNL A   1      41.184  33.944  37.959  1.00  0.00    -0.237 OA
ATOM     64  O   UNL A   1      39.768  32.048  37.296  1.00  0.00    -0.744 OA
ENDBRANCH  58  61
ENDBRANCH  40  54
BRANCH  41  65
ATOM     65  C   UNL A   1      42.690  24.106  27.217  1.00  0.00     0.023 A 
ATOM     66  C   UNL A   1      43.370  24.326  26.003  1.00  0.00     0.012 A 
ATOM     67  C   UNL A   1      42.072  22.861  27.441  1.00  0.00     0.148 A 
ATOM     68  C   UNL A   1      43.404  23.340  25.018  1.00  0.00     0.002 A 
ATOM     69  C   UNL A   1      42.159  21.862  26.480  1.00  0.00     0.091 A 
ATOM     70  F   UNL A   1      41.422  22.674  28.599  1.00  0.00    -0.205 F 
ATOM     71  C   UNL A   1      42.807  22.105  25.259  1.00  0.00     0.022 A 
BRANCH  69  72
ATOM     72  S   UNL A   1      41.535  20.200  26.757  1.00  0.00     0.127 S 
ATOM     73  O   UNL A   1      40.167  20.464  27.193  1.00  0.00    -0.237 OA
ATOM     74  O   UNL A   1      41.655  19.609  25.423  1.00  0.00    -0.237 OA
ATOM     75  O   UNL A   1      42.415  19.611  27.756  1.00  0.00    -0.744 OA
ENDBRANCH  69  72
ENDBRANCH  41  65
BRANCH  53  76
ATOM     76  C   UNL A   1      47.011  25.987  32.372  1.00  0.00     0.023 A 
ATOM     77  C   UNL A   1      47.027  25.144  33.501  1.00  0.00     0.012 A 
ATOM     78  C   UNL A   1      48.212  26.235  31.677  1.00  0.00     0.148 A 
ATOM     79  C   UNL A   1      48.224  24.588  33.953  1.00  0.00     0.002 A 
ATOM     80  C   UNL A   1      49.391  25.634  32.101  1.00  0.00     0.091 A 
ATOM     81  F   UNL A   1      48.179  27.053  30.616  1.00  0.00    -0.205 F 
ATOM     82  C   UNL A   1      49.402  24.823  33.247  1.00  0.00     0.022 A 
BRANCH  80  83
ATOM     83  S   UNL A   1      50.935  25.797  31.199  1.00  0.00     0.127 S 
ATOM     84  O   UNL A   1      50.561  25.300  29.876  1.00  0.00    -0.237 OA
ATOM     85  O   UNL A   1      51.180  27.238  31.262  1.00  0.00    -0.237 OA
ATOM     86  O   UNL A   1      51.908  24.986  31.917  1.00  0.00    -0.744 OA
ENDBRANCH  80  83
ENDBRANCH  53  76
ENDBRANCH  27  28
ENDBRANCH  19  22
ENDBRANCH  17  18
ENDBRANCH  16  17
ENDBRANCH   1  16
TORSDOF 17
ENDMDL
MODEL 2
REMARK VINA RESULT:     -10.5      1.958      2.391
REMARK SMILES O=C(COC[C@@H]1CCCCO1)NCCCCNC(=O)c1ccc(-c2c3nc(c(-c4cccc(S(=O)(=O)[O-])c4F)c4ccc([nH]4)c(-c4cccc(S(=O)(=O)[O-])c4F)c4nc(c(-c5cccc(S(=O)(=O)[O-])c5F)c5ccc2[nH]5)C=C4)C=C3)cc1
REMARK SMILES IDX 14 1 13 2 12 3 1 4 2 5 3 7 4 8 5 9 6 10 7 11 11 12 8 13
REMARK SMILES IDX 10 14 9 15 15 16 16 17 17 18 18 19 19 21 20 22 21 23 82 24
REMARK SMILES IDX 22 25 81 26 23 27 24 28 25 29 75 30 26 31 80 32 74 33 76 34
REMARK SMILES IDX 27 35 79 36 73 37 72 38 28 40 60 41 40 42 59 43 41 44 44 45
REMARK SMILES IDX 58 46 77 47 42 48 43 49 57 51 78 52 45 53 29 54 30 55 38 56
REMARK SMILES IDX 31 57 33 58 39 59 32 60 34 61 35 62 36 63 37 64 61 65 62 66
REMARK SMILES IDX 70 67 63 68 65 69 71 70 64 71 66 72 67 73 68 74 69 75 46 76
REMARK SMILES IDX 47 77 55 78 48 79 50 80 56 81 49 82 51 83 52 84 53 85 54 86
REMARK H PARENT 12 6 17 20 76 39 44 50
REMARK Flexibility Score: inf
ROOT
ATOM      1  C   UNL A   1      34.244  35.489  28.426  1.00  0.00     0.023 C 
ENDROOT
BRANCH   1   2
ATOM      2  C   UNL A   1      33.357  36.601  28.987  1.00  0.00     0.116 C 
BRANCH   2   3
ATOM      3  N   UNL A   1      33.694  36.898  30.360  1.00  0.00    -0.354 N 
ATOM      4  O   UNL A   1      31.986  35.668  31.292  1.00  0.00    -0.272 OA
ATOM      5  C   UNL A   1      32.936  36.437  31.412  1.00  0.00     0.245 C 
ATOM      6  H   UNL A   1      34.489  37.445  30.549  1.00  0.00     0.163 HD
BRANCH   5   7
ATOM      7  C   UNL A   1      33.351  37.012  32.763  1.00  0.00     0.260 C 
BRANCH   7   8
ATOM      8  O   UNL A   1      34.629  36.667  33.263  1.00  0.00    -0.369 OA
BRANCH   8   9
ATOM      9  C   UNL A   1      34.894  35.271  33.390  1.00  0.00     0.192 C 
BRANCH   9  10
ATOM     10  C   UNL A   1      36.155  34.729  32.670  1.00  0.00     0.144 C 
ATOM     11  C   UNL A   1      35.958  33.727  31.531  1.00  0.00     0.034 C 
ATOM     12  O   UNL A   1      37.095  34.177  33.617  1.00  0.00    -0.376 OA
ATOM     13  C   UNL A   1      35.458  32.390  32.047  1.00  0.00     0.005 C 
ATOM     14  C   UNL A   1      36.707  32.911  34.166  1.00  0.00     0.160 C 
ATOM     15  C   UNL A   1      36.428  31.864  33.093  1.00  0.00     0.029 C 
ENDBRANCH   9  10
ENDBRANCH   8   9
ENDBRANCH   7   8
ENDBRANCH   5   7
ENDBRANCH   2   3
ENDBRANCH   1   2
BRANCH   1  16
ATOM     16  C   UNL A   1      33.583  34.109  28.384  1.00  0.00     0.023 C 
BRANCH  16  17
ATOM     17  C   UNL A   1      34.534  32.939  28.157  1.00  0.00     0.116 C 
BRANCH  17  18
ATOM     18  N   UNL A   1      33.867  31.776  27.593  1.00  0.00    -0.352 N 
ATOM     19  C   UNL A   1      34.337  30.493  27.440  1.00  0.00     0.251 C 
ATOM     20  H   UNL A   1      32.948  31.928  27.276  1.00  0.00     0.163 HD
ATOM     21  O   UNL A   1      33.686  29.676  26.801  1.00  0.00    -0.269 OA
BRANCH  19  22
ATOM     22  C   UNL A   1      35.641  30.112  28.026  1.00  0.00     0.039 A 
ATOM     23  C   UNL A   1      35.686  29.707  29.363  1.00  0.00     0.014 A 
ATOM     24  C   UNL A   1      36.812  30.145  27.264  1.00  0.00     0.014 A 
ATOM     25  C   UNL A   1      36.894  29.275  29.915  1.00  0.00     0.010 A 
ATOM     26  C   UNL A   1      37.998  29.641  27.793  1.00  0.00     0.010 A 
ATOM     27  C   UNL A   1      38.053  29.204  29.125  1.00  0.00    -0.014 A 
BRANCH  27  28
ATOM     28  C   UNL A   1      39.325  28.659  29.670  1.00  0.00     0.031 A 
ATOM     29  C   UNL A   1      39.980  29.301  30.863  1.00  0.00     0.074 A 
ATOM     30  C   UNL A   1      39.933  27.634  29.041  1.00  0.00     0.049 A 
ATOM     31  N   UNL A   1      41.112  28.998  31.445  1.00  0.00    -0.248 NA
ATOM     32  C   UNL A   1      39.287  30.451  31.468  1.00  0.00     0.031 C 
ATOM     33  C   UNL A   1      39.440  26.973  27.830  1.00  0.00     0.029 A 
ATOM     34  N   UNL A   1      41.111  26.985  29.316  1.00  0.00    -0.354 N 
ATOM     35  C   UNL A   1      41.284  29.934  32.457  1.00  0.00     0.074 A 
ATOM     36  C   UNL A   1      40.157  30.840  32.389  1.00  0.00     0.031 C 
ATOM     37  C   UNL A   1      40.305  26.010  27.472  1.00  0.00     0.029 A 
ATOM     38  C   UNL A   1      41.430  26.008  28.401  1.00  0.00     0.049 A 
ATOM     39  H   UNL A   1      41.676  27.198  30.095  1.00  0.00     0.167 HD
ATOM     40  C   UNL A   1      42.274  30.020  33.378  1.00  0.00     0.034 A 
ATOM     41  C   UNL A   1      42.511  25.208  28.311  1.00  0.00     0.034 A 
ATOM     42  C   UNL A   1      43.375  29.099  33.464  1.00  0.00     0.049 A 
ATOM     43  C   UNL A   1      43.585  25.307  29.361  1.00  0.00     0.074 A 
ATOM     44  C   UNL A   1      44.382  29.051  34.413  1.00  0.00     0.029 A 
ATOM     45  N   UNL A   1      43.625  28.075  32.564  1.00  0.00    -0.354 N 
ATOM     46  N   UNL A   1      43.650  26.100  30.403  1.00  0.00    -0.248 NA
ATOM     47  C   UNL A   1      44.717  24.377  29.244  1.00  0.00     0.031 C 
ATOM     48  C   UNL A   1      45.260  28.019  34.065  1.00  0.00     0.029 A 
ATOM     49  C   UNL A   1      44.778  27.398  32.925  1.00  0.00     0.049 A 
ATOM     50  H   UNL A   1      43.065  27.860  31.784  1.00  0.00     0.167 HD
ATOM     51  C   UNL A   1      44.806  25.739  31.085  1.00  0.00     0.074 A 
ATOM     52  C   UNL A   1      45.399  24.643  30.349  1.00  0.00     0.031 C 
ATOM     53  C   UNL A   1      45.334  26.276  32.214  1.00  0.00     0.034 A 
BRANCH  40  54
ATOM     54  C   UNL A   1      42.190  31.127  34.397  1.00  0.00     0.023 A 
ATOM     55  C   UNL A   1      41.609  30.875  35.658  1.00  0.00     0.012 A 
ATOM     56  C   UNL A   1      42.740  32.397  34.132  1.00  0.00     0.148 A 
ATOM     57  C   UNL A   1      41.541  31.878  36.623  1.00  0.00     0.002 A 
ATOM     58  C   UNL A   1      42.712  33.377  35.118  1.00  0.00     0.091 A 
ATOM     59  F   UNL A   1      43.271  32.625  32.923  1.00  0.00    -0.205 F 
ATOM     60  C   UNL A   1      42.101  33.124  36.357  1.00  0.00     0.022 A 
BRANCH  58  61
ATOM     61  S   UNL A   1      43.479  34.987  34.906  1.00  0.00     0.127 S 
ATOM     62  O   UNL A   1      44.864  34.619  34.618  1.00  0.00    -0.237 OA
ATOM     63  O   UNL A   1      42.743  35.529  33.762  1.00  0.00    -0.237 OA
ATOM     64  O   UNL A   1      43.271  35.702  36.157  1.00  0.00    -0.744 OA
ENDBRANCH  58  61
ENDBRANCH  40  54
BRANCH  41  65
ATOM     65  C   UNL A   1      42.609  24.206  27.212  1.00  0.00     0.023 A 
ATOM     66  C   UNL A   1      43.300  24.535  26.030  1.00  0.00     0.012 A 
ATOM     67  C   UNL A   1      42.036  22.925  27.339  1.00  0.00     0.148 A 
ATOM     68  C   UNL A   1      43.389  23.621  24.980  1.00  0.00     0.002 A 
ATOM     69  C   UNL A   1      42.178  21.999  26.313  1.00  0.00     0.091 A 
ATOM     70  F   UNL A   1      41.374  22.635  28.468  1.00  0.00    -0.205 F 
ATOM     71  C   UNL A   1      42.836  22.351  25.125  1.00  0.00     0.022 A 
BRANCH  69  72
ATOM     72  S   UNL A   1      41.614  20.300  26.463  1.00  0.00     0.127 S 
ATOM     73  O   UNL A   1      42.141  19.925  27.771  1.00  0.00    -0.237 OA
ATOM     74  O   UNL A   1      40.160  20.461  26.406  1.00  0.00    -0.237 OA
ATOM     75  O   UNL A   1      42.185  19.594  25.324  1.00  0.00    -0.744 OA
ENDBRANCH  69  72
ENDBRANCH  41  65
BRANCH  53  76
ATOM     76  C   UNL A   1      46.598  25.660  32.758  1.00  0.00     0.023 A 
ATOM     77  C   UNL A   1      47.854  26.180  32.388  1.00  0.00     0.012 A 
ATOM     78  C   UNL A   1      46.533  24.608  33.694  1.00  0.00     0.148 A 
ATOM     79  C   UNL A   1      49.027  25.639  32.913  1.00  0.00     0.002 A 
ATOM     80  C   UNL A   1      47.703  24.110  34.253  1.00  0.00     0.091 A 
ATOM     81  F   UNL A   1      45.330  24.115  34.019  1.00  0.00    -0.205 F 
ATOM     82  C   UNL A   1      48.952  24.614  33.854  1.00  0.00     0.022 A 
BRANCH  80  83
ATOM     83  S   UNL A   1      47.700  22.862  35.544  1.00  0.00     0.127 S 
ATOM     84  O   UNL A   1      49.128  22.717  35.823  1.00  0.00    -0.237 OA
ATOM     85  O   UNL A   1      46.934  23.516  36.605  1.00  0.00    -0.237 OA
ATOM     86  O   UNL A   1      47.055  21.689  34.968  1.00  0.00    -0.744 OA
ENDBRANCH  80  83
ENDBRANCH  53  76
ENDBRANCH  27  28
ENDBRANCH  19  22
ENDBRANCH  17  18
ENDBRANCH  16  17
ENDBRANCH   1  16
TORSDOF 17
ENDMDL
MODEL 3
REMARK VINA RESULT:     -10.0      3.986      9.909
REMARK SMILES O=C(COC[C@@H]1CCCCO1)NCCCCNC(=O)c1ccc(-c2c3nc(c(-c4cccc(S(=O)(=O)[O-])c4F)c4ccc([nH]4)c(-c4cccc(S(=O)(=O)[O-])c4F)c4nc(c(-c5cccc(S(=O)(=O)[O-])c5F)c5ccc2[nH]5)C=C4)C=C3)cc1
REMARK SMILES IDX 14 1 13 2 12 3 1 4 2 5 3 7 4 8 5 9 6 10 7 11 11 12 8 13
REMARK SMILES IDX 10 14 9 15 15 16 16 17 17 18 18 19 19 21 20 22 21 23 82 24
REMARK SMILES IDX 22 25 81 26 23 27 24 28 25 29 75 30 26 31 80 32 74 33 76 34
REMARK SMILES IDX 27 35 79 36 73 37 72 38 28 40 60 41 40 42 59 43 41 44 44 45
REMARK SMILES IDX 58 46 77 47 42 48 43 49 57 51 78 52 45 53 29 54 30 55 38 56
REMARK SMILES IDX 31 57 33 58 39 59 32 60 34 61 35 62 36 63 37 64 61 65 62 66
REMARK SMILES IDX 70 67 63 68 65 69 71 70 64 71 66 72 67 73 68 74 69 75 46 76
REMARK SMILES IDX 47 77 55 78 48 79 50 80 56 81 49 82 51 83 52 84 53 85 54 86
REMARK H PARENT 12 6 17 20 76 39 44 50
REMARK Flexibility Score: inf
ROOT
ATOM      1  C   UNL A   1      33.604  28.891  25.673  1.00  0.00     0.023 C 
ENDROOT
BRANCH   1   2
ATOM      2  C   UNL A   1      33.737  28.005  24.435  1.00  0.00     0.116 C 
BRANCH   2   3
ATOM      3  N   UNL A   1      32.519  28.007  23.656  1.00  0.00    -0.354 N 
ATOM      4  O   UNL A   1      31.622  26.118  24.617  1.00  0.00    -0.272 OA
ATOM      5  C   UNL A   1      31.572  27.017  23.783  1.00  0.00     0.245 C 
ATOM      6  H   UNL A   1      32.363  28.738  23.017  1.00  0.00     0.163 HD
BRANCH   5   7
ATOM      7  C   UNL A   1      30.456  27.103  22.746  1.00  0.00     0.260 C 
BRANCH   7   8
ATOM      8  O   UNL A   1      29.125  27.204  23.214  1.00  0.00    -0.369 OA
BRANCH   8   9
ATOM      9  C   UNL A   1      28.475  28.453  22.986  1.00  0.00     0.192 C 
BRANCH   9  10
ATOM     10  C   UNL A   1      29.383  29.671  22.680  1.00  0.00     0.144 C 
ATOM     11  C   UNL A   1      29.253  30.908  23.571  1.00  0.00     0.034 C 
ATOM     12  O   UNL A   1      29.257  30.077  21.300  1.00  0.00    -0.376 OA
ATOM     13  C   UNL A   1      27.927  31.614  23.351  1.00  0.00     0.005 C 
ATOM     14  C   UNL A   1      28.031  30.752  20.992  1.00  0.00     0.160 C 
ATOM     15  C   UNL A   1      27.788  31.968  21.879  1.00  0.00     0.029 C 
ENDBRANCH   9  10
ENDBRANCH   8   9
ENDBRANCH   7   8
ENDBRANCH   5   7
ENDBRANCH   2   3
ENDBRANCH   1   2
BRANCH   1  16
ATOM     16  C   UNL A   1      32.642  30.071  25.510  1.00  0.00     0.023 C 
BRANCH  16  17
ATOM     17  C   UNL A   1      32.039  30.601  26.807  1.00  0.00     0.116 C 
BRANCH  17  18
ATOM     18  N   UNL A   1      32.031  32.055  26.868  1.00  0.00    -0.352 N 
ATOM     19  C   UNL A   1      32.926  32.904  27.476  1.00  0.00     0.251 C 
ATOM     20  H   UNL A   1      31.280  32.493  26.408  1.00  0.00     0.163 HD
ATOM     21  O   UNL A   1      32.675  34.101  27.555  1.00  0.00    -0.269 OA
BRANCH  19  22
ATOM     22  C   UNL A   1      34.176  32.366  28.055  1.00  0.00     0.039 A 
ATOM     23  C   UNL A   1      35.298  33.196  28.126  1.00  0.00     0.014 A 
ATOM     24  C   UNL A   1      34.243  31.054  28.532  1.00  0.00     0.014 A 
ATOM     25  C   UNL A   1      36.467  32.730  28.733  1.00  0.00     0.010 A 
ATOM     26  C   UNL A   1      35.382  30.619  29.206  1.00  0.00     0.010 A 
ATOM     27  C   UNL A   1      36.508  31.450  29.311  1.00  0.00    -0.014 A 
BRANCH  27  28
ATOM     28  C   UNL A   1      37.711  30.974  30.043  1.00  0.00     0.031 A 
ATOM     29  C   UNL A   1      38.657  29.997  29.400  1.00  0.00     0.074 A 
ATOM     30  C   UNL A   1      37.909  31.359  31.320  1.00  0.00     0.049 A 
ATOM     31  N   UNL A   1      39.726  29.433  29.901  1.00  0.00    -0.248 NA
ATOM     32  C   UNL A   1      38.350  29.577  28.022  1.00  0.00     0.031 C 
ATOM     33  C   UNL A   1      37.025  32.244  32.083  1.00  0.00     0.029 A 
ATOM     34  N   UNL A   1      38.902  31.038  32.210  1.00  0.00    -0.354 N 
ATOM     35  C   UNL A   1      40.198  28.570  28.920  1.00  0.00     0.074 A 
ATOM     36  C   UNL A   1      39.280  28.657  27.805  1.00  0.00     0.031 C 
ATOM     37  C   UNL A   1      37.518  32.397  33.322  1.00  0.00     0.029 A 
ATOM     38  C   UNL A   1      38.730  31.596  33.456  1.00  0.00     0.049 A 
ATOM     39  H   UNL A   1      39.667  30.460  31.980  1.00  0.00     0.167 HD
ATOM     40  C   UNL A   1      41.309  27.796  28.931  1.00  0.00     0.034 A 
ATOM     41  C   UNL A   1      39.458  31.469  34.583  1.00  0.00     0.034 A 
ATOM     42  C   UNL A   1      42.239  27.736  30.026  1.00  0.00     0.049 A 
ATOM     43  C   UNL A   1      40.701  30.621  34.561  1.00  0.00     0.074 A 
ATOM     44  C   UNL A   1      43.437  27.047  30.100  1.00  0.00     0.029 A 
ATOM     45  N   UNL A   1      42.070  28.375  31.245  1.00  0.00    -0.354 N 
ATOM     46  N   UNL A   1      41.215  29.935  33.570  1.00  0.00    -0.248 NA
ATOM     47  C   UNL A   1      41.486  30.559  35.803  1.00  0.00     0.031 C 
ATOM     48  C   UNL A   1      43.975  27.241  31.376  1.00  0.00     0.029 A 
ATOM     49  C   UNL A   1      43.135  28.085  32.082  1.00  0.00     0.049 A 
ATOM     50  H   UNL A   1      41.307  28.950  31.479  1.00  0.00     0.167 HD
ATOM     51  C   UNL A   1      42.399  29.392  34.054  1.00  0.00     0.074 A 
ATOM     52  C   UNL A   1      42.537  29.846  35.422  1.00  0.00     0.031 C 
ATOM     53  C   UNL A   1      43.287  28.581  33.426  1.00  0.00     0.034 A 
BRANCH  40  54
ATOM     54  C   UNL A   1      41.606  26.977  27.699  1.00  0.00     0.023 A 
ATOM     55  C   UNL A   1      42.157  27.601  26.561  1.00  0.00     0.012 A 
ATOM     56  C   UNL A   1      41.398  25.584  27.690  1.00  0.00     0.148 A 
ATOM     57  C   UNL A   1      42.460  26.859  25.420  1.00  0.00     0.002 A 
ATOM     58  C   UNL A   1      41.748  24.844  26.567  1.00  0.00     0.091 A 
ATOM     59  F   UNL A   1      40.856  25.010  28.774  1.00  0.00    -0.205 F 
ATOM     60  C   UNL A   1      42.265  25.481  25.427  1.00  0.00     0.022 A 
BRANCH  58  61
ATOM     61  S   UNL A   1      41.615  23.054  26.504  1.00  0.00     0.127 S 
ATOM     62  O   UNL A   1      40.165  22.866  26.493  1.00  0.00    -0.237 OA
ATOM     63  O   UNL A   1      42.278  22.741  25.237  1.00  0.00    -0.237 OA
ATOM     64  O   UNL A   1      42.300  22.557  27.689  1.00  0.00    -0.744 OA
ENDBRANCH  58  61
ENDBRANCH  40  54
BRANCH  41  65
ATOM     65  C   UNL A   1      39.058  32.205  35.816  1.00  0.00     0.023 A 
ATOM     66  C   UNL A   1      39.463  33.543  35.990  1.00  0.00     0.012 A 
ATOM     67  C   UNL A   1      38.266  31.594  36.807  1.00  0.00     0.148 A 
ATOM     68  C   UNL A   1      39.118  34.247  37.143  1.00  0.00     0.002 A 
ATOM     69  C   UNL A   1      37.877  32.319  37.927  1.00  0.00     0.091 A 
ATOM     70  F   UNL A   1      37.898  30.317  36.627  1.00  0.00    -0.205 F 
ATOM     71  C   UNL A   1      38.317  33.639  38.107  1.00  0.00     0.022 A 
BRANCH  69  72
ATOM     72  S   UNL A   1      36.741  31.661  39.154  1.00  0.00     0.127 S 
ATOM     73  O   UNL A   1      37.442  31.958  40.399  1.00  0.00    -0.237 OA
ATOM     74  O   UNL A   1      35.542  32.466  38.913  1.00  0.00    -0.237 OA
ATOM     75  O   UNL A   1      36.590  30.249  38.833  1.00  0.00    -0.744 OA
ENDBRANCH  69  72
ENDBRANCH  41  65
BRANCH  53  76
ATOM     76  C   UNL A   1      44.517  28.163  34.190  1.00  0.00     0.023 A 
ATOM     77  C   UNL A   1      45.651  28.998  34.216  1.00  0.00     0.012 A 
ATOM     78  C   UNL A   1      44.518  26.971  34.943  1.00  0.00     0.148 A 
ATOM     79  C   UNL A   1      46.781  28.635  34.950  1.00  0.00     0.002 A 
ATOM     80  C   UNL A   1      45.626  26.644  35.714  1.00  0.00     0.091 A 
ATOM     81  F   UNL A   1      43.436  26.181  34.891  1.00  0.00    -0.205 F 
ATOM     82  C   UNL A   1      46.764  27.466  35.707  1.00  0.00     0.022 A 
BRANCH  80  83
ATOM     83  S   UNL A   1      45.658  25.212  36.798  1.00  0.00     0.127 S 
ATOM     84  O   UNL A   1      45.416  24.120  35.857  1.00  0.00    -0.237 OA
ATOM     85  O   UNL A   1      47.017  25.263  37.338  1.00  0.00    -0.237 OA
ATOM     86  O   UNL A   1      44.607  25.429  37.783  1.00  0.00    -0.744 OA
ENDBRANCH  80  83
ENDBRANCH  53  76
ENDBRANCH  27  28
ENDBRANCH  19  22
ENDBRANCH  17  18
ENDBRANCH  16  17
ENDBRANCH   1  16
TORSDOF 17
ENDMDL
