MODEL 1
REMARK VINA RESULT:     -12.8      0.000      0.000
REMARK SMILES O=C1C[C@@H](C(=O)NCCCCNC(=O)c2ccc(-c3c4nc(c(-c5cccc(S(=O)(=O)[O-])c5F)c5ccc([nH]5)c(-c5cccc(S(=O)(=O)[O-])c5F)c5nc(c(-c6cccc(S(=O)(=O)[O-])c6F)c6ccc3[nH]6)C=C5)C=C4)cc2)C2(CC[NH+](Cc3c[nH]nc3-c3ccc(Cl)cc3)CC2)N1
REMARK SMILES IDX 9 1 8 2 7 3 5 4 6 5 4 7 1 8 2 9 3 10 97 11 78 12 79 14 96 15
REMARK SMILES IDX 80 16 95 17 81 18 82 20 83 21 84 22 87 23 85 24 86 25 88 27
REMARK SMILES IDX 89 28 94 29 90 30 93 31 91 32 92 33 10 34 11 35 12 36 13 37
REMARK SMILES IDX 14 39 15 40 16 41 77 42 17 43 76 44 18 45 19 46 20 47 70 48
REMARK SMILES IDX 21 49 75 50 69 51 71 52 22 53 74 54 68 55 67 56 23 58 55 59
REMARK SMILES IDX 35 60 54 61 36 62 39 63 53 64 72 65 37 66 38 67 52 69 73 70
REMARK SMILES IDX 40 71 24 72 25 73 33 74 26 75 28 76 34 77 27 78 29 79 30 80
REMARK SMILES IDX 31 81 32 82 56 83 57 84 65 85 58 86 60 87 66 88 59 89 61 90
REMARK SMILES IDX 62 91 63 92 64 93 41 94 42 95 50 96 43 97 45 98 51 99 44 100
REMARK SMILES IDX 46 101 47 102 48 103 49 104
REMARK H PARENT 7 6 97 13 81 19 85 26 12 38 71 57 39 68
REMARK Flexibility Score: inf
ROOT
ATOM      1  C   UNL A   1      31.429  30.312  25.384  1.00  0.00     0.023 C 
ENDROOT
BRANCH   1   2
ATOM      2  C   UNL A   1      32.317  29.352  24.586  1.00  0.00     0.116 C 
BRANCH   2   3
ATOM      3  N   UNL A   1      31.710  28.846  23.365  1.00  0.00    -0.356 N 
ATOM      4  C   UNL A   1      31.106  27.672  23.043  1.00  0.00     0.226 C 
ATOM      5  O   UNL A   1      30.648  27.582  21.898  1.00  0.00    -0.275 OA
ATOM      6  H   UNL A   1      31.743  29.487  22.618  1.00  0.00     0.163 HD
BRANCH   4   7
ATOM      7  C   UNL A   1      30.990  26.457  23.969  1.00  0.00     0.114 C 
ATOM      8  O   UNL A   1      31.402  27.052  27.472  1.00  0.00    -0.275 OA
ATOM      9  C   UNL A   1      31.447  26.725  26.302  1.00  0.00     0.221 C 
ATOM     10  C   UNL A   1      30.319  26.795  25.307  1.00  0.00     0.116 C 
ATOM     11  N   UNL A   1      32.567  26.249  25.657  1.00  0.00    -0.349 N 
ATOM     12  C   UNL A   1      32.289  25.704  24.333  1.00  0.00     0.063 C 
ATOM     13  H   UNL A   1      33.468  26.273  26.051  1.00  0.00     0.164 HD
ATOM     14  C   UNL A   1      33.452  25.965  23.363  1.00  0.00     0.091 C 
ATOM     15  C   UNL A   1      32.028  24.185  24.564  1.00  0.00     0.091 C 
ATOM     16  C   UNL A   1      33.571  24.960  22.232  1.00  0.00     0.264 C 
ATOM     17  C   UNL A   1      32.449  23.235  23.443  1.00  0.00     0.264 C 
ATOM     18  N   UNL A   1      33.655  23.601  22.724  1.00  0.00    -0.331 N 
ATOM     19  H   UNL A   1      33.650  22.975  21.918  1.00  0.00     0.348 HD
BRANCH  18  20
ATOM     20  C   UNL A   1      34.966  23.151  23.213  1.00  0.00     0.303 C 
BRANCH  20  21
ATOM     21  C   UNL A   1      35.080  22.909  24.688  1.00  0.00     0.052 A 
ATOM     22  C   UNL A   1      35.205  23.872  25.675  1.00  0.00     0.115 A 
ATOM     23  C   UNL A   1      34.951  21.680  25.433  1.00  0.00     0.101 A 
ATOM     24  N   UNL A   1      35.316  23.213  26.857  1.00  0.00    -0.285 N 
ATOM     25  N   UNL A   1      35.153  21.895  26.746  1.00  0.00    -0.175 NA
ATOM     26  H   UNL A   1      35.498  23.665  27.713  1.00  0.00     0.189 HD
BRANCH  23  27
ATOM     27  C   UNL A   1      34.588  20.332  24.989  1.00  0.00     0.003 A 
ATOM     28  C   UNL A   1      33.230  20.043  24.774  1.00  0.00     0.012 A 
ATOM     29  C   UNL A   1      35.526  19.311  24.806  1.00  0.00     0.012 A 
ATOM     30  C   UNL A   1      32.827  18.776  24.345  1.00  0.00     0.021 A 
ATOM     31  C   UNL A   1      35.125  18.041  24.370  1.00  0.00     0.021 A 
ATOM     32  C   UNL A   1      33.778  17.783  24.133  1.00  0.00     0.041 A 
ATOM     33  Cl  UNL A   1      33.280  16.232  23.585  1.00  0.00    -0.084 Cl
ENDBRANCH  23  27
ENDBRANCH  20  21
ENDBRANCH  18  20
ENDBRANCH   4   7
ENDBRANCH   2   3
ENDBRANCH   1   2
BRANCH   1  34
ATOM     34  C   UNL A   1      31.840  30.491  26.840  1.00  0.00     0.023 C 
BRANCH  34  35
ATOM     35  C   UNL A   1      33.007  31.444  27.038  1.00  0.00     0.116 C 
BRANCH  35  36
ATOM     36  N   UNL A   1      32.586  32.838  27.159  1.00  0.00    -0.352 N 
ATOM     37  C   UNL A   1      33.069  33.801  28.011  1.00  0.00     0.251 C 
ATOM     38  H   UNL A   1      31.865  33.122  26.552  1.00  0.00     0.163 HD
ATOM     39  O   UNL A   1      32.526  34.896  28.099  1.00  0.00    -0.269 OA
BRANCH  37  40
ATOM     40  C   UNL A   1      34.239  33.466  28.839  1.00  0.00     0.039 A 
ATOM     41  C   UNL A   1      34.052  32.741  30.016  1.00  0.00     0.014 A 
ATOM     42  C   UNL A   1      35.522  33.769  28.376  1.00  0.00     0.014 A 
ATOM     43  C   UNL A   1      35.165  32.244  30.690  1.00  0.00     0.010 A 
ATOM     44  C   UNL A   1      36.621  33.192  28.995  1.00  0.00     0.010 A 
ATOM     45  C   UNL A   1      36.454  32.424  30.158  1.00  0.00    -0.014 A 
BRANCH  45  46
ATOM     46  C   UNL A   1      37.643  31.800  30.787  1.00  0.00     0.031 A 
ATOM     47  C   UNL A   1      38.407  30.736  30.049  1.00  0.00     0.074 A 
ATOM     48  C   UNL A   1      37.970  32.116  32.055  1.00  0.00     0.049 A 
ATOM     49  N   UNL A   1      39.420  30.018  30.459  1.00  0.00    -0.248 NA
ATOM     50  C   UNL A   1      37.957  30.413  28.684  1.00  0.00     0.031 C 
ATOM     51  C   UNL A   1      37.251  33.071  32.904  1.00  0.00     0.029 A 
ATOM     52  N   UNL A   1      38.972  31.645  32.866  1.00  0.00    -0.354 N 
ATOM     53  C   UNL A   1      39.699  29.134  29.424  1.00  0.00     0.074 A 
ATOM     54  C   UNL A   1      38.731  29.382  28.380  1.00  0.00     0.031 C 
ATOM     55  C   UNL A   1      37.835  33.115  34.112  1.00  0.00     0.029 A 
ATOM     56  C   UNL A   1      38.943  32.165  34.140  1.00  0.00     0.049 A 
ATOM     57  H   UNL A   1      39.648  30.995  32.565  1.00  0.00     0.167 HD
ATOM     58  C   UNL A   1      40.690  28.217  29.339  1.00  0.00     0.034 A 
ATOM     59  C   UNL A   1      39.708  31.893  35.215  1.00  0.00     0.034 A 
ATOM     60  C   UNL A   1      41.674  28.002  30.364  1.00  0.00     0.049 A 
ATOM     61  C   UNL A   1      40.824  30.892  35.081  1.00  0.00     0.074 A 
ATOM     62  C   UNL A   1      42.777  27.168  30.333  1.00  0.00     0.029 A 
ATOM     63  N   UNL A   1      41.665  28.610  31.610  1.00  0.00    -0.354 N 
ATOM     64  N   UNL A   1      41.178  30.187  34.033  1.00  0.00    -0.248 NA
ATOM     65  C   UNL A   1      41.665  30.670  36.265  1.00  0.00     0.031 C 
ATOM     66  C   UNL A   1      43.412  27.240  31.576  1.00  0.00     0.029 A 
ATOM     67  C   UNL A   1      42.732  28.152  32.365  1.00  0.00     0.049 A 
ATOM     68  H   UNL A   1      40.999  29.268  31.913  1.00  0.00     0.167 HD
ATOM     69  C   UNL A   1      42.302  29.467  34.421  1.00  0.00     0.074 A 
ATOM     70  C   UNL A   1      42.584  29.840  35.792  1.00  0.00     0.031 C 
ATOM     71  C   UNL A   1      43.027  28.566  33.712  1.00  0.00     0.034 A 
BRANCH  58  72
ATOM     72  C   UNL A   1      40.783  27.396  28.081  1.00  0.00     0.023 A 
ATOM     73  C   UNL A   1      41.432  27.925  26.946  1.00  0.00     0.012 A 
ATOM     74  C   UNL A   1      40.293  26.077  28.045  1.00  0.00     0.148 A 
ATOM     75  C   UNL A   1      41.561  27.164  25.784  1.00  0.00     0.002 A 
ATOM     76  C   UNL A   1      40.469  25.308  26.902  1.00  0.00     0.091 A 
ATOM     77  F   UNL A   1      39.659  25.602  29.127  1.00  0.00    -0.205 F 
ATOM     78  C   UNL A   1      41.092  25.854  25.767  1.00  0.00     0.022 A 
BRANCH  76  79
ATOM     79  S   UNL A   1      39.978  23.583  26.807  1.00  0.00     0.127 S 
ATOM     80  O   UNL A   1      40.832  23.094  25.725  1.00  0.00    -0.237 OA
ATOM     81  O   UNL A   1      40.336  23.090  28.137  1.00  0.00    -0.237 OA
ATOM     82  O   UNL A   1      38.551  23.585  26.519  1.00  0.00    -0.744 OA
ENDBRANCH  76  79
ENDBRANCH  58  72
BRANCH  59  83
ATOM     83  C   UNL A   1      39.470  32.601  36.505  1.00  0.00     0.023 A 
ATOM     84  C   UNL A   1      40.168  33.790  36.789  1.00  0.00     0.012 A 
ATOM     85  C   UNL A   1      38.548  32.104  37.447  1.00  0.00     0.148 A 
ATOM     86  C   UNL A   1      39.985  34.450  38.005  1.00  0.00     0.002 A 
ATOM     87  C   UNL A   1      38.326  32.798  38.631  1.00  0.00     0.091 A 
ATOM     88  F   UNL A   1      37.900  30.966  37.163  1.00  0.00    -0.205 F 
ATOM     89  C   UNL A   1      39.058  33.959  38.921  1.00  0.00     0.022 A 
BRANCH  87  90
ATOM     90  S   UNL A   1      37.060  32.311  39.807  1.00  0.00     0.127 S 
ATOM     91  O   UNL A   1      35.905  32.106  38.936  1.00  0.00    -0.237 OA
ATOM     92  O   UNL A   1      37.630  31.087  40.373  1.00  0.00    -0.237 OA
ATOM     93  O   UNL A   1      36.953  33.415  40.751  1.00  0.00    -0.744 OA
ENDBRANCH  87  90
ENDBRANCH  59  83
BRANCH  71  94
ATOM     94  C   UNL A   1      44.222  27.945  34.387  1.00  0.00     0.023 A 
ATOM     95  C   UNL A   1      45.475  28.586  34.332  1.00  0.00     0.012 A 
ATOM     96  C   UNL A   1      44.081  26.762  35.139  1.00  0.00     0.148 A 
ATOM     97  C   UNL A   1      46.579  28.037  34.984  1.00  0.00     0.002 A 
ATOM     98  C   UNL A   1      45.173  26.251  35.831  1.00  0.00     0.091 A 
ATOM     99  F   UNL A   1      42.884  26.159  35.167  1.00  0.00    -0.205 F 
ATOM    100  C   UNL A   1      46.426  26.879  35.743  1.00  0.00     0.022 A 
BRANCH  98 101
ATOM    101  S   UNL A   1      45.047  24.823  36.912  1.00  0.00     0.127 S 
ATOM    102  O   UNL A   1      46.357  24.824  37.561  1.00  0.00    -0.237 OA
ATOM    103  O   UNL A   1      43.933  25.194  37.784  1.00  0.00    -0.237 OA
ATOM    104  O   UNL A   1      44.783  23.682  36.044  1.00  0.00    -0.744 OA
ENDBRANCH  98 101
ENDBRANCH  71  94
ENDBRANCH  45  46
ENDBRANCH  37  40
ENDBRANCH  35  36
ENDBRANCH  34  35
ENDBRANCH   1  34
TORSDOF 17
ENDMDL
MODEL 2
REMARK VINA RESULT:     -12.8      2.090      2.852
REMARK SMILES O=C1C[C@@H](C(=O)NCCCCNC(=O)c2ccc(-c3c4nc(c(-c5cccc(S(=O)(=O)[O-])c5F)c5ccc([nH]5)c(-c5cccc(S(=O)(=O)[O-])c5F)c5nc(c(-c6cccc(S(=O)(=O)[O-])c6F)c6ccc3[nH]6)C=C5)C=C4)cc2)C2(CC[NH+](Cc3c[nH]nc3-c3ccc(Cl)cc3)CC2)N1
REMARK SMILES IDX 9 1 8 2 7 3 5 4 6 5 4 7 1 8 2 9 3 10 97 11 78 12 79 14 96 15
REMARK SMILES IDX 80 16 95 17 81 18 82 20 83 21 84 22 87 23 85 24 86 25 88 27
REMARK SMILES IDX 89 28 94 29 90 30 93 31 91 32 92 33 10 34 11 35 12 36 13 37
REMARK SMILES IDX 14 39 15 40 16 41 77 42 17 43 76 44 18 45 19 46 20 47 70 48
REMARK SMILES IDX 21 49 75 50 69 51 71 52 22 53 74 54 68 55 67 56 23 58 55 59
REMARK SMILES IDX 35 60 54 61 36 62 39 63 53 64 72 65 37 66 38 67 52 69 73 70
REMARK SMILES IDX 40 71 24 72 25 73 33 74 26 75 28 76 34 77 27 78 29 79 30 80
REMARK SMILES IDX 31 81 32 82 56 83 57 84 65 85 58 86 60 87 66 88 59 89 61 90
REMARK SMILES IDX 62 91 63 92 64 93 41 94 42 95 50 96 43 97 45 98 51 99 44 100
REMARK SMILES IDX 46 101 47 102 48 103 49 104
REMARK H PARENT 7 6 97 13 81 19 85 26 12 38 71 57 39 68
REMARK Flexibility Score: inf
ROOT
ATOM      1  C   UNL A   1      34.774  30.496  28.028  1.00  0.00     0.023 C 
ENDROOT
BRANCH   1   2
ATOM      2  C   UNL A   1      34.463  29.113  27.447  1.00  0.00     0.116 C 
BRANCH   2   3
ATOM      3  N   UNL A   1      33.096  28.664  27.660  1.00  0.00    -0.356 N 
ATOM      4  C   UNL A   1      32.114  28.238  26.822  1.00  0.00     0.226 C 
ATOM      5  O   UNL A   1      31.056  27.878  27.350  1.00  0.00    -0.275 OA
ATOM      6  H   UNL A   1      32.827  28.670  28.607  1.00  0.00     0.163 HD
BRANCH   4   7
ATOM      7  C   UNL A   1      32.212  28.210  25.294  1.00  0.00     0.114 C 
ATOM      8  O   UNL A   1      29.162  28.626  23.473  1.00  0.00    -0.275 OA
ATOM      9  C   UNL A   1      30.202  28.281  23.998  1.00  0.00     0.221 C 
ATOM     10  C   UNL A   1      31.235  29.183  24.620  1.00  0.00     0.116 C 
ATOM     11  N   UNL A   1      30.619  26.977  24.146  1.00  0.00    -0.349 N 
ATOM     12  C   UNL A   1      32.004  26.853  24.585  1.00  0.00     0.063 C 
ATOM     13  H   UNL A   1      30.037  26.201  23.973  1.00  0.00     0.164 HD
ATOM     14  C   UNL A   1      32.195  25.636  25.504  1.00  0.00     0.091 C 
ATOM     15  C   UNL A   1      32.839  26.754  23.274  1.00  0.00     0.091 C 
ATOM     16  C   UNL A   1      33.596  25.054  25.500  1.00  0.00     0.264 C 
ATOM     17  C   UNL A   1      34.107  25.901  23.328  1.00  0.00     0.264 C 
ATOM     18  N   UNL A   1      34.038  24.717  24.163  1.00  0.00    -0.331 N 
ATOM     19  H   UNL A   1      35.009  24.411  24.222  1.00  0.00     0.348 HD
BRANCH  18  20
ATOM     20  C   UNL A   1      33.549  23.450  23.601  1.00  0.00     0.303 C 
BRANCH  20  21
ATOM     21  C   UNL A   1      33.273  22.348  24.579  1.00  0.00     0.052 A 
ATOM     22  C   UNL A   1      32.062  21.710  24.781  1.00  0.00     0.115 A 
ATOM     23  C   UNL A   1      34.186  21.609  25.416  1.00  0.00     0.101 A 
ATOM     24  N   UNL A   1      32.253  20.810  25.780  1.00  0.00    -0.285 N 
ATOM     25  N   UNL A   1      33.523  20.717  26.173  1.00  0.00    -0.175 NA
ATOM     26  H   UNL A   1      31.524  20.278  26.175  1.00  0.00     0.189 HD
BRANCH  23  27
ATOM     27  C   UNL A   1      35.649  21.652  25.498  1.00  0.00     0.003 A 
ATOM     28  C   UNL A   1      36.253  22.799  26.036  1.00  0.00     0.012 A 
ATOM     29  C   UNL A   1      36.470  20.621  25.030  1.00  0.00     0.012 A 
ATOM     30  C   UNL A   1      37.644  22.893  26.144  1.00  0.00     0.021 A 
ATOM     31  C   UNL A   1      37.863  20.708  25.142  1.00  0.00     0.021 A 
ATOM     32  C   UNL A   1      38.443  21.841  25.706  1.00  0.00     0.041 A 
ATOM     33  Cl  UNL A   1      40.151  21.951  25.860  1.00  0.00    -0.084 Cl
ENDBRANCH  23  27
ENDBRANCH  20  21
ENDBRANCH  18  20
ENDBRANCH   4   7
ENDBRANCH   2   3
ENDBRANCH   1   2
BRANCH   1  34
ATOM     34  C   UNL A   1      33.598  31.465  28.017  1.00  0.00     0.023 C 
BRANCH  34  35
ATOM     35  C   UNL A   1      33.832  32.708  27.173  1.00  0.00     0.116 C 
BRANCH  35  36
ATOM     36  N   UNL A   1      33.068  33.862  27.641  1.00  0.00    -0.352 N 
ATOM     37  C   UNL A   1      33.234  34.578  28.801  1.00  0.00     0.251 C 
ATOM     38  H   UNL A   1      32.342  34.164  27.049  1.00  0.00     0.163 HD
ATOM     39  O   UNL A   1      32.430  35.442  29.132  1.00  0.00    -0.269 OA
BRANCH  37  40
ATOM     40  C   UNL A   1      34.392  34.254  29.652  1.00  0.00     0.039 A 
ATOM     41  C   UNL A   1      34.184  33.555  30.841  1.00  0.00     0.014 A 
ATOM     42  C   UNL A   1      35.682  34.542  29.200  1.00  0.00     0.014 A 
ATOM     43  C   UNL A   1      35.286  33.067  31.541  1.00  0.00     0.010 A 
ATOM     44  C   UNL A   1      36.769  33.972  29.846  1.00  0.00     0.010 A 
ATOM     45  C   UNL A   1      36.582  33.229  31.023  1.00  0.00    -0.014 A 
BRANCH  45  46
ATOM     46  C   UNL A   1      37.760  32.612  31.681  1.00  0.00     0.031 A 
ATOM     47  C   UNL A   1      38.478  31.473  31.013  1.00  0.00     0.074 A 
ATOM     48  C   UNL A   1      38.115  33.007  32.919  1.00  0.00     0.049 A 
ATOM     49  N   UNL A   1      39.472  30.752  31.460  1.00  0.00    -0.248 NA
ATOM     50  C   UNL A   1      37.998  31.068  29.680  1.00  0.00     0.031 C 
ATOM     51  C   UNL A   1      37.439  34.045  33.705  1.00  0.00     0.029 A 
ATOM     52  N   UNL A   1      39.113  32.562  33.749  1.00  0.00    -0.354 N 
ATOM     53  C   UNL A   1      39.708  29.787  30.489  1.00  0.00     0.074 A 
ATOM     54  C   UNL A   1      38.733  29.992  29.441  1.00  0.00     0.031 C 
ATOM     55  C   UNL A   1      38.042  34.155  34.900  1.00  0.00     0.029 A 
ATOM     56  C   UNL A   1      39.119  33.173  34.983  1.00  0.00     0.049 A 
ATOM     57  H   UNL A   1      39.762  31.870  33.488  1.00  0.00     0.167 HD
ATOM     58  C   UNL A   1      40.667  28.834  30.459  1.00  0.00     0.034 A 
ATOM     59  C   UNL A   1      39.890  32.954  36.065  1.00  0.00     0.034 A 
ATOM     60  C   UNL A   1      41.658  28.661  31.485  1.00  0.00     0.049 A 
ATOM     61  C   UNL A   1      40.970  31.909  35.990  1.00  0.00     0.074 A 
ATOM     62  C   UNL A   1      42.732  27.789  31.501  1.00  0.00     0.029 A 
ATOM     63  N   UNL A   1      41.687  29.356  32.684  1.00  0.00    -0.354 N 
ATOM     64  N   UNL A   1      41.287  31.119  34.992  1.00  0.00    -0.248 NA
ATOM     65  C   UNL A   1      41.821  31.744  37.177  1.00  0.00     0.031 C 
ATOM     66  C   UNL A   1      43.388  27.929  32.727  1.00  0.00     0.029 A 
ATOM     67  C   UNL A   1      42.749  28.918  33.456  1.00  0.00     0.049 A 
ATOM     68  H   UNL A   1      41.047  30.056  32.946  1.00  0.00     0.167 HD
ATOM     69  C   UNL A   1      42.392  30.391  35.418  1.00  0.00     0.074 A 
ATOM     70  C   UNL A   1      42.705  30.851  36.754  1.00  0.00     0.031 C 
ATOM     71  C   UNL A   1      43.076  29.417  34.767  1.00  0.00     0.034 A 
BRANCH  58  72
ATOM     72  C   UNL A   1      40.715  27.922  29.262  1.00  0.00     0.023 A 
ATOM     73  C   UNL A   1      39.832  26.826  29.180  1.00  0.00     0.012 A 
ATOM     74  C   UNL A   1      41.584  28.191  28.188  1.00  0.00     0.148 A 
ATOM     75  C   UNL A   1      39.836  25.994  28.061  1.00  0.00     0.002 A 
ATOM     76  C   UNL A   1      41.548  27.388  27.056  1.00  0.00     0.091 A 
ATOM     77  F   UNL A   1      42.432  29.225  28.296  1.00  0.00    -0.205 F 
ATOM     78  C   UNL A   1      40.684  26.282  26.996  1.00  0.00     0.022 A 
BRANCH  76  79
ATOM     79  S   UNL A   1      42.538  27.724  25.595  1.00  0.00     0.127 S 
ATOM     80  O   UNL A   1      42.281  26.533  24.786  1.00  0.00    -0.237 OA
ATOM     81  O   UNL A   1      41.927  28.951  25.087  1.00  0.00    -0.237 OA
ATOM     82  O   UNL A   1      43.910  27.872  26.062  1.00  0.00    -0.744 OA
ENDBRANCH  76  79
ENDBRANCH  58  72
BRANCH  59  83
ATOM     83  C   UNL A   1      39.694  33.760  37.303  1.00  0.00     0.023 A 
ATOM     84  C   UNL A   1      40.290  35.031  37.412  1.00  0.00     0.012 A 
ATOM     85  C   UNL A   1      38.911  33.275  38.370  1.00  0.00     0.148 A 
ATOM     86  C   UNL A   1      40.146  35.787  38.576  1.00  0.00     0.002 A 
ATOM     87  C   UNL A   1      38.723  34.059  39.502  1.00  0.00     0.091 A 
ATOM     88  F   UNL A   1      38.360  32.060  38.252  1.00  0.00    -0.205 F 
ATOM     89  C   UNL A   1      39.357  35.306  39.616  1.00  0.00     0.022 A 
BRANCH  87  90
ATOM     90  S   UNL A   1      37.619  33.574  40.833  1.00  0.00     0.127 S 
ATOM     91  O   UNL A   1      38.385  32.518  41.488  1.00  0.00    -0.237 OA
ATOM     92  O   UNL A   1      37.504  34.817  41.596  1.00  0.00    -0.237 OA
ATOM     93  O   UNL A   1      36.384  33.153  40.185  1.00  0.00    -0.744 OA
ENDBRANCH  87  90
ENDBRANCH  59  83
BRANCH  71  94
ATOM     94  C   UNL A   1      44.260  28.807  35.470  1.00  0.00     0.023 A 
ATOM     95  C   UNL A   1      45.559  29.289  35.215  1.00  0.00     0.012 A 
ATOM     96  C   UNL A   1      44.073  27.803  36.442  1.00  0.00     0.148 A 
ATOM     97  C   UNL A   1      46.657  28.755  35.888  1.00  0.00     0.002 A 
ATOM     98  C   UNL A   1      45.166  27.314  37.147  1.00  0.00     0.091 A 
ATOM     99  F   UNL A   1      42.831  27.347  36.659  1.00  0.00    -0.205 F 
ATOM    100  C   UNL A   1      46.459  27.778  36.861  1.00  0.00     0.022 A 
BRANCH  98 101
ATOM    101  S   UNL A   1      44.997  26.130  38.486  1.00  0.00     0.127 S 
ATOM    102  O   UNL A   1      44.840  24.874  37.755  1.00  0.00    -0.237 OA
ATOM    103  O   UNL A   1      46.273  26.273  39.187  1.00  0.00    -0.237 OA
ATOM    104  O   UNL A   1      43.834  26.553  39.255  1.00  0.00    -0.744 OA
ENDBRANCH  98 101
ENDBRANCH  71  94
ENDBRANCH  45  46
ENDBRANCH  37  40
ENDBRANCH  35  36
ENDBRANCH  34  35
ENDBRANCH   1  34
TORSDOF 17
ENDMDL
MODEL 3
REMARK VINA RESULT:     -12.7      5.997     11.340
REMARK SMILES O=C1C[C@@H](C(=O)NCCCCNC(=O)c2ccc(-c3c4nc(c(-c5cccc(S(=O)(=O)[O-])c5F)c5ccc([nH]5)c(-c5cccc(S(=O)(=O)[O-])c5F)c5nc(c(-c6cccc(S(=O)(=O)[O-])c6F)c6ccc3[nH]6)C=C5)C=C4)cc2)C2(CC[NH+](Cc3c[nH]nc3-c3ccc(Cl)cc3)CC2)N1
REMARK SMILES IDX 9 1 8 2 7 3 5 4 6 5 4 7 1 8 2 9 3 10 97 11 78 12 79 14 96 15
REMARK SMILES IDX 80 16 95 17 81 18 82 20 83 21 84 22 87 23 85 24 86 25 88 27
REMARK SMILES IDX 89 28 94 29 90 30 93 31 91 32 92 33 10 34 11 35 12 36 13 37
REMARK SMILES IDX 14 39 15 40 16 41 77 42 17 43 76 44 18 45 19 46 20 47 70 48
REMARK SMILES IDX 21 49 75 50 69 51 71 52 22 53 74 54 68 55 67 56 23 58 55 59
REMARK SMILES IDX 35 60 54 61 36 62 39 63 53 64 72 65 37 66 38 67 52 69 73 70
REMARK SMILES IDX 40 71 24 72 25 73 33 74 26 75 28 76 34 77 27 78 29 79 30 80
REMARK SMILES IDX 31 81 32 82 56 83 57 84 65 85 58 86 60 87 66 88 59 89 61 90
REMARK SMILES IDX 62 91 63 92 64 93 41 94 42 95 50 96 43 97 45 98 51 99 44 100
REMARK SMILES IDX 46 101 47 102 48 103 49 104
REMARK H PARENT 7 6 97 13 81 19 85 26 12 38 71 57 39 68
REMARK Flexibility Score: inf
ROOT
ATOM      1  C   UNL A   1      37.055  21.422  24.933  1.00  0.00     0.023 C 
ENDROOT
BRANCH   1   2
ATOM      2  C   UNL A   1      35.617  21.020  25.273  1.00  0.00     0.116 C 
BRANCH   2   3
ATOM      3  N   UNL A   1      35.160  21.465  26.580  1.00  0.00    -0.356 N 
ATOM      4  C   UNL A   1      33.986  21.979  27.031  1.00  0.00     0.226 C 
ATOM      5  O   UNL A   1      33.916  22.215  28.243  1.00  0.00    -0.275 OA
ATOM      6  H   UNL A   1      35.843  21.374  27.283  1.00  0.00     0.163 HD
BRANCH   4   7
ATOM      7  C   UNL A   1      32.777  22.318  26.153  1.00  0.00     0.114 C 
ATOM      8  O   UNL A   1      32.352  20.385  23.174  1.00  0.00    -0.275 OA
ATOM      9  C   UNL A   1      32.523  21.214  24.046  1.00  0.00     0.221 C 
ATOM     10  C   UNL A   1      32.154  21.077  25.500  1.00  0.00     0.116 C 
ATOM     11  N   UNL A   1      33.122  22.441  23.864  1.00  0.00    -0.349 N 
ATOM     12  C   UNL A   1      32.982  23.334  25.009  1.00  0.00     0.063 C 
ATOM     13  H   UNL A   1      33.600  22.692  23.041  1.00  0.00     0.164 HD
ATOM     14  C   UNL A   1      34.223  24.224  25.182  1.00  0.00     0.091 C 
ATOM     15  C   UNL A   1      31.688  24.155  24.728  1.00  0.00     0.091 C 
ATOM     16  C   UNL A   1      33.960  25.549  25.874  1.00  0.00     0.264 C 
ATOM     17  C   UNL A   1      31.656  25.591  25.251  1.00  0.00     0.264 C 
ATOM     18  N   UNL A   1      32.918  26.305  25.213  1.00  0.00    -0.331 N 
ATOM     19  H   UNL A   1      32.735  27.140  25.771  1.00  0.00     0.348 HD
BRANCH  18  20
ATOM     20  C   UNL A   1      33.302  27.053  24.007  1.00  0.00     0.303 C 
BRANCH  20  21
ATOM     21  C   UNL A   1      32.725  26.569  22.711  1.00  0.00     0.052 A 
ATOM     22  C   UNL A   1      33.177  25.501  21.955  1.00  0.00     0.115 A 
ATOM     23  C   UNL A   1      31.525  26.981  22.025  1.00  0.00     0.101 A 
ATOM     24  N   UNL A   1      32.394  25.442  20.848  1.00  0.00    -0.285 N 
ATOM     25  N   UNL A   1      31.383  26.310  20.867  1.00  0.00    -0.175 NA
ATOM     26  H   UNL A   1      32.556  24.818  20.103  1.00  0.00     0.189 HD
BRANCH  23  27
ATOM     27  C   UNL A   1      30.476  27.922  22.426  1.00  0.00     0.003 A 
ATOM     28  C   UNL A   1      30.636  29.278  22.101  1.00  0.00     0.012 A 
ATOM     29  C   UNL A   1      29.343  27.537  23.151  1.00  0.00     0.012 A 
ATOM     30  C   UNL A   1      29.665  30.219  22.453  1.00  0.00     0.021 A 
ATOM     31  C   UNL A   1      28.364  28.477  23.500  1.00  0.00     0.021 A 
ATOM     32  C   UNL A   1      28.527  29.812  23.142  1.00  0.00     0.041 A 
ATOM     33  Cl  UNL A   1      27.324  30.969  23.555  1.00  0.00    -0.084 Cl
ENDBRANCH  23  27
ENDBRANCH  20  21
ENDBRANCH  18  20
ENDBRANCH   4   7
ENDBRANCH   2   3
ENDBRANCH   1   2
BRANCH   1  34
ATOM     34  C   UNL A   1      38.043  20.262  24.893  1.00  0.00     0.023 C 
BRANCH  34  35
ATOM     35  C   UNL A   1      39.292  20.488  25.730  1.00  0.00     0.116 C 
BRANCH  35  36
ATOM     36  N   UNL A   1      40.118  19.288  25.849  1.00  0.00    -0.352 N 
ATOM     37  C   UNL A   1      41.460  19.205  26.126  1.00  0.00     0.251 C 
ATOM     38  H   UNL A   1      39.652  18.431  25.714  1.00  0.00     0.163 HD
ATOM     39  O   UNL A   1      42.054  18.135  26.061  1.00  0.00    -0.269 OA
BRANCH  37  40
ATOM     40  C   UNL A   1      42.172  20.447  26.473  1.00  0.00     0.039 A 
ATOM     41  C   UNL A   1      42.799  21.174  25.461  1.00  0.00     0.014 A 
ATOM     42  C   UNL A   1      42.105  20.939  27.779  1.00  0.00     0.014 A 
ATOM     43  C   UNL A   1      43.291  22.446  25.746  1.00  0.00     0.010 A 
ATOM     44  C   UNL A   1      42.507  22.242  28.034  1.00  0.00     0.010 A 
ATOM     45  C   UNL A   1      43.104  23.008  27.021  1.00  0.00    -0.014 A 
BRANCH  45  46
ATOM     46  C   UNL A   1      43.505  24.406  27.316  1.00  0.00     0.031 A 
ATOM     47  C   UNL A   1      42.503  25.363  27.899  1.00  0.00     0.074 A 
ATOM     48  C   UNL A   1      44.732  24.836  26.963  1.00  0.00     0.049 A 
ATOM     49  N   UNL A   1      42.636  26.639  28.150  1.00  0.00    -0.248 NA
ATOM     50  C   UNL A   1      41.167  24.827  28.212  1.00  0.00     0.031 C 
ATOM     51  C   UNL A   1      45.762  24.021  26.310  1.00  0.00     0.029 A 
ATOM     52  N   UNL A   1      45.313  26.074  27.074  1.00  0.00    -0.354 N 
ATOM     53  C   UNL A   1      41.395  27.065  28.609  1.00  0.00     0.074 A 
ATOM     54  C   UNL A   1      40.512  25.921  28.571  1.00  0.00     0.031 C 
ATOM     55  C   UNL A   1      46.845  24.781  26.081  1.00  0.00     0.029 A 
ATOM     56  C   UNL A   1      46.576  26.143  26.531  1.00  0.00     0.049 A 
ATOM     57  H   UNL A   1      44.868  26.842  27.500  1.00  0.00     0.167 HD
ATOM     58  C   UNL A   1      41.032  28.291  29.047  1.00  0.00     0.034 A 
ATOM     59  C   UNL A   1      47.414  27.188  26.392  1.00  0.00     0.034 A 
ATOM     60  C   UNL A   1      41.925  29.415  29.120  1.00  0.00     0.049 A 
ATOM     61  C   UNL A   1      46.994  28.534  26.919  1.00  0.00     0.074 A 
ATOM     62  C   UNL A   1      41.680  30.673  29.642  1.00  0.00     0.029 A 
ATOM     63  N   UNL A   1      43.225  29.426  28.640  1.00  0.00    -0.354 N 
ATOM     64  N   UNL A   1      45.873  28.876  27.507  1.00  0.00    -0.248 NA
ATOM     65  C   UNL A   1      47.965  29.630  26.795  1.00  0.00     0.031 C 
ATOM     66  C   UNL A   1      42.820  31.456  29.441  1.00  0.00     0.029 A 
ATOM     67  C   UNL A   1      43.789  30.674  28.835  1.00  0.00     0.049 A 
ATOM     68  H   UNL A   1      43.679  28.658  28.223  1.00  0.00     0.167 HD
ATOM     69  C   UNL A   1      46.017  30.216  27.852  1.00  0.00     0.074 A 
ATOM     70  C   UNL A   1      47.344  30.614  27.430  1.00  0.00     0.031 C 
ATOM     71  C   UNL A   1      45.126  31.045  28.451  1.00  0.00     0.034 A 
BRANCH  58  72
ATOM     72  C   UNL A   1      39.613  28.479  29.517  1.00  0.00     0.023 A 
ATOM     73  C   UNL A   1      39.260  28.126  30.836  1.00  0.00     0.012 A 
ATOM     74  C   UNL A   1      38.650  29.069  28.677  1.00  0.00     0.148 A 
ATOM     75  C   UNL A   1      37.961  28.328  31.300  1.00  0.00     0.002 A 
ATOM     76  C   UNL A   1      37.372  29.313  29.162  1.00  0.00     0.091 A 
ATOM     77  F   UNL A   1      39.001  29.375  27.420  1.00  0.00    -0.205 F 
ATOM     78  C   UNL A   1      37.022  28.933  30.469  1.00  0.00     0.022 A 
BRANCH  76  79
ATOM     79  S   UNL A   1      36.115  30.162  28.201  1.00  0.00     0.127 S 
ATOM     80  O   UNL A   1      35.204  30.622  29.249  1.00  0.00    -0.237 OA
ATOM     81  O   UNL A   1      36.888  31.224  27.557  1.00  0.00    -0.237 OA
ATOM     82  O   UNL A   1      35.563  29.169  27.290  1.00  0.00    -0.744 OA
ENDBRANCH  76  79
ENDBRANCH  58  72
BRANCH  59  83
ATOM     83  C   UNL A   1      48.749  27.002  25.755  1.00  0.00     0.023 A 
ATOM     84  C   UNL A   1      49.822  26.502  26.517  1.00  0.00     0.012 A 
ATOM     85  C   UNL A   1      48.955  27.310  24.396  1.00  0.00     0.148 A 
ATOM     86  C   UNL A   1      51.088  26.351  25.948  1.00  0.00     0.002 A 
ATOM     87  C   UNL A   1      50.203  27.102  23.822  1.00  0.00     0.091 A 
ATOM     88  F   UNL A   1      47.924  27.794  23.691  1.00  0.00    -0.205 F 
ATOM     89  C   UNL A   1      51.276  26.642  24.600  1.00  0.00     0.022 A 
BRANCH  87  90
ATOM     90  S   UNL A   1      50.501  27.327  22.065  1.00  0.00     0.127 S 
ATOM     91  O   UNL A   1      50.318  28.767  21.912  1.00  0.00    -0.237 OA
ATOM     92  O   UNL A   1      51.883  26.863  21.932  1.00  0.00    -0.237 OA
ATOM     93  O   UNL A   1      49.520  26.488  21.389  1.00  0.00    -0.744 OA
ENDBRANCH  87  90
ENDBRANCH  59  83
BRANCH  71  94
ATOM     94  C   UNL A   1      45.565  32.460  28.725  1.00  0.00     0.023 A 
ATOM     95  C   UNL A   1      46.314  32.755  29.880  1.00  0.00     0.012 A 
ATOM     96  C   UNL A   1      45.295  33.483  27.794  1.00  0.00     0.148 A 
ATOM     97  C   UNL A   1      46.755  34.055  30.124  1.00  0.00     0.002 A 
ATOM     98  C   UNL A   1      45.784  34.764  28.017  1.00  0.00     0.091 A 
ATOM     99  F   UNL A   1      44.567  33.184  26.708  1.00  0.00    -0.205 F 
ATOM    100  C   UNL A   1      46.502  35.055  29.188  1.00  0.00     0.022 A 
BRANCH  98 101
ATOM    101  S   UNL A   1      45.594  36.091  26.821  1.00  0.00     0.127 S 
ATOM    102  O   UNL A   1      46.242  35.523  25.641  1.00  0.00    -0.237 OA
ATOM    103  O   UNL A   1      44.139  36.209  26.722  1.00  0.00    -0.237 OA
ATOM    104  O   UNL A   1      46.257  37.252  27.399  1.00  0.00    -0.744 OA
ENDBRANCH  98 101
ENDBRANCH  71  94
ENDBRANCH  45  46
ENDBRANCH  37  40
ENDBRANCH  35  36
ENDBRANCH  34  35
ENDBRANCH   1  34
TORSDOF 17
ENDMDL
