MODEL 1
REMARK VINA RESULT:     -13.1      0.000      0.000
REMARK SMILES Cc1cc(Cl)c(C)c2c1O[C@H](C(F)(F)F)C(C(=O)NCCCCNC(=O)c1ccc(-c3c4nc(c(-c5cccc(S(=O)(=O)[O-])c5F)c5ccc([nH]5)c(-c5cccc(S(=O)(=O)[O-])c5F)c5nc(c(-c6cccc(S(=O)(=O)[O-])c6F)c6ccc3[nH]6)C=C5)C=C4)cc1)=C2
REMARK SMILES IDX 22 1 21 2 20 3 19 4 17 5 18 6 16 8 1 9 2 10 3 11 9 12 4 13
REMARK SMILES IDX 8 14 10 15 5 16 6 17 90 18 11 19 7 20 12 21 13 22 14 23
REMARK SMILES IDX 15 24 23 25 24 26 25 27 26 29 27 30 28 31 89 32 29 33 88 34
REMARK SMILES IDX 30 35 31 36 32 37 82 38 33 39 87 40 81 41 83 42 34 43 86 44
REMARK SMILES IDX 80 45 79 46 35 48 67 49 47 50 66 51 48 52 51 53 65 54 84 55
REMARK SMILES IDX 49 56 50 57 64 59 85 60 52 61 36 62 37 63 45 64 38 65 40 66
REMARK SMILES IDX 46 67 39 68 41 69 42 70 43 71 44 72 68 73 69 74 77 75 70 76
REMARK SMILES IDX 72 77 78 78 71 79 73 80 74 81 75 82 76 83 53 84 54 85 62 86
REMARK SMILES IDX 55 87 57 88 63 89 56 90 58 91 59 92 60 93 61 94
REMARK H PARENT 19 7 24 28 83 47 51 58
REMARK Flexibility Score: inf
ROOT
ATOM      1  C   UNL A   1      31.555  29.993  25.359  1.00  0.00     0.023 C 
ENDROOT
BRANCH   1   2
ATOM      2  C   UNL A   1      32.340  29.093  24.400  1.00  0.00     0.023 C 
BRANCH   2   3
ATOM      3  C   UNL A   1      31.465  28.229  23.496  1.00  0.00     0.116 C 
BRANCH   3   4
ATOM      4  N   UNL A   1      32.239  27.572  22.457  1.00  0.00    -0.352 N 
ATOM      5  C   UNL A   1      32.961  26.435  22.333  1.00  0.00     0.251 C 
ATOM      6  O   UNL A   1      33.473  26.253  21.224  1.00  0.00    -0.270 OA
ATOM      7  H   UNL A   1      32.236  28.092  21.622  1.00  0.00     0.163 HD
BRANCH   5   8
ATOM      8  C   UNL A   1      33.169  25.420  23.409  1.00  0.00     0.067 C 
ATOM      9  C   UNL A   1      33.128  22.573  27.684  1.00  0.00     0.048 C 
ATOM     10  C   UNL A   1      34.031  22.691  26.490  1.00  0.00    -0.007 A 
ATOM     11  C   UNL A   1      35.106  21.809  26.349  1.00  0.00     0.028 A 
ATOM     12  C   UNL A   1      33.790  23.619  25.470  1.00  0.00     0.131 A 
ATOM     13  C   UNL A   1      35.944  21.871  25.230  1.00  0.00     0.045 A 
ATOM     14  C   UNL A   1      34.628  23.704  24.344  1.00  0.00     0.022 A 
ATOM     15  O   UNL A   1      32.732  24.466  25.656  1.00  0.00    -0.475 OA
ATOM     16  Cl  UNL A   1      37.250  20.735  25.184  1.00  0.00    -0.084 Cl
ATOM     17  C   UNL A   1      35.723  22.815  24.209  1.00  0.00    -0.021 A 
ATOM     18  C   UNL A   1      34.339  24.755  23.362  1.00  0.00     0.026 C 
ATOM     19  C   UNL A   1      32.169  25.089  24.472  1.00  0.00     0.314 C 
ATOM     20  C   UNL A   1      36.619  22.898  22.997  1.00  0.00     0.047 C 
BRANCH  19  21
ATOM     21  C   UNL A   1      31.000  24.233  23.950  1.00  0.00     0.429 C 
ATOM     22  F   UNL A   1      31.386  23.521  22.861  1.00  0.00    -0.167 F 
ATOM     23  F   UNL A   1      30.564  23.334  24.862  1.00  0.00    -0.167 F 
ATOM     24  F   UNL A   1      29.931  24.977  23.585  1.00  0.00    -0.167 F 
ENDBRANCH  19  21
ENDBRANCH   5   8
ENDBRANCH   3   4
ENDBRANCH   2   3
ENDBRANCH   1   2
BRANCH   1  25
ATOM     25  C   UNL A   1      32.315  30.450  26.603  1.00  0.00     0.116 C 
BRANCH  25  26
ATOM     26  N   UNL A   1      32.252  31.887  26.836  1.00  0.00    -0.352 N 
ATOM     27  C   UNL A   1      33.191  32.686  27.445  1.00  0.00     0.251 C 
ATOM     28  H   UNL A   1      31.439  32.343  26.517  1.00  0.00     0.163 HD
ATOM     29  O   UNL A   1      32.972  33.877  27.638  1.00  0.00    -0.269 OA
BRANCH  27  30
ATOM     30  C   UNL A   1      34.450  32.067  27.902  1.00  0.00     0.039 A 
ATOM     31  C   UNL A   1      35.598  32.857  27.983  1.00  0.00     0.014 A 
ATOM     32  C   UNL A   1      34.463  30.736  28.329  1.00  0.00     0.014 A 
ATOM     33  C   UNL A   1      36.749  32.331  28.567  1.00  0.00     0.010 A 
ATOM     34  C   UNL A   1      35.592  30.234  28.966  1.00  0.00     0.010 A 
ATOM     35  C   UNL A   1      36.741  31.029  29.096  1.00  0.00    -0.014 A 
BRANCH  35  36
ATOM     36  C   UNL A   1      37.922  30.485  29.808  1.00  0.00     0.031 A 
ATOM     37  C   UNL A   1      38.231  30.938  31.205  1.00  0.00     0.074 A 
ATOM     38  C   UNL A   1      38.755  29.642  29.165  1.00  0.00     0.049 A 
ATOM     39  N   UNL A   1      39.233  30.604  31.974  1.00  0.00    -0.248 NA
ATOM     40  C   UNL A   1      37.308  31.913  31.810  1.00  0.00     0.031 C 
ATOM     41  C   UNL A   1      38.596  29.191  27.782  1.00  0.00     0.029 A 
ATOM     42  N   UNL A   1      39.908  29.029  29.584  1.00  0.00    -0.354 N 
ATOM     43  C   UNL A   1      39.076  31.341  33.141  1.00  0.00     0.074 A 
ATOM     44  C   UNL A   1      37.906  32.172  32.964  1.00  0.00     0.031 C 
ATOM     45  C   UNL A   1      39.602  28.357  27.473  1.00  0.00     0.029 A 
ATOM     46  C   UNL A   1      40.489  28.231  28.626  1.00  0.00     0.049 A 
ATOM     47  H   UNL A   1      40.285  29.147  30.486  1.00  0.00     0.167 HD
ATOM     48  C   UNL A   1      39.813  31.296  34.275  1.00  0.00     0.034 A 
ATOM     49  C   UNL A   1      41.604  27.475  28.677  1.00  0.00     0.034 A 
ATOM     50  C   UNL A   1      40.942  30.430  34.465  1.00  0.00     0.049 A 
ATOM     51  C   UNL A   1      42.389  27.419  29.960  1.00  0.00     0.074 A 
ATOM     52  C   UNL A   1      41.711  30.258  35.601  1.00  0.00     0.029 A 
ATOM     53  N   UNL A   1      41.464  29.587  33.495  1.00  0.00    -0.354 N 
ATOM     54  N   UNL A   1      42.139  28.011  31.103  1.00  0.00    -0.248 NA
ATOM     55  C   UNL A   1      43.588  26.568  29.973  1.00  0.00     0.031 C 
ATOM     56  C   UNL A   1      42.701  29.310  35.318  1.00  0.00     0.029 A 
ATOM     57  C   UNL A   1      42.544  28.891  34.006  1.00  0.00     0.049 A 
ATOM     58  H   UNL A   1      41.116  29.497  32.578  1.00  0.00     0.167 HD
ATOM     59  C   UNL A   1      43.132  27.586  31.979  1.00  0.00     0.074 A 
ATOM     60  C   UNL A   1      43.975  26.668  31.239  1.00  0.00     0.031 C 
ATOM     61  C   UNL A   1      43.339  27.940  33.271  1.00  0.00     0.034 A 
BRANCH  48  62
ATOM     62  C   UNL A   1      39.362  32.149  35.430  1.00  0.00     0.023 A 
ATOM     63  C   UNL A   1      38.486  31.595  36.386  1.00  0.00     0.012 A 
ATOM     64  C   UNL A   1      39.837  33.462  35.605  1.00  0.00     0.148 A 
ATOM     65  C   UNL A   1      38.067  32.343  37.484  1.00  0.00     0.002 A 
ATOM     66  C   UNL A   1      39.445  34.188  36.724  1.00  0.00     0.091 A 
ATOM     67  F   UNL A   1      40.649  33.981  34.673  1.00  0.00    -0.205 F 
ATOM     68  C   UNL A   1      38.555  33.635  37.659  1.00  0.00     0.022 A 
BRANCH  66  69
ATOM     69  S   UNL A   1      40.072  35.835  37.076  1.00  0.00     0.127 S 
ATOM     70  O   UNL A   1      39.383  36.152  38.326  1.00  0.00    -0.237 OA
ATOM     71  O   UNL A   1      41.509  35.596  37.217  1.00  0.00    -0.237 OA
ATOM     72  O   UNL A   1      39.704  36.655  35.931  1.00  0.00    -0.744 OA
ENDBRANCH  66  69
ENDBRANCH  48  62
BRANCH  49  73
ATOM     73  C   UNL A   1      41.974  26.629  27.507  1.00  0.00     0.023 A 
ATOM     74  C   UNL A   1      42.707  27.210  26.453  1.00  0.00     0.012 A 
ATOM     75  C   UNL A   1      41.670  25.255  27.455  1.00  0.00     0.148 A 
ATOM     76  C   UNL A   1      43.116  26.443  25.362  1.00  0.00     0.002 A 
ATOM     77  C   UNL A   1      42.125  24.485  26.389  1.00  0.00     0.091 A 
ATOM     78  F   UNL A   1      40.960  24.724  28.460  1.00  0.00    -0.205 F 
ATOM     79  C   UNL A   1      42.836  25.080  25.335  1.00  0.00     0.022 A 
BRANCH  77  80
ATOM     80  S   UNL A   1      41.930  22.699  26.337  1.00  0.00     0.127 S 
ATOM     81  O   UNL A   1      42.576  22.365  25.071  1.00  0.00    -0.237 OA
ATOM     82  O   UNL A   1      42.661  22.279  27.534  1.00  0.00    -0.237 OA
ATOM     83  O   UNL A   1      40.494  22.461  26.400  1.00  0.00    -0.744 OA
ENDBRANCH  77  80
ENDBRANCH  49  73
BRANCH  61  84
ATOM     84  C   UNL A   1      44.520  27.340  33.986  1.00  0.00     0.023 A 
ATOM     85  C   UNL A   1      45.768  27.990  33.919  1.00  0.00     0.012 A 
ATOM     86  C   UNL A   1      44.367  26.213  34.818  1.00  0.00     0.148 A 
ATOM     87  C   UNL A   1      46.851  27.519  34.660  1.00  0.00     0.002 A 
ATOM     88  C   UNL A   1      45.441  25.777  35.587  1.00  0.00     0.091 A 
ATOM     89  F   UNL A   1      43.176  25.599  34.852  1.00  0.00    -0.205 F 
ATOM     90  C   UNL A   1      46.683  26.424  35.505  1.00  0.00     0.022 A 
BRANCH  88  91
ATOM     91  S   UNL A   1      45.288  24.437  36.775  1.00  0.00     0.127 S 
ATOM     92  O   UNL A   1      44.957  23.307  35.908  1.00  0.00    -0.237 OA
ATOM     93  O   UNL A   1      46.629  24.384  37.360  1.00  0.00    -0.237 OA
ATOM     94  O   UNL A   1      44.242  24.844  37.704  1.00  0.00    -0.744 OA
ENDBRANCH  88  91
ENDBRANCH  61  84
ENDBRANCH  35  36
ENDBRANCH  27  30
ENDBRANCH  25  26
ENDBRANCH   1  25
TORSDOF 15
ENDMDL
MODEL 2
REMARK VINA RESULT:     -13.0      5.231     10.190
REMARK SMILES Cc1cc(Cl)c(C)c2c1O[C@H](C(F)(F)F)C(C(=O)NCCCCNC(=O)c1ccc(-c3c4nc(c(-c5cccc(S(=O)(=O)[O-])c5F)c5ccc([nH]5)c(-c5cccc(S(=O)(=O)[O-])c5F)c5nc(c(-c6cccc(S(=O)(=O)[O-])c6F)c6ccc3[nH]6)C=C5)C=C4)cc1)=C2
REMARK SMILES IDX 22 1 21 2 20 3 19 4 17 5 18 6 16 8 1 9 2 10 3 11 9 12 4 13
REMARK SMILES IDX 8 14 10 15 5 16 6 17 90 18 11 19 7 20 12 21 13 22 14 23
REMARK SMILES IDX 15 24 23 25 24 26 25 27 26 29 27 30 28 31 89 32 29 33 88 34
REMARK SMILES IDX 30 35 31 36 32 37 82 38 33 39 87 40 81 41 83 42 34 43 86 44
REMARK SMILES IDX 80 45 79 46 35 48 67 49 47 50 66 51 48 52 51 53 65 54 84 55
REMARK SMILES IDX 49 56 50 57 64 59 85 60 52 61 36 62 37 63 45 64 38 65 40 66
REMARK SMILES IDX 46 67 39 68 41 69 42 70 43 71 44 72 68 73 69 74 77 75 70 76
REMARK SMILES IDX 72 77 78 78 71 79 73 80 74 81 75 82 76 83 53 84 54 85 62 86
REMARK SMILES IDX 55 87 57 88 63 89 56 90 58 91 59 92 60 93 61 94
REMARK H PARENT 19 7 24 28 83 47 51 58
REMARK Flexibility Score: inf
ROOT
ATOM      1  C   UNL A   1      35.666  21.131  25.167  1.00  0.00     0.023 C 
ENDROOT
BRANCH   1   2
ATOM      2  C   UNL A   1      34.521  22.038  25.625  1.00  0.00     0.023 C 
BRANCH   2   3
ATOM      3  C   UNL A   1      33.129  21.455  25.391  1.00  0.00     0.116 C 
BRANCH   3   4
ATOM      4  N   UNL A   1      32.136  22.053  26.266  1.00  0.00    -0.352 N 
ATOM      5  C   UNL A   1      31.607  23.282  26.467  1.00  0.00     0.251 C 
ATOM      6  O   UNL A   1      30.746  23.349  27.350  1.00  0.00    -0.270 OA
ATOM      7  H   UNL A   1      31.743  21.386  26.874  1.00  0.00     0.163 HD
BRANCH   5   8
ATOM      8  C   UNL A   1      31.980  24.518  25.715  1.00  0.00     0.067 C 
ATOM      9  C   UNL A   1      33.799  28.028  22.435  1.00  0.00     0.048 C 
ATOM     10  C   UNL A   1      33.229  28.061  23.825  1.00  0.00    -0.007 A 
ATOM     11  C   UNL A   1      33.009  29.290  24.452  1.00  0.00     0.028 A 
ATOM     12  C   UNL A   1      32.843  26.892  24.493  1.00  0.00     0.131 A 
ATOM     13  C   UNL A   1      32.447  29.354  25.731  1.00  0.00     0.045 A 
ATOM     14  C   UNL A   1      32.287  26.936  25.783  1.00  0.00     0.022 A 
ATOM     15  O   UNL A   1      33.084  25.712  23.843  1.00  0.00    -0.475 OA
ATOM     16  Cl  UNL A   1      32.244  30.937  26.403  1.00  0.00    -0.084 Cl
ATOM     17  C   UNL A   1      32.076  28.184  26.420  1.00  0.00    -0.021 A 
ATOM     18  C   UNL A   1      31.980  25.657  26.433  1.00  0.00     0.026 C 
ATOM     19  C   UNL A   1      32.302  24.560  24.254  1.00  0.00     0.314 C 
ATOM     20  C   UNL A   1      31.471  28.235  27.802  1.00  0.00     0.047 C 
BRANCH  19  21
ATOM     21  C   UNL A   1      31.054  24.445  23.361  1.00  0.00     0.429 C 
ATOM     22  F   UNL A   1      31.281  25.023  22.154  1.00  0.00    -0.167 F 
ATOM     23  F   UNL A   1      30.707  23.161  23.112  1.00  0.00    -0.167 F 
ATOM     24  F   UNL A   1      29.970  25.050  23.899  1.00  0.00    -0.167 F 
ENDBRANCH  19  21
ENDBRANCH   5   8
ENDBRANCH   3   4
ENDBRANCH   2   3
ENDBRANCH   1   2
BRANCH   1  25
ATOM     25  C   UNL A   1      37.073  21.693  25.368  1.00  0.00     0.116 C 
BRANCH  25  26
ATOM     26  N   UNL A   1      38.097  20.669  25.531  1.00  0.00    -0.352 N 
ATOM     27  C   UNL A   1      39.353  20.812  26.072  1.00  0.00     0.251 C 
ATOM     28  H   UNL A   1      37.861  19.766  25.218  1.00  0.00     0.163 HD
ATOM     29  O   UNL A   1      40.144  19.874  26.080  1.00  0.00    -0.269 OA
BRANCH  27  30
ATOM     30  C   UNL A   1      39.746  22.132  26.600  1.00  0.00     0.039 A 
ATOM     31  C   UNL A   1      40.737  22.197  27.582  1.00  0.00     0.014 A 
ATOM     32  C   UNL A   1      39.194  23.297  26.059  1.00  0.00     0.014 A 
ATOM     33  C   UNL A   1      41.233  23.441  27.969  1.00  0.00     0.010 A 
ATOM     34  C   UNL A   1      39.733  24.531  26.403  1.00  0.00     0.010 A 
ATOM     35  C   UNL A   1      40.760  24.613  27.355  1.00  0.00    -0.014 A 
BRANCH  35  36
ATOM     36  C   UNL A   1      41.342  25.937  27.682  1.00  0.00     0.031 A 
ATOM     37  C   UNL A   1      42.746  26.264  27.263  1.00  0.00     0.074 A 
ATOM     38  C   UNL A   1      40.631  26.810  28.422  1.00  0.00     0.049 A 
ATOM     39  N   UNL A   1      43.437  27.350  27.486  1.00  0.00    -0.248 NA
ATOM     40  C   UNL A   1      43.478  25.227  26.517  1.00  0.00     0.031 C 
ATOM     41  C   UNL A   1      39.286  26.572  28.948  1.00  0.00     0.029 A 
ATOM     42  N   UNL A   1      40.945  28.068  28.873  1.00  0.00    -0.354 N 
ATOM     43  C   UNL A   1      44.690  27.121  26.930  1.00  0.00     0.074 A 
ATOM     44  C   UNL A   1      44.678  25.777  26.396  1.00  0.00     0.031 C 
ATOM     45  C   UNL A   1      38.882  27.654  29.633  1.00  0.00     0.029 A 
ATOM     46  C   UNL A   1      39.946  28.654  29.614  1.00  0.00     0.049 A 
ATOM     47  H   UNL A   1      41.805  28.508  28.684  1.00  0.00     0.167 HD
ATOM     48  C   UNL A   1      45.740  27.969  26.833  1.00  0.00     0.034 A 
ATOM     49  C   UNL A   1      39.891  29.867  30.201  1.00  0.00     0.034 A 
ATOM     50  C   UNL A   1      45.727  29.320  27.318  1.00  0.00     0.049 A 
ATOM     51  C   UNL A   1      41.060  30.803  30.052  1.00  0.00     0.074 A 
ATOM     52  C   UNL A   1      46.713  30.283  27.204  1.00  0.00     0.029 A 
ATOM     53  N   UNL A   1      44.674  29.904  28.006  1.00  0.00    -0.354 N 
ATOM     54  N   UNL A   1      42.180  30.622  29.394  1.00  0.00    -0.248 NA
ATOM     55  C   UNL A   1      40.947  32.120  30.695  1.00  0.00     0.031 C 
ATOM     56  C   UNL A   1      46.257  31.450  27.827  1.00  0.00     0.029 A 
ATOM     57  C   UNL A   1      44.985  31.214  28.324  1.00  0.00     0.049 A 
ATOM     58  H   UNL A   1      43.829  29.452  28.235  1.00  0.00     0.167 HD
ATOM     59  C   UNL A   1      42.895  31.807  29.522  1.00  0.00     0.074 A 
ATOM     60  C   UNL A   1      42.069  32.709  30.301  1.00  0.00     0.031 C 
ATOM     61  C   UNL A   1      44.129  32.115  29.054  1.00  0.00     0.034 A 
BRANCH  48  62
ATOM     62  C   UNL A   1      46.958  27.484  26.096  1.00  0.00     0.023 A 
ATOM     63  C   UNL A   1      47.868  26.640  26.765  1.00  0.00     0.012 A 
ATOM     64  C   UNL A   1      47.180  27.807  24.745  1.00  0.00     0.148 A 
ATOM     65  C   UNL A   1      48.995  26.147  26.111  1.00  0.00     0.002 A 
ATOM     66  C   UNL A   1      48.285  27.281  24.087  1.00  0.00     0.091 A 
ATOM     67  F   UNL A   1      46.318  28.632  24.133  1.00  0.00    -0.205 F 
ATOM     68  C   UNL A   1      49.198  26.459  24.769  1.00  0.00     0.022 A 
BRANCH  66  69
ATOM     69  S   UNL A   1      48.598  27.566  22.341  1.00  0.00     0.127 S 
ATOM     70  O   UNL A   1      49.865  28.295  22.383  1.00  0.00    -0.237 OA
ATOM     71  O   UNL A   1      48.697  26.204  21.816  1.00  0.00    -0.237 OA
ATOM     72  O   UNL A   1      47.455  28.323  21.850  1.00  0.00    -0.744 OA
ENDBRANCH  66  69
ENDBRANCH  48  62
BRANCH  49  73
ATOM     73  C   UNL A   1      38.640  30.296  30.887  1.00  0.00     0.023 A 
ATOM     74  C   UNL A   1      38.504  30.052  32.268  1.00  0.00     0.012 A 
ATOM     75  C   UNL A   1      37.621  30.995  30.210  1.00  0.00     0.148 A 
ATOM     76  C   UNL A   1      37.370  30.481  32.959  1.00  0.00     0.002 A 
ATOM     77  C   UNL A   1      36.517  31.464  30.915  1.00  0.00     0.091 A 
ATOM     78  F   UNL A   1      37.761  31.204  28.893  1.00  0.00    -0.205 F 
ATOM     79  C   UNL A   1      36.383  31.196  32.287  1.00  0.00     0.022 A 
BRANCH  77  80
ATOM     80  S   UNL A   1      35.265  32.511  30.162  1.00  0.00     0.127 S 
ATOM     81  O   UNL A   1      34.331  32.703  31.268  1.00  0.00    -0.237 OA
ATOM     82  O   UNL A   1      36.041  33.696  29.795  1.00  0.00    -0.237 OA
ATOM     83  O   UNL A   1      34.756  31.754  29.025  1.00  0.00    -0.744 OA
ENDBRANCH  77  80
ENDBRANCH  49  73
BRANCH  61  84
ATOM     84  C   UNL A   1      44.680  33.481  29.362  1.00  0.00     0.023 A 
ATOM     85  C   UNL A   1      45.407  33.677  30.552  1.00  0.00     0.012 A 
ATOM     86  C   UNL A   1      44.588  34.528  28.423  1.00  0.00     0.148 A 
ATOM     87  C   UNL A   1      46.023  34.901  30.811  1.00  0.00     0.002 A 
ATOM     88  C   UNL A   1      45.242  35.730  28.669  1.00  0.00     0.091 A 
ATOM     89  F   UNL A   1      43.876  34.325  27.306  1.00  0.00    -0.205 F 
ATOM     90  C   UNL A   1      45.954  35.921  29.864  1.00  0.00     0.022 A 
BRANCH  88  91
ATOM     91  S   UNL A   1      45.289  37.061  27.462  1.00  0.00     0.127 S 
ATOM     92  O   UNL A   1      46.060  38.080  28.172  1.00  0.00    -0.237 OA
ATOM     93  O   UNL A   1      45.990  36.439  26.338  1.00  0.00    -0.237 OA
ATOM     94  O   UNL A   1      43.899  37.402  27.189  1.00  0.00    -0.744 OA
ENDBRANCH  88  91
ENDBRANCH  61  84
ENDBRANCH  35  36
ENDBRANCH  27  30
ENDBRANCH  25  26
ENDBRANCH   1  25
TORSDOF 15
ENDMDL
MODEL 3
REMARK VINA RESULT:     -13.0      1.389      1.689
REMARK SMILES Cc1cc(Cl)c(C)c2c1O[C@H](C(F)(F)F)C(C(=O)NCCCCNC(=O)c1ccc(-c3c4nc(c(-c5cccc(S(=O)(=O)[O-])c5F)c5ccc([nH]5)c(-c5cccc(S(=O)(=O)[O-])c5F)c5nc(c(-c6cccc(S(=O)(=O)[O-])c6F)c6ccc3[nH]6)C=C5)C=C4)cc1)=C2
REMARK SMILES IDX 22 1 21 2 20 3 19 4 17 5 18 6 16 8 1 9 2 10 3 11 9 12 4 13
REMARK SMILES IDX 8 14 10 15 5 16 6 17 90 18 11 19 7 20 12 21 13 22 14 23
REMARK SMILES IDX 15 24 23 25 24 26 25 27 26 29 27 30 28 31 89 32 29 33 88 34
REMARK SMILES IDX 30 35 31 36 32 37 82 38 33 39 87 40 81 41 83 42 34 43 86 44
REMARK SMILES IDX 80 45 79 46 35 48 67 49 47 50 66 51 48 52 51 53 65 54 84 55
REMARK SMILES IDX 49 56 50 57 64 59 85 60 52 61 36 62 37 63 45 64 38 65 40 66
REMARK SMILES IDX 46 67 39 68 41 69 42 70 43 71 44 72 68 73 69 74 77 75 70 76
REMARK SMILES IDX 72 77 78 78 71 79 73 80 74 81 75 82 76 83 53 84 54 85 62 86
REMARK SMILES IDX 55 87 57 88 63 89 56 90 58 91 59 92 60 93 61 94
REMARK H PARENT 19 7 24 28 83 47 51 58
REMARK Flexibility Score: inf
ROOT
ATOM      1  C   UNL A   1      32.030  28.650  25.027  1.00  0.00     0.023 C 
ENDROOT
BRANCH   1   2
ATOM      2  C   UNL A   1      31.538  28.917  23.602  1.00  0.00     0.023 C 
BRANCH   2   3
ATOM      3  C   UNL A   1      30.912  27.704  22.919  1.00  0.00     0.116 C 
BRANCH   3   4
ATOM      4  N   UNL A   1      31.820  27.085  21.970  1.00  0.00    -0.352 N 
ATOM      5  C   UNL A   1      32.688  26.047  21.964  1.00  0.00     0.251 C 
ATOM      6  O   UNL A   1      33.279  25.859  20.897  1.00  0.00    -0.270 OA
ATOM      7  H   UNL A   1      31.798  27.543  21.099  1.00  0.00     0.163 HD
BRANCH   5   8
ATOM      8  C   UNL A   1      32.963  25.144  23.122  1.00  0.00     0.067 C 
ATOM      9  C   UNL A   1      33.077  22.643  27.608  1.00  0.00     0.048 C 
ATOM     10  C   UNL A   1      33.999  22.760  26.427  1.00  0.00    -0.007 A 
ATOM     11  C   UNL A   1      35.159  21.982  26.379  1.00  0.00     0.028 A 
ATOM     12  C   UNL A   1      33.698  23.578  25.332  1.00  0.00     0.131 A 
ATOM     13  C   UNL A   1      36.019  22.043  25.277  1.00  0.00     0.045 A 
ATOM     14  C   UNL A   1      34.556  23.660  24.221  1.00  0.00     0.022 A 
ATOM     15  O   UNL A   1      32.556  24.326  25.427  1.00  0.00    -0.475 OA
ATOM     16  Cl  UNL A   1      37.431  21.043  25.350  1.00  0.00    -0.084 Cl
ATOM     17  C   UNL A   1      35.737  22.878  24.180  1.00  0.00    -0.021 A 
ATOM     18  C   UNL A   1      34.193  24.598  23.153  1.00  0.00     0.026 C 
ATOM     19  C   UNL A   1      31.969  24.797  24.186  1.00  0.00     0.314 C 
ATOM     20  C   UNL A   1      36.655  22.957  22.986  1.00  0.00     0.047 C 
BRANCH  19  21
ATOM     21  C   UNL A   1      30.907  23.790  23.709  1.00  0.00     0.429 C 
ATOM     22  F   UNL A   1      29.863  24.441  23.136  1.00  0.00    -0.167 F 
ATOM     23  F   UNL A   1      31.382  22.932  22.777  1.00  0.00    -0.167 F 
ATOM     24  F   UNL A   1      30.407  23.041  24.718  1.00  0.00    -0.167 F 
ENDBRANCH  19  21
ENDBRANCH   5   8
ENDBRANCH   3   4
ENDBRANCH   2   3
ENDBRANCH   1   2
BRANCH   1  25
ATOM     25  C   UNL A   1      33.160  29.556  25.514  1.00  0.00     0.116 C 
BRANCH  25  26
ATOM     26  N   UNL A   1      32.698  30.769  26.177  1.00  0.00    -0.352 N 
ATOM     27  C   UNL A   1      33.322  31.472  27.180  1.00  0.00     0.251 C 
ATOM     28  H   UNL A   1      31.835  31.128  25.870  1.00  0.00     0.163 HD
ATOM     29  O   UNL A   1      32.780  32.443  27.698  1.00  0.00    -0.269 OA
BRANCH  27  30
ATOM     30  C   UNL A   1      34.641  31.006  27.650  1.00  0.00     0.039 A 
ATOM     31  C   UNL A   1      35.671  31.937  27.797  1.00  0.00     0.014 A 
ATOM     32  C   UNL A   1      34.820  29.671  28.024  1.00  0.00     0.014 A 
ATOM     33  C   UNL A   1      36.867  31.543  28.395  1.00  0.00     0.010 A 
ATOM     34  C   UNL A   1      35.990  29.296  28.675  1.00  0.00     0.010 A 
ATOM     35  C   UNL A   1      37.020  30.230  28.871  1.00  0.00    -0.014 A 
BRANCH  35  36
ATOM     36  C   UNL A   1      38.244  29.816  29.597  1.00  0.00     0.031 A 
ATOM     37  C   UNL A   1      38.541  30.384  30.955  1.00  0.00     0.074 A 
ATOM     38  C   UNL A   1      39.124  28.990  28.998  1.00  0.00     0.049 A 
ATOM     39  N   UNL A   1      39.573  30.172  31.726  1.00  0.00    -0.248 NA
ATOM     40  C   UNL A   1      37.561  31.334  31.508  1.00  0.00     0.031 C 
ATOM     41  C   UNL A   1      38.978  28.434  27.651  1.00  0.00     0.029 A 
ATOM     42  N   UNL A   1      40.322  28.485  29.436  1.00  0.00    -0.354 N 
ATOM     43  C   UNL A   1      39.382  30.975  32.843  1.00  0.00     0.074 A 
ATOM     44  C   UNL A   1      38.156  31.712  32.631  1.00  0.00     0.031 C 
ATOM     45  C   UNL A   1      40.034  27.651  27.381  1.00  0.00     0.029 A 
ATOM     46  C   UNL A   1      40.943  27.664  28.523  1.00  0.00     0.049 A 
ATOM     47  H   UNL A   1      40.702  28.690  30.321  1.00  0.00     0.167 HD
ATOM     48  C   UNL A   1      40.135  31.058  33.964  1.00  0.00     0.034 A 
ATOM     49  C   UNL A   1      42.108  26.990  28.605  1.00  0.00     0.034 A 
ATOM     50  C   UNL A   1      41.324  30.284  34.191  1.00  0.00     0.049 A 
ATOM     51  C   UNL A   1      42.911  27.075  29.875  1.00  0.00     0.074 A 
ATOM     52  C   UNL A   1      42.118  30.242  35.323  1.00  0.00     0.029 A 
ATOM     53  N   UNL A   1      41.888  29.414  33.272  1.00  0.00    -0.354 N 
ATOM     54  N   UNL A   1      42.638  27.726  30.980  1.00  0.00    -0.248 NA
ATOM     55  C   UNL A   1      44.166  26.309  29.924  1.00  0.00     0.031 C 
ATOM     56  C   UNL A   1      43.166  29.346  35.086  1.00  0.00     0.029 A 
ATOM     57  C   UNL A   1      43.021  28.828  33.808  1.00  0.00     0.049 A 
ATOM     58  H   UNL A   1      41.535  29.238  32.369  1.00  0.00     0.167 HD
ATOM     59  C   UNL A   1      43.669  27.430  31.864  1.00  0.00     0.074 A 
ATOM     60  C   UNL A   1      44.562  26.521  31.172  1.00  0.00     0.031 C 
ATOM     61  C   UNL A   1      43.869  27.884  33.125  1.00  0.00     0.034 A 
BRANCH  48  62
ATOM     62  C   UNL A   1      39.644  31.955  35.067  1.00  0.00     0.023 A 
ATOM     63  C   UNL A   1      39.894  33.340  34.981  1.00  0.00     0.012 A 
ATOM     64  C   UNL A   1      38.896  31.453  36.147  1.00  0.00     0.148 A 
ATOM     65  C   UNL A   1      39.432  34.209  35.968  1.00  0.00     0.002 A 
ATOM     66  C   UNL A   1      38.405  32.330  37.108  1.00  0.00     0.091 A 
ATOM     67  F   UNL A   1      38.689  30.130  36.225  1.00  0.00    -0.205 F 
ATOM     68  C   UNL A   1      38.679  33.705  37.025  1.00  0.00     0.022 A 
BRANCH  66  69
ATOM     69  S   UNL A   1      37.366  31.790  38.470  1.00  0.00     0.127 S 
ATOM     70  O   UNL A   1      38.247  32.007  39.617  1.00  0.00    -0.237 OA
ATOM     71  O   UNL A   1      36.237  32.718  38.386  1.00  0.00    -0.237 OA
ATOM     72  O   UNL A   1      37.030  30.401  38.189  1.00  0.00    -0.744 OA
ENDBRANCH  66  69
ENDBRANCH  48  62
BRANCH  49  73
ATOM     73  C   UNL A   1      42.519  26.092  27.489  1.00  0.00     0.023 A 
ATOM     74  C   UNL A   1      43.445  26.569  26.540  1.00  0.00     0.012 A 
ATOM     75  C   UNL A   1      42.059  24.764  27.392  1.00  0.00     0.148 A 
ATOM     76  C   UNL A   1      43.895  25.746  25.507  1.00  0.00     0.002 A 
ATOM     77  C   UNL A   1      42.549  23.933  26.390  1.00  0.00     0.091 A 
ATOM     78  F   UNL A   1      41.166  24.335  28.295  1.00  0.00    -0.205 F 
ATOM     79  C   UNL A   1      43.456  24.426  25.438  1.00  0.00     0.022 A 
BRANCH  77  80
ATOM     80  S   UNL A   1      42.147  22.184  26.305  1.00  0.00     0.127 S 
ATOM     81  O   UNL A   1      42.896  21.762  25.125  1.00  0.00    -0.237 OA
ATOM     82  O   UNL A   1      42.671  21.690  27.579  1.00  0.00    -0.237 OA
ATOM     83  O   UNL A   1      40.695  22.122  26.192  1.00  0.00    -0.744 OA
ENDBRANCH  77  80
ENDBRANCH  49  73
BRANCH  61  84
ATOM     84  C   UNL A   1      45.097  27.415  33.857  1.00  0.00     0.023 A 
ATOM     85  C   UNL A   1      46.262  28.207  33.825  1.00  0.00     0.012 A 
ATOM     86  C   UNL A   1      45.061  26.266  34.672  1.00  0.00     0.148 A 
ATOM     87  C   UNL A   1      47.377  27.855  34.583  1.00  0.00     0.002 A 
ATOM     88  C   UNL A   1      46.163  25.946  35.458  1.00  0.00     0.091 A 
ATOM     89  F   UNL A   1      43.950  25.517  34.672  1.00  0.00    -0.205 F 
ATOM     90  C   UNL A   1      47.323  26.735  35.410  1.00  0.00     0.022 A 
BRANCH  88  91
ATOM     91  S   UNL A   1      46.144  24.580  36.625  1.00  0.00     0.127 S 
ATOM     92  O   UNL A   1      47.477  24.676  37.217  1.00  0.00    -0.237 OA
ATOM     93  O   UNL A   1      45.049  24.951  37.523  1.00  0.00    -0.237 OA
ATOM     94  O   UNL A   1      45.893  23.382  35.835  1.00  0.00    -0.744 OA
ENDBRANCH  88  91
ENDBRANCH  61  84
ENDBRANCH  35  36
ENDBRANCH  27  30
ENDBRANCH  25  26
ENDBRANCH   1  25
TORSDOF 15
ENDMDL
