MODEL 1
REMARK VINA RESULT:     -13.0      0.000      0.000
REMARK SMILES Cc1cccc(NS(=O)(=O)c2ccc(Br)c(C(=O)NCCCCNC(=O)c3ccc(-c4c5nc(c(-c6cccc(S(=O)(=O)[O-])c6F)c6ccc([nH]6)c(-c6cccc(S(=O)(=O)[O-])c6F)c6nc(c(-c7cccc(S(=O)(=O)[O-])c7F)c7ccc4[nH]7)C=C6)C=C5)cc3)c2)c1
REMARK SMILES IDX 21 1 20 2 19 3 17 4 18 5 16 7 11 8 12 9 90 10 13 11 14 12
REMARK SMILES IDX 15 13 8 14 9 15 10 16 7 17 6 19 1 20 2 21 3 22 91 23 4 24
REMARK SMILES IDX 5 25 22 26 23 27 24 28 25 29 26 31 27 32 28 33 89 34 29 35
REMARK SMILES IDX 88 36 30 37 31 38 32 39 82 40 33 41 87 42 81 43 83 44 34 45
REMARK SMILES IDX 86 46 80 47 79 48 35 50 67 51 47 52 66 53 48 54 51 55 65 56
REMARK SMILES IDX 84 57 49 58 50 59 64 61 85 62 52 63 36 64 37 65 45 66 38 67
REMARK SMILES IDX 40 68 46 69 39 70 41 71 42 72 43 73 44 74 68 75 69 76 77 77
REMARK SMILES IDX 70 78 72 79 78 80 71 81 73 82 74 83 75 84 76 85 53 86 54 87
REMARK SMILES IDX 62 88 55 89 57 90 63 91 56 92 58 93 59 94 60 95 61 96
REMARK H PARENT 19 6 7 18 24 30 83 49 51 60
REMARK Flexibility Score: inf
ROOT
ATOM      1  C   UNL A   1      33.217  28.287  25.833  1.00  0.00     0.023 C 
ENDROOT
BRANCH   1   2
ATOM      2  C   UNL A   1      32.392  28.088  24.565  1.00  0.00     0.116 C 
BRANCH   2   3
ATOM      3  N   UNL A   1      33.089  27.655  23.357  1.00  0.00    -0.352 N 
ATOM      4  C   UNL A   1      33.459  26.392  22.920  1.00  0.00     0.252 C 
ATOM      5  O   UNL A   1      33.918  26.268  21.786  1.00  0.00    -0.269 OA
ATOM      6  H   UNL A   1      33.341  28.387  22.748  1.00  0.00     0.163 HD
BRANCH   4   7
ATOM      7  C   UNL A   1      33.490  25.217  23.836  1.00  0.00     0.055 A 
ATOM      8  C   UNL A   1      34.877  23.700  25.117  1.00  0.00     0.088 A 
ATOM      9  C   UNL A   1      33.977  23.787  26.171  1.00  0.00     0.023 A 
ATOM     10  C   UNL A   1      34.698  24.524  23.994  1.00  0.00     0.037 A 
ATOM     11  C   UNL A   1      32.700  24.269  25.893  1.00  0.00     0.018 A 
ATOM     12  C   UNL A   1      32.433  24.825  24.644  1.00  0.00     0.030 A 
ATOM     13  Br  UNL A   1      30.653  24.679  23.968  1.00  0.00    -0.050 Br
BRANCH   8  14
ATOM     14  S   UNL A   1      36.143  22.455  25.079  1.00  0.00     0.261 S 
ATOM     15  O   UNL A   1      37.086  22.806  26.129  1.00  0.00    -0.201 OA
ATOM     16  O   UNL A   1      36.588  22.333  23.712  1.00  0.00    -0.201 OA
BRANCH  14  17
ATOM     17  N   UNL A   1      35.573  20.908  25.510  1.00  0.00    -0.280 N 
ATOM     18  H   UNL A   1      36.006  20.479  26.285  1.00  0.00     0.180 HD
BRANCH  17  19
ATOM     19  C   UNL A   1      34.532  20.161  24.866  1.00  0.00     0.049 A 
ATOM     20  C   UNL A   1      34.037  16.554  23.683  1.00  0.00     0.044 C 
ATOM     21  C   UNL A   1      33.772  17.989  24.033  1.00  0.00    -0.049 A 
ATOM     22  C   UNL A   1      32.524  18.547  23.751  1.00  0.00     0.003 A 
ATOM     23  C   UNL A   1      34.758  18.797  24.624  1.00  0.00     0.030 A 
ATOM     24  C   UNL A   1      32.342  19.922  23.870  1.00  0.00     0.002 A 
ATOM     25  C   UNL A   1      33.383  20.735  24.334  1.00  0.00     0.027 A 
ENDBRANCH  17  19
ENDBRANCH  14  17
ENDBRANCH   8  14
ENDBRANCH   4   7
ENDBRANCH   2   3
ENDBRANCH   1   2
BRANCH   1  26
ATOM     26  C   UNL A   1      33.806  29.664  26.069  1.00  0.00     0.023 C 
BRANCH  26  27
ATOM     27  C   UNL A   1      33.506  30.274  27.424  1.00  0.00     0.116 C 
BRANCH  27  28
ATOM     28  N   UNL A   1      34.339  31.383  27.832  1.00  0.00    -0.352 N 
ATOM     29  C   UNL A   1      35.493  31.338  28.606  1.00  0.00     0.251 C 
ATOM     30  H   UNL A   1      34.056  32.275  27.527  1.00  0.00     0.163 HD
ATOM     31  O   UNL A   1      35.857  32.367  29.168  1.00  0.00    -0.269 OA
BRANCH  29  32
ATOM     32  C   UNL A   1      36.340  30.107  28.632  1.00  0.00     0.039 A 
ATOM     33  C   UNL A   1      36.589  29.515  29.880  1.00  0.00     0.014 A 
ATOM     34  C   UNL A   1      37.099  29.713  27.537  1.00  0.00     0.014 A 
ATOM     35  C   UNL A   1      37.779  28.826  30.095  1.00  0.00     0.010 A 
ATOM     36  C   UNL A   1      38.307  29.115  27.748  1.00  0.00     0.010 A 
ATOM     37  C   UNL A   1      38.678  28.766  29.043  1.00  0.00    -0.014 A 
BRANCH  37  38
ATOM     38  C   UNL A   1      40.054  28.347  29.117  1.00  0.00     0.031 A 
ATOM     39  C   UNL A   1      40.350  26.933  28.838  1.00  0.00     0.074 A 
ATOM     40  C   UNL A   1      40.969  29.344  29.054  1.00  0.00     0.049 A 
ATOM     41  N   UNL A   1      41.439  26.343  29.178  1.00  0.00    -0.248 NA
ATOM     42  C   UNL A   1      39.413  26.059  28.127  1.00  0.00     0.031 C 
ATOM     43  C   UNL A   1      42.348  29.256  28.598  1.00  0.00     0.029 A 
ATOM     44  N   UNL A   1      40.850  30.693  29.421  1.00  0.00    -0.354 N 
ATOM     45  C   UNL A   1      41.489  25.168  28.454  1.00  0.00     0.074 A 
ATOM     46  C   UNL A   1      40.159  24.967  27.934  1.00  0.00     0.031 C 
ATOM     47  C   UNL A   1      43.003  30.364  28.990  1.00  0.00     0.029 A 
ATOM     48  C   UNL A   1      42.113  31.090  29.880  1.00  0.00     0.049 A 
ATOM     49  H   UNL A   1      40.040  31.251  29.367  1.00  0.00     0.167 HD
ATOM     50  C   UNL A   1      42.703  24.618  28.179  1.00  0.00     0.034 A 
ATOM     51  C   UNL A   1      42.378  31.363  31.197  1.00  0.00     0.034 A 
ATOM     52  C   UNL A   1      43.771  25.487  28.696  1.00  0.00     0.049 A 
ATOM     53  C   UNL A   1      43.340  30.351  31.818  1.00  0.00     0.074 A 
ATOM     54  C   UNL A   1      44.545  26.468  28.094  1.00  0.00     0.029 A 
ATOM     55  N   UNL A   1      43.888  25.688  30.066  1.00  0.00    -0.354 N 
ATOM     56  N   UNL A   1      43.750  29.268  31.213  1.00  0.00    -0.248 NA
ATOM     57  C   UNL A   1      43.917  30.469  33.155  1.00  0.00     0.031 C 
ATOM     58  C   UNL A   1      45.078  27.299  29.118  1.00  0.00     0.029 A 
ATOM     59  C   UNL A   1      44.649  26.817  30.342  1.00  0.00     0.049 A 
ATOM     60  H   UNL A   1      43.485  25.107  30.751  1.00  0.00     0.167 HD
ATOM     61  C   UNL A   1      44.502  28.495  32.059  1.00  0.00     0.074 A 
ATOM     62  C   UNL A   1      44.644  29.339  33.236  1.00  0.00     0.031 C 
ATOM     63  C   UNL A   1      44.888  27.219  31.728  1.00  0.00     0.034 A 
BRANCH  50  64
ATOM     64  C   UNL A   1      42.938  23.526  27.151  1.00  0.00     0.023 A 
ATOM     65  C   UNL A   1      43.635  23.888  25.975  1.00  0.00     0.012 A 
ATOM     66  C   UNL A   1      42.527  22.174  27.241  1.00  0.00     0.148 A 
ATOM     67  C   UNL A   1      43.849  23.000  24.919  1.00  0.00     0.002 A 
ATOM     68  C   UNL A   1      42.696  21.296  26.161  1.00  0.00     0.091 A 
ATOM     69  F   UNL A   1      42.027  21.711  28.393  1.00  0.00    -0.205 F 
ATOM     70  C   UNL A   1      43.357  21.710  25.000  1.00  0.00     0.022 A 
BRANCH  68  71
ATOM     71  S   UNL A   1      42.034  19.619  26.143  1.00  0.00     0.127 S 
ATOM     72  O   UNL A   1      42.472  19.098  27.441  1.00  0.00    -0.237 OA
ATOM     73  O   UNL A   1      40.595  19.847  26.039  1.00  0.00    -0.237 OA
ATOM     74  O   UNL A   1      42.654  18.955  25.002  1.00  0.00    -0.744 OA
ENDBRANCH  68  71
ENDBRANCH  50  64
BRANCH  51  75
ATOM     75  C   UNL A   1      41.244  32.043  31.896  1.00  0.00     0.023 A 
ATOM     76  C   UNL A   1      40.849  33.302  31.374  1.00  0.00     0.012 A 
ATOM     77  C   UNL A   1      40.335  31.324  32.689  1.00  0.00     0.148 A 
ATOM     78  C   UNL A   1      39.527  33.735  31.471  1.00  0.00     0.002 A 
ATOM     79  C   UNL A   1      39.014  31.760  32.777  1.00  0.00     0.091 A 
ATOM     80  F   UNL A   1      40.751  30.198  33.281  1.00  0.00    -0.205 F 
ATOM     81  C   UNL A   1      38.599  32.937  32.128  1.00  0.00     0.022 A 
BRANCH  79  82
ATOM     82  S   UNL A   1      37.738  30.777  33.575  1.00  0.00     0.127 S 
ATOM     83  O   UNL A   1      38.225  29.420  33.345  1.00  0.00    -0.237 OA
ATOM     84  O   UNL A   1      37.825  31.227  34.961  1.00  0.00    -0.237 OA
ATOM     85  O   UNL A   1      36.500  31.141  32.900  1.00  0.00    -0.744 OA
ENDBRANCH  79  82
ENDBRANCH  51  75
BRANCH  63  86
ATOM     86  C   UNL A   1      45.531  26.202  32.667  1.00  0.00     0.023 A 
ATOM     87  C   UNL A   1      46.921  26.120  32.861  1.00  0.00     0.012 A 
ATOM     88  C   UNL A   1      44.733  25.364  33.497  1.00  0.00     0.148 A 
ATOM     89  C   UNL A   1      47.494  25.217  33.763  1.00  0.00     0.002 A 
ATOM     90  C   UNL A   1      45.302  24.577  34.493  1.00  0.00     0.091 A 
ATOM     91  F   UNL A   1      43.409  25.289  33.309  1.00  0.00    -0.205 F 
ATOM     92  C   UNL A   1      46.686  24.465  34.601  1.00  0.00     0.022 A 
BRANCH  90  93
ATOM     93  S   UNL A   1      44.291  23.815  35.770  1.00  0.00     0.127 S 
ATOM     94  O   UNL A   1      45.193  22.796  36.302  1.00  0.00    -0.237 OA
ATOM     95  O   UNL A   1      44.039  24.938  36.676  1.00  0.00    -0.237 OA
ATOM     96  O   UNL A   1      43.104  23.328  35.082  1.00  0.00    -0.744 OA
ENDBRANCH  90  93
ENDBRANCH  63  86
ENDBRANCH  37  38
ENDBRANCH  29  32
ENDBRANCH  27  28
ENDBRANCH  26  27
ENDBRANCH   1  26
TORSDOF 17
ENDMDL
MODEL 2
REMARK VINA RESULT:     -12.9      4.012      9.610
REMARK SMILES Cc1cccc(NS(=O)(=O)c2ccc(Br)c(C(=O)NCCCCNC(=O)c3ccc(-c4c5nc(c(-c6cccc(S(=O)(=O)[O-])c6F)c6ccc([nH]6)c(-c6cccc(S(=O)(=O)[O-])c6F)c6nc(c(-c7cccc(S(=O)(=O)[O-])c7F)c7ccc4[nH]7)C=C6)C=C5)cc3)c2)c1
REMARK SMILES IDX 21 1 20 2 19 3 17 4 18 5 16 7 11 8 12 9 90 10 13 11 14 12
REMARK SMILES IDX 15 13 8 14 9 15 10 16 7 17 6 19 1 20 2 21 3 22 91 23 4 24
REMARK SMILES IDX 5 25 22 26 23 27 24 28 25 29 26 31 27 32 28 33 89 34 29 35
REMARK SMILES IDX 88 36 30 37 31 38 32 39 82 40 33 41 87 42 81 43 83 44 34 45
REMARK SMILES IDX 86 46 80 47 79 48 35 50 67 51 47 52 66 53 48 54 51 55 65 56
REMARK SMILES IDX 84 57 49 58 50 59 64 61 85 62 52 63 36 64 37 65 45 66 38 67
REMARK SMILES IDX 40 68 46 69 39 70 41 71 42 72 43 73 44 74 68 75 69 76 77 77
REMARK SMILES IDX 70 78 72 79 78 80 71 81 73 82 74 83 75 84 76 85 53 86 54 87
REMARK SMILES IDX 62 88 55 89 57 90 63 91 56 92 58 93 59 94 60 95 61 96
REMARK H PARENT 19 6 7 18 24 30 83 49 51 60
REMARK Flexibility Score: inf
ROOT
ATOM      1  C   UNL A   1      36.206  20.979  25.039  1.00  0.00     0.023 C 
ENDROOT
BRANCH   1   2
ATOM      2  C   UNL A   1      35.486  22.318  25.168  1.00  0.00     0.116 C 
BRANCH   2   3
ATOM      3  N   UNL A   1      34.527  22.476  26.257  1.00  0.00    -0.352 N 
ATOM      4  C   UNL A   1      33.385  23.255  26.362  1.00  0.00     0.252 C 
ATOM      5  O   UNL A   1      32.654  23.108  27.339  1.00  0.00    -0.269 OA
ATOM      6  H   UNL A   1      34.726  21.935  27.056  1.00  0.00     0.163 HD
BRANCH   4   7
ATOM      7  C   UNL A   1      33.112  24.385  25.430  1.00  0.00     0.055 A 
ATOM      8  C   UNL A   1      33.279  26.773  25.058  1.00  0.00     0.088 A 
ATOM      9  C   UNL A   1      33.678  26.530  23.751  1.00  0.00     0.023 A 
ATOM     10  C   UNL A   1      33.125  25.692  25.940  1.00  0.00     0.037 A 
ATOM     11  C   UNL A   1      33.418  25.267  23.220  1.00  0.00     0.018 A 
ATOM     12  C   UNL A   1      32.965  24.251  24.057  1.00  0.00     0.030 A 
ATOM     13  Br  UNL A   1      31.842  22.907  23.295  1.00  0.00    -0.050 Br
BRANCH   8  14
ATOM     14  S   UNL A   1      32.797  28.396  25.593  1.00  0.00     0.261 S 
ATOM     15  O   UNL A   1      34.030  29.108  25.888  1.00  0.00    -0.201 OA
ATOM     16  O   UNL A   1      31.789  28.233  26.613  1.00  0.00    -0.201 OA
BRANCH  14  17
ATOM     17  N   UNL A   1      32.052  29.312  24.364  1.00  0.00    -0.280 N 
ATOM     18  H   UNL A   1      32.610  29.997  23.925  1.00  0.00     0.180 HD
BRANCH  17  19
ATOM     19  C   UNL A   1      30.700  29.195  23.898  1.00  0.00     0.049 A 
ATOM     20  C   UNL A   1      27.725  31.554  23.416  1.00  0.00     0.044 C 
ATOM     21  C   UNL A   1      28.599  30.335  23.377  1.00  0.00    -0.049 A 
ATOM     22  C   UNL A   1      28.090  29.139  22.868  1.00  0.00     0.003 A 
ATOM     23  C   UNL A   1      29.919  30.361  23.857  1.00  0.00     0.030 A 
ATOM     24  C   UNL A   1      28.814  27.960  23.027  1.00  0.00     0.002 A 
ATOM     25  C   UNL A   1      30.076  27.982  23.633  1.00  0.00     0.027 A 
ENDBRANCH  17  19
ENDBRANCH  14  17
ENDBRANCH   8  14
ENDBRANCH   4   7
ENDBRANCH   2   3
ENDBRANCH   1   2
BRANCH   1  26
ATOM     26  C   UNL A   1      37.715  20.983  25.188  1.00  0.00     0.023 C 
BRANCH  26  27
ATOM     27  C   UNL A   1      38.305  22.249  25.778  1.00  0.00     0.116 C 
BRANCH  27  28
ATOM     28  N   UNL A   1      39.673  22.170  26.241  1.00  0.00    -0.352 N 
ATOM     29  C   UNL A   1      40.572  23.215  26.413  1.00  0.00     0.251 C 
ATOM     30  H   UNL A   1      40.006  21.270  26.459  1.00  0.00     0.163 HD
ATOM     31  O   UNL A   1      41.771  22.952  26.442  1.00  0.00    -0.269 OA
BRANCH  29  32
ATOM     32  C   UNL A   1      40.082  24.598  26.699  1.00  0.00     0.039 A 
ATOM     33  C   UNL A   1      40.682  25.658  26.002  1.00  0.00     0.014 A 
ATOM     34  C   UNL A   1      39.285  24.882  27.801  1.00  0.00     0.014 A 
ATOM     35  C   UNL A   1      40.772  26.914  26.595  1.00  0.00     0.010 A 
ATOM     36  C   UNL A   1      39.434  26.081  28.435  1.00  0.00     0.010 A 
ATOM     37  C   UNL A   1      40.258  27.051  27.874  1.00  0.00    -0.014 A 
BRANCH  37  38
ATOM     38  C   UNL A   1      40.473  28.161  28.767  1.00  0.00     0.031 A 
ATOM     39  C   UNL A   1      39.525  29.284  28.697  1.00  0.00     0.074 A 
ATOM     40  C   UNL A   1      41.274  27.905  29.829  1.00  0.00     0.049 A 
ATOM     41  N   UNL A   1      39.758  30.455  29.167  1.00  0.00    -0.248 NA
ATOM     42  C   UNL A   1      38.203  29.159  28.077  1.00  0.00     0.031 C 
ATOM     43  C   UNL A   1      41.281  28.578  31.118  1.00  0.00     0.029 A 
ATOM     44  N   UNL A   1      42.303  26.961  29.968  1.00  0.00    -0.354 N 
ATOM     45  C   UNL A   1      38.540  31.103  29.225  1.00  0.00     0.074 A 
ATOM     46  C   UNL A   1      37.639  30.323  28.413  1.00  0.00     0.031 C 
ATOM     47  C   UNL A   1      42.415  28.257  31.767  1.00  0.00     0.029 A 
ATOM     48  C   UNL A   1      43.252  27.534  30.824  1.00  0.00     0.049 A 
ATOM     49  H   UNL A   1      42.349  26.071  29.547  1.00  0.00     0.167 HD
ATOM     50  C   UNL A   1      38.367  32.095  30.141  1.00  0.00     0.034 A 
ATOM     51  C   UNL A   1      44.487  27.950  30.400  1.00  0.00     0.034 A 
ATOM     52  C   UNL A   1      39.578  32.228  30.965  1.00  0.00     0.049 A 
ATOM     53  C   UNL A   1      44.651  29.467  30.484  1.00  0.00     0.074 A 
ATOM     54  C   UNL A   1      39.919  31.711  32.206  1.00  0.00     0.029 A 
ATOM     55  N   UNL A   1      40.768  32.633  30.374  1.00  0.00    -0.354 N 
ATOM     56  N   UNL A   1      43.682  30.290  30.785  1.00  0.00    -0.248 NA
ATOM     57  C   UNL A   1      45.903  30.180  30.241  1.00  0.00     0.031 C 
ATOM     58  C   UNL A   1      41.335  31.755  32.328  1.00  0.00     0.029 A 
ATOM     59  C   UNL A   1      41.857  32.313  31.174  1.00  0.00     0.049 A 
ATOM     60  H   UNL A   1      40.831  33.087  29.503  1.00  0.00     0.167 HD
ATOM     61  C   UNL A   1      44.094  31.591  30.661  1.00  0.00     0.074 A 
ATOM     62  C   UNL A   1      45.519  31.461  30.400  1.00  0.00     0.031 C 
ATOM     63  C   UNL A   1      43.213  32.643  30.733  1.00  0.00     0.034 A 
BRANCH  50  64
ATOM     64  C   UNL A   1      37.020  32.675  30.534  1.00  0.00     0.023 A 
ATOM     65  C   UNL A   1      36.569  32.419  31.850  1.00  0.00     0.012 A 
ATOM     66  C   UNL A   1      36.158  33.447  29.718  1.00  0.00     0.148 A 
ATOM     67  C   UNL A   1      35.317  32.829  32.313  1.00  0.00     0.002 A 
ATOM     68  C   UNL A   1      34.881  33.814  30.164  1.00  0.00     0.091 A 
ATOM     69  F   UNL A   1      36.591  33.884  28.529  1.00  0.00    -0.205 F 
ATOM     70  C   UNL A   1      34.460  33.504  31.462  1.00  0.00     0.022 A 
BRANCH  68  71
ATOM     71  S   UNL A   1      33.669  34.637  29.111  1.00  0.00     0.127 S 
ATOM     72  O   UNL A   1      32.599  34.955  30.060  1.00  0.00    -0.237 OA
ATOM     73  O   UNL A   1      34.410  35.798  28.624  1.00  0.00    -0.237 OA
ATOM     74  O   UNL A   1      33.288  33.659  28.099  1.00  0.00    -0.744 OA
ENDBRANCH  68  71
ENDBRANCH  50  64
BRANCH  51  75
ATOM     75  C   UNL A   1      45.081  27.057  29.357  1.00  0.00     0.023 A 
ATOM     76  C   UNL A   1      45.329  25.716  29.745  1.00  0.00     0.012 A 
ATOM     77  C   UNL A   1      44.974  27.356  27.989  1.00  0.00     0.148 A 
ATOM     78  C   UNL A   1      45.272  24.678  28.816  1.00  0.00     0.002 A 
ATOM     79  C   UNL A   1      44.912  26.314  27.066  1.00  0.00     0.091 A 
ATOM     80  F   UNL A   1      44.864  28.639  27.619  1.00  0.00    -0.205 F 
ATOM     81  C   UNL A   1      45.010  24.974  27.484  1.00  0.00     0.022 A 
BRANCH  79  82
ATOM     82  S   UNL A   1      44.542  26.599  25.330  1.00  0.00     0.127 S 
ATOM     83  O   UNL A   1      43.804  27.857  25.389  1.00  0.00    -0.237 OA
ATOM     84  O   UNL A   1      45.876  26.704  24.745  1.00  0.00    -0.237 OA
ATOM     85  O   UNL A   1      43.788  25.428  24.904  1.00  0.00    -0.744 OA
ENDBRANCH  79  82
ENDBRANCH  51  75
BRANCH  63  86
ATOM     86  C   UNL A   1      43.521  34.098  30.396  1.00  0.00     0.023 A 
ATOM     87  C   UNL A   1      43.922  35.035  31.365  1.00  0.00     0.012 A 
ATOM     88  C   UNL A   1      43.541  34.550  29.045  1.00  0.00     0.148 A 
ATOM     89  C   UNL A   1      44.251  36.354  31.034  1.00  0.00     0.002 A 
ATOM     90  C   UNL A   1      44.009  35.815  28.710  1.00  0.00     0.091 A 
ATOM     91  F   UNL A   1      43.071  33.768  28.064  1.00  0.00    -0.205 F 
ATOM     92  C   UNL A   1      44.323  36.739  29.705  1.00  0.00     0.022 A 
BRANCH  90  93
ATOM     93  S   UNL A   1      44.384  36.251  27.006  1.00  0.00     0.127 S 
ATOM     94  O   UNL A   1      44.721  37.668  27.123  1.00  0.00    -0.237 OA
ATOM     95  O   UNL A   1      45.521  35.377  26.707  1.00  0.00    -0.237 OA
ATOM     96  O   UNL A   1      43.178  35.935  26.254  1.00  0.00    -0.744 OA
ENDBRANCH  90  93
ENDBRANCH  63  86
ENDBRANCH  37  38
ENDBRANCH  29  32
ENDBRANCH  27  28
ENDBRANCH  26  27
ENDBRANCH   1  26
TORSDOF 17
ENDMDL
MODEL 3
REMARK VINA RESULT:     -12.8      3.929      9.492
REMARK SMILES Cc1cccc(NS(=O)(=O)c2ccc(Br)c(C(=O)NCCCCNC(=O)c3ccc(-c4c5nc(c(-c6cccc(S(=O)(=O)[O-])c6F)c6ccc([nH]6)c(-c6cccc(S(=O)(=O)[O-])c6F)c6nc(c(-c7cccc(S(=O)(=O)[O-])c7F)c7ccc4[nH]7)C=C6)C=C5)cc3)c2)c1
REMARK SMILES IDX 21 1 20 2 19 3 17 4 18 5 16 7 11 8 12 9 90 10 13 11 14 12
REMARK SMILES IDX 15 13 8 14 9 15 10 16 7 17 6 19 1 20 2 21 3 22 91 23 4 24
REMARK SMILES IDX 5 25 22 26 23 27 24 28 25 29 26 31 27 32 28 33 89 34 29 35
REMARK SMILES IDX 88 36 30 37 31 38 32 39 82 40 33 41 87 42 81 43 83 44 34 45
REMARK SMILES IDX 86 46 80 47 79 48 35 50 67 51 47 52 66 53 48 54 51 55 65 56
REMARK SMILES IDX 84 57 49 58 50 59 64 61 85 62 52 63 36 64 37 65 45 66 38 67
REMARK SMILES IDX 40 68 46 69 39 70 41 71 42 72 43 73 44 74 68 75 69 76 77 77
REMARK SMILES IDX 70 78 72 79 78 80 71 81 73 82 74 83 75 84 76 85 53 86 54 87
REMARK SMILES IDX 62 88 55 89 57 90 63 91 56 92 58 93 59 94 60 95 61 96
REMARK H PARENT 19 6 7 18 24 30 83 49 51 60
REMARK Flexibility Score: inf
ROOT
ATOM      1  C   UNL A   1      35.932  21.512  25.744  1.00  0.00     0.023 C 
ENDROOT
BRANCH   1   2
ATOM      2  C   UNL A   1      35.647  22.935  26.217  1.00  0.00     0.116 C 
BRANCH   2   3
ATOM      3  N   UNL A   1      34.395  23.180  26.927  1.00  0.00    -0.352 N 
ATOM      4  C   UNL A   1      33.087  23.250  26.473  1.00  0.00     0.252 C 
ATOM      5  O   UNL A   1      32.177  23.328  27.296  1.00  0.00    -0.269 OA
ATOM      6  H   UNL A   1      34.498  23.321  27.896  1.00  0.00     0.163 HD
BRANCH   4   7
ATOM      7  C   UNL A   1      32.760  23.417  25.028  1.00  0.00     0.055 A 
ATOM      8  C   UNL A   1      32.427  24.980  23.208  1.00  0.00     0.088 A 
ATOM      9  C   UNL A   1      33.146  24.138  22.370  1.00  0.00     0.023 A 
ATOM     10  C   UNL A   1      32.348  24.679  24.577  1.00  0.00     0.037 A 
ATOM     11  C   UNL A   1      33.318  22.815  22.774  1.00  0.00     0.018 A 
ATOM     12  C   UNL A   1      32.950  22.439  24.064  1.00  0.00     0.030 A 
ATOM     13  Br  UNL A   1      32.374  20.638  24.333  1.00  0.00    -0.050 Br
BRANCH   8  14
ATOM     14  S   UNL A   1      31.466  26.327  22.565  1.00  0.00     0.261 S 
ATOM     15  O   UNL A   1      30.254  26.378  23.366  1.00  0.00    -0.201 OA
ATOM     16  O   UNL A   1      31.385  26.155  21.134  1.00  0.00    -0.201 OA
BRANCH  14  17
ATOM     17  N   UNL A   1      32.202  27.846  22.798  1.00  0.00    -0.280 N 
ATOM     18  H   UNL A   1      32.643  28.247  22.013  1.00  0.00     0.180 HD
BRANCH  17  19
ATOM     19  C   UNL A   1      32.251  28.604  24.014  1.00  0.00     0.049 A 
ATOM     20  C   UNL A   1      34.552  28.795  27.067  1.00  0.00     0.044 C 
ATOM     21  C   UNL A   1      33.463  29.101  26.081  1.00  0.00    -0.049 A 
ATOM     22  C   UNL A   1      32.553  30.123  26.355  1.00  0.00     0.003 A 
ATOM     23  C   UNL A   1      33.324  28.371  24.889  1.00  0.00     0.030 A 
ATOM     24  C   UNL A   1      31.420  30.269  25.559  1.00  0.00     0.002 A 
ATOM     25  C   UNL A   1      31.227  29.439  24.447  1.00  0.00     0.027 A 
ENDBRANCH  17  19
ENDBRANCH  14  17
ENDBRANCH   8  14
ENDBRANCH   4   7
ENDBRANCH   2   3
ENDBRANCH   1   2
BRANCH   1  26
ATOM     26  C   UNL A   1      37.341  21.204  25.279  1.00  0.00     0.023 C 
BRANCH  26  27
ATOM     27  C   UNL A   1      38.313  22.366  25.337  1.00  0.00     0.116 C 
BRANCH  27  28
ATOM     28  N   UNL A   1      39.522  22.160  26.104  1.00  0.00    -0.352 N 
ATOM     29  C   UNL A   1      40.423  23.123  26.542  1.00  0.00     0.251 C 
ATOM     30  H   UNL A   1      39.731  21.228  26.343  1.00  0.00     0.163 HD
ATOM     31  O   UNL A   1      41.559  22.764  26.837  1.00  0.00    -0.269 OA
BRANCH  29  32
ATOM     32  C   UNL A   1      39.974  24.528  26.781  1.00  0.00     0.039 A 
ATOM     33  C   UNL A   1      40.636  25.550  26.084  1.00  0.00     0.014 A 
ATOM     34  C   UNL A   1      39.151  24.865  27.849  1.00  0.00     0.014 A 
ATOM     35  C   UNL A   1      40.751  26.815  26.653  1.00  0.00     0.010 A 
ATOM     36  C   UNL A   1      39.322  26.072  28.463  1.00  0.00     0.010 A 
ATOM     37  C   UNL A   1      40.199  26.999  27.910  1.00  0.00    -0.014 A 
BRANCH  37  38
ATOM     38  C   UNL A   1      40.424  28.120  28.787  1.00  0.00     0.031 A 
ATOM     39  C   UNL A   1      39.479  29.245  28.709  1.00  0.00     0.074 A 
ATOM     40  C   UNL A   1      41.233  27.876  29.847  1.00  0.00     0.049 A 
ATOM     41  N   UNL A   1      39.718  30.422  29.163  1.00  0.00    -0.248 NA
ATOM     42  C   UNL A   1      38.151  29.115  28.102  1.00  0.00     0.031 C 
ATOM     43  C   UNL A   1      41.251  28.566  31.127  1.00  0.00     0.029 A 
ATOM     44  N   UNL A   1      42.260  26.931  29.990  1.00  0.00    -0.354 N 
ATOM     45  C   UNL A   1      38.502  31.073  29.221  1.00  0.00     0.074 A 
ATOM     46  C   UNL A   1      37.593  30.285  28.426  1.00  0.00     0.031 C 
ATOM     47  C   UNL A   1      42.389  28.250  31.770  1.00  0.00     0.029 A 
ATOM     48  C   UNL A   1      43.217  27.513  30.831  1.00  0.00     0.049 A 
ATOM     49  H   UNL A   1      42.300  26.036  29.580  1.00  0.00     0.167 HD
ATOM     50  C   UNL A   1      38.339  32.078  30.125  1.00  0.00     0.034 A 
ATOM     51  C   UNL A   1      44.450  27.919  30.392  1.00  0.00     0.034 A 
ATOM     52  C   UNL A   1      39.557  32.218  30.938  1.00  0.00     0.049 A 
ATOM     53  C   UNL A   1      44.619  29.437  30.455  1.00  0.00     0.074 A 
ATOM     54  C   UNL A   1      39.906  31.717  32.183  1.00  0.00     0.029 A 
ATOM     55  N   UNL A   1      40.744  32.612  30.332  1.00  0.00    -0.354 N 
ATOM     56  N   UNL A   1      43.654  30.267  30.753  1.00  0.00    -0.248 NA
ATOM     57  C   UNL A   1      45.871  30.144  30.193  1.00  0.00     0.031 C 
ATOM     58  C   UNL A   1      41.323  31.758  32.293  1.00  0.00     0.029 A 
ATOM     59  C   UNL A   1      41.837  32.300  31.128  1.00  0.00     0.049 A 
ATOM     60  H   UNL A   1      40.801  33.054  29.455  1.00  0.00     0.167 HD
ATOM     61  C   UNL A   1      44.068  31.565  30.608  1.00  0.00     0.074 A 
ATOM     62  C   UNL A   1      45.491  31.428  30.338  1.00  0.00     0.031 C 
ATOM     63  C   UNL A   1      43.191  32.620  30.673  1.00  0.00     0.034 A 
BRANCH  50  64
ATOM     64  C   UNL A   1      36.996  32.667  30.521  1.00  0.00     0.023 A 
ATOM     65  C   UNL A   1      36.556  32.431  31.844  1.00  0.00     0.012 A 
ATOM     66  C   UNL A   1      36.129  33.428  29.701  1.00  0.00     0.148 A 
ATOM     67  C   UNL A   1      35.308  32.850  32.311  1.00  0.00     0.002 A 
ATOM     68  C   UNL A   1      34.857  33.805  30.152  1.00  0.00     0.091 A 
ATOM     69  F   UNL A   1      36.553  33.847  28.502  1.00  0.00    -0.205 F 
ATOM     70  C   UNL A   1      34.446  33.515  31.457  1.00  0.00     0.022 A 
BRANCH  68  71
ATOM     71  S   UNL A   1      33.639  34.615  29.097  1.00  0.00     0.127 S 
ATOM     72  O   UNL A   1      32.585  34.965  30.053  1.00  0.00    -0.237 OA
ATOM     73  O   UNL A   1      34.383  35.757  28.573  1.00  0.00    -0.237 OA
ATOM     74  O   UNL A   1      33.234  33.618  28.113  1.00  0.00    -0.744 OA
ENDBRANCH  68  71
ENDBRANCH  50  64
BRANCH  51  75
ATOM     75  C   UNL A   1      45.034  27.012  29.356  1.00  0.00     0.023 A 
ATOM     76  C   UNL A   1      45.261  25.669  29.754  1.00  0.00     0.012 A 
ATOM     77  C   UNL A   1      44.935  27.303  27.986  1.00  0.00     0.148 A 
ATOM     78  C   UNL A   1      45.191  24.626  28.831  1.00  0.00     0.002 A 
ATOM     79  C   UNL A   1      44.860  26.256  27.069  1.00  0.00     0.091 A 
ATOM     80  F   UNL A   1      44.844  28.585  27.607  1.00  0.00    -0.205 F 
ATOM     81  C   UNL A   1      44.937  24.918  27.497  1.00  0.00     0.022 A 
BRANCH  79  82
ATOM     82  S   UNL A   1      44.498  26.535  25.332  1.00  0.00     0.127 S 
ATOM     83  O   UNL A   1      43.720  27.769  25.387  1.00  0.00    -0.237 OA
ATOM     84  O   UNL A   1      45.834  26.684  24.760  1.00  0.00    -0.237 OA
ATOM     85  O   UNL A   1      43.786  25.343  24.894  1.00  0.00    -0.744 OA
ENDBRANCH  79  82
ENDBRANCH  51  75
BRANCH  63  86
ATOM     86  C   UNL A   1      43.500  34.070  30.315  1.00  0.00     0.023 A 
ATOM     87  C   UNL A   1      43.880  35.026  31.273  1.00  0.00     0.012 A 
ATOM     88  C   UNL A   1      43.544  34.496  28.956  1.00  0.00     0.148 A 
ATOM     89  C   UNL A   1      44.210  36.340  30.923  1.00  0.00     0.002 A 
ATOM     90  C   UNL A   1      44.014  35.757  28.606  1.00  0.00     0.091 A 
ATOM     91  F   UNL A   1      43.094  33.695  27.980  1.00  0.00    -0.205 F 
ATOM     92  C   UNL A   1      44.306  36.700  29.589  1.00  0.00     0.022 A 
BRANCH  90  93
ATOM     93  S   UNL A   1      44.419  36.162  26.901  1.00  0.00     0.127 S 
ATOM     94  O   UNL A   1      43.144  35.933  26.225  1.00  0.00    -0.237 OA
ATOM     95  O   UNL A   1      44.810  37.569  27.002  1.00  0.00    -0.237 OA
ATOM     96  O   UNL A   1      45.509  35.266  26.542  1.00  0.00    -0.744 OA
ENDBRANCH  90  93
ENDBRANCH  63  86
ENDBRANCH  37  38
ENDBRANCH  29  32
ENDBRANCH  27  28
ENDBRANCH  26  27
ENDBRANCH   1  26
TORSDOF 17
ENDMDL
