MODEL 1
REMARK VINA RESULT:     -11.6      0.000      0.000
REMARK SMILES C[C@H](NC(=O)N1CC[C@@H](C(=O)NCCCCNC(=O)c2ccc(-c3c4nc(c(-c5cccc(S(=O)(=O)[O-])c5F)c5ccc([nH]5)c(-c5cccc(S(=O)(=O)[O-])c5F)c5nc(c(-c6cccc(S(=O)(=O)[O-])c6F)c6ccc3[nH]6)C=C5)C=C4)cc2)[C@H]1C)c1ccc(Cl)cc1
REMARK SMILES IDX 14 1 13 2 12 3 10 4 11 5 9 7 6 8 7 9 83 10 8 11 84 12 4 13
REMARK SMILES IDX 3 14 5 16 2 17 1 18 85 19 86 20 91 21 87 22 90 23 88 24
REMARK SMILES IDX 89 25 15 26 16 27 17 28 18 29 19 31 20 32 21 33 82 34 22 35
REMARK SMILES IDX 81 36 23 37 24 38 25 39 75 40 26 41 80 42 74 43 76 44 27 45
REMARK SMILES IDX 79 46 73 47 72 48 28 50 60 51 40 52 59 53 41 54 44 55 58 56
REMARK SMILES IDX 77 57 42 58 43 59 57 61 78 62 45 63 29 64 30 65 38 66 31 67
REMARK SMILES IDX 33 68 39 69 32 70 34 71 35 72 36 73 37 74 61 75 62 76 70 77
REMARK SMILES IDX 63 78 65 79 71 80 64 81 66 82 67 83 68 84 69 85 46 86 47 87
REMARK SMILES IDX 55 88 48 89 50 90 56 91 49 92 51 93 52 94 53 95 54 96
REMARK H PARENT 12 6 3 15 17 30 76 49 44 60
REMARK Flexibility Score: inf
ROOT
ATOM      1  C   UNL A   1      34.158  30.426  27.778  1.00  0.00     0.023 C 
ENDROOT
BRANCH   1   2
ATOM      2  C   UNL A   1      34.055  29.221  26.851  1.00  0.00     0.116 C 
BRANCH   2   3
ATOM      3  N   UNL A   1      32.836  28.462  27.046  1.00  0.00    -0.356 N 
ATOM      4  C   UNL A   1      32.022  27.827  26.164  1.00  0.00     0.225 C 
ATOM      5  O   UNL A   1      31.050  27.224  26.632  1.00  0.00    -0.275 OA
ATOM      6  H   UNL A   1      32.546  28.396  27.985  1.00  0.00     0.163 HD
BRANCH   4   7
ATOM      7  C   UNL A   1      32.235  27.835  24.655  1.00  0.00     0.102 C 
ATOM      8  N   UNL A   1      32.270  25.925  23.170  1.00  0.00    -0.321 N 
ATOM      9  C   UNL A   1      31.181  26.804  22.743  1.00  0.00     0.122 C 
ATOM     10  C   UNL A   1      33.131  26.737  24.051  1.00  0.00     0.096 C 
ATOM     11  C   UNL A   1      30.957  27.845  23.826  1.00  0.00     0.037 C 
ATOM     12  C   UNL A   1      33.967  25.969  25.061  1.00  0.00     0.032 C 
BRANCH   8  13
ATOM     13  C   UNL A   1      32.854  25.278  22.098  1.00  0.00     0.318 C 
ATOM     14  N   UNL A   1      32.850  23.931  22.018  1.00  0.00    -0.331 N 
ATOM     15  H   UNL A   1      32.819  23.624  21.084  1.00  0.00     0.165 HD
ATOM     16  O   UNL A   1      33.256  25.899  21.112  1.00  0.00    -0.249 OA
BRANCH  14  17
ATOM     17  C   UNL A   1      32.879  22.807  22.950  1.00  0.00     0.111 C 
ATOM     18  C   UNL A   1      32.185  21.532  22.521  1.00  0.00     0.036 C 
BRANCH  17  19
ATOM     19  C   UNL A   1      34.233  22.482  23.554  1.00  0.00    -0.026 A 
ATOM     20  C   UNL A   1      35.354  23.222  23.118  1.00  0.00     0.007 A 
ATOM     21  C   UNL A   1      34.396  21.584  24.613  1.00  0.00     0.007 A 
ATOM     22  C   UNL A   1      36.596  23.082  23.736  1.00  0.00     0.021 A 
ATOM     23  C   UNL A   1      35.645  21.440  25.231  1.00  0.00     0.021 A 
ATOM     24  C   UNL A   1      36.736  22.193  24.795  1.00  0.00     0.041 A 
ATOM     25  Cl  UNL A   1      38.260  22.040  25.578  1.00  0.00    -0.084 Cl
ENDBRANCH  17  19
ENDBRANCH  14  17
ENDBRANCH   8  13
ENDBRANCH   4   7
ENDBRANCH   2   3
ENDBRANCH   1   2
BRANCH   1  26
ATOM     26  C   UNL A   1      33.065  31.476  27.635  1.00  0.00     0.023 C 
BRANCH  26  27
ATOM     27  C   UNL A   1      33.478  32.757  26.931  1.00  0.00     0.116 C 
BRANCH  27  28
ATOM     28  N   UNL A   1      32.838  33.951  27.465  1.00  0.00    -0.352 N 
ATOM     29  C   UNL A   1      33.108  34.647  28.625  1.00  0.00     0.251 C 
ATOM     30  H   UNL A   1      32.106  34.315  26.917  1.00  0.00     0.163 HD
ATOM     31  O   UNL A   1      32.402  35.583  28.956  1.00  0.00    -0.269 OA
BRANCH  29  32
ATOM     32  C   UNL A   1      34.240  34.219  29.479  1.00  0.00     0.039 A 
ATOM     33  C   UNL A   1      33.980  33.415  30.590  1.00  0.00     0.014 A 
ATOM     34  C   UNL A   1      35.552  34.565  29.151  1.00  0.00     0.014 A 
ATOM     35  C   UNL A   1      35.047  32.885  31.320  1.00  0.00     0.010 A 
ATOM     36  C   UNL A   1      36.610  33.954  29.812  1.00  0.00     0.010 A 
ATOM     37  C   UNL A   1      36.372  33.112  30.908  1.00  0.00    -0.014 A 
BRANCH  37  38
ATOM     38  C   UNL A   1      37.517  32.462  31.595  1.00  0.00     0.031 A 
ATOM     39  C   UNL A   1      38.266  31.339  30.930  1.00  0.00     0.074 A 
ATOM     40  C   UNL A   1      37.814  32.812  32.863  1.00  0.00     0.049 A 
ATOM     41  N   UNL A   1      39.266  30.632  31.388  1.00  0.00    -0.248 NA
ATOM     42  C   UNL A   1      37.809  30.929  29.592  1.00  0.00     0.031 C 
ATOM     43  C   UNL A   1      37.085  33.798  33.663  1.00  0.00     0.029 A 
ATOM     44  N   UNL A   1      38.792  32.357  33.712  1.00  0.00    -0.354 N 
ATOM     45  C   UNL A   1      39.525  29.668  30.421  1.00  0.00     0.074 A 
ATOM     46  C   UNL A   1      38.551  29.853  29.369  1.00  0.00     0.031 C 
ATOM     47  C   UNL A   1      37.646  33.883  34.880  1.00  0.00     0.029 A 
ATOM     48  C   UNL A   1      38.760  32.944  34.957  1.00  0.00     0.049 A 
ATOM     49  H   UNL A   1      39.454  31.676  33.456  1.00  0.00     0.167 HD
ATOM     50  C   UNL A   1      40.506  28.736  30.391  1.00  0.00     0.034 A 
ATOM     51  C   UNL A   1      39.541  32.750  36.037  1.00  0.00     0.034 A 
ATOM     52  C   UNL A   1      41.512  28.599  31.408  1.00  0.00     0.049 A 
ATOM     53  C   UNL A   1      40.687  31.780  35.941  1.00  0.00     0.074 A 
ATOM     54  C   UNL A   1      42.626  27.780  31.413  1.00  0.00     0.029 A 
ATOM     55  N   UNL A   1      41.521  29.295  32.607  1.00  0.00    -0.354 N 
ATOM     56  N   UNL A   1      41.040  31.019  34.933  1.00  0.00    -0.248 NA
ATOM     57  C   UNL A   1      41.567  31.672  37.113  1.00  0.00     0.031 C 
ATOM     58  C   UNL A   1      43.299  27.966  32.626  1.00  0.00     0.029 A 
ATOM     59  C   UNL A   1      42.614  28.916  33.367  1.00  0.00     0.049 A 
ATOM     60  H   UNL A   1      40.849  29.960  32.878  1.00  0.00     0.167 HD
ATOM     61  C   UNL A   1      42.195  30.360  35.339  1.00  0.00     0.074 A 
ATOM     62  C   UNL A   1      42.500  30.838  36.672  1.00  0.00     0.031 C 
ATOM     63  C   UNL A   1      42.926  29.429  34.677  1.00  0.00     0.034 A 
BRANCH  50  64
ATOM     64  C   UNL A   1      40.576  27.835  29.185  1.00  0.00     0.023 A 
ATOM     65  C   UNL A   1      39.664  26.766  29.059  1.00  0.00     0.012 A 
ATOM     66  C   UNL A   1      41.513  28.066  28.159  1.00  0.00     0.148 A 
ATOM     67  C   UNL A   1      39.710  25.917  27.955  1.00  0.00     0.002 A 
ATOM     68  C   UNL A   1      41.522  27.243  27.038  1.00  0.00     0.091 A 
ATOM     69  F   UNL A   1      42.389  29.070  28.305  1.00  0.00    -0.205 F 
ATOM     70  C   UNL A   1      40.631  26.162  26.940  1.00  0.00     0.022 A 
BRANCH  68  71
ATOM     71  S   UNL A   1      42.616  27.524  25.641  1.00  0.00     0.127 S 
ATOM     72  O   UNL A   1      42.333  26.358  24.806  1.00  0.00    -0.237 OA
ATOM     73  O   UNL A   1      42.115  28.791  25.107  1.00  0.00    -0.237 OA
ATOM     74  O   UNL A   1      43.962  27.590  26.194  1.00  0.00    -0.744 OA
ENDBRANCH  68  71
ENDBRANCH  50  64
BRANCH  51  75
ATOM     75  C   UNL A   1      39.312  33.554  37.270  1.00  0.00     0.023 A 
ATOM     76  C   UNL A   1      39.793  34.877  37.333  1.00  0.00     0.012 A 
ATOM     77  C   UNL A   1      38.580  33.038  38.357  1.00  0.00     0.148 A 
ATOM     78  C   UNL A   1      39.575  35.661  38.466  1.00  0.00     0.002 A 
ATOM     79  C   UNL A   1      38.318  33.843  39.460  1.00  0.00     0.091 A 
ATOM     80  F   UNL A   1      38.140  31.774  38.283  1.00  0.00    -0.205 F 
ATOM     81  C   UNL A   1      38.828  35.149  39.523  1.00  0.00     0.022 A 
BRANCH  79  82
ATOM     82  S   UNL A   1      37.248  33.316  40.804  1.00  0.00     0.127 S 
ATOM     83  O   UNL A   1      38.042  32.256  41.419  1.00  0.00    -0.237 OA
ATOM     84  O   UNL A   1      37.134  34.541  41.598  1.00  0.00    -0.237 OA
ATOM     85  O   UNL A   1      36.005  32.895  40.173  1.00  0.00    -0.744 OA
ENDBRANCH  79  82
ENDBRANCH  51  75
BRANCH  63  86
ATOM     86  C   UNL A   1      44.135  28.869  35.379  1.00  0.00     0.023 A 
ATOM     87  C   UNL A   1      45.398  29.455  35.167  1.00  0.00     0.012 A 
ATOM     88  C   UNL A   1      44.011  27.805  36.295  1.00  0.00     0.148 A 
ATOM     89  C   UNL A   1      46.526  28.969  35.826  1.00  0.00     0.002 A 
ATOM     90  C   UNL A   1      45.132  27.359  36.986  1.00  0.00     0.091 A 
ATOM     91  F   UNL A   1      42.804  27.247  36.470  1.00  0.00    -0.205 F 
ATOM     92  C   UNL A   1      46.391  27.930  36.742  1.00  0.00     0.022 A 
BRANCH  90  93
ATOM     93  S   UNL A   1      45.030  26.090  38.254  1.00  0.00     0.127 S 
ATOM     94  O   UNL A   1      44.611  24.924  37.478  1.00  0.00    -0.237 OA
ATOM     95  O   UNL A   1      46.406  26.031  38.748  1.00  0.00    -0.237 OA
ATOM     96  O   UNL A   1      44.064  26.579  39.228  1.00  0.00    -0.744 OA
ENDBRANCH  90  93
ENDBRANCH  63  86
ENDBRANCH  37  38
ENDBRANCH  29  32
ENDBRANCH  27  28
ENDBRANCH  26  27
ENDBRANCH   1  26
TORSDOF 17
ENDMDL
MODEL 2
REMARK VINA RESULT:     -11.6      5.826      9.079
REMARK SMILES C[C@H](NC(=O)N1CC[C@@H](C(=O)NCCCCNC(=O)c2ccc(-c3c4nc(c(-c5cccc(S(=O)(=O)[O-])c5F)c5ccc([nH]5)c(-c5cccc(S(=O)(=O)[O-])c5F)c5nc(c(-c6cccc(S(=O)(=O)[O-])c6F)c6ccc3[nH]6)C=C5)C=C4)cc2)[C@H]1C)c1ccc(Cl)cc1
REMARK SMILES IDX 14 1 13 2 12 3 10 4 11 5 9 7 6 8 7 9 83 10 8 11 84 12 4 13
REMARK SMILES IDX 3 14 5 16 2 17 1 18 85 19 86 20 91 21 87 22 90 23 88 24
REMARK SMILES IDX 89 25 15 26 16 27 17 28 18 29 19 31 20 32 21 33 82 34 22 35
REMARK SMILES IDX 81 36 23 37 24 38 25 39 75 40 26 41 80 42 74 43 76 44 27 45
REMARK SMILES IDX 79 46 73 47 72 48 28 50 60 51 40 52 59 53 41 54 44 55 58 56
REMARK SMILES IDX 77 57 42 58 43 59 57 61 78 62 45 63 29 64 30 65 38 66 31 67
REMARK SMILES IDX 33 68 39 69 32 70 34 71 35 72 36 73 37 74 61 75 62 76 70 77
REMARK SMILES IDX 63 78 65 79 71 80 64 81 66 82 67 83 68 84 69 85 46 86 47 87
REMARK SMILES IDX 55 88 48 89 50 90 56 91 49 92 51 93 52 94 53 95 54 96
REMARK H PARENT 12 6 3 15 17 30 76 49 44 60
REMARK Flexibility Score: inf
ROOT
ATOM      1  C   UNL A   1      35.486  22.107  26.172  1.00  0.00     0.023 C 
ENDROOT
BRANCH   1   2
ATOM      2  C   UNL A   1      34.149  21.494  26.573  1.00  0.00     0.116 C 
BRANCH   2   3
ATOM      3  N   UNL A   1      33.418  20.950  25.445  1.00  0.00    -0.356 N 
ATOM      4  C   UNL A   1      32.658  21.551  24.493  1.00  0.00     0.225 C 
ATOM      5  O   UNL A   1      32.174  20.822  23.622  1.00  0.00    -0.275 OA
ATOM      6  H   UNL A   1      33.483  19.972  25.355  1.00  0.00     0.163 HD
BRANCH   4   7
ATOM      7  C   UNL A   1      32.369  23.047  24.458  1.00  0.00     0.102 C 
ATOM      8  N   UNL A   1      32.334  24.487  22.513  1.00  0.00    -0.321 N 
ATOM      9  C   UNL A   1      31.004  24.523  23.121  1.00  0.00     0.122 C 
ATOM     10  C   UNL A   1      33.237  23.924  23.537  1.00  0.00     0.096 C 
ATOM     11  C   UNL A   1      30.921  23.413  24.155  1.00  0.00     0.037 C 
ATOM     12  C   UNL A   1      34.497  23.252  23.019  1.00  0.00     0.032 C 
BRANCH   8  13
ATOM     13  C   UNL A   1      32.668  25.698  21.941  1.00  0.00     0.318 C 
ATOM     14  N   UNL A   1      32.822  26.803  22.700  1.00  0.00    -0.331 N 
ATOM     15  H   UNL A   1      33.494  27.413  22.320  1.00  0.00     0.165 HD
ATOM     16  O   UNL A   1      32.988  25.783  20.753  1.00  0.00    -0.249 OA
BRANCH  14  17
ATOM     17  C   UNL A   1      32.256  27.333  23.937  1.00  0.00     0.111 C 
ATOM     18  C   UNL A   1      33.217  27.953  24.930  1.00  0.00     0.036 C 
BRANCH  17  19
ATOM     19  C   UNL A   1      31.033  28.217  23.781  1.00  0.00    -0.026 A 
ATOM     20  C   UNL A   1      31.097  29.540  24.269  1.00  0.00     0.007 A 
ATOM     21  C   UNL A   1      29.902  27.826  23.057  1.00  0.00     0.007 A 
ATOM     22  C   UNL A   1      30.070  30.451  24.025  1.00  0.00     0.021 A 
ATOM     23  C   UNL A   1      28.867  28.740  22.815  1.00  0.00     0.021 A 
ATOM     24  C   UNL A   1      28.959  30.048  23.293  1.00  0.00     0.041 A 
ATOM     25  Cl  UNL A   1      27.703  31.177  22.966  1.00  0.00    -0.084 Cl
ENDBRANCH  17  19
ENDBRANCH  14  17
ENDBRANCH   8  13
ENDBRANCH   4   7
ENDBRANCH   2   3
ENDBRANCH   1   2
BRANCH   1  26
ATOM     26  C   UNL A   1      36.428  21.205  25.388  1.00  0.00     0.023 C 
BRANCH  26  27
ATOM     27  C   UNL A   1      37.853  21.715  25.245  1.00  0.00     0.116 C 
BRANCH  27  28
ATOM     28  N   UNL A   1      38.860  20.780  25.725  1.00  0.00    -0.352 N 
ATOM     29  C   UNL A   1      39.993  21.019  26.475  1.00  0.00     0.251 C 
ATOM     30  H   UNL A   1      38.710  19.838  25.479  1.00  0.00     0.163 HD
ATOM     31  O   UNL A   1      40.774  20.114  26.710  1.00  0.00    -0.269 OA
BRANCH  29  32
ATOM     32  C   UNL A   1      40.266  22.393  26.956  1.00  0.00     0.039 A 
ATOM     33  C   UNL A   1      41.170  22.573  28.004  1.00  0.00     0.014 A 
ATOM     34  C   UNL A   1      39.674  23.495  26.338  1.00  0.00     0.014 A 
ATOM     35  C   UNL A   1      41.548  23.866  28.372  1.00  0.00     0.010 A 
ATOM     36  C   UNL A   1      40.129  24.775  26.634  1.00  0.00     0.010 A 
ATOM     37  C   UNL A   1      41.066  24.977  27.658  1.00  0.00    -0.014 A 
BRANCH  37  38
ATOM     38  C   UNL A   1      41.545  26.352  27.952  1.00  0.00     0.031 A 
ATOM     39  C   UNL A   1      42.947  26.763  27.589  1.00  0.00     0.074 A 
ATOM     40  C   UNL A   1      40.752  27.197  28.642  1.00  0.00     0.049 A 
ATOM     41  N   UNL A   1      43.549  27.905  27.798  1.00  0.00    -0.248 NA
ATOM     42  C   UNL A   1      43.797  25.749  26.945  1.00  0.00     0.031 C 
ATOM     43  C   UNL A   1      39.421  26.876  29.160  1.00  0.00     0.029 A 
ATOM     44  N   UNL A   1      40.963  28.490  29.052  1.00  0.00    -0.354 N 
ATOM     45  C   UNL A   1      44.855  27.731  27.356  1.00  0.00     0.074 A 
ATOM     46  C   UNL A   1      44.971  26.362  26.907  1.00  0.00     0.031 C 
ATOM     47  C   UNL A   1      38.929  27.945  29.808  1.00  0.00     0.029 A 
ATOM     48  C   UNL A   1      39.916  29.019  29.771  1.00  0.00     0.049 A 
ATOM     49  H   UNL A   1      41.785  28.991  28.851  1.00  0.00     0.167 HD
ATOM     50  C   UNL A   1      45.859  28.638  27.295  1.00  0.00     0.034 A 
ATOM     51  C   UNL A   1      39.765  30.234  30.335  1.00  0.00     0.034 A 
ATOM     52  C   UNL A   1      45.719  30.015  27.682  1.00  0.00     0.049 A 
ATOM     53  C   UNL A   1      40.856  31.254  30.164  1.00  0.00     0.074 A 
ATOM     54  C   UNL A   1      46.629  31.047  27.537  1.00  0.00     0.029 A 
ATOM     55  N   UNL A   1      44.600  30.551  28.299  1.00  0.00    -0.354 N 
ATOM     56  N   UNL A   1      42.013  31.131  29.558  1.00  0.00    -0.248 NA
ATOM     57  C   UNL A   1      40.606  32.593  30.714  1.00  0.00     0.031 C 
ATOM     58  C   UNL A   1      46.066  32.204  28.085  1.00  0.00     0.029 A 
ATOM     59  C   UNL A   1      44.798  31.897  28.554  1.00  0.00     0.049 A 
ATOM     60  H   UNL A   1      43.784  30.049  28.522  1.00  0.00     0.167 HD
ATOM     61  C   UNL A   1      42.619  32.380  29.634  1.00  0.00     0.074 A 
ATOM     62  C   UNL A   1      41.686  33.254  30.315  1.00  0.00     0.031 C 
ATOM     63  C   UNL A   1      43.844  32.764  29.197  1.00  0.00     0.034 A 
BRANCH  50  64
ATOM     64  C   UNL A   1      47.178  28.181  26.727  1.00  0.00     0.023 A 
ATOM     65  C   UNL A   1      48.257  27.915  27.596  1.00  0.00     0.012 A 
ATOM     66  C   UNL A   1      47.342  27.977  25.343  1.00  0.00     0.148 A 
ATOM     67  C   UNL A   1      49.488  27.494  27.097  1.00  0.00     0.002 A 
ATOM     68  C   UNL A   1      48.558  27.511  24.856  1.00  0.00     0.091 A 
ATOM     69  F   UNL A   1      46.315  28.257  24.528  1.00  0.00    -0.205 F 
ATOM     70  C   UNL A   1      49.635  27.282  25.728  1.00  0.00     0.022 A 
BRANCH  68  71
ATOM     71  S   UNL A   1      48.823  27.131  23.120  1.00  0.00     0.127 S 
ATOM     72  O   UNL A   1      48.144  28.249  22.467  1.00  0.00    -0.237 OA
ATOM     73  O   UNL A   1      50.282  27.161  23.017  1.00  0.00    -0.237 OA
ATOM     74  O   UNL A   1      48.227  25.820  22.902  1.00  0.00    -0.744 OA
ENDBRANCH  68  71
ENDBRANCH  50  64
BRANCH  51  75
ATOM     75  C   UNL A   1      38.496  30.571  31.038  1.00  0.00     0.023 A 
ATOM     76  C   UNL A   1      38.325  30.184  32.382  1.00  0.00     0.012 A 
ATOM     77  C   UNL A   1      37.480  31.313  30.404  1.00  0.00     0.148 A 
ATOM     78  C   UNL A   1      37.157  30.504  33.073  1.00  0.00     0.002 A 
ATOM     79  C   UNL A   1      36.342  31.677  31.115  1.00  0.00     0.091 A 
ATOM     80  F   UNL A   1      37.656  31.663  29.122  1.00  0.00    -0.205 F 
ATOM     81  C   UNL A   1      36.171  31.260  32.444  1.00  0.00     0.022 A 
BRANCH  79  82
ATOM     82  S   UNL A   1      35.088  32.766  30.430  1.00  0.00     0.127 S 
ATOM     83  O   UNL A   1      34.507  31.932  29.382  1.00  0.00    -0.237 OA
ATOM     84  O   UNL A   1      34.222  32.995  31.588  1.00  0.00    -0.237 OA
ATOM     85  O   UNL A   1      35.803  33.951  29.976  1.00  0.00    -0.744 OA
ENDBRANCH  79  82
ENDBRANCH  51  75
BRANCH  63  86
ATOM     86  C   UNL A   1      44.247  34.196  29.435  1.00  0.00     0.023 A 
ATOM     87  C   UNL A   1      44.967  34.533  30.598  1.00  0.00     0.012 A 
ATOM     88  C   UNL A   1      43.969  35.193  28.479  1.00  0.00     0.148 A 
ATOM     89  C   UNL A   1      45.372  35.848  30.825  1.00  0.00     0.002 A 
ATOM     90  C   UNL A   1      44.420  36.491  28.689  1.00  0.00     0.091 A 
ATOM     91  F   UNL A   1      43.266  34.857  27.387  1.00  0.00    -0.205 F 
ATOM     92  C   UNL A   1      45.108  36.823  29.867  1.00  0.00     0.022 A 
BRANCH  90  93
ATOM     93  S   UNL A   1      44.207  37.787  27.463  1.00  0.00     0.127 S 
ATOM     94  O   UNL A   1      45.495  37.761  26.773  1.00  0.00    -0.237 OA
ATOM     95  O   UNL A   1      43.082  37.287  26.672  1.00  0.00    -0.237 OA
ATOM     96  O   UNL A   1      43.920  39.001  28.214  1.00  0.00    -0.744 OA
ENDBRANCH  90  93
ENDBRANCH  63  86
ENDBRANCH  37  38
ENDBRANCH  29  32
ENDBRANCH  27  28
ENDBRANCH  26  27
ENDBRANCH   1  26
TORSDOF 17
ENDMDL
MODEL 3
REMARK VINA RESULT:     -11.6      6.565     11.854
REMARK SMILES C[C@H](NC(=O)N1CC[C@@H](C(=O)NCCCCNC(=O)c2ccc(-c3c4nc(c(-c5cccc(S(=O)(=O)[O-])c5F)c5ccc([nH]5)c(-c5cccc(S(=O)(=O)[O-])c5F)c5nc(c(-c6cccc(S(=O)(=O)[O-])c6F)c6ccc3[nH]6)C=C5)C=C4)cc2)[C@H]1C)c1ccc(Cl)cc1
REMARK SMILES IDX 14 1 13 2 12 3 10 4 11 5 9 7 6 8 7 9 83 10 8 11 84 12 4 13
REMARK SMILES IDX 3 14 5 16 2 17 1 18 85 19 86 20 91 21 87 22 90 23 88 24
REMARK SMILES IDX 89 25 15 26 16 27 17 28 18 29 19 31 20 32 21 33 82 34 22 35
REMARK SMILES IDX 81 36 23 37 24 38 25 39 75 40 26 41 80 42 74 43 76 44 27 45
REMARK SMILES IDX 79 46 73 47 72 48 28 50 60 51 40 52 59 53 41 54 44 55 58 56
REMARK SMILES IDX 77 57 42 58 43 59 57 61 78 62 45 63 29 64 30 65 38 66 31 67
REMARK SMILES IDX 33 68 39 69 32 70 34 71 35 72 36 73 37 74 61 75 62 76 70 77
REMARK SMILES IDX 63 78 65 79 71 80 64 81 66 82 67 83 68 84 69 85 46 86 47 87
REMARK SMILES IDX 55 88 48 89 50 90 56 91 49 92 51 93 52 94 53 95 54 96
REMARK H PARENT 12 6 3 15 17 30 76 49 44 60
REMARK Flexibility Score: inf
ROOT
ATOM      1  C   UNL A   1      37.031  21.334  24.502  1.00  0.00     0.023 C 
ENDROOT
BRANCH   1   2
ATOM      2  C   UNL A   1      35.885  21.793  25.395  1.00  0.00     0.116 C 
BRANCH   2   3
ATOM      3  N   UNL A   1      34.581  21.535  24.817  1.00  0.00    -0.356 N 
ATOM      4  C   UNL A   1      33.397  22.187  24.944  1.00  0.00     0.225 C 
ATOM      5  O   UNL A   1      32.442  21.746  24.295  1.00  0.00    -0.275 OA
ATOM      6  H   UNL A   1      34.548  20.746  24.229  1.00  0.00     0.163 HD
BRANCH   4   7
ATOM      7  C   UNL A   1      33.189  23.402  25.841  1.00  0.00     0.102 C 
ATOM      8  N   UNL A   1      31.951  25.414  25.319  1.00  0.00    -0.321 N 
ATOM      9  C   UNL A   1      31.322  24.791  26.483  1.00  0.00     0.122 C 
ATOM     10  C   UNL A   1      33.285  24.796  25.195  1.00  0.00     0.096 C 
ATOM     11  C   UNL A   1      31.894  23.393  26.643  1.00  0.00     0.037 C 
ATOM     12  C   UNL A   1      33.903  24.814  23.806  1.00  0.00     0.032 C 
BRANCH   8  13
ATOM     13  C   UNL A   1      31.869  26.792  25.370  1.00  0.00     0.318 C 
ATOM     14  N   UNL A   1      30.804  27.442  24.856  1.00  0.00    -0.331 N 
ATOM     15  H   UNL A   1      30.611  28.269  25.352  1.00  0.00     0.165 HD
ATOM     16  O   UNL A   1      32.678  27.462  26.017  1.00  0.00    -0.249 OA
BRANCH  14  17
ATOM     17  C   UNL A   1      29.860  27.241  23.760  1.00  0.00     0.111 C 
ATOM     18  C   UNL A   1      28.709  26.289  24.001  1.00  0.00     0.036 C 
BRANCH  17  19
ATOM     19  C   UNL A   1      29.356  28.502  23.082  1.00  0.00    -0.026 A 
ATOM     20  C   UNL A   1      30.246  29.216  22.251  1.00  0.00     0.007 A 
ATOM     21  C   UNL A   1      28.019  28.909  23.134  1.00  0.00     0.007 A 
ATOM     22  C   UNL A   1      29.809  30.293  21.480  1.00  0.00     0.021 A 
ATOM     23  C   UNL A   1      27.580  29.994  22.364  1.00  0.00     0.021 A 
ATOM     24  C   UNL A   1      28.474  30.675  21.536  1.00  0.00     0.041 A 
ATOM     25  Cl  UNL A   1      27.926  31.984  20.564  1.00  0.00    -0.084 Cl
ENDBRANCH  17  19
ENDBRANCH  14  17
ENDBRANCH   8  13
ENDBRANCH   4   7
ENDBRANCH   2   3
ENDBRANCH   1   2
BRANCH   1  26
ATOM     26  C   UNL A   1      37.838  20.146  25.005  1.00  0.00     0.023 C 
BRANCH  26  27
ATOM     27  C   UNL A   1      39.064  20.493  25.833  1.00  0.00     0.116 C 
BRANCH  27  28
ATOM     28  N   UNL A   1      40.022  19.402  25.946  1.00  0.00    -0.352 N 
ATOM     29  C   UNL A   1      41.379  19.448  26.188  1.00  0.00     0.251 C 
ATOM     30  H   UNL A   1      39.645  18.500  25.835  1.00  0.00     0.163 HD
ATOM     31  O   UNL A   1      42.040  18.424  26.160  1.00  0.00    -0.269 OA
BRANCH  29  32
ATOM     32  C   UNL A   1      42.026  20.755  26.442  1.00  0.00     0.039 A 
ATOM     33  C   UNL A   1      42.330  21.580  25.358  1.00  0.00     0.014 A 
ATOM     34  C   UNL A   1      42.278  21.185  27.746  1.00  0.00     0.014 A 
ATOM     35  C   UNL A   1      42.806  22.873  25.588  1.00  0.00     0.010 A 
ATOM     36  C   UNL A   1      42.650  22.504  27.976  1.00  0.00     0.010 A 
ATOM     37  C   UNL A   1      42.924  23.362  26.901  1.00  0.00    -0.014 A 
BRANCH  37  38
ATOM     38  C   UNL A   1      43.312  24.770  27.168  1.00  0.00     0.031 A 
ATOM     39  C   UNL A   1      42.341  25.716  27.822  1.00  0.00     0.074 A 
ATOM     40  C   UNL A   1      44.502  25.226  26.725  1.00  0.00     0.049 A 
ATOM     41  N   UNL A   1      42.491  26.985  28.102  1.00  0.00    -0.248 NA
ATOM     42  C   UNL A   1      41.016  25.181  28.171  1.00  0.00     0.031 C 
ATOM     43  C   UNL A   1      45.480  24.443  25.967  1.00  0.00     0.029 A 
ATOM     44  N   UNL A   1      45.079  26.468  26.823  1.00  0.00    -0.354 N 
ATOM     45  C   UNL A   1      41.270  27.407  28.614  1.00  0.00     0.074 A 
ATOM     46  C   UNL A   1      40.376  26.272  28.566  1.00  0.00     0.031 C 
ATOM     47  C   UNL A   1      46.539  25.217  25.679  1.00  0.00     0.029 A 
ATOM     48  C   UNL A   1      46.308  26.555  26.211  1.00  0.00     0.049 A 
ATOM     49  H   UNL A   1      44.654  27.224  27.286  1.00  0.00     0.167 HD
ATOM     50  C   UNL A   1      40.930  28.619  29.112  1.00  0.00     0.034 A 
ATOM     51  C   UNL A   1      47.156  27.596  26.094  1.00  0.00     0.034 A 
ATOM     52  C   UNL A   1      41.842  29.726  29.218  1.00  0.00     0.049 A 
ATOM     53  C   UNL A   1      46.797  28.903  26.745  1.00  0.00     0.074 A 
ATOM     54  C   UNL A   1      41.641  30.951  29.825  1.00  0.00     0.029 A 
ATOM     55  N   UNL A   1      43.125  29.743  28.694  1.00  0.00    -0.354 N 
ATOM     56  N   UNL A   1      45.711  29.223  27.407  1.00  0.00    -0.248 NA
ATOM     57  C   UNL A   1      47.795  29.980  26.671  1.00  0.00     0.031 C 
ATOM     58  C   UNL A   1      42.798  31.718  29.652  1.00  0.00     0.029 A 
ATOM     59  C   UNL A   1      43.726  30.963  28.953  1.00  0.00     0.049 A 
ATOM     60  H   UNL A   1      43.546  28.998  28.209  1.00  0.00     0.167 HD
ATOM     61  C   UNL A   1      45.904  30.527  27.849  1.00  0.00     0.074 A 
ATOM     62  C   UNL A   1      47.225  30.926  27.407  1.00  0.00     0.031 C 
ATOM     63  C   UNL A   1      45.057  31.330  28.540  1.00  0.00     0.034 A 
BRANCH  50  64
ATOM     64  C   UNL A   1      39.530  28.789  29.643  1.00  0.00     0.023 A 
ATOM     65  C   UNL A   1      39.233  28.397  30.965  1.00  0.00     0.012 A 
ATOM     66  C   UNL A   1      38.519  29.369  28.853  1.00  0.00     0.148 A 
ATOM     67  C   UNL A   1      37.946  28.540  31.479  1.00  0.00     0.002 A 
ATOM     68  C   UNL A   1      37.249  29.553  29.388  1.00  0.00     0.091 A 
ATOM     69  F   UNL A   1      38.810  29.714  27.591  1.00  0.00    -0.205 F 
ATOM     70  C   UNL A   1      36.957  29.128  30.695  1.00  0.00     0.022 A 
BRANCH  68  71
ATOM     71  S   UNL A   1      35.929  30.372  28.486  1.00  0.00     0.127 S 
ATOM     72  O   UNL A   1      35.216  31.058  29.563  1.00  0.00    -0.237 OA
ATOM     73  O   UNL A   1      36.672  31.258  27.589  1.00  0.00    -0.237 OA
ATOM     74  O   UNL A   1      35.186  29.315  27.815  1.00  0.00    -0.744 OA
ENDBRANCH  68  71
ENDBRANCH  50  64
BRANCH  51  75
ATOM     75  C   UNL A   1      48.463  27.412  25.401  1.00  0.00     0.023 A 
ATOM     76  C   UNL A   1      49.588  27.005  26.143  1.00  0.00     0.012 A 
ATOM     77  C   UNL A   1      48.585  27.587  24.009  1.00  0.00     0.148 A 
ATOM     78  C   UNL A   1      50.819  26.805  25.519  1.00  0.00     0.002 A 
ATOM     79  C   UNL A   1      49.801  27.331  23.384  1.00  0.00     0.091 A 
ATOM     80  F   UNL A   1      47.506  27.984  23.321  1.00  0.00    -0.205 F 
ATOM     81  C   UNL A   1      50.923  26.955  24.139  1.00  0.00     0.022 A 
BRANCH  79  82
ATOM     82  S   UNL A   1      49.989  27.363  21.597  1.00  0.00     0.127 S 
ATOM     83  O   UNL A   1      51.345  26.848  21.430  1.00  0.00    -0.237 OA
ATOM     84  O   UNL A   1      48.926  26.454  21.165  1.00  0.00    -0.237 OA
ATOM     85  O   UNL A   1      49.784  28.751  21.207  1.00  0.00    -0.744 OA
ENDBRANCH  79  82
ENDBRANCH  51  75
BRANCH  63  86
ATOM     86  C   UNL A   1      45.534  32.720  28.871  1.00  0.00     0.023 A 
ATOM     87  C   UNL A   1      46.247  32.946  30.064  1.00  0.00     0.012 A 
ATOM     88  C   UNL A   1      45.331  33.787  27.973  1.00  0.00     0.148 A 
ATOM     89  C   UNL A   1      46.721  34.219  30.377  1.00  0.00     0.002 A 
ATOM     90  C   UNL A   1      45.849  35.043  28.270  1.00  0.00     0.091 A 
ATOM     91  F   UNL A   1      44.633  33.558  26.852  1.00  0.00    -0.205 F 
ATOM     92  C   UNL A   1      46.531  35.264  29.477  1.00  0.00     0.022 A 
BRANCH  90  93
ATOM     93  S   UNL A   1      45.734  36.419  27.121  1.00  0.00     0.127 S 
ATOM     94  O   UNL A   1      46.389  35.875  25.934  1.00  0.00    -0.237 OA
ATOM     95  O   UNL A   1      44.287  36.598  26.991  1.00  0.00    -0.237 OA
ATOM     96  O   UNL A   1      46.419  37.532  27.765  1.00  0.00    -0.744 OA
ENDBRANCH  90  93
ENDBRANCH  63  86
ENDBRANCH  37  38
ENDBRANCH  29  32
ENDBRANCH  27  28
ENDBRANCH  26  27
ENDBRANCH   1  26
TORSDOF 17
ENDMDL
