MODEL 1
REMARK VINA RESULT:     -13.0      0.000      0.000
REMARK SMILES Cc1oc2c(C)c3oc(=O)c(CCC(=O)N[C@H](Cc4ccc(Cl)cc4)C(=O)NCCCCNC(=O)c4ccc(-c5c6nc(c(-c7cccc(S(=O)(=O)[O-])c7F)c7ccc([nH]7)c(-c7cccc(S(=O)(=O)[O-])c7F)c7nc(c(-c8cccc(S(=O)(=O)[O-])c8F)c8ccc5[nH]8)C=C7)C=C6)cc4)c(C)c3cc2c1C
REMARK SMILES IDX 30 1 29 2 28 3 26 4 27 5 17 7 16 8 14 9 15 10 13 12 12 13
REMARK SMILES IDX 11 14 1 15 2 16 3 17 104 18 4 19 103 20 105 21 5 22 102 23
REMARK SMILES IDX 6 24 7 25 101 26 8 27 99 28 9 29 100 30 10 31 18 32 19 33
REMARK SMILES IDX 20 34 25 35 21 36 24 37 22 38 23 39 31 40 32 41 33 42 34 43
REMARK SMILES IDX 35 45 36 46 37 47 98 48 38 49 97 50 39 51 40 52 41 53 91 54
REMARK SMILES IDX 42 55 96 56 90 57 92 58 43 59 95 60 89 61 88 62 44 64 76 65
REMARK SMILES IDX 56 66 75 67 57 68 60 69 74 70 93 71 58 72 59 73 73 75 94 76
REMARK SMILES IDX 61 77 45 78 46 79 54 80 47 81 49 82 55 83 48 84 50 85 51 86
REMARK SMILES IDX 52 87 53 88 77 89 78 90 86 91 79 92 81 93 87 94 80 95 82 96
REMARK SMILES IDX 83 97 84 98 85 99 62 100 63 101 71 102 64 103 66 104 72 105
REMARK SMILES IDX 65 106 67 107 68 108 69 109 70 110
REMARK H PARENT 28 6 16 11 33 44 92 63 60 74
REMARK Flexibility Score: inf
ROOT
ATOM      1  C   UNL A   1      33.286  30.561  27.485  1.00  0.00     0.023 C 
ENDROOT
BRANCH   1   2
ATOM      2  C   UNL A   1      32.113  30.691  26.523  1.00  0.00     0.116 C 
BRANCH   2   3
ATOM      3  N   UNL A   1      32.376  30.100  25.222  1.00  0.00    -0.354 N 
ATOM      4  C   UNL A   1      31.398  29.264  24.743  1.00  0.00     0.242 C 
ATOM      5  O   UNL A   1      30.362  29.759  24.299  1.00  0.00    -0.273 OA
ATOM      6  H   UNL A   1      33.201  30.286  24.718  1.00  0.00     0.163 HD
BRANCH   4   7
ATOM      7  C   UNL A   1      31.665  27.739  24.727  1.00  0.00     0.175 C 
BRANCH   7   8
ATOM      8  N   UNL A   1      31.104  27.306  23.429  1.00  0.00    -0.344 N 
ATOM      9  C   UNL A   1      31.663  26.617  22.396  1.00  0.00     0.220 C 
ATOM     10  O   UNL A   1      31.086  26.629  21.305  1.00  0.00    -0.275 OA
ATOM     11  H   UNL A   1      30.164  27.560  23.288  1.00  0.00     0.164 HD
BRANCH   9  12
ATOM     12  C   UNL A   1      32.935  25.815  22.577  1.00  0.00     0.105 C 
BRANCH  12  13
ATOM     13  C   UNL A   1      32.906  24.404  21.988  1.00  0.00     0.053 C 
BRANCH  13  14
ATOM     14  C   UNL A   1      33.536  23.399  22.927  1.00  0.00     0.042 A 
ATOM     15  C   UNL A   1      35.710  15.658  25.428  1.00  0.00     0.088 C 
ATOM     16  C   UNL A   1      35.216  16.995  25.035  1.00  0.00     0.105 A 
ATOM     17  O   UNL A   1      36.087  18.038  25.196  1.00  0.00    -0.461 OA
ATOM     18  C   UNL A   1      34.023  17.444  24.499  1.00  0.00    -0.002 A 
ATOM     19  C   UNL A   1      35.435  19.175  24.817  1.00  0.00     0.141 A 
ATOM     20  C   UNL A   1      34.136  18.862  24.454  1.00  0.00     0.025 A 
ATOM     21  C   UNL A   1      32.856  16.655  24.028  1.00  0.00     0.049 C 
ATOM     22  C   UNL A   1      35.985  20.462  24.750  1.00  0.00     0.036 A 
ATOM     23  C   UNL A   1      33.271  19.893  24.064  1.00  0.00     0.024 A 
ATOM     24  C   UNL A   1      37.414  20.731  25.100  1.00  0.00     0.052 C 
ATOM     25  C   UNL A   1      35.088  21.451  24.275  1.00  0.00     0.145 A 
ATOM     26  C   UNL A   1      33.751  21.204  23.945  1.00  0.00     0.022 A 
ATOM     27  O   UNL A   1      35.624  22.739  24.047  1.00  0.00    -0.422 OA
ATOM     28  C   UNL A   1      32.929  22.261  23.320  1.00  0.00    -0.030 A 
ATOM     29  C   UNL A   1      34.949  23.694  23.304  1.00  0.00     0.339 A 
ATOM     30  C   UNL A   1      31.490  21.923  23.001  1.00  0.00     0.046 C 
ATOM     31  O   UNL A   1      35.513  24.725  22.949  1.00  0.00    -0.246 OA
ENDBRANCH  13  14
ENDBRANCH  12  13
ENDBRANCH   9  12
ENDBRANCH   7   8
BRANCH   7  32
ATOM     32  C   UNL A   1      31.124  26.988  25.963  1.00  0.00     0.070 C 
BRANCH  32  33
ATOM     33  C   UNL A   1      31.694  25.593  26.092  1.00  0.00    -0.045 A 
ATOM     34  C   UNL A   1      33.089  25.442  26.143  1.00  0.00     0.005 A 
ATOM     35  C   UNL A   1      30.874  24.483  26.343  1.00  0.00     0.005 A 
ATOM     36  C   UNL A   1      33.655  24.238  26.554  1.00  0.00     0.021 A 
ATOM     37  C   UNL A   1      31.446  23.270  26.741  1.00  0.00     0.021 A 
ATOM     38  C   UNL A   1      32.831  23.163  26.875  1.00  0.00     0.041 A 
ATOM     39  Cl  UNL A   1      33.526  21.720  27.501  1.00  0.00    -0.084 Cl
ENDBRANCH  32  33
ENDBRANCH   7  32
ENDBRANCH   4   7
ENDBRANCH   2   3
ENDBRANCH   1   2
BRANCH   1  40
ATOM     40  C   UNL A   1      34.052  29.227  27.401  1.00  0.00     0.023 C 
BRANCH  40  41
ATOM     41  C   UNL A   1      35.570  29.293  27.659  1.00  0.00     0.116 C 
BRANCH  41  42
ATOM     42  N   UNL A   1      35.840  29.643  29.041  1.00  0.00    -0.352 N 
ATOM     43  C   UNL A   1      36.798  29.212  29.915  1.00  0.00     0.251 C 
ATOM     44  H   UNL A   1      35.222  30.310  29.417  1.00  0.00     0.163 HD
ATOM     45  O   UNL A   1      36.552  29.304  31.118  1.00  0.00    -0.269 OA
BRANCH  43  46
ATOM     46  C   UNL A   1      38.112  28.680  29.484  1.00  0.00     0.039 A 
ATOM     47  C   UNL A   1      38.640  29.183  28.287  1.00  0.00     0.014 A 
ATOM     48  C   UNL A   1      38.725  27.584  30.100  1.00  0.00     0.014 A 
ATOM     49  C   UNL A   1      39.770  28.603  27.713  1.00  0.00     0.010 A 
ATOM     50  C   UNL A   1      39.865  27.005  29.523  1.00  0.00     0.010 A 
ATOM     51  C   UNL A   1      40.395  27.508  28.327  1.00  0.00    -0.014 A 
BRANCH  51  52
ATOM     52  C   UNL A   1      41.658  27.025  27.726  1.00  0.00     0.031 A 
ATOM     53  C   UNL A   1      42.629  28.094  27.334  1.00  0.00     0.074 A 
ATOM     54  C   UNL A   1      42.120  25.774  27.950  1.00  0.00     0.049 A 
ATOM     55  N   UNL A   1      43.462  28.640  28.170  1.00  0.00    -0.248 NA
ATOM     56  C   UNL A   1      42.539  28.794  26.053  1.00  0.00     0.031 C 
ATOM     57  C   UNL A   1      42.032  25.106  29.255  1.00  0.00     0.029 A 
ATOM     58  N   UNL A   1      42.959  24.966  27.211  1.00  0.00    -0.354 N 
ATOM     59  C   UNL A   1      43.979  29.773  27.563  1.00  0.00     0.074 A 
ATOM     60  C   UNL A   1      43.379  29.825  26.248  1.00  0.00     0.031 C 
ATOM     61  C   UNL A   1      42.916  24.087  29.279  1.00  0.00     0.029 A 
ATOM     62  C   UNL A   1      43.523  23.929  27.958  1.00  0.00     0.049 A 
ATOM     63  H   UNL A   1      43.141  25.105  26.254  1.00  0.00     0.167 HD
ATOM     64  C   UNL A   1      44.879  30.595  28.172  1.00  0.00     0.034 A 
ATOM     65  C   UNL A   1      44.753  23.386  27.723  1.00  0.00     0.034 A 
ATOM     66  C   UNL A   1      45.303  30.171  29.477  1.00  0.00     0.049 A 
ATOM     67  C   UNL A   1      45.646  24.500  28.208  1.00  0.00     0.074 A 
ATOM     68  C   UNL A   1      45.027  30.478  30.792  1.00  0.00     0.029 A 
ATOM     69  N   UNL A   1      46.202  29.133  29.553  1.00  0.00    -0.354 N 
ATOM     70  N   UNL A   1      45.894  24.785  29.460  1.00  0.00    -0.248 NA
ATOM     71  C   UNL A   1      45.935  25.582  27.268  1.00  0.00     0.031 C 
ATOM     72  C   UNL A   1      45.409  29.320  31.545  1.00  0.00     0.029 A 
ATOM     73  C   UNL A   1      45.868  28.364  30.639  1.00  0.00     0.049 A 
ATOM     74  H   UNL A   1      46.953  28.971  28.937  1.00  0.00     0.167 HD
ATOM     75  C   UNL A   1      46.058  26.173  29.497  1.00  0.00     0.074 A 
ATOM     76  C   UNL A   1      46.082  26.595  28.110  1.00  0.00     0.031 C 
ATOM     77  C   UNL A   1      45.997  26.921  30.641  1.00  0.00     0.034 A 
BRANCH  64  78
ATOM     78  C   UNL A   1      45.583  31.723  27.511  1.00  0.00     0.023 A 
ATOM     79  C   UNL A   1      46.941  31.506  27.197  1.00  0.00     0.012 A 
ATOM     80  C   UNL A   1      45.043  33.012  27.370  1.00  0.00     0.148 A 
ATOM     81  C   UNL A   1      47.767  32.554  26.802  1.00  0.00     0.002 A 
ATOM     82  C   UNL A   1      45.872  34.059  26.963  1.00  0.00     0.091 A 
ATOM     83  F   UNL A   1      43.751  33.205  27.675  1.00  0.00    -0.205 F 
ATOM     84  C   UNL A   1      47.235  33.832  26.694  1.00  0.00     0.022 A 
BRANCH  82  85
ATOM     85  S   UNL A   1      45.305  35.755  26.780  1.00  0.00     0.127 S 
ATOM     86  O   UNL A   1      46.350  36.335  25.931  1.00  0.00    -0.237 OA
ATOM     87  O   UNL A   1      44.015  35.569  26.109  1.00  0.00    -0.237 OA
ATOM     88  O   UNL A   1      45.219  36.297  28.122  1.00  0.00    -0.744 OA
ENDBRANCH  82  85
ENDBRANCH  64  78
BRANCH  65  89
ATOM     89  C   UNL A   1      44.915  22.690  26.400  1.00  0.00     0.023 A 
ATOM     90  C   UNL A   1      45.715  23.350  25.435  1.00  0.00     0.012 A 
ATOM     91  C   UNL A   1      44.359  21.449  26.035  1.00  0.00     0.148 A 
ATOM     92  C   UNL A   1      46.050  22.753  24.217  1.00  0.00     0.002 A 
ATOM     93  C   UNL A   1      44.752  20.823  24.849  1.00  0.00     0.091 A 
ATOM     94  F   UNL A   1      43.452  20.879  26.834  1.00  0.00    -0.205 F 
ATOM     95  C   UNL A   1      45.599  21.472  23.941  1.00  0.00     0.022 A 
BRANCH  93  96
ATOM     96  S   UNL A   1      44.299  19.128  24.454  1.00  0.00     0.127 S 
ATOM     97  O   UNL A   1      45.073  18.367  25.433  1.00  0.00    -0.237 OA
ATOM     98  O   UNL A   1      42.856  19.154  24.693  1.00  0.00    -0.237 OA
ATOM     99  O   UNL A   1      44.692  18.927  23.066  1.00  0.00    -0.744 OA
ENDBRANCH  93  96
ENDBRANCH  65  89
BRANCH  77 100
ATOM    100  C   UNL A   1      45.893  26.159  31.932  1.00  0.00     0.023 A 
ATOM    101  C   UNL A   1      47.073  25.647  32.508  1.00  0.00     0.012 A 
ATOM    102  C   UNL A   1      44.672  25.989  32.620  1.00  0.00     0.148 A 
ATOM    103  C   UNL A   1      47.048  24.997  33.742  1.00  0.00     0.002 A 
ATOM    104  C   UNL A   1      44.660  25.384  33.874  1.00  0.00     0.091 A 
ATOM    105  F   UNL A   1      43.540  26.420  32.047  1.00  0.00    -0.205 F 
ATOM    106  C   UNL A   1      45.846  24.882  34.432  1.00  0.00     0.022 A 
BRANCH 104 107
ATOM    107  S   UNL A   1      43.182  25.258  34.888  1.00  0.00     0.127 S 
ATOM    108  O   UNL A   1      42.633  23.967  34.472  1.00  0.00    -0.237 OA
ATOM    109  O   UNL A   1      43.743  25.271  36.240  1.00  0.00    -0.237 OA
ATOM    110  O   UNL A   1      42.356  26.412  34.559  1.00  0.00    -0.744 OA
ENDBRANCH 104 107
ENDBRANCH  77 100
ENDBRANCH  51  52
ENDBRANCH  43  46
ENDBRANCH  41  42
ENDBRANCH  40  41
ENDBRANCH   1  40
TORSDOF 20
ENDMDL
MODEL 2
REMARK VINA RESULT:     -12.9      1.997      3.262
REMARK SMILES Cc1oc2c(C)c3oc(=O)c(CCC(=O)N[C@H](Cc4ccc(Cl)cc4)C(=O)NCCCCNC(=O)c4ccc(-c5c6nc(c(-c7cccc(S(=O)(=O)[O-])c7F)c7ccc([nH]7)c(-c7cccc(S(=O)(=O)[O-])c7F)c7nc(c(-c8cccc(S(=O)(=O)[O-])c8F)c8ccc5[nH]8)C=C7)C=C6)cc4)c(C)c3cc2c1C
REMARK SMILES IDX 30 1 29 2 28 3 26 4 27 5 17 7 16 8 14 9 15 10 13 12 12 13
REMARK SMILES IDX 11 14 1 15 2 16 3 17 104 18 4 19 103 20 105 21 5 22 102 23
REMARK SMILES IDX 6 24 7 25 101 26 8 27 99 28 9 29 100 30 10 31 18 32 19 33
REMARK SMILES IDX 20 34 25 35 21 36 24 37 22 38 23 39 31 40 32 41 33 42 34 43
REMARK SMILES IDX 35 45 36 46 37 47 98 48 38 49 97 50 39 51 40 52 41 53 91 54
REMARK SMILES IDX 42 55 96 56 90 57 92 58 43 59 95 60 89 61 88 62 44 64 76 65
REMARK SMILES IDX 56 66 75 67 57 68 60 69 74 70 93 71 58 72 59 73 73 75 94 76
REMARK SMILES IDX 61 77 45 78 46 79 54 80 47 81 49 82 55 83 48 84 50 85 51 86
REMARK SMILES IDX 52 87 53 88 77 89 78 90 86 91 79 92 81 93 87 94 80 95 82 96
REMARK SMILES IDX 83 97 84 98 85 99 62 100 63 101 71 102 64 103 66 104 72 105
REMARK SMILES IDX 65 106 67 107 68 108 69 109 70 110
REMARK H PARENT 28 6 16 11 33 44 92 63 60 74
REMARK Flexibility Score: inf
ROOT
ATOM      1  C   UNL A   1      33.535  30.507  27.185  1.00  0.00     0.023 C 
ENDROOT
BRANCH   1   2
ATOM      2  C   UNL A   1      32.679  30.153  25.976  1.00  0.00     0.116 C 
BRANCH   2   3
ATOM      3  N   UNL A   1      33.100  28.927  25.320  1.00  0.00    -0.354 N 
ATOM      4  C   UNL A   1      32.529  28.685  24.097  1.00  0.00     0.242 C 
ATOM      5  O   UNL A   1      32.919  29.328  23.122  1.00  0.00    -0.273 OA
ATOM      6  H   UNL A   1      33.751  28.311  25.727  1.00  0.00     0.163 HD
BRANCH   4   7
ATOM      7  C   UNL A   1      31.459  27.569  23.982  1.00  0.00     0.175 C 
BRANCH   7   8
ATOM      8  N   UNL A   1      31.788  26.908  22.701  1.00  0.00    -0.344 N 
ATOM      9  C   UNL A   1      31.796  25.594  22.345  1.00  0.00     0.220 C 
ATOM     10  O   UNL A   1      32.383  25.271  21.310  1.00  0.00    -0.275 OA
ATOM     11  H   UNL A   1      32.048  27.526  21.980  1.00  0.00     0.164 HD
BRANCH   9  12
ATOM     12  C   UNL A   1      31.066  24.551  23.166  1.00  0.00     0.105 C 
BRANCH  12  13
ATOM     13  C   UNL A   1      31.687  24.241  24.529  1.00  0.00     0.053 C 
BRANCH  13  14
ATOM     14  C   UNL A   1      33.003  23.507  24.384  1.00  0.00     0.042 A 
ATOM     15  C   UNL A   1      40.779  21.308  26.749  1.00  0.00     0.088 C 
ATOM     16  C   UNL A   1      39.462  21.798  26.288  1.00  0.00     0.105 A 
ATOM     17  O   UNL A   1      38.618  20.863  25.755  1.00  0.00    -0.461 OA
ATOM     18  C   UNL A   1      38.861  23.042  26.292  1.00  0.00    -0.002 A 
ATOM     19  C   UNL A   1      37.485  21.515  25.360  1.00  0.00     0.141 A 
ATOM     20  C   UNL A   1      37.627  22.871  25.603  1.00  0.00     0.025 A 
ATOM     21  C   UNL A   1      39.342  24.310  26.899  1.00  0.00     0.049 C 
ATOM     22  C   UNL A   1      36.330  20.924  24.833  1.00  0.00     0.036 A 
ATOM     23  C   UNL A   1      36.590  23.740  25.237  1.00  0.00     0.024 A 
ATOM     24  C   UNL A   1      36.213  19.444  24.647  1.00  0.00     0.052 C 
ATOM     25  C   UNL A   1      35.286  21.841  24.554  1.00  0.00     0.145 A 
ATOM     26  C   UNL A   1      35.391  23.225  24.728  1.00  0.00     0.022 A 
ATOM     27  O   UNL A   1      34.046  21.291  24.158  1.00  0.00    -0.422 OA
ATOM     28  C   UNL A   1      34.207  24.091  24.551  1.00  0.00    -0.030 A 
ATOM     29  C   UNL A   1      32.878  22.037  24.159  1.00  0.00     0.339 A 
ATOM     30  C   UNL A   1      34.399  25.578  24.746  1.00  0.00     0.046 C 
ATOM     31  O   UNL A   1      31.787  21.495  24.009  1.00  0.00    -0.246 OA
ENDBRANCH  13  14
ENDBRANCH  12  13
ENDBRANCH   9  12
ENDBRANCH   7   8
BRANCH   7  32
ATOM     32  C   UNL A   1      30.005  28.071  24.111  1.00  0.00     0.070 C 
BRANCH  32  33
ATOM     33  C   UNL A   1      29.762  29.354  23.347  1.00  0.00    -0.045 A 
ATOM     34  C   UNL A   1      29.577  29.280  21.957  1.00  0.00     0.005 A 
ATOM     35  C   UNL A   1      29.539  30.572  24.005  1.00  0.00     0.005 A 
ATOM     36  C   UNL A   1      29.062  30.366  21.254  1.00  0.00     0.021 A 
ATOM     37  C   UNL A   1      29.036  31.667  23.294  1.00  0.00     0.021 A 
ATOM     38  C   UNL A   1      28.771  31.548  21.929  1.00  0.00     0.041 A 
ATOM     39  Cl  UNL A   1      28.020  32.844  21.083  1.00  0.00    -0.084 Cl
ENDBRANCH  32  33
ENDBRANCH   7  32
ENDBRANCH   4   7
ENDBRANCH   2   3
ENDBRANCH   1   2
BRANCH   1  40
ATOM     40  C   UNL A   1      34.391  29.351  27.736  1.00  0.00     0.023 C 
BRANCH  40  41
ATOM     41  C   UNL A   1      35.879  29.663  27.988  1.00  0.00     0.116 C 
BRANCH  41  42
ATOM     42  N   UNL A   1      36.139  29.812  29.408  1.00  0.00    -0.352 N 
ATOM     43  C   UNL A   1      37.043  29.204  30.232  1.00  0.00     0.251 C 
ATOM     44  H   UNL A   1      35.561  30.469  29.857  1.00  0.00     0.163 HD
ATOM     45  O   UNL A   1      36.774  29.159  31.433  1.00  0.00    -0.269 OA
BRANCH  43  46
ATOM     46  C   UNL A   1      38.325  28.636  29.756  1.00  0.00     0.039 A 
ATOM     47  C   UNL A   1      39.151  29.479  29.000  1.00  0.00     0.014 A 
ATOM     48  C   UNL A   1      38.637  27.276  29.857  1.00  0.00     0.014 A 
ATOM     49  C   UNL A   1      40.279  28.972  28.355  1.00  0.00     0.010 A 
ATOM     50  C   UNL A   1      39.774  26.770  29.210  1.00  0.00     0.010 A 
ATOM     51  C   UNL A   1      40.602  27.612  28.455  1.00  0.00    -0.014 A 
BRANCH  51  52
ATOM     52  C   UNL A   1      41.878  27.173  27.847  1.00  0.00     0.031 A 
ATOM     53  C   UNL A   1      42.829  28.272  27.493  1.00  0.00     0.074 A 
ATOM     54  C   UNL A   1      42.363  25.924  28.036  1.00  0.00     0.049 A 
ATOM     55  N   UNL A   1      43.648  28.808  28.351  1.00  0.00    -0.248 NA
ATOM     56  C   UNL A   1      42.732  29.009  26.234  1.00  0.00     0.031 C 
ATOM     57  C   UNL A   1      42.282  25.216  29.319  1.00  0.00     0.029 A 
ATOM     58  N   UNL A   1      43.222  25.156  27.277  1.00  0.00    -0.354 N 
ATOM     59  C   UNL A   1      44.145  29.970  27.781  1.00  0.00     0.074 A 
ATOM     60  C   UNL A   1      43.550  30.050  26.465  1.00  0.00     0.031 C 
ATOM     61  C   UNL A   1      43.186  24.213  29.317  1.00  0.00     0.029 A 
ATOM     62  C   UNL A   1      43.802  24.108  27.994  1.00  0.00     0.049 A 
ATOM     63  H   UNL A   1      43.406  25.329  26.326  1.00  0.00     0.167 HD
ATOM     64  C   UNL A   1      45.025  30.790  28.420  1.00  0.00     0.034 A 
ATOM     65  C   UNL A   1      45.044  23.597  27.751  1.00  0.00     0.034 A 
ATOM     66  C   UNL A   1      45.450  30.334  29.715  1.00  0.00     0.049 A 
ATOM     67  C   UNL A   1      45.912  24.713  28.275  1.00  0.00     0.074 A 
ATOM     68  C   UNL A   1      45.162  30.595  31.036  1.00  0.00     0.029 A 
ATOM     69  N   UNL A   1      46.370  29.312  29.763  1.00  0.00    -0.354 N 
ATOM     70  N   UNL A   1      46.148  24.964  29.536  1.00  0.00    -0.248 NA
ATOM     71  C   UNL A   1      46.184  25.829  27.369  1.00  0.00     0.031 C 
ATOM     72  C   UNL A   1      45.563  29.422  31.756  1.00  0.00     0.029 A 
ATOM     73  C   UNL A   1      46.045  28.504  30.824  1.00  0.00     0.049 A 
ATOM     74  H   UNL A   1      47.127  29.183  29.147  1.00  0.00     0.167 HD
ATOM     75  C   UNL A   1      46.285  26.353  29.617  1.00  0.00     0.074 A 
ATOM     76  C   UNL A   1      46.307  26.818  28.243  1.00  0.00     0.031 C 
ATOM     77  C   UNL A   1      46.203  27.065  30.783  1.00  0.00     0.034 A 
BRANCH  64  78
ATOM     78  C   UNL A   1      45.711  31.951  27.799  1.00  0.00     0.023 A 
ATOM     79  C   UNL A   1      46.927  31.672  27.141  1.00  0.00     0.012 A 
ATOM     80  C   UNL A   1      45.325  33.288  27.995  1.00  0.00     0.148 A 
ATOM     81  C   UNL A   1      47.777  32.696  26.733  1.00  0.00     0.002 A 
ATOM     82  C   UNL A   1      46.176  34.311  27.574  1.00  0.00     0.091 A 
ATOM     83  F   UNL A   1      44.168  33.538  28.624  1.00  0.00    -0.205 F 
ATOM     84  C   UNL A   1      47.406  34.015  26.958  1.00  0.00     0.022 A 
BRANCH  82  85
ATOM     85  S   UNL A   1      45.810  36.058  27.801  1.00  0.00     0.127 S 
ATOM     86  O   UNL A   1      46.698  36.684  26.818  1.00  0.00    -0.237 OA
ATOM     87  O   UNL A   1      44.386  36.112  27.453  1.00  0.00    -0.237 OA
ATOM     88  O   UNL A   1      46.107  36.353  29.189  1.00  0.00    -0.744 OA
ENDBRANCH  82  85
ENDBRANCH  64  78
BRANCH  65  89
ATOM     89  C   UNL A   1      45.227  22.945  26.408  1.00  0.00     0.023 A 
ATOM     90  C   UNL A   1      46.061  23.624  25.486  1.00  0.00     0.012 A 
ATOM     91  C   UNL A   1      44.659  21.728  25.985  1.00  0.00     0.148 A 
ATOM     92  C   UNL A   1      46.415  23.065  24.256  1.00  0.00     0.002 A 
ATOM     93  C   UNL A   1      45.070  21.138  24.788  1.00  0.00     0.091 A 
ATOM     94  F   UNL A   1      43.723  21.146  26.742  1.00  0.00    -0.205 F 
ATOM     95  C   UNL A   1      45.949  21.802  23.924  1.00  0.00     0.022 A 
BRANCH  93  96
ATOM     96  S   UNL A   1      44.598  19.465  24.322  1.00  0.00     0.127 S 
ATOM     97  O   UNL A   1      43.308  19.311  24.991  1.00  0.00    -0.237 OA
ATOM     98  O   UNL A   1      44.529  19.583  22.866  1.00  0.00    -0.237 OA
ATOM     99  O   UNL A   1      45.659  18.601  24.821  1.00  0.00    -0.744 OA
ENDBRANCH  93  96
ENDBRANCH  65  89
BRANCH  77 100
ATOM    100  C   UNL A   1      46.108  26.261  32.049  1.00  0.00     0.023 A 
ATOM    101  C   UNL A   1      47.299  25.816  32.655  1.00  0.00     0.012 A 
ATOM    102  C   UNL A   1      44.878  25.988  32.687  1.00  0.00     0.148 A 
ATOM    103  C   UNL A   1      47.277  25.131  33.870  1.00  0.00     0.002 A 
ATOM    104  C   UNL A   1      44.865  25.349  33.924  1.00  0.00     0.091 A 
ATOM    105  F   UNL A   1      43.739  26.356  32.083  1.00  0.00    -0.205 F 
ATOM    106  C   UNL A   1      46.063  24.914  34.511  1.00  0.00     0.022 A 
BRANCH 104 107
ATOM    107  S   UNL A   1      43.364  25.093  34.879  1.00  0.00     0.127 S 
ATOM    108  O   UNL A   1      43.879  25.024  36.246  1.00  0.00    -0.237 OA
ATOM    109  O   UNL A   1      42.606  26.308  34.577  1.00  0.00    -0.237 OA
ATOM    110  O   UNL A   1      42.765  23.861  34.384  1.00  0.00    -0.744 OA
ENDBRANCH 104 107
ENDBRANCH  77 100
ENDBRANCH  51  52
ENDBRANCH  43  46
ENDBRANCH  41  42
ENDBRANCH  40  41
ENDBRANCH   1  40
TORSDOF 20
ENDMDL
MODEL 3
REMARK VINA RESULT:     -11.9      5.679     13.978
REMARK SMILES Cc1oc2c(C)c3oc(=O)c(CCC(=O)N[C@H](Cc4ccc(Cl)cc4)C(=O)NCCCCNC(=O)c4ccc(-c5c6nc(c(-c7cccc(S(=O)(=O)[O-])c7F)c7ccc([nH]7)c(-c7cccc(S(=O)(=O)[O-])c7F)c7nc(c(-c8cccc(S(=O)(=O)[O-])c8F)c8ccc5[nH]8)C=C7)C=C6)cc4)c(C)c3cc2c1C
REMARK SMILES IDX 30 1 29 2 28 3 26 4 27 5 17 7 16 8 14 9 15 10 13 12 12 13
REMARK SMILES IDX 11 14 1 15 2 16 3 17 104 18 4 19 103 20 105 21 5 22 102 23
REMARK SMILES IDX 6 24 7 25 101 26 8 27 99 28 9 29 100 30 10 31 18 32 19 33
REMARK SMILES IDX 20 34 25 35 21 36 24 37 22 38 23 39 31 40 32 41 33 42 34 43
REMARK SMILES IDX 35 45 36 46 37 47 98 48 38 49 97 50 39 51 40 52 41 53 91 54
REMARK SMILES IDX 42 55 96 56 90 57 92 58 43 59 95 60 89 61 88 62 44 64 76 65
REMARK SMILES IDX 56 66 75 67 57 68 60 69 74 70 93 71 58 72 59 73 73 75 94 76
REMARK SMILES IDX 61 77 45 78 46 79 54 80 47 81 49 82 55 83 48 84 50 85 51 86
REMARK SMILES IDX 52 87 53 88 77 89 78 90 86 91 79 92 81 93 87 94 80 95 82 96
REMARK SMILES IDX 83 97 84 98 85 99 62 100 63 101 71 102 64 103 66 104 72 105
REMARK SMILES IDX 65 106 67 107 68 108 69 109 70 110
REMARK H PARENT 28 6 16 11 33 44 92 63 60 74
REMARK Flexibility Score: inf
ROOT
ATOM      1  C   UNL A   1      41.814  27.303  35.411  1.00  0.00     0.023 C 
ENDROOT
BRANCH   1   2
ATOM      2  C   UNL A   1      42.196  28.765  35.221  1.00  0.00     0.116 C 
BRANCH   2   3
ATOM      3  N   UNL A   1      41.719  29.622  36.292  1.00  0.00    -0.354 N 
ATOM      4  C   UNL A   1      40.545  30.286  36.040  1.00  0.00     0.242 C 
ATOM      5  O   UNL A   1      39.487  29.656  36.085  1.00  0.00    -0.273 OA
ATOM      6  H   UNL A   1      42.205  29.721  37.143  1.00  0.00     0.163 HD
BRANCH   4   7
ATOM      7  C   UNL A   1      40.594  31.810  35.770  1.00  0.00     0.175 C 
BRANCH   7   8
ATOM      8  N   UNL A   1      39.195  32.241  35.973  1.00  0.00    -0.344 N 
ATOM      9  C   UNL A   1      38.610  32.945  36.981  1.00  0.00     0.220 C 
ATOM     10  O   UNL A   1      37.379  32.930  37.069  1.00  0.00    -0.275 OA
ATOM     11  H   UNL A   1      38.578  31.972  35.254  1.00  0.00     0.164 HD
BRANCH   9  12
ATOM     12  C   UNL A   1      39.433  33.767  37.951  1.00  0.00     0.105 C 
BRANCH  12  13
ATOM     13  C   UNL A   1      39.304  35.283  37.793  1.00  0.00     0.053 C 
BRANCH  13  14
ATOM     14  C   UNL A   1      40.419  35.848  36.940  1.00  0.00     0.042 A 
ATOM     15  C   UNL A   1      48.411  36.599  34.399  1.00  0.00     0.088 C 
ATOM     16  C   UNL A   1      47.035  36.544  34.938  1.00  0.00     0.105 A 
ATOM     17  O   UNL A   1      46.022  36.541  34.020  1.00  0.00    -0.461 OA
ATOM     18  C   UNL A   1      46.523  36.471  36.220  1.00  0.00    -0.002 A 
ATOM     19  C   UNL A   1      44.845  36.525  34.712  1.00  0.00     0.141 A 
ATOM     20  C   UNL A   1      45.111  36.560  36.070  1.00  0.00     0.025 A 
ATOM     21  C   UNL A   1      47.247  36.306  37.507  1.00  0.00     0.049 C 
ATOM     22  C   UNL A   1      43.560  36.439  34.160  1.00  0.00     0.036 A 
ATOM     23  C   UNL A   1      44.038  36.589  36.973  1.00  0.00     0.024 A 
ATOM     24  C   UNL A   1      43.338  36.345  32.684  1.00  0.00     0.052 C 
ATOM     25  C   UNL A   1      42.520  36.393  35.121  1.00  0.00     0.145 A 
ATOM     26  C   UNL A   1      42.723  36.479  36.502  1.00  0.00     0.022 A 
ATOM     27  O   UNL A   1      41.214  36.161  34.633  1.00  0.00    -0.422 OA
ATOM     28  C   UNL A   1      41.597  36.277  37.437  1.00  0.00    -0.030 A 
ATOM     29  C   UNL A   1      40.173  35.788  35.469  1.00  0.00     0.339 A 
ATOM     30  C   UNL A   1      41.891  36.395  38.916  1.00  0.00     0.046 C 
ATOM     31  O   UNL A   1      39.106  35.396  35.005  1.00  0.00    -0.246 OA
ENDBRANCH  13  14
ENDBRANCH  12  13
ENDBRANCH   9  12
ENDBRANCH   7   8
BRANCH   7  32
ATOM     32  C   UNL A   1      41.211  32.192  34.407  1.00  0.00     0.070 C 
BRANCH  32  33
ATOM     33  C   UNL A   1      42.645  32.660  34.528  1.00  0.00    -0.045 A 
ATOM     34  C   UNL A   1      43.180  32.848  35.812  1.00  0.00     0.005 A 
ATOM     35  C   UNL A   1      43.492  32.732  33.413  1.00  0.00     0.005 A 
ATOM     36  C   UNL A   1      44.555  32.986  35.990  1.00  0.00     0.021 A 
ATOM     37  C   UNL A   1      44.870  32.886  33.594  1.00  0.00     0.021 A 
ATOM     38  C   UNL A   1      45.397  32.980  34.882  1.00  0.00     0.041 A 
ATOM     39  Cl  UNL A   1      47.102  33.024  35.114  1.00  0.00    -0.084 Cl
ENDBRANCH  32  33
ENDBRANCH   7  32
ENDBRANCH   4   7
ENDBRANCH   2   3
ENDBRANCH   1   2
BRANCH   1  40
ATOM     40  C   UNL A   1      42.315  26.666  36.721  1.00  0.00     0.023 C 
BRANCH  40  41
ATOM     41  C   UNL A   1      42.137  25.140  36.850  1.00  0.00     0.116 C 
BRANCH  41  42
ATOM     42  N   UNL A   1      43.426  24.475  36.889  1.00  0.00    -0.352 N 
ATOM     43  C   UNL A   1      44.374  24.278  35.926  1.00  0.00     0.251 C 
ATOM     44  H   UNL A   1      43.660  24.099  37.768  1.00  0.00     0.163 HD
ATOM     45  O   UNL A   1      45.143  23.328  36.072  1.00  0.00    -0.269 OA
BRANCH  43  46
ATOM     46  C   UNL A   1      44.536  25.166  34.751  1.00  0.00     0.039 A 
ATOM     47  C   UNL A   1      43.931  24.754  33.555  1.00  0.00     0.014 A 
ATOM     48  C   UNL A   1      45.411  26.257  34.740  1.00  0.00     0.014 A 
ATOM     49  C   UNL A   1      44.192  25.426  32.362  1.00  0.00     0.010 A 
ATOM     50  C   UNL A   1      45.668  26.934  33.538  1.00  0.00     0.010 A 
ATOM     51  C   UNL A   1      45.063  26.524  32.342  1.00  0.00    -0.014 A 
BRANCH  51  52
ATOM     52  C   UNL A   1      45.194  27.261  31.065  1.00  0.00     0.031 A 
ATOM     53  C   UNL A   1      45.291  26.407  29.841  1.00  0.00     0.074 A 
ATOM     54  C   UNL A   1      44.777  28.541  30.937  1.00  0.00     0.049 A 
ATOM     55  N   UNL A   1      44.251  25.920  29.229  1.00  0.00    -0.248 NA
ATOM     56  C   UNL A   1      46.559  25.833  29.392  1.00  0.00     0.031 C 
ATOM     57  C   UNL A   1      43.546  29.052  31.553  1.00  0.00     0.029 A 
ATOM     58  N   UNL A   1      45.165  29.544  30.071  1.00  0.00    -0.354 N 
ATOM     59  C   UNL A   1      44.704  24.951  28.347  1.00  0.00     0.074 A 
ATOM     60  C   UNL A   1      46.144  24.936  28.482  1.00  0.00     0.031 C 
ATOM     61  C   UNL A   1      43.189  30.192  30.925  1.00  0.00     0.029 A 
ATOM     62  C   UNL A   1      44.230  30.577  29.973  1.00  0.00     0.049 A 
ATOM     63  H   UNL A   1      46.014  29.532  29.574  1.00  0.00     0.167 HD
ATOM     64  C   UNL A   1      43.869  24.227  27.550  1.00  0.00     0.034 A 
ATOM     65  C   UNL A   1      44.024  31.331  28.854  1.00  0.00     0.034 A 
ATOM     66  C   UNL A   1      42.480  24.581  27.646  1.00  0.00     0.049 A 
ATOM     67  C   UNL A   1      43.321  30.331  27.971  1.00  0.00     0.074 A 
ATOM     68  C   UNL A   1      41.343  24.103  28.261  1.00  0.00     0.029 A 
ATOM     69  N   UNL A   1      42.069  25.736  27.024  1.00  0.00    -0.354 N 
ATOM     70  N   UNL A   1      42.071  29.966  28.082  1.00  0.00    -0.248 NA
ATOM     71  C   UNL A   1      44.160  29.409  27.206  1.00  0.00     0.031 C 
ATOM     72  C   UNL A   1      40.457  25.226  28.356  1.00  0.00     0.029 A 
ATOM     73  C   UNL A   1      41.121  26.328  27.819  1.00  0.00     0.049 A 
ATOM     74  H   UNL A   1      42.396  26.077  26.161  1.00  0.00     0.167 HD
ATOM     75  C   UNL A   1      42.041  28.625  27.685  1.00  0.00     0.074 A 
ATOM     76  C   UNL A   1      43.361  28.354  27.147  1.00  0.00     0.031 C 
ATOM     77  C   UNL A   1      41.014  27.766  27.965  1.00  0.00     0.034 A 
BRANCH  64  78
ATOM     78  C   UNL A   1      44.309  23.298  26.479  1.00  0.00     0.023 A 
ATOM     79  C   UNL A   1      44.953  23.891  25.372  1.00  0.00     0.012 A 
ATOM     80  C   UNL A   1      43.955  21.940  26.422  1.00  0.00     0.148 A 
ATOM     81  C   UNL A   1      45.193  23.170  24.207  1.00  0.00     0.002 A 
ATOM     82  C   UNL A   1      44.209  21.218  25.254  1.00  0.00     0.091 A 
ATOM     83  F   UNL A   1      43.341  21.390  27.480  1.00  0.00    -0.205 F 
ATOM     84  C   UNL A   1      44.813  21.836  24.144  1.00  0.00     0.022 A 
BRANCH  82  85
ATOM     85  S   UNL A   1      43.770  19.486  25.049  1.00  0.00     0.127 S 
ATOM     86  O   UNL A   1      44.228  19.217  23.683  1.00  0.00    -0.237 OA
ATOM     87  O   UNL A   1      44.576  18.847  26.094  1.00  0.00    -0.237 OA
ATOM     88  O   UNL A   1      42.337  19.407  25.254  1.00  0.00    -0.744 OA
ENDBRANCH  82  85
ENDBRANCH  64  78
BRANCH  65  89
ATOM     89  C   UNL A   1      45.189  32.173  28.413  1.00  0.00     0.023 A 
ATOM     90  C   UNL A   1      46.447  31.859  28.986  1.00  0.00     0.012 A 
ATOM     91  C   UNL A   1      45.152  33.232  27.485  1.00  0.00     0.148 A 
ATOM     92  C   UNL A   1      47.627  32.479  28.567  1.00  0.00     0.002 A 
ATOM     93  C   UNL A   1      46.339  33.799  27.016  1.00  0.00     0.091 A 
ATOM     94  F   UNL A   1      43.968  33.686  27.060  1.00  0.00    -0.205 F 
ATOM     95  C   UNL A   1      47.577  33.423  27.553  1.00  0.00     0.022 A 
BRANCH  93  96
ATOM     96  S   UNL A   1      46.380  34.955  25.638  1.00  0.00     0.127 S 
ATOM     97  O   UNL A   1      45.886  36.185  26.253  1.00  0.00    -0.237 OA
ATOM     98  O   UNL A   1      47.806  34.958  25.310  1.00  0.00    -0.237 OA
ATOM     99  O   UNL A   1      45.513  34.384  24.617  1.00  0.00    -0.744 OA
ENDBRANCH  93  96
ENDBRANCH  65  89
BRANCH  77 100
ATOM    100  C   UNL A   1      39.797  28.368  28.610  1.00  0.00     0.023 A 
ATOM    101  C   UNL A   1      38.768  28.854  27.780  1.00  0.00     0.012 A 
ATOM    102  C   UNL A   1      39.619  28.410  30.009  1.00  0.00     0.148 A 
ATOM    103  C   UNL A   1      37.583  29.355  28.321  1.00  0.00     0.002 A 
ATOM    104  C   UNL A   1      38.415  28.864  30.543  1.00  0.00     0.091 A 
ATOM    105  F   UNL A   1      40.621  28.005  30.803  1.00  0.00    -0.205 F 
ATOM    106  C   UNL A   1      37.401  29.343  29.699  1.00  0.00     0.022 A 
BRANCH 104 107
ATOM    107  S   UNL A   1      38.040  28.815  32.300  1.00  0.00     0.127 S 
ATOM    108  O   UNL A   1      36.667  29.318  32.335  1.00  0.00    -0.237 OA
ATOM    109  O   UNL A   1      38.171  27.387  32.594  1.00  0.00    -0.237 OA
ATOM    110  O   UNL A   1      39.025  29.665  32.956  1.00  0.00    -0.744 OA
ENDBRANCH 104 107
ENDBRANCH  77 100
ENDBRANCH  51  52
ENDBRANCH  43  46
ENDBRANCH  41  42
ENDBRANCH  40  41
ENDBRANCH   1  40
TORSDOF 20
ENDMDL
