MODEL 1
REMARK VINA RESULT:     -12.6      0.000      0.000
REMARK SMILES Cc1ccccc1CNc1ccc(C(=O)NCCCCNC(=O)c2ccc(-c3c4nc(c(-c5cccc(S(=O)(=O)[O-])c5F)c5ccc([nH]5)c(-c5cccc(S(=O)(=O)[O-])c5F)c5nc(c(-c6cccc(S(=O)(=O)[O-])c6F)c6ccc3[nH]6)C=C5)C=C4)cc2)c(F)c1F
REMARK SMILES IDX 18 1 17 2 16 3 14 4 15 5 13 7 10 8 11 9 89 10 12 11 87 12
REMARK SMILES IDX 90 13 88 14 9 15 8 17 7 18 1 19 2 20 3 21 4 22 6 23 5 24
REMARK SMILES IDX 19 25 20 26 21 27 22 28 23 30 24 31 25 32 86 33 26 34 85 35
REMARK SMILES IDX 27 36 28 37 29 38 79 39 30 40 84 41 78 42 80 43 31 44 83 45
REMARK SMILES IDX 77 46 76 47 32 49 64 50 44 51 63 52 45 53 48 54 62 55 81 56
REMARK SMILES IDX 46 57 47 58 61 60 82 61 49 62 33 63 34 64 42 65 35 66 37 67
REMARK SMILES IDX 43 68 36 69 38 70 39 71 40 72 41 73 65 74 66 75 74 76 67 77
REMARK SMILES IDX 69 78 75 79 68 80 70 81 71 82 72 83 73 84 50 85 51 86 59 87
REMARK SMILES IDX 52 88 54 89 60 90 53 91 55 92 56 93 57 94 58 95
REMARK H PARENT 16 6 9 16 21 29 80 48 48 59
REMARK Flexibility Score: inf
ROOT
ATOM      1  C   UNL A   1      32.989  29.703  25.240  1.00  0.00     0.023 C 
ENDROOT
BRANCH   1   2
ATOM      2  C   UNL A   1      31.515  29.323  25.354  1.00  0.00     0.116 C 
BRANCH   2   3
ATOM      3  N   UNL A   1      30.746  29.549  24.135  1.00  0.00    -0.352 N 
ATOM      4  C   UNL A   1      30.502  28.786  23.015  1.00  0.00     0.254 C 
ATOM      5  O   UNL A   1      29.849  29.285  22.101  1.00  0.00    -0.269 OA
ATOM      6  H   UNL A   1      30.310  30.431  24.108  1.00  0.00     0.163 HD
BRANCH   4   7
ATOM      7  C   UNL A   1      31.002  27.400  22.883  1.00  0.00     0.078 A 
ATOM      8  C   UNL A   1      31.971  24.749  22.722  1.00  0.00     0.074 A 
ATOM      9  C   UNL A   1      30.669  25.019  23.137  1.00  0.00     0.030 A 
ATOM     10  C   UNL A   1      32.786  25.842  22.391  1.00  0.00     0.182 A 
ATOM     11  C   UNL A   1      30.165  26.310  23.103  1.00  0.00     0.019 A 
ATOM     12  C   UNL A   1      32.318  27.153  22.489  1.00  0.00     0.173 A 
ATOM     13  F   UNL A   1      34.034  25.618  21.946  1.00  0.00    -0.201 F 
ATOM     14  F   UNL A   1      33.156  28.154  22.176  1.00  0.00    -0.203 F 
BRANCH   8  15
ATOM     15  N   UNL A   1      32.418  23.446  22.572  1.00  0.00    -0.379 N 
ATOM     16  H   UNL A   1      32.448  23.043  21.674  1.00  0.00     0.161 HD
BRANCH  15  17
ATOM     17  C   UNL A   1      32.841  22.665  23.724  1.00  0.00     0.149 C 
BRANCH  17  18
ATOM     18  C   UNL A   1      34.225  23.078  24.154  1.00  0.00    -0.026 A 
ATOM     19  C   UNL A   1      33.459  24.072  26.399  1.00  0.00     0.044 C 
ATOM     20  C   UNL A   1      34.504  23.703  25.381  1.00  0.00    -0.046 A 
ATOM     21  C   UNL A   1      35.841  24.011  25.690  1.00  0.00     0.004 A 
ATOM     22  C   UNL A   1      36.884  23.684  24.821  1.00  0.00     0.000 A 
ATOM     23  C   UNL A   1      35.295  22.737  23.295  1.00  0.00     0.006 A 
ATOM     24  C   UNL A   1      36.612  23.040  23.623  1.00  0.00     0.000 A 
ENDBRANCH  17  18
ENDBRANCH  15  17
ENDBRANCH   8  15
ENDBRANCH   4   7
ENDBRANCH   2   3
ENDBRANCH   1   2
BRANCH   1  25
ATOM     25  C   UNL A   1      33.826  29.546  26.507  1.00  0.00     0.023 C 
BRANCH  25  26
ATOM     26  C   UNL A   1      33.616  30.678  27.489  1.00  0.00     0.116 C 
BRANCH  26  27
ATOM     27  N   UNL A   1      34.687  31.646  27.452  1.00  0.00    -0.352 N 
ATOM     28  C   UNL A   1      35.877  31.608  28.136  1.00  0.00     0.251 C 
ATOM     29  H   UNL A   1      34.547  32.425  26.867  1.00  0.00     0.163 HD
ATOM     30  O   UNL A   1      36.357  32.696  28.476  1.00  0.00    -0.269 OA
BRANCH  28  31
ATOM     31  C   UNL A   1      36.652  30.347  28.269  1.00  0.00     0.039 A 
ATOM     32  C   UNL A   1      36.749  29.786  29.551  1.00  0.00     0.014 A 
ATOM     33  C   UNL A   1      37.537  29.937  27.278  1.00  0.00     0.014 A 
ATOM     34  C   UNL A   1      37.894  29.088  29.912  1.00  0.00     0.010 A 
ATOM     35  C   UNL A   1      38.692  29.312  27.637  1.00  0.00     0.010 A 
ATOM     36  C   UNL A   1      38.905  28.999  28.976  1.00  0.00    -0.014 A 
BRANCH  36  37
ATOM     37  C   UNL A   1      40.251  28.538  29.200  1.00  0.00     0.031 A 
ATOM     38  C   UNL A   1      40.517  27.119  28.955  1.00  0.00     0.074 A 
ATOM     39  C   UNL A   1      41.187  29.514  29.182  1.00  0.00     0.049 A 
ATOM     40  N   UNL A   1      41.653  26.559  29.133  1.00  0.00    -0.248 NA
ATOM     41  C   UNL A   1      39.484  26.206  28.474  1.00  0.00     0.031 C 
ATOM     42  C   UNL A   1      42.569  29.448  28.732  1.00  0.00     0.029 A 
ATOM     43  N   UNL A   1      41.073  30.839  29.561  1.00  0.00    -0.354 N 
ATOM     44  C   UNL A   1      41.599  25.327  28.515  1.00  0.00     0.074 A 
ATOM     45  C   UNL A   1      40.202  25.104  28.245  1.00  0.00     0.031 C 
ATOM     46  C   UNL A   1      43.211  30.564  29.134  1.00  0.00     0.029 A 
ATOM     47  C   UNL A   1      42.309  31.282  30.021  1.00  0.00     0.049 A 
ATOM     48  H   UNL A   1      40.251  31.380  29.513  1.00  0.00     0.167 HD
ATOM     49  C   UNL A   1      42.780  24.743  28.168  1.00  0.00     0.034 A 
ATOM     50  C   UNL A   1      42.528  31.457  31.366  1.00  0.00     0.034 A 
ATOM     51  C   UNL A   1      43.897  25.567  28.676  1.00  0.00     0.049 A 
ATOM     52  C   UNL A   1      43.462  30.395  31.946  1.00  0.00     0.074 A 
ATOM     53  C   UNL A   1      44.691  26.538  28.087  1.00  0.00     0.029 A 
ATOM     54  N   UNL A   1      44.045  25.726  30.051  1.00  0.00    -0.354 N 
ATOM     55  N   UNL A   1      43.838  29.319  31.307  1.00  0.00    -0.248 NA
ATOM     56  C   UNL A   1      44.075  30.477  33.270  1.00  0.00     0.031 C 
ATOM     57  C   UNL A   1      45.216  27.361  29.128  1.00  0.00     0.029 A 
ATOM     58  C   UNL A   1      44.777  26.870  30.348  1.00  0.00     0.049 A 
ATOM     59  H   UNL A   1      43.680  25.109  30.725  1.00  0.00     0.167 HD
ATOM     60  C   UNL A   1      44.611  28.527  32.107  1.00  0.00     0.074 A 
ATOM     61  C   UNL A   1      44.792  29.338  33.303  1.00  0.00     0.031 C 
ATOM     62  C   UNL A   1      44.996  27.260  31.743  1.00  0.00     0.034 A 
BRANCH  49  63
ATOM     63  C   UNL A   1      42.974  23.606  27.173  1.00  0.00     0.023 A 
ATOM     64  C   UNL A   1      43.692  23.917  25.995  1.00  0.00     0.012 A 
ATOM     65  C   UNL A   1      42.484  22.278  27.253  1.00  0.00     0.148 A 
ATOM     66  C   UNL A   1      43.867  23.003  24.948  1.00  0.00     0.002 A 
ATOM     67  C   UNL A   1      42.646  21.365  26.204  1.00  0.00     0.091 A 
ATOM     68  F   UNL A   1      41.873  21.851  28.355  1.00  0.00    -0.205 F 
ATOM     69  C   UNL A   1      43.333  21.729  25.046  1.00  0.00     0.022 A 
BRANCH  67  70
ATOM     70  S   UNL A   1      41.978  19.687  26.250  1.00  0.00     0.127 S 
ATOM     71  O   UNL A   1      40.537  19.929  26.167  1.00  0.00    -0.237 OA
ATOM     72  O   UNL A   1      42.561  19.085  25.053  1.00  0.00    -0.237 OA
ATOM     73  O   UNL A   1      42.417  19.099  27.510  1.00  0.00    -0.744 OA
ENDBRANCH  67  70
ENDBRANCH  49  63
BRANCH  50  74
ATOM     74  C   UNL A   1      41.329  32.054  32.051  1.00  0.00     0.023 A 
ATOM     75  C   UNL A   1      40.857  33.279  31.513  1.00  0.00     0.012 A 
ATOM     76  C   UNL A   1      40.438  31.258  32.792  1.00  0.00     0.148 A 
ATOM     77  C   UNL A   1      39.492  33.578  31.504  1.00  0.00     0.002 A 
ATOM     78  C   UNL A   1      39.078  31.576  32.799  1.00  0.00     0.091 A 
ATOM     79  F   UNL A   1      40.911  30.175  33.420  1.00  0.00    -0.205 F 
ATOM     80  C   UNL A   1      38.596  32.695  32.099  1.00  0.00     0.022 A 
BRANCH  78  81
ATOM     81  S   UNL A   1      37.872  30.510  33.606  1.00  0.00     0.127 S 
ATOM     82  O   UNL A   1      36.635  30.912  32.943  1.00  0.00    -0.237 OA
ATOM     83  O   UNL A   1      38.336  29.168  33.258  1.00  0.00    -0.237 OA
ATOM     84  O   UNL A   1      37.977  30.829  35.021  1.00  0.00    -0.744 OA
ENDBRANCH  78  81
ENDBRANCH  50  74
BRANCH  62  85
ATOM     85  C   UNL A   1      45.615  26.245  32.688  1.00  0.00     0.023 A 
ATOM     86  C   UNL A   1      47.006  26.052  32.780  1.00  0.00     0.012 A 
ATOM     87  C   UNL A   1      44.816  25.557  33.640  1.00  0.00     0.148 A 
ATOM     88  C   UNL A   1      47.571  25.167  33.704  1.00  0.00     0.002 A 
ATOM     89  C   UNL A   1      45.395  24.796  34.649  1.00  0.00     0.091 A 
ATOM     90  F   UNL A   1      43.478  25.619  33.565  1.00  0.00    -0.205 F 
ATOM     91  C   UNL A   1      46.769  24.559  34.657  1.00  0.00     0.022 A 
BRANCH  89  92
ATOM     92  S   UNL A   1      44.433  24.252  36.067  1.00  0.00     0.127 S 
ATOM     93  O   UNL A   1      45.457  23.644  36.912  1.00  0.00    -0.237 OA
ATOM     94  O   UNL A   1      43.890  25.513  36.577  1.00  0.00    -0.237 OA
ATOM     95  O   UNL A   1      43.428  23.348  35.522  1.00  0.00    -0.744 OA
ENDBRANCH  89  92
ENDBRANCH  62  85
ENDBRANCH  36  37
ENDBRANCH  28  31
ENDBRANCH  26  27
ENDBRANCH  25  26
ENDBRANCH   1  25
TORSDOF 17
ENDMDL
MODEL 2
REMARK VINA RESULT:     -11.8      4.011      9.387
REMARK SMILES Cc1ccccc1CNc1ccc(C(=O)NCCCCNC(=O)c2ccc(-c3c4nc(c(-c5cccc(S(=O)(=O)[O-])c5F)c5ccc([nH]5)c(-c5cccc(S(=O)(=O)[O-])c5F)c5nc(c(-c6cccc(S(=O)(=O)[O-])c6F)c6ccc3[nH]6)C=C5)C=C4)cc2)c(F)c1F
REMARK SMILES IDX 18 1 17 2 16 3 14 4 15 5 13 7 10 8 11 9 89 10 12 11 87 12
REMARK SMILES IDX 90 13 88 14 9 15 8 17 7 18 1 19 2 20 3 21 4 22 6 23 5 24
REMARK SMILES IDX 19 25 20 26 21 27 22 28 23 30 24 31 25 32 86 33 26 34 85 35
REMARK SMILES IDX 27 36 28 37 29 38 79 39 30 40 84 41 78 42 80 43 31 44 83 45
REMARK SMILES IDX 77 46 76 47 32 49 64 50 44 51 63 52 45 53 48 54 62 55 81 56
REMARK SMILES IDX 46 57 47 58 61 60 82 61 49 62 33 63 34 64 42 65 35 66 37 67
REMARK SMILES IDX 43 68 36 69 38 70 39 71 40 72 41 73 65 74 66 75 74 76 67 77
REMARK SMILES IDX 69 78 75 79 68 80 70 81 71 82 72 83 73 84 50 85 51 86 59 87
REMARK SMILES IDX 52 88 54 89 60 90 53 91 55 92 56 93 57 94 58 95
REMARK H PARENT 16 6 9 16 21 29 80 48 48 59
REMARK Flexibility Score: inf
ROOT
ATOM      1  C   UNL A   1      36.881  20.300  25.253  1.00  0.00     0.023 C 
ENDROOT
BRANCH   1   2
ATOM      2  C   UNL A   1      35.501  20.937  25.406  1.00  0.00     0.116 C 
BRANCH   2   3
ATOM      3  N   UNL A   1      34.478  20.354  24.545  1.00  0.00    -0.352 N 
ATOM      4  C   UNL A   1      33.178  20.703  24.250  1.00  0.00     0.254 C 
ATOM      5  O   UNL A   1      32.529  19.961  23.517  1.00  0.00    -0.269 OA
ATOM      6  H   UNL A   1      34.778  19.542  24.078  1.00  0.00     0.163 HD
BRANCH   4   7
ATOM      7  C   UNL A   1      32.552  21.930  24.788  1.00  0.00     0.078 A 
ATOM      8  C   UNL A   1      31.286  24.266  25.756  1.00  0.00     0.074 A 
ATOM      9  C   UNL A   1      30.853  22.998  26.136  1.00  0.00     0.030 A 
ATOM     10  C   UNL A   1      32.371  24.342  24.870  1.00  0.00     0.182 A 
ATOM     11  C   UNL A   1      31.549  21.862  25.751  1.00  0.00     0.019 A 
ATOM     12  C   UNL A   1      32.986  23.191  24.374  1.00  0.00     0.173 A 
ATOM     13  F   UNL A   1      32.844  25.549  24.514  1.00  0.00    -0.201 F 
ATOM     14  F   UNL A   1      34.007  23.334  23.514  1.00  0.00    -0.203 F 
BRANCH   8  15
ATOM     15  N   UNL A   1      30.712  25.408  26.291  1.00  0.00    -0.379 N 
ATOM     16  H   UNL A   1      30.586  25.477  27.265  1.00  0.00     0.161 HD
BRANCH  15  17
ATOM     17  C   UNL A   1      30.292  26.504  25.433  1.00  0.00     0.149 C 
BRANCH  17  18
ATOM     18  C   UNL A   1      31.091  27.744  25.741  1.00  0.00    -0.026 A 
ATOM     19  C   UNL A   1      30.845  28.743  23.384  1.00  0.00     0.044 C 
ATOM     20  C   UNL A   1      31.326  28.769  24.809  1.00  0.00    -0.046 A 
ATOM     21  C   UNL A   1      32.057  29.898  25.221  1.00  0.00     0.004 A 
ATOM     22  C   UNL A   1      32.522  30.026  26.532  1.00  0.00     0.000 A 
ATOM     23  C   UNL A   1      31.552  27.900  27.068  1.00  0.00     0.006 A 
ATOM     24  C   UNL A   1      32.265  29.028  27.460  1.00  0.00     0.000 A 
ENDBRANCH  17  18
ENDBRANCH  15  17
ENDBRANCH   8  15
ENDBRANCH   4   7
ENDBRANCH   2   3
ENDBRANCH   1   2
BRANCH   1  25
ATOM     25  C   UNL A   1      38.028  21.251  24.924  1.00  0.00     0.023 C 
BRANCH  25  26
ATOM     26  C   UNL A   1      38.068  22.457  25.838  1.00  0.00     0.116 C 
BRANCH  26  27
ATOM     27  N   UNL A   1      39.168  22.404  26.773  1.00  0.00    -0.352 N 
ATOM     28  C   UNL A   1      40.087  23.388  27.044  1.00  0.00     0.251 C 
ATOM     29  H   UNL A   1      39.271  21.564  27.275  1.00  0.00     0.163 HD
ATOM     30  O   UNL A   1      41.227  23.016  27.344  1.00  0.00    -0.269 OA
BRANCH  28  31
ATOM     31  C   UNL A   1      39.678  24.810  27.180  1.00  0.00     0.039 A 
ATOM     32  C   UNL A   1      40.371  25.755  26.407  1.00  0.00     0.014 A 
ATOM     33  C   UNL A   1      38.922  25.243  28.264  1.00  0.00     0.014 A 
ATOM     34  C   UNL A   1      40.563  27.039  26.898  1.00  0.00     0.010 A 
ATOM     35  C   UNL A   1      39.157  26.477  28.788  1.00  0.00     0.010 A 
ATOM     36  C   UNL A   1      40.068  27.319  28.157  1.00  0.00    -0.014 A 
BRANCH  36  37
ATOM     37  C   UNL A   1      40.346  28.484  28.955  1.00  0.00     0.031 A 
ATOM     38  C   UNL A   1      39.405  29.601  28.850  1.00  0.00     0.074 A 
ATOM     39  C   UNL A   1      41.165  28.260  30.007  1.00  0.00     0.049 A 
ATOM     40  N   UNL A   1      39.532  30.710  29.476  1.00  0.00    -0.248 NA
ATOM     41  C   UNL A   1      38.216  29.539  28.005  1.00  0.00     0.031 C 
ATOM     42  C   UNL A   1      41.171  28.899  31.315  1.00  0.00     0.029 A 
ATOM     43  N   UNL A   1      42.197  27.347  30.131  1.00  0.00    -0.354 N 
ATOM     44  C   UNL A   1      38.326  31.372  29.375  1.00  0.00     0.074 A 
ATOM     45  C   UNL A   1      37.599  30.672  28.348  1.00  0.00     0.031 C 
ATOM     46  C   UNL A   1      42.310  28.566  31.956  1.00  0.00     0.029 A 
ATOM     47  C   UNL A   1      43.152  27.864  31.000  1.00  0.00     0.049 A 
ATOM     48  H   UNL A   1      42.246  26.473  29.678  1.00  0.00     0.167 HD
ATOM     49  C   UNL A   1      38.051  32.327  30.307  1.00  0.00     0.034 A 
ATOM     50  C   UNL A   1      44.340  28.355  30.515  1.00  0.00     0.034 A 
ATOM     51  C   UNL A   1      39.232  32.512  31.176  1.00  0.00     0.049 A 
ATOM     52  C   UNL A   1      44.423  29.878  30.612  1.00  0.00     0.074 A 
ATOM     53  C   UNL A   1      39.573  32.000  32.418  1.00  0.00     0.029 A 
ATOM     54  N   UNL A   1      40.414  32.987  30.614  1.00  0.00    -0.354 N 
ATOM     55  N   UNL A   1      43.412  30.651  30.910  1.00  0.00    -0.248 NA
ATOM     56  C   UNL A   1      45.650  30.647  30.418  1.00  0.00     0.031 C 
ATOM     57  C   UNL A   1      40.995  32.060  32.537  1.00  0.00     0.029 A 
ATOM     58  C   UNL A   1      41.514  32.642  31.392  1.00  0.00     0.049 A 
ATOM     59  H   UNL A   1      40.465  33.500  29.776  1.00  0.00     0.167 HD
ATOM     60  C   UNL A   1      43.775  31.967  30.847  1.00  0.00     0.074 A 
ATOM     61  C   UNL A   1      45.211  31.905  30.610  1.00  0.00     0.031 C 
ATOM     62  C   UNL A   1      42.866  32.990  30.947  1.00  0.00     0.034 A 
BRANCH  49  63
ATOM     63  C   UNL A   1      36.683  32.913  30.632  1.00  0.00     0.023 A 
ATOM     64  C   UNL A   1      36.135  32.572  31.890  1.00  0.00     0.012 A 
ATOM     65  C   UNL A   1      35.861  33.725  29.811  1.00  0.00     0.148 A 
ATOM     66  C   UNL A   1      34.849  32.956  32.288  1.00  0.00     0.002 A 
ATOM     67  C   UNL A   1      34.569  34.102  30.199  1.00  0.00     0.091 A 
ATOM     68  F   UNL A   1      36.312  34.180  28.645  1.00  0.00    -0.205 F 
ATOM     69  C   UNL A   1      34.058  33.712  31.437  1.00  0.00     0.022 A 
BRANCH  67  70
ATOM     70  S   UNL A   1      33.474  35.082  29.148  1.00  0.00     0.127 S 
ATOM     71  O   UNL A   1      32.709  35.847  30.133  1.00  0.00    -0.237 OA
ATOM     72  O   UNL A   1      34.420  35.876  28.365  1.00  0.00    -0.237 OA
ATOM     73  O   UNL A   1      32.680  34.135  28.375  1.00  0.00    -0.744 OA
ENDBRANCH  67  70
ENDBRANCH  49  63
BRANCH  50  74
ATOM     74  C   UNL A   1      44.874  27.506  29.394  1.00  0.00     0.023 A 
ATOM     75  C   UNL A   1      45.089  26.138  29.703  1.00  0.00     0.012 A 
ATOM     76  C   UNL A   1      44.689  27.870  28.048  1.00  0.00     0.148 A 
ATOM     77  C   UNL A   1      44.881  25.146  28.741  1.00  0.00     0.002 A 
ATOM     78  C   UNL A   1      44.506  26.873  27.087  1.00  0.00     0.091 A 
ATOM     79  F   UNL A   1      44.629  29.170  27.735  1.00  0.00    -0.205 F 
ATOM     80  C   UNL A   1      44.533  25.515  27.445  1.00  0.00     0.022 A 
BRANCH  78  81
ATOM     81  S   UNL A   1      44.117  27.282  25.378  1.00  0.00     0.127 S 
ATOM     82  O   UNL A   1      43.552  26.025  24.897  1.00  0.00    -0.237 OA
ATOM     83  O   UNL A   1      43.148  28.369  25.513  1.00  0.00    -0.237 OA
ATOM     84  O   UNL A   1      45.386  27.683  24.790  1.00  0.00    -0.744 OA
ENDBRANCH  78  81
ENDBRANCH  50  74
BRANCH  62  85
ATOM     85  C   UNL A   1      43.165  34.442  30.616  1.00  0.00     0.023 A 
ATOM     86  C   UNL A   1      43.585  35.366  31.592  1.00  0.00     0.012 A 
ATOM     87  C   UNL A   1      43.189  34.890  29.268  1.00  0.00     0.148 A 
ATOM     88  C   UNL A   1      43.928  36.681  31.266  1.00  0.00     0.002 A 
ATOM     89  C   UNL A   1      43.673  36.151  28.939  1.00  0.00     0.091 A 
ATOM     90  F   UNL A   1      42.723  34.101  28.289  1.00  0.00    -0.205 F 
ATOM     91  C   UNL A   1      43.999  37.068  29.937  1.00  0.00     0.022 A 
BRANCH  89  92
ATOM     92  S   UNL A   1      44.069  36.574  27.237  1.00  0.00     0.127 S 
ATOM     93  O   UNL A   1      44.992  35.505  26.865  1.00  0.00    -0.237 OA
ATOM     94  O   UNL A   1      42.759  36.503  26.585  1.00  0.00    -0.237 OA
ATOM     95  O   UNL A   1      44.631  37.917  27.298  1.00  0.00    -0.744 OA
ENDBRANCH  89  92
ENDBRANCH  62  85
ENDBRANCH  36  37
ENDBRANCH  28  31
ENDBRANCH  26  27
ENDBRANCH  25  26
ENDBRANCH   1  25
TORSDOF 17
ENDMDL
MODEL 3
REMARK VINA RESULT:     -11.7      1.765      2.085
REMARK SMILES Cc1ccccc1CNc1ccc(C(=O)NCCCCNC(=O)c2ccc(-c3c4nc(c(-c5cccc(S(=O)(=O)[O-])c5F)c5ccc([nH]5)c(-c5cccc(S(=O)(=O)[O-])c5F)c5nc(c(-c6cccc(S(=O)(=O)[O-])c6F)c6ccc3[nH]6)C=C5)C=C4)cc2)c(F)c1F
REMARK SMILES IDX 18 1 17 2 16 3 14 4 15 5 13 7 10 8 11 9 89 10 12 11 87 12
REMARK SMILES IDX 90 13 88 14 9 15 8 17 7 18 1 19 2 20 3 21 4 22 6 23 5 24
REMARK SMILES IDX 19 25 20 26 21 27 22 28 23 30 24 31 25 32 86 33 26 34 85 35
REMARK SMILES IDX 27 36 28 37 29 38 79 39 30 40 84 41 78 42 80 43 31 44 83 45
REMARK SMILES IDX 77 46 76 47 32 49 64 50 44 51 63 52 45 53 48 54 62 55 81 56
REMARK SMILES IDX 46 57 47 58 61 60 82 61 49 62 33 63 34 64 42 65 35 66 37 67
REMARK SMILES IDX 43 68 36 69 38 70 39 71 40 72 41 73 65 74 66 75 74 76 67 77
REMARK SMILES IDX 69 78 75 79 68 80 70 81 71 82 72 83 73 84 50 85 51 86 59 87
REMARK SMILES IDX 52 88 54 89 60 90 53 91 55 92 56 93 57 94 58 95
REMARK H PARENT 16 6 9 16 21 29 80 48 48 59
REMARK Flexibility Score: inf
ROOT
ATOM      1  C   UNL A   1      33.077  29.142  25.400  1.00  0.00     0.023 C 
ENDROOT
BRANCH   1   2
ATOM      2  C   UNL A   1      31.674  29.727  25.537  1.00  0.00     0.116 C 
BRANCH   2   3
ATOM      3  N   UNL A   1      31.034  30.043  24.263  1.00  0.00    -0.352 N 
ATOM      4  C   UNL A   1      30.654  29.280  23.181  1.00  0.00     0.254 C 
ATOM      5  O   UNL A   1      30.183  29.855  22.202  1.00  0.00    -0.269 OA
ATOM      6  H   UNL A   1      30.833  31.000  24.155  1.00  0.00     0.163 HD
BRANCH   4   7
ATOM      7  C   UNL A   1      30.799  27.808  23.166  1.00  0.00     0.078 A 
ATOM      8  C   UNL A   1      31.105  24.998  23.224  1.00  0.00     0.074 A 
ATOM      9  C   UNL A   1      29.993  25.616  23.790  1.00  0.00     0.030 A 
ATOM     10  C   UNL A   1      32.071  25.822  22.627  1.00  0.00     0.182 A 
ATOM     11  C   UNL A   1      29.792  26.982  23.657  1.00  0.00     0.019 A 
ATOM     12  C   UNL A   1      31.934  27.211  22.615  1.00  0.00     0.173 A 
ATOM     13  F   UNL A   1      33.137  25.258  22.033  1.00  0.00    -0.201 F 
ATOM     14  F   UNL A   1      32.905  27.942  22.045  1.00  0.00    -0.203 F 
BRANCH   8  15
ATOM     15  N   UNL A   1      31.214  23.617  23.188  1.00  0.00    -0.379 N 
ATOM     16  H   UNL A   1      31.172  23.149  22.322  1.00  0.00     0.161 HD
BRANCH  15  17
ATOM     17  C   UNL A   1      31.389  22.851  24.411  1.00  0.00     0.149 C 
BRANCH  17  18
ATOM     18  C   UNL A   1      32.850  22.769  24.771  1.00  0.00    -0.026 A 
ATOM     19  C   UNL A   1      32.837  24.919  26.183  1.00  0.00     0.044 C 
ATOM     20  C   UNL A   1      33.501  23.705  25.593  1.00  0.00    -0.046 A 
ATOM     21  C   UNL A   1      34.862  23.507  25.890  1.00  0.00     0.004 A 
ATOM     22  C   UNL A   1      35.558  22.395  25.410  1.00  0.00     0.000 A 
ATOM     23  C   UNL A   1      33.565  21.640  24.311  1.00  0.00     0.006 A 
ATOM     24  C   UNL A   1      34.908  21.456  24.624  1.00  0.00     0.000 A 
ENDBRANCH  17  18
ENDBRANCH  15  17
ENDBRANCH   8  15
ENDBRANCH   4   7
ENDBRANCH   2   3
ENDBRANCH   1   2
BRANCH   1  25
ATOM     25  C   UNL A   1      33.983  29.274  26.622  1.00  0.00     0.023 C 
BRANCH  25  26
ATOM     26  C   UNL A   1      33.725  30.541  27.406  1.00  0.00     0.116 C 
BRANCH  26  27
ATOM     27  N   UNL A   1      34.836  31.462  27.349  1.00  0.00    -0.352 N 
ATOM     28  C   UNL A   1      36.039  31.369  28.006  1.00  0.00     0.251 C 
ATOM     29  H   UNL A   1      34.718  32.249  26.770  1.00  0.00     0.163 HD
ATOM     30  O   UNL A   1      36.573  32.433  28.340  1.00  0.00    -0.269 OA
BRANCH  28  31
ATOM     31  C   UNL A   1      36.759  30.074  28.117  1.00  0.00     0.039 A 
ATOM     32  C   UNL A   1      36.656  29.384  29.334  1.00  0.00     0.014 A 
ATOM     33  C   UNL A   1      37.774  29.734  27.228  1.00  0.00     0.014 A 
ATOM     34  C   UNL A   1      37.720  28.613  29.782  1.00  0.00     0.010 A 
ATOM     35  C   UNL A   1      38.849  29.036  27.682  1.00  0.00     0.010 A 
ATOM     36  C   UNL A   1      38.857  28.583  28.997  1.00  0.00    -0.014 A 
BRANCH  36  37
ATOM     37  C   UNL A   1      40.145  28.055  29.364  1.00  0.00     0.031 A 
ATOM     38  C   UNL A   1      40.456  26.694  28.922  1.00  0.00     0.074 A 
ATOM     39  C   UNL A   1      41.065  28.994  29.680  1.00  0.00     0.049 A 
ATOM     40  N   UNL A   1      41.546  26.082  29.192  1.00  0.00    -0.248 NA
ATOM     41  C   UNL A   1      39.526  25.906  28.118  1.00  0.00     0.031 C 
ATOM     42  C   UNL A   1      42.505  28.972  29.469  1.00  0.00     0.029 A 
ATOM     43  N   UNL A   1      40.881  30.236  30.262  1.00  0.00    -0.354 N 
ATOM     44  C   UNL A   1      41.606  24.978  28.366  1.00  0.00     0.074 A 
ATOM     45  C   UNL A   1      40.279  24.843  27.825  1.00  0.00     0.031 C 
ATOM     46  C   UNL A   1      43.062  29.983  30.167  1.00  0.00     0.029 A 
ATOM     47  C   UNL A   1      42.016  30.558  30.998  1.00  0.00     0.049 A 
ATOM     48  H   UNL A   1      40.078  30.798  30.169  1.00  0.00     0.167 HD
ATOM     49  C   UNL A   1      42.832  24.433  28.130  1.00  0.00     0.034 A 
ATOM     50  C   UNL A   1      41.999  30.491  32.370  1.00  0.00     0.034 A 
ATOM     51  C   UNL A   1      43.840  25.126  28.959  1.00  0.00     0.049 A 
ATOM     52  C   UNL A   1      42.823  29.320  32.905  1.00  0.00     0.074 A 
ATOM     53  C   UNL A   1      44.720  26.164  28.696  1.00  0.00     0.029 A 
ATOM     54  N   UNL A   1      43.746  25.039  30.346  1.00  0.00    -0.354 N 
ATOM     55  N   UNL A   1      43.309  28.362  32.160  1.00  0.00    -0.248 NA
ATOM     56  C   UNL A   1      43.195  29.153  34.308  1.00  0.00     0.031 C 
ATOM     57  C   UNL A   1      45.052  26.779  29.940  1.00  0.00     0.029 A 
ATOM     58  C   UNL A   1      44.411  26.094  30.960  1.00  0.00     0.049 A 
ATOM     59  H   UNL A   1      43.272  24.324  30.827  1.00  0.00     0.167 HD
ATOM     60  C   UNL A   1      43.934  27.423  32.929  1.00  0.00     0.074 A 
ATOM     61  C   UNL A   1      43.901  28.007  34.262  1.00  0.00     0.031 C 
ATOM     62  C   UNL A   1      44.382  26.229  32.419  1.00  0.00     0.034 A 
BRANCH  49  63
ATOM     63  C   UNL A   1      43.201  23.482  26.998  1.00  0.00     0.023 A 
ATOM     64  C   UNL A   1      43.816  24.063  25.865  1.00  0.00     0.012 A 
ATOM     65  C   UNL A   1      42.964  22.087  26.913  1.00  0.00     0.148 A 
ATOM     66  C   UNL A   1      44.124  23.332  24.710  1.00  0.00     0.002 A 
ATOM     67  C   UNL A   1      43.258  21.355  25.756  1.00  0.00     0.091 A 
ATOM     68  F   UNL A   1      42.473  21.423  27.956  1.00  0.00    -0.205 F 
ATOM     69  C   UNL A   1      43.835  21.979  24.649  1.00  0.00     0.022 A 
BRANCH  67  70
ATOM     70  S   UNL A   1      42.909  19.590  25.595  1.00  0.00     0.127 S 
ATOM     71  O   UNL A   1      41.451  19.577  25.468  1.00  0.00    -0.237 OA
ATOM     72  O   UNL A   1      43.627  19.240  24.371  1.00  0.00    -0.237 OA
ATOM     73  O   UNL A   1      43.412  18.953  26.806  1.00  0.00    -0.744 OA
ENDBRANCH  67  70
ENDBRANCH  49  63
BRANCH  50  74
ATOM     74  C   UNL A   1      40.696  30.990  32.933  1.00  0.00     0.023 A 
ATOM     75  C   UNL A   1      39.943  30.047  33.679  1.00  0.00     0.012 A 
ATOM     76  C   UNL A   1      40.476  32.360  33.164  1.00  0.00     0.148 A 
ATOM     77  C   UNL A   1      39.184  30.449  34.781  1.00  0.00     0.002 A 
ATOM     78  C   UNL A   1      39.696  32.754  34.254  1.00  0.00     0.091 A 
ATOM     79  F   UNL A   1      41.076  33.253  32.368  1.00  0.00    -0.205 F 
ATOM     80  C   UNL A   1      39.108  31.800  35.101  1.00  0.00     0.022 A 
BRANCH  78  81
ATOM     81  S   UNL A   1      39.503  34.491  34.685  1.00  0.00     0.127 S 
ATOM     82  O   UNL A   1      38.508  34.927  33.709  1.00  0.00    -0.237 OA
ATOM     83  O   UNL A   1      39.015  34.435  36.062  1.00  0.00    -0.237 OA
ATOM     84  O   UNL A   1      40.834  35.063  34.545  1.00  0.00    -0.744 OA
ENDBRANCH  78  81
ENDBRANCH  50  74
BRANCH  62  85
ATOM     85  C   UNL A   1      44.832  25.048  33.262  1.00  0.00     0.023 A 
ATOM     86  C   UNL A   1      44.045  23.893  33.420  1.00  0.00     0.012 A 
ATOM     87  C   UNL A   1      46.147  24.998  33.799  1.00  0.00     0.148 A 
ATOM     88  C   UNL A   1      44.496  22.782  34.138  1.00  0.00     0.002 A 
ATOM     89  C   UNL A   1      46.640  23.836  34.381  1.00  0.00     0.091 A 
ATOM     90  F   UNL A   1      46.928  26.087  33.767  1.00  0.00    -0.205 F 
ATOM     91  C   UNL A   1      45.805  22.741  34.596  1.00  0.00     0.022 A 
BRANCH  89  92
ATOM     92  S   UNL A   1      48.398  23.637  34.704  1.00  0.00     0.127 S 
ATOM     93  O   UNL A   1      48.582  24.461  35.896  1.00  0.00    -0.237 OA
ATOM     94  O   UNL A   1      48.511  22.195  34.935  1.00  0.00    -0.237 OA
ATOM     95  O   UNL A   1      49.063  24.100  33.493  1.00  0.00    -0.744 OA
ENDBRANCH  89  92
ENDBRANCH  62  85
ENDBRANCH  36  37
ENDBRANCH  28  31
ENDBRANCH  26  27
ENDBRANCH  25  26
ENDBRANCH   1  25
TORSDOF 17
ENDMDL
