MODEL 1
REMARK VINA RESULT:     -12.0      0.000      0.000
REMARK SMILES O=C(NCCCCNC(=O)c1ccc(OC[C@H]2C[C@H]3CC[C@@H]2C3)c(Cl)c1)c1ccc(-c2c3nc(c(-c4cccc(S(=O)(=O)[O-])c4F)c4ccc([nH]4)c(-c4cccc(S(=O)(=O)[O-])c4F)c4nc(c(-c5cccc(S(=O)(=O)[O-])c5F)c5ccc2[nH]5)C=C4)C=C3)cc1
REMARK SMILES IDX 5 1 4 2 3 3 1 4 2 5 27 7 28 8 89 9 29 10 88 11 30 12 31 13
REMARK SMILES IDX 32 14 82 15 33 16 87 17 81 18 83 19 34 20 86 21 80 22 79 23
REMARK SMILES IDX 35 25 67 26 47 27 66 28 48 29 51 30 65 31 84 32 49 33 50 34
REMARK SMILES IDX 64 36 85 37 52 38 36 39 37 40 45 41 38 42 40 43 46 44 39 45
REMARK SMILES IDX 41 46 42 47 43 48 44 49 68 50 69 51 77 52 70 53 72 54 78 55
REMARK SMILES IDX 71 56 73 57 74 58 75 59 76 60 53 61 54 62 62 63 55 64 57 65
REMARK SMILES IDX 63 66 56 67 58 68 59 69 60 70 61 71 6 72 7 73 8 74 9 75
REMARK SMILES IDX 10 77 11 78 12 79 26 80 13 81 24 82 14 83 25 84 15 85 16 86
REMARK SMILES IDX 17 87 18 88 22 89 19 90 21 91 23 92 20 93
REMARK H PARENT 3 6 83 24 51 35 8 76
REMARK Flexibility Score: inf
ROOT
ATOM      1  C   UNL A   1      37.679  19.513  24.974  1.00  0.00     0.023 C 
ENDROOT
BRANCH   1   2
ATOM      2  C   UNL A   1      38.853  20.188  25.675  1.00  0.00     0.116 C 
BRANCH   2   3
ATOM      3  N   UNL A   1      39.960  19.282  25.928  1.00  0.00    -0.352 N 
ATOM      4  O   UNL A   1      42.093  18.700  26.349  1.00  0.00    -0.269 OA
ATOM      5  C   UNL A   1      41.248  19.588  26.298  1.00  0.00     0.251 C 
ATOM      6  H   UNL A   1      39.761  18.324  25.822  1.00  0.00     0.163 HD
BRANCH   5   7
ATOM      7  C   UNL A   1      41.608  20.991  26.599  1.00  0.00     0.039 A 
ATOM      8  C   UNL A   1      41.671  21.447  27.920  1.00  0.00     0.014 A 
ATOM      9  C   UNL A   1      41.899  21.856  25.541  1.00  0.00     0.014 A 
ATOM     10  C   UNL A   1      41.927  22.792  28.176  1.00  0.00     0.010 A 
ATOM     11  C   UNL A   1      42.213  23.192  25.804  1.00  0.00     0.010 A 
ATOM     12  C   UNL A   1      42.213  23.673  27.122  1.00  0.00    -0.014 A 
BRANCH  12  13
ATOM     13  C   UNL A   1      42.628  25.065  27.423  1.00  0.00     0.031 A 
ATOM     14  C   UNL A   1      41.690  26.040  28.075  1.00  0.00     0.074 A 
ATOM     15  C   UNL A   1      43.868  25.450  27.066  1.00  0.00     0.049 A 
ATOM     16  N   UNL A   1      41.914  27.282  28.422  1.00  0.00    -0.248 NA
ATOM     17  C   UNL A   1      40.326  25.574  28.372  1.00  0.00     0.031 C 
ATOM     18  C   UNL A   1      44.840  24.604  26.368  1.00  0.00     0.029 A 
ATOM     19  N   UNL A   1      44.520  26.646  27.221  1.00  0.00    -0.354 N 
ATOM     20  C   UNL A   1      40.718  27.758  28.942  1.00  0.00     0.074 A 
ATOM     21  C   UNL A   1      39.765  26.670  28.869  1.00  0.00     0.031 C 
ATOM     22  C   UNL A   1      45.963  25.305  26.158  1.00  0.00     0.029 A 
ATOM     23  C   UNL A   1      45.781  26.656  26.675  1.00  0.00     0.049 A 
ATOM     24  H   UNL A   1      44.124  27.421  27.680  1.00  0.00     0.167 HD
ATOM     25  C   UNL A   1      40.449  28.983  29.451  1.00  0.00     0.034 A 
ATOM     26  C   UNL A   1      46.689  27.648  26.583  1.00  0.00     0.034 A 
ATOM     27  C   UNL A   1      41.418  30.041  29.571  1.00  0.00     0.049 A 
ATOM     28  C   UNL A   1      46.366  28.986  27.180  1.00  0.00     0.074 A 
ATOM     29  C   UNL A   1      41.276  31.270  30.191  1.00  0.00     0.029 A 
ATOM     30  N   UNL A   1      42.699  30.006  29.044  1.00  0.00    -0.354 N 
ATOM     31  N   UNL A   1      45.294  29.354  27.839  1.00  0.00    -0.248 NA
ATOM     32  C   UNL A   1      47.381  30.039  27.041  1.00  0.00     0.031 C 
ATOM     33  C   UNL A   1      42.468  31.985  30.025  1.00  0.00     0.029 A 
ATOM     34  C   UNL A   1      43.350  31.200  29.301  1.00  0.00     0.049 A 
ATOM     35  H   UNL A   1      43.089  29.242  28.559  1.00  0.00     0.167 HD
ATOM     36  C   UNL A   1      45.507  30.679  28.199  1.00  0.00     0.074 A 
ATOM     37  C   UNL A   1      46.827  31.036  27.718  1.00  0.00     0.031 C 
ATOM     38  C   UNL A   1      44.675  31.530  28.845  1.00  0.00     0.034 A 
BRANCH  25  39
ATOM     39  C   UNL A   1      39.066  29.247  29.983  1.00  0.00     0.023 A 
ATOM     40  C   UNL A   1      38.742  28.834  31.289  1.00  0.00     0.012 A 
ATOM     41  C   UNL A   1      38.133  29.997  29.239  1.00  0.00     0.148 A 
ATOM     42  C   UNL A   1      37.507  29.159  31.850  1.00  0.00     0.002 A 
ATOM     43  C   UNL A   1      36.914  30.338  29.814  1.00  0.00     0.091 A 
ATOM     44  F   UNL A   1      38.456  30.361  27.990  1.00  0.00    -0.205 F 
ATOM     45  C   UNL A   1      36.599  29.919  31.117  1.00  0.00     0.022 A 
BRANCH  43  46
ATOM     46  S   UNL A   1      35.699  31.363  28.976  1.00  0.00     0.127 S 
ATOM     47  O   UNL A   1      34.888  31.834  30.099  1.00  0.00    -0.237 OA
ATOM     48  O   UNL A   1      36.536  32.392  28.357  1.00  0.00    -0.237 OA
ATOM     49  O   UNL A   1      35.015  30.488  28.035  1.00  0.00    -0.744 OA
ENDBRANCH  43  46
ENDBRANCH  25  39
BRANCH  26  50
ATOM     50  C   UNL A   1      48.001  27.383  25.933  1.00  0.00     0.023 A 
ATOM     51  C   UNL A   1      49.065  26.878  26.703  1.00  0.00     0.012 A 
ATOM     52  C   UNL A   1      48.180  27.566  24.549  1.00  0.00     0.148 A 
ATOM     53  C   UNL A   1      50.290  26.573  26.106  1.00  0.00     0.002 A 
ATOM     54  C   UNL A   1      49.384  27.206  23.952  1.00  0.00     0.091 A 
ATOM     55  F   UNL A   1      47.167  28.070  23.830  1.00  0.00    -0.205 F 
ATOM     56  C   UNL A   1      50.445  26.722  24.729  1.00  0.00     0.022 A 
BRANCH  54  57
ATOM     57  S   UNL A   1      49.567  27.235  22.165  1.00  0.00     0.127 S 
ATOM     58  O   UNL A   1      50.983  26.928  21.997  1.00  0.00    -0.237 OA
ATOM     59  O   UNL A   1      48.653  26.176  21.732  1.00  0.00    -0.237 OA
ATOM     60  O   UNL A   1      49.140  28.574  21.778  1.00  0.00    -0.744 OA
ENDBRANCH  54  57
ENDBRANCH  26  50
BRANCH  38  61
ATOM     61  C   UNL A   1      45.154  32.940  29.047  1.00  0.00     0.023 A 
ATOM     62  C   UNL A   1      45.870  33.258  30.218  1.00  0.00     0.012 A 
ATOM     63  C   UNL A   1      44.957  33.929  28.065  1.00  0.00     0.148 A 
ATOM     64  C   UNL A   1      46.364  34.544  30.419  1.00  0.00     0.002 A 
ATOM     65  C   UNL A   1      45.484  35.202  28.256  1.00  0.00     0.091 A 
ATOM     66  F   UNL A   1      44.252  33.614  26.968  1.00  0.00    -0.205 F 
ATOM     67  C   UNL A   1      46.181  35.512  29.435  1.00  0.00     0.022 A 
BRANCH  65  68
ATOM     68  S   UNL A   1      45.359  36.482  27.002  1.00  0.00     0.127 S 
ATOM     69  O   UNL A   1      46.077  35.875  25.883  1.00  0.00    -0.237 OA
ATOM     70  O   UNL A   1      43.913  36.597  26.808  1.00  0.00    -0.237 OA
ATOM     71  O   UNL A   1      45.980  37.665  27.584  1.00  0.00    -0.744 OA
ENDBRANCH  65  68
ENDBRANCH  38  61
ENDBRANCH  12  13
ENDBRANCH   5   7
ENDBRANCH   2   3
ENDBRANCH   1   2
BRANCH   1  72
ATOM     72  C   UNL A   1      36.360  20.287  25.012  1.00  0.00     0.023 C 
BRANCH  72  73
ATOM     73  C   UNL A   1      36.462  21.695  25.594  1.00  0.00     0.116 C 
BRANCH  73  74
ATOM     74  N   UNL A   1      35.527  21.907  26.690  1.00  0.00    -0.352 N 
ATOM     75  C   UNL A   1      34.365  22.638  26.681  1.00  0.00     0.251 C 
ATOM     76  H   UNL A   1      35.758  21.472  27.543  1.00  0.00     0.163 HD
ATOM     77  O   UNL A   1      33.630  22.712  27.654  1.00  0.00    -0.269 OA
BRANCH  75  78
ATOM     78  C   UNL A   1      34.007  23.329  25.435  1.00  0.00     0.041 A 
ATOM     79  C   UNL A   1      34.834  24.347  24.968  1.00  0.00     0.018 A 
ATOM     80  C   UNL A   1      32.779  23.055  24.829  1.00  0.00     0.038 A 
ATOM     81  C   UNL A   1      34.408  25.115  23.886  1.00  0.00     0.049 A 
ATOM     82  C   UNL A   1      32.345  23.850  23.765  1.00  0.00     0.083 A 
ATOM     83  C   UNL A   1      33.172  24.867  23.270  1.00  0.00     0.137 A 
ATOM     84  Cl  UNL A   1      30.717  23.604  23.243  1.00  0.00    -0.080 Cl
BRANCH  83  85
ATOM     85  O   UNL A   1      32.858  25.784  22.310  1.00  0.00    -0.492 OA
BRANCH  85  86
ATOM     86  C   UNL A   1      33.274  27.142  22.476  1.00  0.00     0.233 C 
BRANCH  86  87
ATOM     87  C   UNL A   1      32.131  28.157  22.621  1.00  0.00     0.030 C 
ATOM     88  C   UNL A   1      30.723  27.551  22.399  1.00  0.00     0.011 C 
ATOM     89  C   UNL A   1      31.995  28.752  24.050  1.00  0.00    -0.004 C 
ATOM     90  C   UNL A   1      29.974  27.897  23.699  1.00  0.00    -0.010 C 
ATOM     91  C   UNL A   1      31.901  27.646  25.115  1.00  0.00     0.004 C 
ATOM     92  C   UNL A   1      30.554  29.268  24.036  1.00  0.00     0.007 C 
ATOM     93  C   UNL A   1      30.529  27.021  24.837  1.00  0.00     0.004 C 
ENDBRANCH  86  87
ENDBRANCH  85  86
ENDBRANCH  83  85
ENDBRANCH  75  78
ENDBRANCH  73  74
ENDBRANCH  72  73
ENDBRANCH   1  72
TORSDOF 17
ENDMDL
MODEL 2
REMARK VINA RESULT:     -11.8      5.635      9.277
REMARK SMILES O=C(NCCCCNC(=O)c1ccc(OC[C@H]2C[C@H]3CC[C@@H]2C3)c(Cl)c1)c1ccc(-c2c3nc(c(-c4cccc(S(=O)(=O)[O-])c4F)c4ccc([nH]4)c(-c4cccc(S(=O)(=O)[O-])c4F)c4nc(c(-c5cccc(S(=O)(=O)[O-])c5F)c5ccc2[nH]5)C=C4)C=C3)cc1
REMARK SMILES IDX 5 1 4 2 3 3 1 4 2 5 27 7 28 8 89 9 29 10 88 11 30 12 31 13
REMARK SMILES IDX 32 14 82 15 33 16 87 17 81 18 83 19 34 20 86 21 80 22 79 23
REMARK SMILES IDX 35 25 67 26 47 27 66 28 48 29 51 30 65 31 84 32 49 33 50 34
REMARK SMILES IDX 64 36 85 37 52 38 36 39 37 40 45 41 38 42 40 43 46 44 39 45
REMARK SMILES IDX 41 46 42 47 43 48 44 49 68 50 69 51 77 52 70 53 72 54 78 55
REMARK SMILES IDX 71 56 73 57 74 58 75 59 76 60 53 61 54 62 62 63 55 64 57 65
REMARK SMILES IDX 63 66 56 67 58 68 59 69 60 70 61 71 6 72 7 73 8 74 9 75
REMARK SMILES IDX 10 77 11 78 12 79 26 80 13 81 24 82 14 83 25 84 15 85 16 86
REMARK SMILES IDX 17 87 18 88 22 89 19 90 21 91 23 92 20 93
REMARK H PARENT 3 6 83 24 51 35 8 76
REMARK Flexibility Score: inf
ROOT
ATOM      1  C   UNL A   1      31.446  31.493  26.547  1.00  0.00     0.023 C 
ENDROOT
BRANCH   1   2
ATOM      2  C   UNL A   1      32.762  32.208  26.828  1.00  0.00     0.116 C 
BRANCH   2   3
ATOM      3  N   UNL A   1      32.577  33.547  27.362  1.00  0.00    -0.352 N 
ATOM      4  O   UNL A   1      32.907  35.265  28.778  1.00  0.00    -0.269 OA
ATOM      5  C   UNL A   1      33.279  34.171  28.365  1.00  0.00     0.251 C 
ATOM      6  H   UNL A   1      31.855  34.075  26.951  1.00  0.00     0.163 HD
BRANCH   5   7
ATOM      7  C   UNL A   1      34.457  33.503  28.959  1.00  0.00     0.039 A 
ATOM      8  C   UNL A   1      35.746  34.006  28.755  1.00  0.00     0.014 A 
ATOM      9  C   UNL A   1      34.264  32.361  29.741  1.00  0.00     0.014 A 
ATOM     10  C   UNL A   1      36.847  33.312  29.251  1.00  0.00     0.010 A 
ATOM     11  C   UNL A   1      35.366  31.698  30.286  1.00  0.00     0.010 A 
ATOM     12  C   UNL A   1      36.667  32.159  30.031  1.00  0.00    -0.014 A 
BRANCH  12  13
ATOM     13  C   UNL A   1      37.841  31.518  30.672  1.00  0.00     0.031 A 
ATOM     14  C   UNL A   1      38.230  31.829  32.089  1.00  0.00     0.074 A 
ATOM     15  C   UNL A   1      38.580  30.666  29.936  1.00  0.00     0.049 A 
ATOM     16  N   UNL A   1      39.215  31.333  32.793  1.00  0.00    -0.248 NA
ATOM     17  C   UNL A   1      37.422  32.825  32.810  1.00  0.00     0.031 C 
ATOM     18  C   UNL A   1      38.331  30.341  28.528  1.00  0.00     0.029 A 
ATOM     19  N   UNL A   1      39.692  29.931  30.255  1.00  0.00    -0.354 N 
ATOM     20  C   UNL A   1      39.171  31.977  34.022  1.00  0.00     0.074 A 
ATOM     21  C   UNL A   1      38.058  32.903  33.973  1.00  0.00     0.031 C 
ATOM     22  C   UNL A   1      39.260  29.471  28.107  1.00  0.00     0.029 A 
ATOM     23  C   UNL A   1      40.188  29.203  29.199  1.00  0.00     0.049 A 
ATOM     24  H   UNL A   1      40.096  29.925  31.153  1.00  0.00     0.167 HD
ATOM     25  C   UNL A   1      39.974  31.797  35.097  1.00  0.00     0.034 A 
ATOM     26  C   UNL A   1      41.279  28.417  29.113  1.00  0.00     0.034 A 
ATOM     27  C   UNL A   1      41.044  30.835  35.157  1.00  0.00     0.049 A 
ATOM     28  C   UNL A   1      42.132  28.220  30.331  1.00  0.00     0.074 A 
ATOM     29  C   UNL A   1      41.826  30.487  36.244  1.00  0.00     0.029 A 
ATOM     30  N   UNL A   1      41.494  30.084  34.083  1.00  0.00    -0.354 N 
ATOM     31  N   UNL A   1      41.957  28.694  31.540  1.00  0.00    -0.248 NA
ATOM     32  C   UNL A   1      43.318  27.366  30.182  1.00  0.00     0.031 C 
ATOM     33  C   UNL A   1      42.762  29.535  35.822  1.00  0.00     0.029 A 
ATOM     34  C   UNL A   1      42.561  29.293  34.474  1.00  0.00     0.049 A 
ATOM     35  H   UNL A   1      41.111  30.108  33.176  1.00  0.00     0.167 HD
ATOM     36  C   UNL A   1      43.008  28.192  32.299  1.00  0.00     0.074 A 
ATOM     37  C   UNL A   1      43.791  27.347  31.420  1.00  0.00     0.031 C 
ATOM     38  C   UNL A   1      43.311  28.431  33.598  1.00  0.00     0.034 A 
BRANCH  25  39
ATOM     39  C   UNL A   1      39.702  32.607  36.335  1.00  0.00     0.023 A 
ATOM     40  C   UNL A   1      40.344  33.851  36.496  1.00  0.00     0.012 A 
ATOM     41  C   UNL A   1      38.735  32.197  37.275  1.00  0.00     0.148 A 
ATOM     42  C   UNL A   1      40.031  34.675  37.577  1.00  0.00     0.002 A 
ATOM     43  C   UNL A   1      38.411  33.035  38.336  1.00  0.00     0.091 A 
ATOM     44  F   UNL A   1      38.153  31.001  37.111  1.00  0.00    -0.205 F 
ATOM     45  C   UNL A   1      39.059  34.272  38.490  1.00  0.00     0.022 A 
BRANCH  43  46
ATOM     46  S   UNL A   1      37.132  32.635  39.533  1.00  0.00     0.127 S 
ATOM     47  O   UNL A   1      35.925  32.715  38.711  1.00  0.00    -0.237 OA
ATOM     48  O   UNL A   1      37.503  31.280  39.941  1.00  0.00    -0.237 OA
ATOM     49  O   UNL A   1      37.239  33.637  40.584  1.00  0.00    -0.744 OA
ENDBRANCH  43  46
ENDBRANCH  25  39
BRANCH  26  50
ATOM     50  C   UNL A   1      41.588  27.731  27.828  1.00  0.00     0.023 A 
ATOM     51  C   UNL A   1      42.050  28.486  26.734  1.00  0.00     0.012 A 
ATOM     52  C   UNL A   1      41.487  26.332  27.705  1.00  0.00     0.148 A 
ATOM     53  C   UNL A   1      42.396  27.859  25.536  1.00  0.00     0.002 A 
ATOM     54  C   UNL A   1      41.887  25.710  26.527  1.00  0.00     0.091 A 
ATOM     55  F   UNL A   1      41.022  25.626  28.746  1.00  0.00    -0.205 F 
ATOM     56  C   UNL A   1      42.329  26.471  25.436  1.00  0.00     0.022 A 
BRANCH  54  57
ATOM     57  S   UNL A   1      41.964  23.919  26.416  1.00  0.00     0.127 S 
ATOM     58  O   UNL A   1      42.586  23.719  25.111  1.00  0.00    -0.237 OA
ATOM     59  O   UNL A   1      42.808  23.563  27.559  1.00  0.00    -0.237 OA
ATOM     60  O   UNL A   1      40.578  23.487  26.551  1.00  0.00    -0.744 OA
ENDBRANCH  54  57
ENDBRANCH  26  50
BRANCH  38  61
ATOM     61  C   UNL A   1      44.558  27.792  34.141  1.00  0.00     0.023 A 
ATOM     62  C   UNL A   1      45.772  28.505  34.083  1.00  0.00     0.012 A 
ATOM     63  C   UNL A   1      44.524  26.529  34.760  1.00  0.00     0.148 A 
ATOM     64  C   UNL A   1      46.939  27.960  34.612  1.00  0.00     0.002 A 
ATOM     65  C   UNL A   1      45.685  26.007  35.319  1.00  0.00     0.091 A 
ATOM     66  F   UNL A   1      43.364  25.856  34.784  1.00  0.00    -0.205 F 
ATOM     67  C   UNL A   1      46.894  26.718  35.240  1.00  0.00     0.022 A 
BRANCH  65  68
ATOM     68  S   UNL A   1      45.694  24.449  36.213  1.00  0.00     0.127 S 
ATOM     69  O   UNL A   1      47.058  24.412  36.738  1.00  0.00    -0.237 OA
ATOM     70  O   UNL A   1      44.657  24.658  37.225  1.00  0.00    -0.237 OA
ATOM     71  O   UNL A   1      45.369  23.426  35.227  1.00  0.00    -0.744 OA
ENDBRANCH  65  68
ENDBRANCH  38  61
ENDBRANCH  12  13
ENDBRANCH   5   7
ENDBRANCH   2   3
ENDBRANCH   1   2
BRANCH   1  72
ATOM     72  C   UNL A   1      31.550  29.977  26.368  1.00  0.00     0.023 C 
BRANCH  72  73
ATOM     73  C   UNL A   1      32.107  29.529  25.019  1.00  0.00     0.116 C 
BRANCH  73  74
ATOM     74  N   UNL A   1      31.164  29.750  23.932  1.00  0.00    -0.352 N 
ATOM     75  C   UNL A   1      30.863  28.909  22.889  1.00  0.00     0.251 C 
ATOM     76  H   UNL A   1      30.682  30.608  23.948  1.00  0.00     0.163 HD
ATOM     77  O   UNL A   1      30.017  29.182  22.051  1.00  0.00    -0.269 OA
BRANCH  75  78
ATOM     78  C   UNL A   1      31.588  27.634  22.814  1.00  0.00     0.041 A 
ATOM     79  C   UNL A   1      32.821  27.597  22.168  1.00  0.00     0.018 A 
ATOM     80  C   UNL A   1      30.964  26.466  23.255  1.00  0.00     0.038 A 
ATOM     81  C   UNL A   1      33.426  26.362  21.947  1.00  0.00     0.049 A 
ATOM     82  C   UNL A   1      31.562  25.228  23.000  1.00  0.00     0.083 A 
ATOM     83  C   UNL A   1      32.812  25.173  22.369  1.00  0.00     0.137 A 
ATOM     84  Cl  UNL A   1      30.609  23.833  23.355  1.00  0.00    -0.080 Cl
BRANCH  83  85
ATOM     85  O   UNL A   1      33.478  24.053  21.966  1.00  0.00    -0.492 OA
BRANCH  85  86
ATOM     86  C   UNL A   1      34.065  23.196  22.949  1.00  0.00     0.233 C 
BRANCH  86  87
ATOM     87  C   UNL A   1      35.268  23.793  23.693  1.00  0.00     0.030 C 
ATOM     88  C   UNL A   1      34.949  24.244  25.140  1.00  0.00     0.011 C 
ATOM     89  C   UNL A   1      36.428  22.785  23.926  1.00  0.00    -0.004 C 
ATOM     90  C   UNL A   1      35.969  23.465  25.991  1.00  0.00    -0.010 C 
ATOM     91  C   UNL A   1      35.928  21.500  24.608  1.00  0.00     0.004 C 
ATOM     92  C   UNL A   1      37.189  23.449  25.076  1.00  0.00     0.007 C 
ATOM     93  C   UNL A   1      35.561  21.981  26.016  1.00  0.00     0.004 C 
ENDBRANCH  86  87
ENDBRANCH  85  86
ENDBRANCH  83  85
ENDBRANCH  75  78
ENDBRANCH  73  74
ENDBRANCH  72  73
ENDBRANCH   1  72
TORSDOF 17
ENDMDL
MODEL 3
REMARK VINA RESULT:     -11.6      5.177      9.775
REMARK SMILES O=C(NCCCCNC(=O)c1ccc(OC[C@H]2C[C@H]3CC[C@@H]2C3)c(Cl)c1)c1ccc(-c2c3nc(c(-c4cccc(S(=O)(=O)[O-])c4F)c4ccc([nH]4)c(-c4cccc(S(=O)(=O)[O-])c4F)c4nc(c(-c5cccc(S(=O)(=O)[O-])c5F)c5ccc2[nH]5)C=C4)C=C3)cc1
REMARK SMILES IDX 5 1 4 2 3 3 1 4 2 5 27 7 28 8 89 9 29 10 88 11 30 12 31 13
REMARK SMILES IDX 32 14 82 15 33 16 87 17 81 18 83 19 34 20 86 21 80 22 79 23
REMARK SMILES IDX 35 25 67 26 47 27 66 28 48 29 51 30 65 31 84 32 49 33 50 34
REMARK SMILES IDX 64 36 85 37 52 38 36 39 37 40 45 41 38 42 40 43 46 44 39 45
REMARK SMILES IDX 41 46 42 47 43 48 44 49 68 50 69 51 77 52 70 53 72 54 78 55
REMARK SMILES IDX 71 56 73 57 74 58 75 59 76 60 53 61 54 62 62 63 55 64 57 65
REMARK SMILES IDX 63 66 56 67 58 68 59 69 60 70 61 71 6 72 7 73 8 74 9 75
REMARK SMILES IDX 10 77 11 78 12 79 26 80 13 81 24 82 14 83 25 84 15 85 16 86
REMARK SMILES IDX 17 87 18 88 22 89 19 90 21 91 23 92 20 93
REMARK H PARENT 3 6 83 24 51 35 8 76
REMARK Flexibility Score: inf
ROOT
ATOM      1  C   UNL A   1      33.000  28.648  27.253  1.00  0.00     0.023 C 
ENDROOT
BRANCH   1   2
ATOM      2  C   UNL A   1      34.163  29.624  27.120  1.00  0.00     0.116 C 
BRANCH   2   3
ATOM      3  N   UNL A   1      33.937  30.876  27.822  1.00  0.00    -0.352 N 
ATOM      4  O   UNL A   1      34.315  32.473  29.362  1.00  0.00    -0.269 OA
ATOM      5  C   UNL A   1      34.722  31.472  28.780  1.00  0.00     0.251 C 
ATOM      6  H   UNL A   1      33.114  31.359  27.580  1.00  0.00     0.163 HD
BRANCH   5   7
ATOM      7  C   UNL A   1      36.035  30.883  29.121  1.00  0.00     0.039 A 
ATOM      8  C   UNL A   1      37.217  31.408  28.590  1.00  0.00     0.014 A 
ATOM      9  C   UNL A   1      36.080  29.794  29.997  1.00  0.00     0.014 A 
ATOM     10  C   UNL A   1      38.433  30.783  28.856  1.00  0.00     0.010 A 
ATOM     11  C   UNL A   1      37.307  29.205  30.309  1.00  0.00     0.010 A 
ATOM     12  C   UNL A   1      38.491  29.684  29.728  1.00  0.00    -0.014 A 
BRANCH  12  13
ATOM     13  C   UNL A   1      39.809  29.126  30.114  1.00  0.00     0.031 A 
ATOM     14  C   UNL A   1      40.439  27.997  29.350  1.00  0.00     0.074 A 
ATOM     15  C   UNL A   1      40.423  29.638  31.199  1.00  0.00     0.049 A 
ATOM     16  N   UNL A   1      41.594  27.418  29.553  1.00  0.00    -0.248 NA
ATOM     17  C   UNL A   1      39.679  27.437  28.221  1.00  0.00     0.031 C 
ATOM     18  C   UNL A   1      39.871  30.693  32.054  1.00  0.00     0.029 A 
ATOM     19  N   UNL A   1      41.627  29.336  31.778  1.00  0.00    -0.354 N 
ATOM     20  C   UNL A   1      41.688  26.406  28.607  1.00  0.00     0.074 A 
ATOM     21  C   UNL A   1      40.471  26.448  27.823  1.00  0.00     0.031 C 
ATOM     22  C   UNL A   1      40.735  30.952  33.045  1.00  0.00     0.029 A 
ATOM     23  C   UNL A   1      41.883  30.062  32.918  1.00  0.00     0.049 A 
ATOM     24  H   UNL A   1      42.249  28.666  31.414  1.00  0.00     0.167 HD
ATOM     25  C   UNL A   1      42.706  25.538  28.400  1.00  0.00     0.034 A 
ATOM     26  C   UNL A   1      42.920  30.008  33.777  1.00  0.00     0.034 A 
ATOM     27  C   UNL A   1      43.937  25.539  29.148  1.00  0.00     0.049 A 
ATOM     28  C   UNL A   1      44.042  29.051  33.503  1.00  0.00     0.074 A 
ATOM     29  C   UNL A   1      45.077  24.786  28.928  1.00  0.00     0.029 A 
ATOM     30  N   UNL A   1      44.181  26.314  30.270  1.00  0.00    -0.354 N 
ATOM     31  N   UNL A   1      44.196  28.235  32.489  1.00  0.00    -0.248 NA
ATOM     32  C   UNL A   1      45.142  29.019  34.476  1.00  0.00     0.031 C 
ATOM     33  C   UNL A   1      46.006  25.096  29.928  1.00  0.00     0.029 A 
ATOM     34  C   UNL A   1      45.442  26.040  30.770  1.00  0.00     0.049 A 
ATOM     35  H   UNL A   1      43.550  26.966  30.655  1.00  0.00     0.167 HD
ATOM     36  C   UNL A   1      45.412  27.596  32.698  1.00  0.00     0.074 A 
ATOM     37  C   UNL A   1      45.971  28.149  33.916  1.00  0.00     0.031 C 
ATOM     38  C   UNL A   1      45.999  26.621  31.963  1.00  0.00     0.034 A 
BRANCH  25  39
ATOM     39  C   UNL A   1      42.578  24.540  27.281  1.00  0.00     0.023 A 
ATOM     40  C   UNL A   1      43.334  24.724  26.107  1.00  0.00     0.012 A 
ATOM     41  C   UNL A   1      41.803  23.373  27.434  1.00  0.00     0.148 A 
ATOM     42  C   UNL A   1      43.320  23.762  25.098  1.00  0.00     0.002 A 
ATOM     43  C   UNL A   1      41.814  22.407  26.433  1.00  0.00     0.091 A 
ATOM     44  F   UNL A   1      41.076  23.231  28.550  1.00  0.00    -0.205 F 
ATOM     45  C   UNL A   1      42.569  22.601  25.265  1.00  0.00     0.022 A 
BRANCH  43  46
ATOM     46  S   UNL A   1      40.928  20.850  26.577  1.00  0.00     0.127 S 
ATOM     47  O   UNL A   1      39.608  21.215  26.064  1.00  0.00    -0.237 OA
ATOM     48  O   UNL A   1      41.701  19.972  25.699  1.00  0.00    -0.237 OA
ATOM     49  O   UNL A   1      40.973  20.492  27.988  1.00  0.00    -0.744 OA
ENDBRANCH  43  46
ENDBRANCH  25  39
BRANCH  26  50
ATOM     50  C   UNL A   1      42.949  30.926  34.948  1.00  0.00     0.023 A 
ATOM     51  C   UNL A   1      42.458  30.479  36.189  1.00  0.00     0.012 A 
ATOM     52  C   UNL A   1      43.518  32.211  34.856  1.00  0.00     0.148 A 
ATOM     53  C   UNL A   1      42.522  31.302  37.315  1.00  0.00     0.002 A 
ATOM     54  C   UNL A   1      43.629  33.002  35.994  1.00  0.00     0.091 A 
ATOM     55  F   UNL A   1      43.960  32.634  33.663  1.00  0.00    -0.205 F 
ATOM     56  C   UNL A   1      43.120  32.557  37.222  1.00  0.00     0.022 A 
BRANCH  54  57
ATOM     57  S   UNL A   1      44.533  34.554  35.947  1.00  0.00     0.127 S 
ATOM     58  O   UNL A   1      43.671  35.384  35.111  1.00  0.00    -0.237 OA
ATOM     59  O   UNL A   1      44.578  34.942  37.357  1.00  0.00    -0.237 OA
ATOM     60  O   UNL A   1      45.833  34.200  35.392  1.00  0.00    -0.744 OA
ENDBRANCH  54  57
ENDBRANCH  26  50
BRANCH  38  61
ATOM     61  C   UNL A   1      47.302  26.069  32.470  1.00  0.00     0.023 A 
ATOM     62  C   UNL A   1      48.507  26.663  32.046  1.00  0.00     0.012 A 
ATOM     63  C   UNL A   1      47.339  25.016  33.403  1.00  0.00     0.148 A 
ATOM     64  C   UNL A   1      49.731  26.202  32.525  1.00  0.00     0.002 A 
ATOM     65  C   UNL A   1      48.562  24.585  33.905  1.00  0.00     0.091 A 
ATOM     66  F   UNL A   1      46.182  24.447  33.776  1.00  0.00    -0.205 F 
ATOM     67  C   UNL A   1      49.758  25.173  33.462  1.00  0.00     0.022 A 
BRANCH  65  68
ATOM     68  S   UNL A   1      48.677  23.318  35.173  1.00  0.00     0.127 S 
ATOM     69  O   UNL A   1      48.843  22.107  34.372  1.00  0.00    -0.237 OA
ATOM     70  O   UNL A   1      49.871  23.723  35.919  1.00  0.00    -0.237 OA
ATOM     71  O   UNL A   1      47.438  23.408  35.934  1.00  0.00    -0.744 OA
ENDBRANCH  65  68
ENDBRANCH  38  61
ENDBRANCH  12  13
ENDBRANCH   5   7
ENDBRANCH   2   3
ENDBRANCH   1   2
BRANCH   1  72
ATOM     72  C   UNL A   1      31.766  28.980  26.412  1.00  0.00     0.023 C 
BRANCH  72  73
ATOM     73  C   UNL A   1      32.060  29.320  24.953  1.00  0.00     0.116 C 
BRANCH  73  74
ATOM     74  N   UNL A   1      30.887  29.833  24.260  1.00  0.00    -0.352 N 
ATOM     75  C   UNL A   1      30.003  29.143  23.469  1.00  0.00     0.251 C 
ATOM     76  H   UNL A   1      30.706  30.795  24.374  1.00  0.00     0.163 HD
ATOM     77  O   UNL A   1      29.021  29.671  22.969  1.00  0.00    -0.269 OA
BRANCH  75  78
ATOM     78  C   UNL A   1      30.260  27.714  23.249  1.00  0.00     0.041 A 
ATOM     79  C   UNL A   1      29.728  26.789  24.144  1.00  0.00     0.018 A 
ATOM     80  C   UNL A   1      31.147  27.324  22.245  1.00  0.00     0.038 A 
ATOM     81  C   UNL A   1      30.111  25.454  24.037  1.00  0.00     0.049 A 
ATOM     82  C   UNL A   1      31.552  25.989  22.164  1.00  0.00     0.083 A 
ATOM     83  C   UNL A   1      31.013  25.041  23.044  1.00  0.00     0.137 A 
ATOM     84  Cl  UNL A   1      32.834  25.645  21.059  1.00  0.00    -0.080 Cl
BRANCH  83  85
ATOM     85  O   UNL A   1      31.371  23.730  23.157  1.00  0.00    -0.492 OA
BRANCH  85  86
ATOM     86  C   UNL A   1      31.568  23.167  24.457  1.00  0.00     0.233 C 
BRANCH  86  87
ATOM     87  C   UNL A   1      33.035  22.941  24.850  1.00  0.00     0.030 C 
ATOM     88  C   UNL A   1      34.052  23.460  23.803  1.00  0.00     0.011 C 
ATOM     89  C   UNL A   1      33.472  23.715  26.124  1.00  0.00    -0.004 C 
ATOM     90  C   UNL A   1      34.936  24.427  24.612  1.00  0.00    -0.010 C 
ATOM     91  C   UNL A   1      33.147  25.214  26.012  1.00  0.00     0.004 C 
ATOM     92  C   UNL A   1      34.995  23.733  25.969  1.00  0.00     0.007 C 
ATOM     93  C   UNL A   1      34.120  25.694  24.929  1.00  0.00     0.004 C 
ENDBRANCH  86  87
ENDBRANCH  85  86
ENDBRANCH  83  85
ENDBRANCH  75  78
ENDBRANCH  73  74
ENDBRANCH  72  73
ENDBRANCH   1  72
TORSDOF 17
ENDMDL
