MODEL 1
REMARK VINA RESULT:     -13.3      0.000      0.000
REMARK SMILES O=C(NCCCCNC(=O)[C@@H]1[C@H](C(=O)Nc2ccccc2Cc2ccccc2)[C@H]2C=C[C@@H]1O2)c1ccc(-c2c3nc(c(-c4cccc(S(=O)(=O)[O-])c4F)c4ccc([nH]4)c(-c4cccc(S(=O)(=O)[O-])c4F)c4nc(c(-c5cccc(S(=O)(=O)[O-])c5F)c5ccc2[nH]5)C=C4)C=C3)cc1
REMARK SMILES IDX 6 1 5 2 4 3 3 4 1 5 2 6 34 8 35 9 96 10 36 11 95 12 37 13
REMARK SMILES IDX 38 14 39 15 89 16 40 17 94 18 88 19 90 20 41 21 93 22 87 23
REMARK SMILES IDX 86 24 42 26 74 27 54 28 73 29 55 30 58 31 72 32 91 33 56 34
REMARK SMILES IDX 57 35 71 37 92 38 59 39 43 40 44 41 52 42 45 43 47 44 53 45
REMARK SMILES IDX 46 46 48 47 49 48 50 49 51 50 75 51 76 52 84 53 77 54 79 55
REMARK SMILES IDX 85 56 78 57 80 58 81 59 82 60 83 61 60 62 61 63 69 64 62 65
REMARK SMILES IDX 64 66 70 67 63 68 65 69 66 70 67 71 68 72 7 73 8 74 9 75
REMARK SMILES IDX 10 77 11 78 12 79 32 80 29 81 31 82 33 83 30 84 13 85 14 86
REMARK SMILES IDX 15 87 16 89 17 90 21 91 18 92 20 93 19 94 22 95 23 96 24 97
REMARK SMILES IDX 28 98 25 99 27 100 26 101
REMARK H PARENT 3 7 90 25 58 36 8 76 15 88
REMARK Flexibility Score: inf
ROOT
ATOM      1  C   UNL A   1      31.902  27.268  26.194  1.00  0.00     0.023 C 
ENDROOT
BRANCH   1   2
ATOM      2  C   UNL A   1      31.770  28.765  26.106  1.00  0.00     0.023 C 
BRANCH   2   3
ATOM      3  C   UNL A   1      32.460  29.526  27.209  1.00  0.00     0.116 C 
BRANCH   3   4
ATOM      4  N   UNL A   1      32.216  30.967  27.238  1.00  0.00    -0.352 N 
ATOM      5  O   UNL A   1      32.782  33.164  27.411  1.00  0.00    -0.269 OA
ATOM      6  C   UNL A   1      33.141  31.989  27.387  1.00  0.00     0.251 C 
ATOM      7  H   UNL A   1      31.279  31.247  27.137  1.00  0.00     0.163 HD
BRANCH   6   8
ATOM      8  C   UNL A   1      34.561  31.626  27.595  1.00  0.00     0.039 A 
ATOM      9  C   UNL A   1      34.906  30.284  27.679  1.00  0.00     0.014 A 
ATOM     10  C   UNL A   1      35.493  32.613  27.924  1.00  0.00     0.014 A 
ATOM     11  C   UNL A   1      36.020  29.935  28.425  1.00  0.00     0.010 A 
ATOM     12  C   UNL A   1      36.717  32.239  28.494  1.00  0.00     0.010 A 
ATOM     13  C   UNL A   1      36.954  30.901  28.841  1.00  0.00    -0.014 A 
BRANCH  13  14
ATOM     14  C   UNL A   1      38.142  30.456  29.635  1.00  0.00     0.031 A 
ATOM     15  C   UNL A   1      38.309  30.800  31.096  1.00  0.00     0.074 A 
ATOM     16  C   UNL A   1      39.054  29.660  29.034  1.00  0.00     0.049 A 
ATOM     17  N   UNL A   1      39.289  30.481  31.906  1.00  0.00    -0.248 NA
ATOM     18  C   UNL A   1      37.267  31.621  31.735  1.00  0.00     0.031 C 
ATOM     19  C   UNL A   1      39.030  29.276  27.620  1.00  0.00     0.029 A 
ATOM     20  N   UNL A   1      40.145  28.995  29.532  1.00  0.00    -0.354 N 
ATOM     21  C   UNL A   1      39.033  31.134  33.107  1.00  0.00     0.074 A 
ATOM     22  C   UNL A   1      37.788  31.852  32.934  1.00  0.00     0.031 C 
ATOM     23  C   UNL A   1      39.978  28.362  27.391  1.00  0.00     0.029 A 
ATOM     24  C   UNL A   1      40.761  28.185  28.606  1.00  0.00     0.049 A 
ATOM     25  H   UNL A   1      40.457  29.088  30.462  1.00  0.00     0.167 HD
ATOM     26  C   UNL A   1      39.764  31.135  34.250  1.00  0.00     0.034 A 
ATOM     27  C   UNL A   1      41.852  27.402  28.700  1.00  0.00     0.034 A 
ATOM     28  C   UNL A   1      40.949  30.339  34.450  1.00  0.00     0.049 A 
ATOM     29  C   UNL A   1      42.590  27.356  30.002  1.00  0.00     0.074 A 
ATOM     30  C   UNL A   1      41.723  30.223  35.592  1.00  0.00     0.029 A 
ATOM     31  N   UNL A   1      41.521  29.512  33.497  1.00  0.00    -0.354 N 
ATOM     32  N   UNL A   1      42.296  27.941  31.136  1.00  0.00    -0.248 NA
ATOM     33  C   UNL A   1      43.812  26.543  30.038  1.00  0.00     0.031 C 
ATOM     34  C   UNL A   1      42.768  29.331  35.326  1.00  0.00     0.029 A 
ATOM     35  C   UNL A   1      42.636  28.880  34.022  1.00  0.00     0.049 A 
ATOM     36  H   UNL A   1      41.184  29.390  32.579  1.00  0.00     0.167 HD
ATOM     37  C   UNL A   1      43.292  27.565  32.025  1.00  0.00     0.074 A 
ATOM     38  C   UNL A   1      44.175  26.667  31.307  1.00  0.00     0.031 C 
ATOM     39  C   UNL A   1      43.476  27.953  33.310  1.00  0.00     0.034 A 
BRANCH  26  40
ATOM     40  C   UNL A   1      39.300  32.000  35.395  1.00  0.00     0.023 A 
ATOM     41  C   UNL A   1      38.453  31.466  36.386  1.00  0.00     0.012 A 
ATOM     42  C   UNL A   1      39.779  33.320  35.538  1.00  0.00     0.148 A 
ATOM     43  C   UNL A   1      38.068  32.237  37.484  1.00  0.00     0.002 A 
ATOM     44  C   UNL A   1      39.423  34.069  36.655  1.00  0.00     0.091 A 
ATOM     45  F   UNL A   1      40.568  33.822  34.577  1.00  0.00    -0.205 F 
ATOM     46  C   UNL A   1      38.561  33.532  37.625  1.00  0.00     0.022 A 
BRANCH  44  47
ATOM     47  S   UNL A   1      40.074  35.716  36.960  1.00  0.00     0.127 S 
ATOM     48  O   UNL A   1      39.601  36.444  35.784  1.00  0.00    -0.237 OA
ATOM     49  O   UNL A   1      39.414  36.088  38.212  1.00  0.00    -0.237 OA
ATOM     50  O   UNL A   1      41.518  35.557  37.065  1.00  0.00    -0.744 OA
ENDBRANCH  44  47
ENDBRANCH  26  40
BRANCH  27  51
ATOM     51  C   UNL A   1      42.275  26.586  27.527  1.00  0.00     0.023 A 
ATOM     52  C   UNL A   1      43.191  27.124  26.604  1.00  0.00     0.012 A 
ATOM     53  C   UNL A   1      41.851  25.253  27.373  1.00  0.00     0.148 A 
ATOM     54  C   UNL A   1      43.670  26.350  25.546  1.00  0.00     0.002 A 
ATOM     55  C   UNL A   1      42.388  24.465  26.363  1.00  0.00     0.091 A 
ATOM     56  F   UNL A   1      40.955  24.763  28.243  1.00  0.00    -0.205 F 
ATOM     57  C   UNL A   1      43.285  25.016  25.437  1.00  0.00     0.022 A 
BRANCH  55  58
ATOM     58  S   UNL A   1      42.083  22.696  26.287  1.00  0.00     0.127 S 
ATOM     59  O   UNL A   1      42.745  22.330  25.039  1.00  0.00    -0.237 OA
ATOM     60  O   UNL A   1      42.746  22.215  27.501  1.00  0.00    -0.237 OA
ATOM     61  O   UNL A   1      40.633  22.558  26.311  1.00  0.00    -0.744 OA
ENDBRANCH  55  58
ENDBRANCH  27  51
BRANCH  39  62
ATOM     62  C   UNL A   1      44.672  27.391  34.026  1.00  0.00     0.023 A 
ATOM     63  C   UNL A   1      45.922  28.029  33.896  1.00  0.00     0.012 A 
ATOM     64  C   UNL A   1      44.554  26.259  34.853  1.00  0.00     0.148 A 
ATOM     65  C   UNL A   1      47.044  27.526  34.551  1.00  0.00     0.002 A 
ATOM     66  C   UNL A   1      45.668  25.789  35.538  1.00  0.00     0.091 A 
ATOM     67  F   UNL A   1      43.361  25.652  34.943  1.00  0.00    -0.205 F 
ATOM     68  C   UNL A   1      46.916  26.413  35.380  1.00  0.00     0.022 A 
BRANCH  66  69
ATOM     69  S   UNL A   1      45.562  24.412  36.687  1.00  0.00     0.127 S 
ATOM     70  O   UNL A   1      44.301  24.689  37.370  1.00  0.00    -0.237 OA
ATOM     71  O   UNL A   1      45.530  23.255  35.791  1.00  0.00    -0.237 OA
ATOM     72  O   UNL A   1      46.761  24.497  37.511  1.00  0.00    -0.744 OA
ENDBRANCH  66  69
ENDBRANCH  39  62
ENDBRANCH  13  14
ENDBRANCH   6   8
ENDBRANCH   3   4
ENDBRANCH   2   3
ENDBRANCH   1   2
BRANCH   1  73
ATOM     73  C   UNL A   1      30.713  26.452  26.699  1.00  0.00     0.116 C 
BRANCH  73  74
ATOM     74  N   UNL A   1      30.717  25.174  25.987  1.00  0.00    -0.356 N 
ATOM     75  C   UNL A   1      31.205  24.000  26.473  1.00  0.00     0.227 C 
ATOM     76  H   UNL A   1      30.335  25.161  25.080  1.00  0.00     0.163 HD
ATOM     77  O   UNL A   1      30.639  23.451  27.420  1.00  0.00    -0.275 OA
BRANCH  75  78
ATOM     78  C   UNL A   1      32.317  23.271  25.710  1.00  0.00     0.127 C 
ATOM     79  C   UNL A   1      32.449  23.398  24.186  1.00  0.00     0.127 C 
ATOM     80  C   UNL A   1      32.456  21.739  25.863  1.00  0.00     0.155 C 
ATOM     81  C   UNL A   1      32.784  21.989  23.721  1.00  0.00     0.155 C 
ATOM     82  C   UNL A   1      33.887  21.347  25.610  1.00  0.00     0.004 C 
ATOM     83  O   UNL A   1      31.931  21.236  24.602  1.00  0.00    -0.365 OA
ATOM     84  C   UNL A   1      34.100  21.536  24.297  1.00  0.00     0.004 C 
BRANCH  79  85
ATOM     85  C   UNL A   1      31.390  24.090  23.391  1.00  0.00     0.231 C 
ATOM     86  O   UNL A   1      30.421  23.372  23.064  1.00  0.00    -0.274 OA
ATOM     87  N   UNL A   1      31.212  25.368  23.035  1.00  0.00    -0.325 N 
ATOM     88  H   UNL A   1      30.237  25.460  22.930  1.00  0.00     0.169 HD
BRANCH  87  89
ATOM     89  C   UNL A   1      31.725  26.658  22.730  1.00  0.00     0.044 A 
ATOM     90  C   UNL A   1      33.147  26.556  22.627  1.00  0.00     0.026 A 
ATOM     91  C   UNL A   1      31.163  27.967  22.685  1.00  0.00    -0.020 A 
ATOM     92  C   UNL A   1      33.997  27.647  22.504  1.00  0.00     0.002 A 
ATOM     93  C   UNL A   1      32.061  29.042  22.453  1.00  0.00     0.006 A 
ATOM     94  C   UNL A   1      33.447  28.902  22.415  1.00  0.00     0.000 A 
BRANCH  91  95
ATOM     95  C   UNL A   1      29.694  28.352  22.793  1.00  0.00     0.073 C 
BRANCH  95  96
ATOM     96  C   UNL A   1      29.110  29.777  22.660  1.00  0.00    -0.044 A 
ATOM     97  C   UNL A   1      28.647  30.184  21.385  1.00  0.00     0.004 A 
ATOM     98  C   UNL A   1      29.142  30.783  23.631  1.00  0.00     0.004 A 
ATOM     99  C   UNL A   1      28.175  31.473  21.112  1.00  0.00     0.000 A 
ATOM    100  C   UNL A   1      28.698  32.092  23.358  1.00  0.00     0.000 A 
ATOM    101  C   UNL A   1      28.205  32.434  22.105  1.00  0.00     0.000 A 
ENDBRANCH  95  96
ENDBRANCH  91  95
ENDBRANCH  87  89
ENDBRANCH  79  85
ENDBRANCH  75  78
ENDBRANCH  73  74
ENDBRANCH   1  73
TORSDOF 18
ENDMDL
MODEL 2
REMARK VINA RESULT:     -13.3      5.016     10.590
REMARK SMILES O=C(NCCCCNC(=O)[C@@H]1[C@H](C(=O)Nc2ccccc2Cc2ccccc2)[C@H]2C=C[C@@H]1O2)c1ccc(-c2c3nc(c(-c4cccc(S(=O)(=O)[O-])c4F)c4ccc([nH]4)c(-c4cccc(S(=O)(=O)[O-])c4F)c4nc(c(-c5cccc(S(=O)(=O)[O-])c5F)c5ccc2[nH]5)C=C4)C=C3)cc1
REMARK SMILES IDX 6 1 5 2 4 3 3 4 1 5 2 6 34 8 35 9 96 10 36 11 95 12 37 13
REMARK SMILES IDX 38 14 39 15 89 16 40 17 94 18 88 19 90 20 41 21 93 22 87 23
REMARK SMILES IDX 86 24 42 26 74 27 54 28 73 29 55 30 58 31 72 32 91 33 56 34
REMARK SMILES IDX 57 35 71 37 92 38 59 39 43 40 44 41 52 42 45 43 47 44 53 45
REMARK SMILES IDX 46 46 48 47 49 48 50 49 51 50 75 51 76 52 84 53 77 54 79 55
REMARK SMILES IDX 85 56 78 57 80 58 81 59 82 60 83 61 60 62 61 63 69 64 62 65
REMARK SMILES IDX 64 66 70 67 63 68 65 69 66 70 67 71 68 72 7 73 8 74 9 75
REMARK SMILES IDX 10 77 11 78 12 79 32 80 29 81 31 82 33 83 30 84 13 85 14 86
REMARK SMILES IDX 15 87 16 89 17 90 21 91 18 92 20 93 19 94 22 95 23 96 24 97
REMARK SMILES IDX 28 98 25 99 27 100 26 101
REMARK H PARENT 3 7 90 25 58 36 8 76 15 88
REMARK Flexibility Score: inf
ROOT
ATOM      1  C   UNL A   1      36.001  22.102  24.426  1.00  0.00     0.023 C 
ENDROOT
BRANCH   1   2
ATOM      2  C   UNL A   1      37.179  21.163  24.428  1.00  0.00     0.023 C 
BRANCH   2   3
ATOM      3  C   UNL A   1      37.953  21.124  25.721  1.00  0.00     0.116 C 
BRANCH   3   4
ATOM      4  N   UNL A   1      39.198  20.357  25.694  1.00  0.00    -0.352 N 
ATOM      5  O   UNL A   1      41.379  19.925  26.173  1.00  0.00    -0.269 OA
ATOM      6  C   UNL A   1      40.405  20.663  26.302  1.00  0.00     0.251 C 
ATOM      7  H   UNL A   1      39.175  19.519  25.180  1.00  0.00     0.163 HD
BRANCH   6   8
ATOM      8  C   UNL A   1      40.514  21.940  27.044  1.00  0.00     0.039 A 
ATOM      9  C   UNL A   1      39.876  23.066  26.542  1.00  0.00     0.014 A 
ATOM     10  C   UNL A   1      41.420  22.058  28.100  1.00  0.00     0.014 A 
ATOM     11  C   UNL A   1      40.408  24.310  26.834  1.00  0.00     0.010 A 
ATOM     12  C   UNL A   1      41.804  23.333  28.536  1.00  0.00     0.010 A 
ATOM     13  C   UNL A   1      41.376  24.475  27.841  1.00  0.00    -0.014 A 
BRANCH  13  14
ATOM     14  C   UNL A   1      41.901  25.848  28.115  1.00  0.00     0.031 A 
ATOM     15  C   UNL A   1      43.243  26.314  27.599  1.00  0.00     0.074 A 
ATOM     16  C   UNL A   1      41.112  26.716  28.786  1.00  0.00     0.049 A 
ATOM     17  N   UNL A   1      43.823  27.479  27.762  1.00  0.00    -0.248 NA
ATOM     18  C   UNL A   1      44.052  25.361  26.822  1.00  0.00     0.031 C 
ATOM     19  C   UNL A   1      39.808  26.386  29.367  1.00  0.00     0.029 A 
ATOM     20  N   UNL A   1      41.259  28.052  29.056  1.00  0.00    -0.354 N 
ATOM     21  C   UNL A   1      45.089  27.367  27.197  1.00  0.00     0.074 A 
ATOM     22  C   UNL A   1      45.190  26.026  26.661  1.00  0.00     0.031 C 
ATOM     23  C   UNL A   1      39.226  27.503  29.816  1.00  0.00     0.029 A 
ATOM     24  C   UNL A   1      40.163  28.609  29.675  1.00  0.00     0.049 A 
ATOM     25  H   UNL A   1      42.069  28.564  28.829  1.00  0.00     0.167 HD
ATOM     26  C   UNL A   1      46.076  28.295  27.129  1.00  0.00     0.034 A 
ATOM     27  C   UNL A   1      39.933  29.860  30.112  1.00  0.00     0.034 A 
ATOM     28  C   UNL A   1      45.935  29.658  27.574  1.00  0.00     0.049 A 
ATOM     29  C   UNL A   1      41.010  30.887  29.945  1.00  0.00     0.074 A 
ATOM     30  C   UNL A   1      46.855  30.690  27.490  1.00  0.00     0.029 A 
ATOM     31  N   UNL A   1      44.800  30.186  28.168  1.00  0.00    -0.354 N 
ATOM     32  N   UNL A   1      42.177  30.768  29.361  1.00  0.00    -0.248 NA
ATOM     33  C   UNL A   1      40.742  32.220  30.498  1.00  0.00     0.031 C 
ATOM     34  C   UNL A   1      46.278  31.839  28.040  1.00  0.00     0.029 A 
ATOM     35  C   UNL A   1      44.993  31.528  28.455  1.00  0.00     0.049 A 
ATOM     36  H   UNL A   1      43.976  29.682  28.359  1.00  0.00     0.167 HD
ATOM     37  C   UNL A   1      42.783  32.010  29.470  1.00  0.00     0.074 A 
ATOM     38  C   UNL A   1      41.836  32.880  30.139  1.00  0.00     0.031 C 
ATOM     39  C   UNL A   1      44.023  32.390  29.078  1.00  0.00     0.034 A 
BRANCH  26  40
ATOM     40  C   UNL A   1      47.399  27.889  26.527  1.00  0.00     0.023 A 
ATOM     41  C   UNL A   1      48.450  27.457  27.359  1.00  0.00     0.012 A 
ATOM     42  C   UNL A   1      47.570  27.851  25.127  1.00  0.00     0.148 A 
ATOM     43  C   UNL A   1      49.657  27.020  26.812  1.00  0.00     0.002 A 
ATOM     44  C   UNL A   1      48.761  27.376  24.587  1.00  0.00     0.091 A 
ATOM     45  F   UNL A   1      46.569  28.284  24.347  1.00  0.00    -0.205 F 
ATOM     46  C   UNL A   1      49.809  26.968  25.428  1.00  0.00     0.022 A 
BRANCH  44  47
ATOM     47  S   UNL A   1      49.014  27.198  22.816  1.00  0.00     0.127 S 
ATOM     48  O   UNL A   1      48.401  28.422  22.305  1.00  0.00    -0.237 OA
ATOM     49  O   UNL A   1      50.474  27.159  22.711  1.00  0.00    -0.237 OA
ATOM     50  O   UNL A   1      48.351  25.956  22.445  1.00  0.00    -0.744 OA
ENDBRANCH  44  47
ENDBRANCH  26  40
BRANCH  27  51
ATOM     51  C   UNL A   1      38.615  30.198  30.719  1.00  0.00     0.023 A 
ATOM     52  C   UNL A   1      38.399  29.953  32.088  1.00  0.00     0.012 A 
ATOM     53  C   UNL A   1      37.610  30.842  29.972  1.00  0.00     0.148 A 
ATOM     54  C   UNL A   1      37.206  30.339  32.699  1.00  0.00     0.002 A 
ATOM     55  C   UNL A   1      36.456  31.291  30.602  1.00  0.00     0.091 A 
ATOM     56  F   UNL A   1      37.817  31.042  28.662  1.00  0.00    -0.205 F 
ATOM     57  C   UNL A   1      36.243  31.026  31.962  1.00  0.00     0.022 A 
BRANCH  55  58
ATOM     58  S   UNL A   1      35.273  32.347  29.756  1.00  0.00     0.127 S 
ATOM     59  O   UNL A   1      34.308  32.626  30.815  1.00  0.00    -0.237 OA
ATOM     60  O   UNL A   1      36.103  33.486  29.360  1.00  0.00    -0.237 OA
ATOM     61  O   UNL A   1      34.787  31.552  28.636  1.00  0.00    -0.744 OA
ENDBRANCH  55  58
ENDBRANCH  27  51
BRANCH  39  62
ATOM     62  C   UNL A   1      44.418  33.814  29.351  1.00  0.00     0.023 A 
ATOM     63  C   UNL A   1      45.153  34.120  30.515  1.00  0.00     0.012 A 
ATOM     64  C   UNL A   1      44.096  34.841  28.444  1.00  0.00     0.148 A 
ATOM     65  C   UNL A   1      45.530  35.433  30.787  1.00  0.00     0.002 A 
ATOM     66  C   UNL A   1      44.513  36.141  28.702  1.00  0.00     0.091 A 
ATOM     67  F   UNL A   1      43.374  34.532  27.356  1.00  0.00    -0.205 F 
ATOM     68  C   UNL A   1      45.220  36.442  29.877  1.00  0.00     0.022 A 
BRANCH  66  69
ATOM     69  S   UNL A   1      44.224  37.476  27.537  1.00  0.00     0.127 S 
ATOM     70  O   UNL A   1      44.043  38.618  28.430  1.00  0.00    -0.237 OA
ATOM     71  O   UNL A   1      45.467  37.497  26.765  1.00  0.00    -0.237 OA
ATOM     72  O   UNL A   1      43.050  37.080  26.769  1.00  0.00    -0.744 OA
ENDBRANCH  66  69
ENDBRANCH  39  62
ENDBRANCH  13  14
ENDBRANCH   6   8
ENDBRANCH   3   4
ENDBRANCH   2   3
ENDBRANCH   1   2
BRANCH   1  73
ATOM     73  C   UNL A   1      35.735  22.947  23.181  1.00  0.00     0.116 C 
BRANCH  73  74
ATOM     74  N   UNL A   1      34.352  23.418  23.252  1.00  0.00    -0.356 N 
ATOM     75  C   UNL A   1      33.755  24.253  22.358  1.00  0.00     0.227 C 
ATOM     76  H   UNL A   1      33.807  23.105  24.009  1.00  0.00     0.163 HD
ATOM     77  O   UNL A   1      33.545  23.865  21.208  1.00  0.00    -0.275 OA
BRANCH  75  78
ATOM     78  C   UNL A   1      33.162  25.580  22.845  1.00  0.00     0.127 C 
ATOM     79  C   UNL A   1      31.894  25.614  23.709  1.00  0.00     0.127 C 
ATOM     80  C   UNL A   1      32.808  26.673  21.811  1.00  0.00     0.155 C 
ATOM     81  C   UNL A   1      31.094  26.782  23.154  1.00  0.00     0.155 C 
ATOM     82  C   UNL A   1      32.881  28.022  22.474  1.00  0.00     0.004 C 
ATOM     83  O   UNL A   1      31.355  26.607  21.751  1.00  0.00    -0.365 OA
ATOM     84  C   UNL A   1      31.847  28.075  23.328  1.00  0.00     0.004 C 
BRANCH  79  85
ATOM     85  C   UNL A   1      31.107  24.365  23.945  1.00  0.00     0.231 C 
ATOM     86  O   UNL A   1      29.980  24.342  23.408  1.00  0.00    -0.274 OA
ATOM     87  N   UNL A   1      31.405  23.204  24.541  1.00  0.00    -0.325 N 
ATOM     88  H   UNL A   1      30.819  22.546  24.102  1.00  0.00     0.169 HD
BRANCH  87  89
ATOM     89  C   UNL A   1      32.142  22.445  25.490  1.00  0.00     0.044 A 
ATOM     90  C   UNL A   1      32.560  23.327  26.534  1.00  0.00     0.026 A 
ATOM     91  C   UNL A   1      32.658  21.117  25.518  1.00  0.00    -0.020 A 
ATOM     92  C   UNL A   1      33.441  22.971  27.546  1.00  0.00     0.002 A 
ATOM     93  C   UNL A   1      33.470  20.768  26.628  1.00  0.00     0.006 A 
ATOM     94  C   UNL A   1      33.898  21.677  27.594  1.00  0.00     0.000 A 
BRANCH  91  95
ATOM     95  C   UNL A   1      32.390  19.996  24.524  1.00  0.00     0.073 C 
BRANCH  95  96
ATOM     96  C   UNL A   1      32.834  18.522  24.666  1.00  0.00    -0.044 A 
ATOM     97  C   UNL A   1      33.738  18.008  23.703  1.00  0.00     0.004 A 
ATOM     98  C   UNL A   1      32.307  17.576  25.552  1.00  0.00     0.004 A 
ATOM     99  C   UNL A   1      34.150  16.672  23.669  1.00  0.00     0.000 A 
ATOM    100  C   UNL A   1      32.693  16.222  25.507  1.00  0.00     0.000 A 
ATOM    101  C   UNL A   1      33.621  15.772  24.576  1.00  0.00     0.000 A 
ENDBRANCH  95  96
ENDBRANCH  91  95
ENDBRANCH  87  89
ENDBRANCH  79  85
ENDBRANCH  75  78
ENDBRANCH  73  74
ENDBRANCH   1  73
TORSDOF 18
ENDMDL
MODEL 3
REMARK VINA RESULT:     -13.0      4.474      9.251
REMARK SMILES O=C(NCCCCNC(=O)[C@@H]1[C@H](C(=O)Nc2ccccc2Cc2ccccc2)[C@H]2C=C[C@@H]1O2)c1ccc(-c2c3nc(c(-c4cccc(S(=O)(=O)[O-])c4F)c4ccc([nH]4)c(-c4cccc(S(=O)(=O)[O-])c4F)c4nc(c(-c5cccc(S(=O)(=O)[O-])c5F)c5ccc2[nH]5)C=C4)C=C3)cc1
REMARK SMILES IDX 6 1 5 2 4 3 3 4 1 5 2 6 34 8 35 9 96 10 36 11 95 12 37 13
REMARK SMILES IDX 38 14 39 15 89 16 40 17 94 18 88 19 90 20 41 21 93 22 87 23
REMARK SMILES IDX 86 24 42 26 74 27 54 28 73 29 55 30 58 31 72 32 91 33 56 34
REMARK SMILES IDX 57 35 71 37 92 38 59 39 43 40 44 41 52 42 45 43 47 44 53 45
REMARK SMILES IDX 46 46 48 47 49 48 50 49 51 50 75 51 76 52 84 53 77 54 79 55
REMARK SMILES IDX 85 56 78 57 80 58 81 59 82 60 83 61 60 62 61 63 69 64 62 65
REMARK SMILES IDX 64 66 70 67 63 68 65 69 66 70 67 71 68 72 7 73 8 74 9 75
REMARK SMILES IDX 10 77 11 78 12 79 32 80 29 81 31 82 33 83 30 84 13 85 14 86
REMARK SMILES IDX 15 87 16 89 17 90 21 91 18 92 20 93 19 94 22 95 23 96 24 97
REMARK SMILES IDX 28 98 25 99 27 100 26 101
REMARK H PARENT 3 7 90 25 58 36 8 76 15 88
REMARK Flexibility Score: inf
ROOT
ATOM      1  C   UNL A   1      34.944  23.986  23.030  1.00  0.00     0.023 C 
ENDROOT
BRANCH   1   2
ATOM      2  C   UNL A   1      36.044  22.958  23.070  1.00  0.00     0.023 C 
BRANCH   2   3
ATOM      3  C   UNL A   1      36.663  22.749  24.429  1.00  0.00     0.116 C 
BRANCH   3   4
ATOM      4  N   UNL A   1      37.472  21.541  24.580  1.00  0.00    -0.352 N 
ATOM      5  O   UNL A   1      39.114  20.241  25.469  1.00  0.00    -0.269 OA
ATOM      6  C   UNL A   1      38.508  21.310  25.471  1.00  0.00     0.251 C 
ATOM      7  H   UNL A   1      37.252  20.798  23.974  1.00  0.00     0.163 HD
BRANCH   6   8
ATOM      8  C   UNL A   1      38.918  22.412  26.372  1.00  0.00     0.039 A 
ATOM      9  C   UNL A   1      38.341  23.664  26.207  1.00  0.00     0.014 A 
ATOM     10  C   UNL A   1      40.020  22.251  27.215  1.00  0.00     0.014 A 
ATOM     11  C   UNL A   1      39.072  24.780  26.579  1.00  0.00     0.010 A 
ATOM     12  C   UNL A   1      40.638  23.384  27.761  1.00  0.00     0.010 A 
ATOM     13  C   UNL A   1      40.230  24.667  27.370  1.00  0.00    -0.014 A 
BRANCH  13  14
ATOM     14  C   UNL A   1      40.967  25.914  27.746  1.00  0.00     0.031 A 
ATOM     15  C   UNL A   1      42.341  26.231  27.204  1.00  0.00     0.074 A 
ATOM     16  C   UNL A   1      40.345  26.813  28.540  1.00  0.00     0.049 A 
ATOM     17  N   UNL A   1      43.096  27.275  27.447  1.00  0.00    -0.248 NA
ATOM     18  C   UNL A   1      42.966  25.255  26.295  1.00  0.00     0.031 C 
ATOM     19  C   UNL A   1      39.030  26.618  29.157  1.00  0.00     0.029 A 
ATOM     20  N   UNL A   1      40.702  28.078  28.930  1.00  0.00    -0.354 N 
ATOM     21  C   UNL A   1      44.307  27.039  26.805  1.00  0.00     0.074 A 
ATOM     22  C   UNL A   1      44.184  25.761  26.137  1.00  0.00     0.031 C 
ATOM     23  C   UNL A   1      38.642  27.755  29.745  1.00  0.00     0.029 A 
ATOM     24  C   UNL A   1      39.728  28.721  29.660  1.00  0.00     0.049 A 
ATOM     25  H   UNL A   1      41.570  28.487  28.709  1.00  0.00     0.167 HD
ATOM     26  C   UNL A   1      45.419  27.815  26.772  1.00  0.00     0.034 A 
ATOM     27  C   UNL A   1      39.707  29.940  30.228  1.00  0.00     0.034 A 
ATOM     28  C   UNL A   1      45.503  29.131  27.354  1.00  0.00     0.049 A 
ATOM     29  C   UNL A   1      40.919  30.811  30.102  1.00  0.00     0.074 A 
ATOM     30  C   UNL A   1      46.564  30.020  27.320  1.00  0.00     0.029 A 
ATOM     31  N   UNL A   1      44.485  29.754  28.059  1.00  0.00    -0.354 N 
ATOM     32  N   UNL A   1      42.030  30.584  29.445  1.00  0.00    -0.248 NA
ATOM     33  C   UNL A   1      40.877  32.104  30.795  1.00  0.00     0.031 C 
ATOM     34  C   UNL A   1      46.189  31.178  28.010  1.00  0.00     0.029 A 
ATOM     35  C   UNL A   1      44.890  31.016  28.463  1.00  0.00     0.049 A 
ATOM     36  H   UNL A   1      43.603  29.358  28.245  1.00  0.00     0.167 HD
ATOM     37  C   UNL A   1      42.819  31.707  29.640  1.00  0.00     0.074 A 
ATOM     38  C   UNL A   1      42.042  32.631  30.442  1.00  0.00     0.031 C 
ATOM     39  C   UNL A   1      44.086  31.940  29.219  1.00  0.00     0.034 A 
BRANCH  26  40
ATOM     40  C   UNL A   1      46.641  27.286  26.062  1.00  0.00     0.023 A 
ATOM     41  C   UNL A   1      46.803  27.502  24.680  1.00  0.00     0.012 A 
ATOM     42  C   UNL A   1      47.673  26.650  26.785  1.00  0.00     0.148 A 
ATOM     43  C   UNL A   1      47.958  27.072  24.023  1.00  0.00     0.002 A 
ATOM     44  C   UNL A   1      48.838  26.260  26.132  1.00  0.00     0.091 A 
ATOM     45  F   UNL A   1      47.496  26.432  28.096  1.00  0.00    -0.205 F 
ATOM     46  C   UNL A   1      48.979  26.463  24.749  1.00  0.00     0.022 A 
BRANCH  44  47
ATOM     47  S   UNL A   1      50.237  25.542  27.001  1.00  0.00     0.127 S 
ATOM     48  O   UNL A   1      50.566  26.597  27.957  1.00  0.00    -0.237 OA
ATOM     49  O   UNL A   1      49.651  24.341  27.600  1.00  0.00    -0.237 OA
ATOM     50  O   UNL A   1      51.243  25.277  25.982  1.00  0.00    -0.744 OA
ENDBRANCH  44  47
ENDBRANCH  26  40
BRANCH  27  51
ATOM     51  C   UNL A   1      38.480  30.401  30.936  1.00  0.00     0.023 A 
ATOM     52  C   UNL A   1      38.392  30.260  32.334  1.00  0.00     0.012 A 
ATOM     53  C   UNL A   1      37.443  31.060  30.248  1.00  0.00     0.148 A 
ATOM     54  C   UNL A   1      37.292  30.762  33.031  1.00  0.00     0.002 A 
ATOM     55  C   UNL A   1      36.388  31.623  30.956  1.00  0.00     0.091 A 
ATOM     56  F   UNL A   1      37.525  31.160  28.913  1.00  0.00    -0.205 F 
ATOM     57  C   UNL A   1      36.301  31.461  32.345  1.00  0.00     0.022 A 
BRANCH  55  58
ATOM     58  S   UNL A   1      35.188  32.696  30.157  1.00  0.00     0.127 S 
ATOM     59  O   UNL A   1      34.305  33.038  31.269  1.00  0.00    -0.237 OA
ATOM     60  O   UNL A   1      36.026  33.794  29.674  1.00  0.00    -0.237 OA
ATOM     61  O   UNL A   1      34.602  31.888  29.096  1.00  0.00    -0.744 OA
ENDBRANCH  55  58
ENDBRANCH  27  51
BRANCH  39  62
ATOM     62  C   UNL A   1      44.701  33.256  29.607  1.00  0.00     0.023 A 
ATOM     63  C   UNL A   1      45.423  33.356  30.814  1.00  0.00     0.012 A 
ATOM     64  C   UNL A   1      44.599  34.379  28.765  1.00  0.00     0.148 A 
ATOM     65  C   UNL A   1      46.002  34.565  31.192  1.00  0.00     0.002 A 
ATOM     66  C   UNL A   1      45.216  35.569  29.129  1.00  0.00     0.091 A 
ATOM     67  F   UNL A   1      43.886  34.269  27.633  1.00  0.00    -0.205 F 
ATOM     68  C   UNL A   1      45.908  35.668  30.346  1.00  0.00     0.022 A 
BRANCH  66  69
ATOM     69  S   UNL A   1      45.209  37.007  28.053  1.00  0.00     0.127 S 
ATOM     70  O   UNL A   1      43.795  37.377  28.058  1.00  0.00    -0.237 OA
ATOM     71  O   UNL A   1      46.086  37.938  28.764  1.00  0.00    -0.237 OA
ATOM     72  O   UNL A   1      45.737  36.545  26.776  1.00  0.00    -0.744 OA
ENDBRANCH  66  69
ENDBRANCH  39  62
ENDBRANCH  13  14
ENDBRANCH   6   8
ENDBRANCH   3   4
ENDBRANCH   2   3
ENDBRANCH   1   2
BRANCH   1  73
ATOM     73  C   UNL A   1      33.645  23.646  22.300  1.00  0.00     0.116 C 
BRANCH  73  74
ATOM     74  N   UNL A   1      32.952  22.621  23.080  1.00  0.00    -0.356 N 
ATOM     75  C   UNL A   1      32.013  22.857  24.037  1.00  0.00     0.227 C 
ATOM     76  H   UNL A   1      33.184  21.682  22.899  1.00  0.00     0.163 HD
ATOM     77  O   UNL A   1      30.920  23.326  23.715  1.00  0.00    -0.275 OA
BRANCH  75  78
ATOM     78  C   UNL A   1      32.243  22.344  25.463  1.00  0.00     0.127 C 
ATOM     79  C   UNL A   1      31.573  23.018  26.668  1.00  0.00     0.127 C 
ATOM     80  C   UNL A   1      33.689  22.223  25.997  1.00  0.00     0.155 C 
ATOM     81  C   UNL A   1      32.658  23.047  27.733  1.00  0.00     0.155 C 
ATOM     82  C   UNL A   1      33.736  21.155  27.057  1.00  0.00     0.004 C 
ATOM     83  O   UNL A   1      33.796  23.353  26.908  1.00  0.00    -0.365 OA
ATOM     84  C   UNL A   1      33.068  21.649  28.113  1.00  0.00     0.004 C 
BRANCH  79  85
ATOM     85  C   UNL A   1      30.823  24.300  26.495  1.00  0.00     0.231 C 
ATOM     86  O   UNL A   1      29.658  24.295  26.945  1.00  0.00    -0.274 OA
ATOM     87  N   UNL A   1      31.181  25.506  26.038  1.00  0.00    -0.325 N 
ATOM     88  H   UNL A   1      30.572  26.132  26.493  1.00  0.00     0.169 HD
BRANCH  87  89
ATOM     89  C   UNL A   1      31.999  26.337  25.225  1.00  0.00     0.044 A 
ATOM     90  C   UNL A   1      33.247  26.523  25.897  1.00  0.00     0.026 A 
ATOM     91  C   UNL A   1      31.776  27.106  24.046  1.00  0.00    -0.020 A 
ATOM     92  C   UNL A   1      34.229  27.411  25.481  1.00  0.00     0.002 A 
ATOM     93  C   UNL A   1      32.850  27.921  23.600  1.00  0.00     0.006 A 
ATOM     94  C   UNL A   1      34.028  28.116  24.319  1.00  0.00     0.000 A 
BRANCH  91  95
ATOM     95  C   UNL A   1      30.538  27.112  23.161  1.00  0.00     0.073 C 
BRANCH  95  96
ATOM     96  C   UNL A   1      29.649  28.336  22.841  1.00  0.00    -0.044 A 
ATOM     97  C   UNL A   1      28.267  28.246  23.141  1.00  0.00     0.004 A 
ATOM     98  C   UNL A   1      30.029  29.474  22.123  1.00  0.00     0.004 A 
ATOM     99  C   UNL A   1      27.343  29.246  22.824  1.00  0.00     0.000 A 
ATOM    100  C   UNL A   1      29.100  30.474  21.772  1.00  0.00     0.000 A 
ATOM    101  C   UNL A   1      27.763  30.367  22.131  1.00  0.00     0.000 A 
ENDBRANCH  95  96
ENDBRANCH  91  95
ENDBRANCH  87  89
ENDBRANCH  79  85
ENDBRANCH  75  78
ENDBRANCH  73  74
ENDBRANCH   1  73
TORSDOF 18
ENDMDL
