MODEL 1
REMARK VINA RESULT:     -11.4      0.000      0.000
REMARK SMILES CC(C)=CC(=O)Nc1ccc(C(=O)NCCCCNC(=O)c2ccc(-c3c4nc(c(-c5cccc(S(=O)(=O)[O-])c5F)c5ccc([nH]5)c(-c5cccc(S(=O)(=O)[O-])c5F)c5nc(c(-c6cccc(S(=O)(=O)[O-])c6F)c6ccc3[nH]6)C=C5)C=C4)cc2)cc1
REMARK SMILES IDX 17 1 16 2 15 3 14 4 12 5 13 6 11 8 8 9 9 10 86 11 10 12
REMARK SMILES IDX 85 13 7 14 5 15 6 16 4 18 1 19 2 20 3 21 18 22 19 23 20 24
REMARK SMILES IDX 21 26 22 27 23 28 84 29 24 30 83 31 25 32 26 33 27 34 77 35
REMARK SMILES IDX 28 36 82 37 76 38 78 39 29 40 81 41 75 42 74 43 30 45 62 46
REMARK SMILES IDX 42 47 61 48 43 49 46 50 60 51 79 52 44 53 45 54 59 56 80 57
REMARK SMILES IDX 47 58 31 59 32 60 40 61 33 62 35 63 41 64 34 65 36 66 37 67
REMARK SMILES IDX 38 68 39 69 63 70 64 71 72 72 65 73 67 74 73 75 66 76 68 77
REMARK SMILES IDX 69 78 70 79 71 80 48 81 49 82 57 83 50 84 52 85 58 86 51 87
REMARK SMILES IDX 53 88 54 89 55 90 56 91
REMARK H PARENT 14 7 7 17 19 25 78 44 46 55
REMARK Flexibility Score: inf
ROOT
ATOM      1  C   UNL A   1      33.952  27.920  25.506  1.00  0.00     0.023 C 
ENDROOT
BRANCH   1   2
ATOM      2  C   UNL A   1      33.619  28.895  24.377  1.00  0.00     0.023 C 
BRANCH   2   3
ATOM      3  C   UNL A   1      33.509  28.241  22.999  1.00  0.00     0.116 C 
BRANCH   3   4
ATOM      4  N   UNL A   1      32.222  28.539  22.394  1.00  0.00    -0.352 N 
ATOM      5  C   UNL A   1      30.986  27.960  22.544  1.00  0.00     0.251 C 
ATOM      6  O   UNL A   1      30.038  28.428  21.915  1.00  0.00    -0.269 OA
ATOM      7  H   UNL A   1      32.240  29.295  21.763  1.00  0.00     0.163 HD
BRANCH   5   8
ATOM      8  C   UNL A   1      30.734  26.863  23.516  1.00  0.00     0.039 A 
ATOM      9  C   UNL A   1      30.742  24.964  25.559  1.00  0.00     0.041 A 
ATOM     10  C   UNL A   1      30.381  26.281  25.846  1.00  0.00     0.027 A 
ATOM     11  C   UNL A   1      30.894  24.559  24.237  1.00  0.00     0.027 A 
ATOM     12  C   UNL A   1      30.418  27.236  24.830  1.00  0.00     0.016 A 
ATOM     13  C   UNL A   1      30.848  25.505  23.214  1.00  0.00     0.016 A 
BRANCH   9  14
ATOM     14  N   UNL A   1      31.009  24.114  26.634  1.00  0.00    -0.323 N 
ATOM     15  C   UNL A   1      32.194  23.556  27.021  1.00  0.00     0.248 C 
ATOM     16  O   UNL A   1      32.201  22.663  27.871  1.00  0.00    -0.270 OA
ATOM     17  H   UNL A   1      30.232  23.882  27.193  1.00  0.00     0.170 HD
BRANCH  15  18
ATOM     18  C   UNL A   1      33.505  24.026  26.482  1.00  0.00     0.070 C 
ATOM     19  C   UNL A   1      33.916  22.332  24.619  1.00  0.00     0.039 C 
ATOM     20  C   UNL A   1      34.235  23.542  25.454  1.00  0.00    -0.071 C 
ATOM     21  C   UNL A   1      35.485  24.259  25.007  1.00  0.00     0.039 C 
ENDBRANCH  15  18
ENDBRANCH   9  14
ENDBRANCH   5   8
ENDBRANCH   3   4
ENDBRANCH   2   3
ENDBRANCH   1   2
BRANCH   1  22
ATOM     22  C   UNL A   1      33.548  28.389  26.896  1.00  0.00     0.116 C 
BRANCH  22  23
ATOM     23  N   UNL A   1      33.519  29.839  27.017  1.00  0.00    -0.352 N 
ATOM     24  C   UNL A   1      34.451  30.673  27.583  1.00  0.00     0.251 C 
ATOM     25  H   UNL A   1      32.723  30.281  26.643  1.00  0.00     0.163 HD
ATOM     26  O   UNL A   1      34.195  31.870  27.716  1.00  0.00    -0.269 OA
BRANCH  24  27
ATOM     27  C   UNL A   1      35.742  30.129  28.050  1.00  0.00     0.039 A 
ATOM     28  C   UNL A   1      36.840  30.163  27.187  1.00  0.00     0.014 A 
ATOM     29  C   UNL A   1      35.874  29.590  29.333  1.00  0.00     0.014 A 
ATOM     30  C   UNL A   1      38.078  29.692  27.626  1.00  0.00     0.010 A 
ATOM     31  C   UNL A   1      37.127  29.203  29.797  1.00  0.00     0.010 A 
ATOM     32  C   UNL A   1      38.238  29.227  28.943  1.00  0.00    -0.014 A 
BRANCH  32  33
ATOM     33  C   UNL A   1      39.553  28.737  29.428  1.00  0.00     0.031 A 
ATOM     34  C   UNL A   1      40.260  29.453  30.547  1.00  0.00     0.074 A 
ATOM     35  C   UNL A   1      40.137  27.683  28.825  1.00  0.00     0.049 A 
ATOM     36  N   UNL A   1      41.413  29.182  31.102  1.00  0.00    -0.248 NA
ATOM     37  C   UNL A   1      39.601  30.650  31.100  1.00  0.00     0.031 C 
ATOM     38  C   UNL A   1      39.594  26.957  27.676  1.00  0.00     0.029 A 
ATOM     39  N   UNL A   1      41.328  27.052  29.083  1.00  0.00    -0.354 N 
ATOM     40  C   UNL A   1      41.632  30.185  32.039  1.00  0.00     0.074 A 
ATOM     41  C   UNL A   1      40.514  31.098  31.948  1.00  0.00     0.031 C 
ATOM     42  C   UNL A   1      40.442  25.972  27.338  1.00  0.00     0.029 A 
ATOM     43  C   UNL A   1      41.599  26.011  28.227  1.00  0.00     0.049 A 
ATOM     44  H   UNL A   1      41.932  27.319  29.814  1.00  0.00     0.167 HD
ATOM     45  C   UNL A   1      42.651  30.319  32.920  1.00  0.00     0.034 A 
ATOM     46  C   UNL A   1      42.659  25.181  28.166  1.00  0.00     0.034 A 
ATOM     47  C   UNL A   1      43.738  29.385  33.037  1.00  0.00     0.049 A 
ATOM     48  C   UNL A   1      43.755  25.321  29.189  1.00  0.00     0.074 A 
ATOM     49  C   UNL A   1      44.774  29.382  33.954  1.00  0.00     0.029 A 
ATOM     50  N   UNL A   1      43.934  28.293  32.207  1.00  0.00    -0.354 N 
ATOM     51  N   UNL A   1      43.861  26.181  30.173  1.00  0.00    -0.248 NA
ATOM     52  C   UNL A   1      44.855  24.348  29.120  1.00  0.00     0.031 C 
ATOM     53  C   UNL A   1      45.612  28.301  33.661  1.00  0.00     0.029 A 
ATOM     54  C   UNL A   1      45.078  27.610  32.585  1.00  0.00     0.049 A 
ATOM     55  H   UNL A   1      43.346  28.038  31.460  1.00  0.00     0.167 HD
ATOM     56  C   UNL A   1      45.014  25.828  30.865  1.00  0.00     0.074 A 
ATOM     57  C   UNL A   1      45.560  24.663  30.198  1.00  0.00     0.031 C 
ATOM     58  C   UNL A   1      45.579  26.421  31.945  1.00  0.00     0.034 A 
BRANCH  45  59
ATOM     59  C   UNL A   1      42.610  31.493  33.864  1.00  0.00     0.023 A 
ATOM     60  C   UNL A   1      43.151  32.731  33.462  1.00  0.00     0.012 A 
ATOM     61  C   UNL A   1      41.991  31.389  35.125  1.00  0.00     0.148 A 
ATOM     62  C   UNL A   1      43.116  33.834  34.313  1.00  0.00     0.002 A 
ATOM     63  C   UNL A   1      41.915  32.506  35.948  1.00  0.00     0.091 A 
ATOM     64  F   UNL A   1      41.499  30.199  35.500  1.00  0.00    -0.205 F 
ATOM     65  C   UNL A   1      42.490  33.725  35.551  1.00  0.00     0.022 A 
BRANCH  63  66
ATOM     66  S   UNL A   1      41.057  32.490  37.527  1.00  0.00     0.127 S 
ATOM     67  O   UNL A   1      41.914  31.608  38.319  1.00  0.00    -0.237 OA
ATOM     68  O   UNL A   1      41.108  33.900  37.916  1.00  0.00    -0.237 OA
ATOM     69  O   UNL A   1      39.721  31.983  37.253  1.00  0.00    -0.744 OA
ENDBRANCH  63  66
ENDBRANCH  45  59
BRANCH  46  70
ATOM     70  C   UNL A   1      42.702  24.096  27.145  1.00  0.00     0.023 A 
ATOM     71  C   UNL A   1      43.417  24.297  25.948  1.00  0.00     0.012 A 
ATOM     72  C   UNL A   1      42.056  22.863  27.360  1.00  0.00     0.148 A 
ATOM     73  C   UNL A   1      43.456  23.306  24.967  1.00  0.00     0.002 A 
ATOM     74  C   UNL A   1      42.146  21.859  26.402  1.00  0.00     0.091 A 
ATOM     75  F   UNL A   1      41.375  22.694  28.502  1.00  0.00    -0.205 F 
ATOM     76  C   UNL A   1      42.829  22.085  25.197  1.00  0.00     0.022 A 
BRANCH  74  77
ATOM     77  S   UNL A   1      41.480  20.213  26.668  1.00  0.00     0.127 S 
ATOM     78  O   UNL A   1      41.860  19.533  25.433  1.00  0.00    -0.237 OA
ATOM     79  O   UNL A   1      42.213  19.781  27.860  1.00  0.00    -0.237 OA
ATOM     80  O   UNL A   1      40.051  20.395  26.878  1.00  0.00    -0.744 OA
ENDBRANCH  74  77
ENDBRANCH  46  70
BRANCH  58  81
ATOM     81  C   UNL A   1      46.826  25.797  32.514  1.00  0.00     0.023 A 
ATOM     82  C   UNL A   1      48.094  26.189  32.041  1.00  0.00     0.012 A 
ATOM     83  C   UNL A   1      46.741  24.865  33.570  1.00  0.00     0.148 A 
ATOM     84  C   UNL A   1      49.254  25.636  32.579  1.00  0.00     0.002 A 
ATOM     85  C   UNL A   1      47.903  24.359  34.138  1.00  0.00     0.091 A 
ATOM     86  F   UNL A   1      45.526  24.489  33.995  1.00  0.00    -0.205 F 
ATOM     87  C   UNL A   1      49.160  24.732  33.635  1.00  0.00     0.022 A 
BRANCH  85  88
ATOM     88  S   UNL A   1      47.879  23.270  35.565  1.00  0.00     0.127 S 
ATOM     89  O   UNL A   1      49.305  23.047  35.794  1.00  0.00    -0.237 OA
ATOM     90  O   UNL A   1      47.220  24.097  36.577  1.00  0.00    -0.237 OA
ATOM     91  O   UNL A   1      47.118  22.095  35.161  1.00  0.00    -0.744 OA
ENDBRANCH  85  88
ENDBRANCH  58  81
ENDBRANCH  32  33
ENDBRANCH  24  27
ENDBRANCH  22  23
ENDBRANCH   1  22
TORSDOF 16
ENDMDL
MODEL 2
REMARK VINA RESULT:     -11.3      2.231      3.063
REMARK SMILES CC(C)=CC(=O)Nc1ccc(C(=O)NCCCCNC(=O)c2ccc(-c3c4nc(c(-c5cccc(S(=O)(=O)[O-])c5F)c5ccc([nH]5)c(-c5cccc(S(=O)(=O)[O-])c5F)c5nc(c(-c6cccc(S(=O)(=O)[O-])c6F)c6ccc3[nH]6)C=C5)C=C4)cc2)cc1
REMARK SMILES IDX 17 1 16 2 15 3 14 4 12 5 13 6 11 8 8 9 9 10 86 11 10 12
REMARK SMILES IDX 85 13 7 14 5 15 6 16 4 18 1 19 2 20 3 21 18 22 19 23 20 24
REMARK SMILES IDX 21 26 22 27 23 28 84 29 24 30 83 31 25 32 26 33 27 34 77 35
REMARK SMILES IDX 28 36 82 37 76 38 78 39 29 40 81 41 75 42 74 43 30 45 62 46
REMARK SMILES IDX 42 47 61 48 43 49 46 50 60 51 79 52 44 53 45 54 59 56 80 57
REMARK SMILES IDX 47 58 31 59 32 60 40 61 33 62 35 63 41 64 34 65 36 66 37 67
REMARK SMILES IDX 38 68 39 69 63 70 64 71 72 72 65 73 67 74 73 75 66 76 68 77
REMARK SMILES IDX 69 78 70 79 71 80 48 81 49 82 57 83 50 84 52 85 58 86 51 87
REMARK SMILES IDX 53 88 54 89 55 90 56 91
REMARK H PARENT 14 7 7 17 19 25 78 44 46 55
REMARK Flexibility Score: inf
ROOT
ATOM      1  C   UNL A   1      31.805  28.470  24.844  1.00  0.00     0.023 C 
ENDROOT
BRANCH   1   2
ATOM      2  C   UNL A   1      31.642  28.548  23.326  1.00  0.00     0.023 C 
BRANCH   2   3
ATOM      3  C   UNL A   1      30.866  27.377  22.721  1.00  0.00     0.116 C 
BRANCH   3   4
ATOM      4  N   UNL A   1      31.545  26.871  21.540  1.00  0.00    -0.352 N 
ATOM      5  C   UNL A   1      32.539  25.937  21.388  1.00  0.00     0.251 C 
ATOM      6  O   UNL A   1      32.931  25.676  20.252  1.00  0.00    -0.269 OA
ATOM      7  H   UNL A   1      31.235  27.272  20.696  1.00  0.00     0.163 HD
BRANCH   5   8
ATOM      8  C   UNL A   1      33.080  25.156  22.533  1.00  0.00     0.039 A 
ATOM      9  C   UNL A   1      33.597  23.784  24.906  1.00  0.00     0.041 A 
ATOM     10  C   UNL A   1      32.832  23.173  23.912  1.00  0.00     0.027 A 
ATOM     11  C   UNL A   1      34.264  24.975  24.635  1.00  0.00     0.027 A 
ATOM     12  C   UNL A   1      32.542  23.879  22.744  1.00  0.00     0.016 A 
ATOM     13  C   UNL A   1      34.035  25.637  23.430  1.00  0.00     0.016 A 
BRANCH   9  14
ATOM     14  N   UNL A   1      33.601  23.200  26.175  1.00  0.00    -0.323 N 
ATOM     15  C   UNL A   1      34.272  22.097  26.615  1.00  0.00     0.248 C 
ATOM     16  O   UNL A   1      33.991  21.607  27.711  1.00  0.00    -0.270 OA
ATOM     17  H   UNL A   1      33.039  23.649  26.849  1.00  0.00     0.170 HD
BRANCH  15  18
ATOM     18  C   UNL A   1      35.383  21.478  25.831  1.00  0.00     0.070 C 
ATOM     19  C   UNL A   1      37.194  23.264  26.036  1.00  0.00     0.039 C 
ATOM     20  C   UNL A   1      36.630  21.940  25.597  1.00  0.00    -0.071 C 
ATOM     21  C   UNL A   1      37.634  21.080  24.870  1.00  0.00     0.039 C 
ENDBRANCH  15  18
ENDBRANCH   9  14
ENDBRANCH   5   8
ENDBRANCH   3   4
ENDBRANCH   2   3
ENDBRANCH   1   2
BRANCH   1  22
ATOM     22  C   UNL A   1      32.938  29.315  25.409  1.00  0.00     0.116 C 
BRANCH  22  23
ATOM     23  N   UNL A   1      32.490  30.614  25.890  1.00  0.00    -0.352 N 
ATOM     24  C   UNL A   1      33.007  31.379  26.905  1.00  0.00     0.251 C 
ATOM     25  H   UNL A   1      31.711  30.993  25.424  1.00  0.00     0.163 HD
ATOM     26  O   UNL A   1      32.413  32.395  27.264  1.00  0.00    -0.269 OA
BRANCH  24  27
ATOM     27  C   UNL A   1      34.257  30.968  27.577  1.00  0.00     0.039 A 
ATOM     28  C   UNL A   1      35.248  31.926  27.802  1.00  0.00     0.014 A 
ATOM     29  C   UNL A   1      34.451  29.647  27.989  1.00  0.00     0.014 A 
ATOM     30  C   UNL A   1      36.416  31.566  28.473  1.00  0.00     0.010 A 
ATOM     31  C   UNL A   1      35.577  29.311  28.733  1.00  0.00     0.010 A 
ATOM     32  C   UNL A   1      36.583  30.260  28.964  1.00  0.00    -0.014 A 
BRANCH  32  33
ATOM     33  C   UNL A   1      37.816  29.866  29.693  1.00  0.00     0.031 A 
ATOM     34  C   UNL A   1      38.086  30.414  31.069  1.00  0.00     0.074 A 
ATOM     35  C   UNL A   1      38.718  29.064  29.095  1.00  0.00     0.049 A 
ATOM     36  N   UNL A   1      39.106  30.194  31.858  1.00  0.00    -0.248 NA
ATOM     37  C   UNL A   1      37.097  31.355  31.623  1.00  0.00     0.031 C 
ATOM     38  C   UNL A   1      38.613  28.537  27.734  1.00  0.00     0.029 A 
ATOM     39  N   UNL A   1      39.913  28.567  29.552  1.00  0.00    -0.354 N 
ATOM     40  C   UNL A   1      38.899  30.989  32.979  1.00  0.00     0.074 A 
ATOM     41  C   UNL A   1      37.680  31.732  32.751  1.00  0.00     0.031 C 
ATOM     42  C   UNL A   1      39.690  27.780  27.471  1.00  0.00     0.029 A 
ATOM     43  C   UNL A   1      40.575  27.787  28.632  1.00  0.00     0.049 A 
ATOM     44  H   UNL A   1      40.264  28.750  30.454  1.00  0.00     0.167 HD
ATOM     45  C   UNL A   1      39.636  31.070  34.112  1.00  0.00     0.034 A 
ATOM     46  C   UNL A   1      41.758  27.150  28.716  1.00  0.00     0.034 A 
ATOM     47  C   UNL A   1      40.824  30.297  34.354  1.00  0.00     0.049 A 
ATOM     48  C   UNL A   1      42.534  27.216  30.005  1.00  0.00     0.074 A 
ATOM     49  C   UNL A   1      41.595  30.241  35.501  1.00  0.00     0.029 A 
ATOM     50  N   UNL A   1      41.418  29.451  33.430  1.00  0.00    -0.354 N 
ATOM     51  N   UNL A   1      42.237  27.847  31.116  1.00  0.00    -0.248 NA
ATOM     52  C   UNL A   1      43.786  26.448  30.068  1.00  0.00     0.031 C 
ATOM     53  C   UNL A   1      42.670  29.380  35.262  1.00  0.00     0.029 A 
ATOM     54  C   UNL A   1      42.549  28.872  33.978  1.00  0.00     0.049 A 
ATOM     55  H   UNL A   1      41.083  29.285  32.519  1.00  0.00     0.167 HD
ATOM     56  C   UNL A   1      43.240  27.519  32.021  1.00  0.00     0.074 A 
ATOM     57  C   UNL A   1      44.142  26.617  31.334  1.00  0.00     0.031 C 
ATOM     58  C   UNL A   1      43.408  27.934  33.300  1.00  0.00     0.034 A 
BRANCH  45  59
ATOM     59  C   UNL A   1      39.147  31.991  35.200  1.00  0.00     0.023 A 
ATOM     60  C   UNL A   1      38.177  31.535  36.117  1.00  0.00     0.012 A 
ATOM     61  C   UNL A   1      39.681  33.286  35.350  1.00  0.00     0.148 A 
ATOM     62  C   UNL A   1      37.716  32.365  37.138  1.00  0.00     0.002 A 
ATOM     63  C   UNL A   1      39.254  34.089  36.399  1.00  0.00     0.091 A 
ATOM     64  F   UNL A   1      40.588  33.711  34.457  1.00  0.00    -0.205 F 
ATOM     65  C   UNL A   1      38.261  33.637  37.285  1.00  0.00     0.022 A 
BRANCH  63  66
ATOM     66  S   UNL A   1      39.952  35.712  36.726  1.00  0.00     0.127 S 
ATOM     67  O   UNL A   1      41.374  35.397  36.869  1.00  0.00    -0.237 OA
ATOM     68  O   UNL A   1      39.610  36.444  35.505  1.00  0.00    -0.237 OA
ATOM     69  O   UNL A   1      39.296  36.198  37.930  1.00  0.00    -0.744 OA
ENDBRANCH  63  66
ENDBRANCH  45  59
BRANCH  46  70
ATOM     70  C   UNL A   1      42.250  26.331  27.572  1.00  0.00     0.023 A 
ATOM     71  C   UNL A   1      43.107  26.916  26.618  1.00  0.00     0.012 A 
ATOM     72  C   UNL A   1      41.891  24.977  27.433  1.00  0.00     0.148 A 
ATOM     73  C   UNL A   1      43.565  26.178  25.526  1.00  0.00     0.002 A 
ATOM     74  C   UNL A   1      42.396  24.232  26.373  1.00  0.00     0.091 A 
ATOM     75  F   UNL A   1      41.069  24.442  28.346  1.00  0.00    -0.205 F 
ATOM     76  C   UNL A   1      43.217  24.836  25.408  1.00  0.00     0.022 A 
BRANCH  74  77
ATOM     77  S   UNL A   1      42.107  22.468  26.211  1.00  0.00     0.127 S 
ATOM     78  O   UNL A   1      42.838  22.155  24.987  1.00  0.00    -0.237 OA
ATOM     79  O   UNL A   1      42.712  21.950  27.440  1.00  0.00    -0.237 OA
ATOM     80  O   UNL A   1      40.661  22.310  26.144  1.00  0.00    -0.744 OA
ENDBRANCH  74  77
ENDBRANCH  46  70
BRANCH  58  81
ATOM     81  C   UNL A   1      44.582  27.384  34.067  1.00  0.00     0.023 A 
ATOM     82  C   UNL A   1      45.827  28.042  34.022  1.00  0.00     0.012 A 
ATOM     83  C   UNL A   1      44.429  26.248  34.887  1.00  0.00     0.148 A 
ATOM     84  C   UNL A   1      46.912  27.555  34.749  1.00  0.00     0.002 A 
ATOM     85  C   UNL A   1      45.500  25.800  35.650  1.00  0.00     0.091 A 
ATOM     86  F   UNL A   1      43.243  25.623  34.903  1.00  0.00    -0.205 F 
ATOM     87  C   UNL A   1      46.746  26.443  35.572  1.00  0.00     0.022 A 
BRANCH  85  88
ATOM     88  S   UNL A   1      45.349  24.440  36.813  1.00  0.00     0.127 S 
ATOM     89  O   UNL A   1      45.010  23.327  35.928  1.00  0.00    -0.237 OA
ATOM     90  O   UNL A   1      46.692  24.373  37.391  1.00  0.00    -0.237 OA
ATOM     91  O   UNL A   1      44.308  24.830  37.754  1.00  0.00    -0.744 OA
ENDBRANCH  85  88
ENDBRANCH  58  81
ENDBRANCH  32  33
ENDBRANCH  24  27
ENDBRANCH  22  23
ENDBRANCH   1  22
TORSDOF 16
ENDMDL
MODEL 3
REMARK VINA RESULT:     -11.2      1.369      2.384
REMARK SMILES CC(C)=CC(=O)Nc1ccc(C(=O)NCCCCNC(=O)c2ccc(-c3c4nc(c(-c5cccc(S(=O)(=O)[O-])c5F)c5ccc([nH]5)c(-c5cccc(S(=O)(=O)[O-])c5F)c5nc(c(-c6cccc(S(=O)(=O)[O-])c6F)c6ccc3[nH]6)C=C5)C=C4)cc2)cc1
REMARK SMILES IDX 17 1 16 2 15 3 14 4 12 5 13 6 11 8 8 9 9 10 86 11 10 12
REMARK SMILES IDX 85 13 7 14 5 15 6 16 4 18 1 19 2 20 3 21 18 22 19 23 20 24
REMARK SMILES IDX 21 26 22 27 23 28 84 29 24 30 83 31 25 32 26 33 27 34 77 35
REMARK SMILES IDX 28 36 82 37 76 38 78 39 29 40 81 41 75 42 74 43 30 45 62 46
REMARK SMILES IDX 42 47 61 48 43 49 46 50 60 51 79 52 44 53 45 54 59 56 80 57
REMARK SMILES IDX 47 58 31 59 32 60 40 61 33 62 35 63 41 64 34 65 36 66 37 67
REMARK SMILES IDX 38 68 39 69 63 70 64 71 72 72 65 73 67 74 73 75 66 76 68 77
REMARK SMILES IDX 69 78 70 79 71 80 48 81 49 82 57 83 50 84 52 85 58 86 51 87
REMARK SMILES IDX 53 88 54 89 55 90 56 91
REMARK H PARENT 14 7 7 17 19 25 78 44 46 55
REMARK Flexibility Score: inf
ROOT
ATOM      1  C   UNL A   1      32.440  27.745  26.978  1.00  0.00     0.023 C 
ENDROOT
BRANCH   1   2
ATOM      2  C   UNL A   1      32.372  26.386  26.280  1.00  0.00     0.023 C 
BRANCH   2   3
ATOM      3  C   UNL A   1      31.023  26.089  25.623  1.00  0.00     0.116 C 
BRANCH   3   4
ATOM      4  N   UNL A   1      30.275  25.125  26.411  1.00  0.00    -0.352 N 
ATOM      5  C   UNL A   1      30.544  23.824  26.759  1.00  0.00     0.251 C 
ATOM      6  O   UNL A   1      29.733  23.225  27.464  1.00  0.00    -0.269 OA
ATOM      7  H   UNL A   1      29.419  25.466  26.757  1.00  0.00     0.163 HD
BRANCH   5   8
ATOM      8  C   UNL A   1      31.825  23.155  26.407  1.00  0.00     0.039 A 
ATOM      9  C   UNL A   1      33.917  21.446  25.712  1.00  0.00     0.041 A 
ATOM     10  C   UNL A   1      33.044  21.901  24.723  1.00  0.00     0.027 A 
ATOM     11  C   UNL A   1      33.870  22.000  26.987  1.00  0.00     0.027 A 
ATOM     12  C   UNL A   1      31.976  22.723  25.082  1.00  0.00     0.016 A 
ATOM     13  C   UNL A   1      32.847  22.887  27.320  1.00  0.00     0.016 A 
BRANCH   9  14
ATOM     14  N   UNL A   1      34.767  20.385  25.391  1.00  0.00    -0.323 N 
ATOM     15  C   UNL A   1      36.120  20.386  25.214  1.00  0.00     0.248 C 
ATOM     16  O   UNL A   1      36.674  19.397  24.729  1.00  0.00    -0.270 OA
ATOM     17  H   UNL A   1      34.327  19.511  25.276  1.00  0.00     0.170 HD
BRANCH  15  18
ATOM     18  C   UNL A   1      36.975  21.536  25.637  1.00  0.00     0.070 C 
ATOM     19  C   UNL A   1      36.651  23.144  23.682  1.00  0.00     0.039 C 
ATOM     20  C   UNL A   1      37.192  22.717  25.020  1.00  0.00    -0.071 C 
ATOM     21  C   UNL A   1      38.009  23.789  25.698  1.00  0.00     0.039 C 
ENDBRANCH  15  18
ENDBRANCH   9  14
ENDBRANCH   5   8
ENDBRANCH   3   4
ENDBRANCH   2   3
ENDBRANCH   1   2
BRANCH   1  22
ATOM     22  C   UNL A   1      33.711  28.539  26.708  1.00  0.00     0.116 C 
BRANCH  22  23
ATOM     23  N   UNL A   1      33.585  29.945  27.065  1.00  0.00    -0.352 N 
ATOM     24  C   UNL A   1      34.442  30.724  27.801  1.00  0.00     0.251 C 
ATOM     25  H   UNL A   1      32.777  30.396  26.733  1.00  0.00     0.163 HD
ATOM     26  O   UNL A   1      34.106  31.864  28.118  1.00  0.00    -0.269 OA
BRANCH  24  27
ATOM     27  C   UNL A   1      35.748  30.184  28.230  1.00  0.00     0.039 A 
ATOM     28  C   UNL A   1      36.853  30.344  27.390  1.00  0.00     0.014 A 
ATOM     29  C   UNL A   1      35.887  29.524  29.455  1.00  0.00     0.014 A 
ATOM     30  C   UNL A   1      38.103  29.878  27.798  1.00  0.00     0.010 A 
ATOM     31  C   UNL A   1      37.149  29.139  29.896  1.00  0.00     0.010 A 
ATOM     32  C   UNL A   1      38.267  29.290  29.064  1.00  0.00    -0.014 A 
BRANCH  32  33
ATOM     33  C   UNL A   1      39.595  28.802  29.516  1.00  0.00     0.031 A 
ATOM     34  C   UNL A   1      40.325  29.517  30.622  1.00  0.00     0.074 A 
ATOM     35  C   UNL A   1      40.169  27.754  28.894  1.00  0.00     0.049 A 
ATOM     36  N   UNL A   1      41.491  29.247  31.148  1.00  0.00    -0.248 NA
ATOM     37  C   UNL A   1      39.674  30.708  31.195  1.00  0.00     0.031 C 
ATOM     38  C   UNL A   1      39.603  27.031  27.754  1.00  0.00     0.029 A 
ATOM     39  N   UNL A   1      41.368  27.126  29.122  1.00  0.00    -0.354 N 
ATOM     40  C   UNL A   1      41.728  30.247  32.084  1.00  0.00     0.074 A 
ATOM     41  C   UNL A   1      40.605  31.156  32.024  1.00  0.00     0.031 C 
ATOM     42  C   UNL A   1      40.446  26.051  27.392  1.00  0.00     0.029 A 
ATOM     43  C   UNL A   1      41.623  26.090  28.254  1.00  0.00     0.049 A 
ATOM     44  H   UNL A   1      41.988  27.392  29.840  1.00  0.00     0.167 HD
ATOM     45  C   UNL A   1      42.767  30.380  32.942  1.00  0.00     0.034 A 
ATOM     46  C   UNL A   1      42.684  25.265  28.165  1.00  0.00     0.034 A 
ATOM     47  C   UNL A   1      43.860  29.450  33.030  1.00  0.00     0.049 A 
ATOM     48  C   UNL A   1      43.803  25.404  29.163  1.00  0.00     0.074 A 
ATOM     49  C   UNL A   1      44.917  29.447  33.922  1.00  0.00     0.029 A 
ATOM     50  N   UNL A   1      44.041  28.363  32.190  1.00  0.00    -0.354 N 
ATOM     51  N   UNL A   1      43.929  26.260  30.148  1.00  0.00    -0.248 NA
ATOM     52  C   UNL A   1      44.905  24.436  29.064  1.00  0.00     0.031 C 
ATOM     53  C   UNL A   1      45.752  28.371  33.605  1.00  0.00     0.029 A 
ATOM     54  C   UNL A   1      45.196  27.683  32.538  1.00  0.00     0.049 A 
ATOM     55  H   UNL A   1      43.437  28.109  31.455  1.00  0.00     0.167 HD
ATOM     56  C   UNL A   1      45.099  25.909  30.811  1.00  0.00     0.074 A 
ATOM     57  C   UNL A   1      45.634  24.749  30.127  1.00  0.00     0.031 C 
ATOM     58  C   UNL A   1      45.687  26.498  31.882  1.00  0.00     0.034 A 
BRANCH  45  59
ATOM     59  C   UNL A   1      42.743  31.550  33.893  1.00  0.00     0.023 A 
ATOM     60  C   UNL A   1      43.219  32.807  33.465  1.00  0.00     0.012 A 
ATOM     61  C   UNL A   1      42.204  31.422  35.187  1.00  0.00     0.148 A 
ATOM     62  C   UNL A   1      43.198  33.905  34.322  1.00  0.00     0.002 A 
ATOM     63  C   UNL A   1      42.140  32.533  36.019  1.00  0.00     0.091 A 
ATOM     64  F   UNL A   1      41.774  30.215  35.585  1.00  0.00    -0.205 F 
ATOM     65  C   UNL A   1      42.650  33.772  35.594  1.00  0.00     0.022 A 
BRANCH  63  66
ATOM     66  S   UNL A   1      41.378  32.485  37.645  1.00  0.00     0.127 S 
ATOM     67  O   UNL A   1      40.005  32.102  37.316  1.00  0.00    -0.237 OA
ATOM     68  O   UNL A   1      42.156  31.445  38.318  1.00  0.00    -0.237 OA
ATOM     69  O   UNL A   1      41.536  33.820  38.203  1.00  0.00    -0.744 OA
ENDBRANCH  63  66
ENDBRANCH  45  59
BRANCH  46  70
ATOM     70  C   UNL A   1      42.708  24.185  27.139  1.00  0.00     0.023 A 
ATOM     71  C   UNL A   1      43.384  24.399  25.921  1.00  0.00     0.012 A 
ATOM     72  C   UNL A   1      42.083  22.944  27.367  1.00  0.00     0.148 A 
ATOM     73  C   UNL A   1      43.404  23.413  24.934  1.00  0.00     0.002 A 
ATOM     74  C   UNL A   1      42.154  21.945  26.402  1.00  0.00     0.091 A 
ATOM     75  F   UNL A   1      41.438  22.763  28.528  1.00  0.00    -0.205 F 
ATOM     76  C   UNL A   1      42.797  22.184  25.178  1.00  0.00     0.022 A 
BRANCH  74  77
ATOM     77  S   UNL A   1      41.514  20.291  26.680  1.00  0.00     0.127 S 
ATOM     78  O   UNL A   1      41.898  19.610  25.447  1.00  0.00    -0.237 OA
ATOM     79  O   UNL A   1      42.258  19.877  27.871  1.00  0.00    -0.237 OA
ATOM     80  O   UNL A   1      40.083  20.453  26.895  1.00  0.00    -0.744 OA
ENDBRANCH  74  77
ENDBRANCH  46  70
BRANCH  58  81
ATOM     81  C   UNL A   1      46.949  25.877  32.419  1.00  0.00     0.023 A 
ATOM     82  C   UNL A   1      48.204  26.283  31.924  1.00  0.00     0.012 A 
ATOM     83  C   UNL A   1      46.891  24.933  33.465  1.00  0.00     0.148 A 
ATOM     84  C   UNL A   1      49.379  25.732  32.433  1.00  0.00     0.002 A 
ATOM     85  C   UNL A   1      48.068  24.429  34.004  1.00  0.00     0.091 A 
ATOM     86  F   UNL A   1      45.688  24.544  33.910  1.00  0.00    -0.205 F 
ATOM     87  C   UNL A   1      49.312  24.816  33.480  1.00  0.00     0.022 A 
BRANCH  85  88
ATOM     88  S   UNL A   1      48.079  23.323  35.419  1.00  0.00     0.127 S 
ATOM     89  O   UNL A   1      47.378  24.120  36.425  1.00  0.00    -0.237 OA
ATOM     90  O   UNL A   1      47.327  22.171  34.921  1.00  0.00    -0.237 OA
ATOM     91  O   UNL A   1      49.481  23.049  35.703  1.00  0.00    -0.744 OA
ENDBRANCH  85  88
ENDBRANCH  58  81
ENDBRANCH  32  33
ENDBRANCH  24  27
ENDBRANCH  22  23
ENDBRANCH   1  22
TORSDOF 16
ENDMDL
