MODEL 1
REMARK VINA RESULT:     -12.7      0.000      0.000
REMARK SMILES COc1ccc(NC(=O)C[C@@H](C[NH+]2CCOCC2)C(=O)NCCCCNC(=O)c2ccc(-c3c4nc(c(-c5cccc(S(=O)(=O)[O-])c5F)c5ccc([nH]5)c(-c5cccc(S(=O)(=O)[O-])c5F)c5nc(c(-c6cccc(S(=O)(=O)[O-])c6F)c6ccc3[nH]6)C=C5)C=C4)cc2)cc1
REMARK SMILES IDX 23 1 22 2 21 3 19 4 20 5 11 7 10 8 8 9 7 10 9 12 6 13 3 14
REMARK SMILES IDX 4 15 93 16 5 17 92 18 2 19 1 20 12 21 13 22 14 23 18 24
REMARK SMILES IDX 15 26 17 27 16 28 24 29 25 30 26 31 27 32 28 34 29 35 30 36
REMARK SMILES IDX 91 37 31 38 90 39 32 40 33 41 34 42 84 43 35 44 89 45 83 46
REMARK SMILES IDX 85 47 36 48 88 49 82 50 81 51 37 53 69 54 49 55 68 56 50 57
REMARK SMILES IDX 53 58 67 59 86 60 51 61 52 62 66 64 87 65 54 66 38 67 39 68
REMARK SMILES IDX 47 69 40 70 42 71 48 72 41 73 43 74 44 75 45 76 46 77 70 78
REMARK SMILES IDX 71 79 79 80 72 81 74 82 80 83 73 84 75 85 76 86 77 87 78 88
REMARK SMILES IDX 55 89 56 90 64 91 57 92 59 93 65 94 58 95 60 96 61 97 62 98
REMARK SMILES IDX 63 99
REMARK H PARENT 21 6 7 11 13 25 26 33 85 52 53 63
REMARK Flexibility Score: inf
ROOT
ATOM      1  C   UNL A   1      35.414  23.525  23.934  1.00  0.00     0.023 C 
ENDROOT
BRANCH   1   2
ATOM      2  C   UNL A   1      35.009  24.264  25.369  1.00  0.00     0.116 C 
BRANCH   2   3
ATOM      3  N   UNL A   1      33.524  25.546  25.807  1.00  0.00    -0.356 N 
ATOM      4  C   UNL A   1      32.664  26.632  25.526  1.00  0.00     0.229 C 
ATOM      5  O   UNL A   1      31.942  27.018  26.454  1.00  0.00    -0.275 OA
ATOM      6  H   UNL A   1      33.242  25.263  26.707  1.00  0.00     0.163 HD
BRANCH   4   7
ATOM      7  C   UNL A   1      32.612  27.374  24.182  1.00  0.00     0.142 C 
BRANCH   7   8
ATOM      8  C   UNL A   1      32.822  26.487  22.930  1.00  0.00     0.119 C 
BRANCH   8   9
ATOM      9  C   UNL A   1      31.855  25.583  22.098  1.00  0.00     0.225 C 
ATOM     10  N   UNL A   1      31.160  24.475  22.468  1.00  0.00    -0.326 N 
ATOM     11  H   UNL A   1      30.219  24.501  22.178  1.00  0.00     0.169 HD
ATOM     12  O   UNL A   1      31.501  26.050  20.997  1.00  0.00    -0.275 OA
BRANCH  10  13
ATOM     13  C   UNL A   1      31.479  23.303  23.168  1.00  0.00     0.041 A 
ATOM     14  C   UNL A   1      32.540  21.257  24.758  1.00  0.00     0.119 A 
ATOM     15  C   UNL A   1      32.598  21.157  23.369  1.00  0.00     0.048 A 
ATOM     16  C   UNL A   1      31.825  22.303  25.341  1.00  0.00     0.048 A 
ATOM     17  C   UNL A   1      32.049  22.180  22.571  1.00  0.00     0.030 A 
ATOM     18  C   UNL A   1      31.252  23.300  24.547  1.00  0.00     0.030 A 
BRANCH  14  19
ATOM     19  O   UNL A   1      33.300  20.511  25.616  1.00  0.00    -0.497 OA
ATOM     20  C   UNL A   1      34.192  19.586  25.012  1.00  0.00     0.278 C 
ENDBRANCH  14  19
ENDBRANCH  10  13
ENDBRANCH   8   9
ENDBRANCH   7   8
BRANCH   7  21
ATOM     21  C   UNL A   1      31.403  28.219  24.269  1.00  0.00     0.276 C 
BRANCH  21  22
ATOM     22  N   UNL A   1      30.543  27.993  23.109  1.00  0.00    -0.330 N 
ATOM     23  C   UNL A   1      30.446  29.685  22.361  1.00  0.00     0.291 C 
ATOM     24  C   UNL A   1      28.912  27.237  23.620  1.00  0.00     0.291 C 
ATOM     25  H   UNL A   1      30.887  27.315  22.429  1.00  0.00     0.348 HD
ATOM     26  C   UNL A   1      28.814  30.677  22.166  1.00  0.00     0.221 C 
ATOM     27  C   UNL A   1      27.210  28.228  23.538  1.00  0.00     0.221 C 
ATOM     28  O   UNL A   1      27.244  29.815  22.596  1.00  0.00    -0.370 OA
ENDBRANCH  21  22
ENDBRANCH   7  21
ENDBRANCH   4   7
ENDBRANCH   2   3
ENDBRANCH   1   2
BRANCH   1  29
ATOM     29  C   UNL A   1      36.375  22.349  24.067  1.00  0.00     0.023 C 
BRANCH  29  30
ATOM     30  C   UNL A   1      36.925  22.188  25.471  1.00  0.00     0.116 C 
BRANCH  30  31
ATOM     31  N   UNL A   1      37.885  21.091  25.586  1.00  0.00    -0.352 N 
ATOM     32  C   UNL A   1      39.158  21.146  26.108  1.00  0.00     0.251 C 
ATOM     33  H   UNL A   1      37.588  20.214  25.253  1.00  0.00     0.163 HD
ATOM     34  O   UNL A   1      39.907  20.188  26.073  1.00  0.00    -0.269 OA
BRANCH  32  35
ATOM     35  C   UNL A   1      39.577  22.436  26.679  1.00  0.00     0.039 A 
ATOM     36  C   UNL A   1      40.597  22.457  27.630  1.00  0.00     0.014 A 
ATOM     37  C   UNL A   1      39.072  23.611  26.120  1.00  0.00     0.014 A 
ATOM     38  C   UNL A   1      41.154  23.682  27.988  1.00  0.00     0.010 A 
ATOM     39  C   UNL A   1      39.700  24.812  26.399  1.00  0.00     0.010 A 
ATOM     40  C   UNL A   1      40.727  24.860  27.353  1.00  0.00    -0.014 A 
BRANCH  40  41
ATOM     41  C   UNL A   1      41.302  26.178  27.703  1.00  0.00     0.031 A 
ATOM     42  C   UNL A   1      42.705  26.496  27.268  1.00  0.00     0.074 A 
ATOM     43  C   UNL A   1      40.607  27.030  28.480  1.00  0.00     0.049 A 
ATOM     44  N   UNL A   1      43.422  27.558  27.512  1.00  0.00    -0.248 NA
ATOM     45  C   UNL A   1      43.412  25.461  26.490  1.00  0.00     0.031 C 
ATOM     46  C   UNL A   1      39.274  26.783  29.036  1.00  0.00     0.029 A 
ATOM     47  N   UNL A   1      40.936  28.276  28.949  1.00  0.00    -0.354 N 
ATOM     48  C   UNL A   1      44.672  27.299  26.963  1.00  0.00     0.074 A 
ATOM     49  C   UNL A   1      44.635  25.959  26.426  1.00  0.00     0.031 C 
ATOM     50  C   UNL A   1      38.890  27.854  29.749  1.00  0.00     0.029 A 
ATOM     51  C   UNL A   1      39.953  28.852  29.719  1.00  0.00     0.049 A 
ATOM     52  H   UNL A   1      41.795  28.716  28.753  1.00  0.00     0.167 HD
ATOM     53  C   UNL A   1      45.743  28.121  26.870  1.00  0.00     0.034 A 
ATOM     54  C   UNL A   1      39.917  30.060  30.316  1.00  0.00     0.034 A 
ATOM     55  C   UNL A   1      45.739  29.476  27.342  1.00  0.00     0.049 A 
ATOM     56  C   UNL A   1      41.093  30.983  30.142  1.00  0.00     0.074 A 
ATOM     57  C   UNL A   1      46.722  30.438  27.208  1.00  0.00     0.029 A 
ATOM     58  N   UNL A   1      44.691  30.061  28.037  1.00  0.00    -0.354 N 
ATOM     59  N   UNL A   1      42.205  30.787  29.473  1.00  0.00    -0.248 NA
ATOM     60  C   UNL A   1      40.997  32.307  30.771  1.00  0.00     0.031 C 
ATOM     61  C   UNL A   1      46.271  31.606  27.834  1.00  0.00     0.029 A 
ATOM     62  C   UNL A   1      45.001  31.373  28.344  1.00  0.00     0.049 A 
ATOM     63  H   UNL A   1      43.850  29.610  28.276  1.00  0.00     0.167 HD
ATOM     64  C   UNL A   1      42.922  31.973  29.567  1.00  0.00     0.074 A 
ATOM     65  C   UNL A   1      42.110  32.889  30.344  1.00  0.00     0.031 C 
ATOM     66  C   UNL A   1      44.147  32.278  29.069  1.00  0.00     0.034 A 
BRANCH  53  67
ATOM     67  C   UNL A   1      46.965  27.586  26.174  1.00  0.00     0.023 A 
ATOM     68  C   UNL A   1      47.904  26.826  26.905  1.00  0.00     0.012 A 
ATOM     69  C   UNL A   1      47.190  27.827  24.805  1.00  0.00     0.148 A 
ATOM     70  C   UNL A   1      49.070  26.361  26.299  1.00  0.00     0.002 A 
ATOM     71  C   UNL A   1      48.332  27.318  24.198  1.00  0.00     0.091 A 
ATOM     72  F   UNL A   1      46.305  28.575  24.132  1.00  0.00    -0.205 F 
ATOM     73  C   UNL A   1      49.279  26.599  24.945  1.00  0.00     0.022 A 
BRANCH  71  74
ATOM     74  S   UNL A   1      48.650  27.507  22.440  1.00  0.00     0.127 S 
ATOM     75  O   UNL A   1      48.657  26.117  21.989  1.00  0.00    -0.237 OA
ATOM     76  O   UNL A   1      47.492  28.285  21.997  1.00  0.00    -0.237 OA
ATOM     77  O   UNL A   1      49.921  28.209  22.340  1.00  0.00    -0.744 OA
ENDBRANCH  71  74
ENDBRANCH  53  67
BRANCH  54  78
ATOM     78  C   UNL A   1      38.685  30.505  31.028  1.00  0.00     0.023 A 
ATOM     79  C   UNL A   1      38.575  30.264  32.412  1.00  0.00     0.012 A 
ATOM     80  C   UNL A   1      37.650  31.191  30.367  1.00  0.00     0.148 A 
ATOM     81  C   UNL A   1      37.443  30.670  33.120  1.00  0.00     0.002 A 
ATOM     82  C   UNL A   1      36.545  31.637  31.087  1.00  0.00     0.091 A 
ATOM     83  F   UNL A   1      37.769  31.404  29.049  1.00  0.00    -0.205 F 
ATOM     84  C   UNL A   1      36.433  31.364  32.460  1.00  0.00     0.022 A 
BRANCH  82  85
ATOM     85  S   UNL A   1      35.252  32.643  30.350  1.00  0.00     0.127 S 
ATOM     86  O   UNL A   1      35.997  33.829  29.934  1.00  0.00    -0.237 OA
ATOM     87  O   UNL A   1      34.792  31.789  29.254  1.00  0.00    -0.237 OA
ATOM     88  O   UNL A   1      34.267  32.851  31.403  1.00  0.00    -0.744 OA
ENDBRANCH  82  85
ENDBRANCH  54  78
BRANCH  66  89
ATOM     89  C   UNL A   1      44.673  33.665  29.320  1.00  0.00     0.023 A 
ATOM     90  C   UNL A   1      45.353  33.947  30.520  1.00  0.00     0.012 A 
ATOM     91  C   UNL A   1      44.571  34.660  28.328  1.00  0.00     0.148 A 
ATOM     92  C   UNL A   1      45.902  35.209  30.741  1.00  0.00     0.002 A 
ATOM     93  C   UNL A   1      45.162  35.900  28.536  1.00  0.00     0.091 A 
ATOM     94  F   UNL A   1      43.902  34.376  27.201  1.00  0.00    -0.205 F 
ATOM     95  C   UNL A   1      45.818  36.180  29.745  1.00  0.00     0.022 A 
BRANCH  93  96
ATOM     96  S   UNL A   1      45.191  37.171  27.268  1.00  0.00     0.127 S 
ATOM     97  O   UNL A   1      43.767  37.336  26.979  1.00  0.00    -0.237 OA
ATOM     98  O   UNL A   1      45.806  38.299  27.969  1.00  0.00    -0.237 OA
ATOM     99  O   UNL A   1      45.993  36.631  26.178  1.00  0.00    -0.744 OA
ENDBRANCH  93  96
ENDBRANCH  66  89
ENDBRANCH  40  41
ENDBRANCH  32  35
ENDBRANCH  30  31
ENDBRANCH  29  30
ENDBRANCH   1  29
TORSDOF 20
ENDMDL
MODEL 2
REMARK VINA RESULT:     -12.5      1.610      2.111
REMARK SMILES COc1ccc(NC(=O)C[C@@H](C[NH+]2CCOCC2)C(=O)NCCCCNC(=O)c2ccc(-c3c4nc(c(-c5cccc(S(=O)(=O)[O-])c5F)c5ccc([nH]5)c(-c5cccc(S(=O)(=O)[O-])c5F)c5nc(c(-c6cccc(S(=O)(=O)[O-])c6F)c6ccc3[nH]6)C=C5)C=C4)cc2)cc1
REMARK SMILES IDX 23 1 22 2 21 3 19 4 20 5 11 7 10 8 8 9 7 10 9 12 6 13 3 14
REMARK SMILES IDX 4 15 93 16 5 17 92 18 2 19 1 20 12 21 13 22 14 23 18 24
REMARK SMILES IDX 15 26 17 27 16 28 24 29 25 30 26 31 27 32 28 34 29 35 30 36
REMARK SMILES IDX 91 37 31 38 90 39 32 40 33 41 34 42 84 43 35 44 89 45 83 46
REMARK SMILES IDX 85 47 36 48 88 49 82 50 81 51 37 53 69 54 49 55 68 56 50 57
REMARK SMILES IDX 53 58 67 59 86 60 51 61 52 62 66 64 87 65 54 66 38 67 39 68
REMARK SMILES IDX 47 69 40 70 42 71 48 72 41 73 43 74 44 75 45 76 46 77 70 78
REMARK SMILES IDX 71 79 79 80 72 81 74 82 80 83 73 84 75 85 76 86 77 87 78 88
REMARK SMILES IDX 55 89 56 90 64 91 57 92 59 93 65 94 58 95 60 96 61 97 62 98
REMARK SMILES IDX 63 99
REMARK H PARENT 21 6 7 11 13 25 26 33 85 52 53 63
REMARK Flexibility Score: inf
ROOT
ATOM      1  C   UNL A   1      35.544  23.407  23.459  1.00  0.00     0.023 C 
ENDROOT
BRANCH   1   2
ATOM      2  C   UNL A   1      35.142  24.370  24.755  1.00  0.00     0.116 C 
BRANCH   2   3
ATOM      3  N   UNL A   1      34.079  26.074  24.839  1.00  0.00    -0.356 N 
ATOM      4  C   UNL A   1      32.979  26.899  24.507  1.00  0.00     0.229 C 
ATOM      5  O   UNL A   1      33.037  28.074  24.892  1.00  0.00    -0.275 OA
ATOM      6  H   UNL A   1      34.615  26.644  25.437  1.00  0.00     0.163 HD
BRANCH   4   7
ATOM      7  C   UNL A   1      31.772  26.444  23.674  1.00  0.00     0.142 C 
BRANCH   7   8
ATOM      8  C   UNL A   1      30.874  25.375  24.343  1.00  0.00     0.119 C 
BRANCH   8   9
ATOM      9  C   UNL A   1      30.708  24.908  25.825  1.00  0.00     0.225 C 
ATOM     10  N   UNL A   1      31.470  24.057  26.564  1.00  0.00    -0.326 N 
ATOM     11  H   UNL A   1      31.678  24.411  27.459  1.00  0.00     0.169 HD
ATOM     12  O   UNL A   1      29.886  25.556  26.502  1.00  0.00    -0.275 OA
BRANCH  10  13
ATOM     13  C   UNL A   1      32.026  22.790  26.340  1.00  0.00     0.041 A 
ATOM     14  C   UNL A   1      33.536  20.539  25.640  1.00  0.00     0.119 A 
ATOM     15  C   UNL A   1      32.309  20.771  25.020  1.00  0.00     0.048 A 
ATOM     16  C   UNL A   1      33.931  21.348  26.705  1.00  0.00     0.048 A 
ATOM     17  C   UNL A   1      31.544  21.895  25.386  1.00  0.00     0.030 A 
ATOM     18  C   UNL A   1      33.154  22.444  27.089  1.00  0.00     0.030 A 
BRANCH  14  19
ATOM     19  O   UNL A   1      34.493  19.688  25.159  1.00  0.00    -0.497 OA
ATOM     20  C   UNL A   1      34.016  18.557  24.444  1.00  0.00     0.278 C 
ENDBRANCH  14  19
ENDBRANCH  10  13
ENDBRANCH   8   9
ENDBRANCH   7   8
BRANCH   7  21
ATOM     21  C   UNL A   1      31.158  27.698  23.191  1.00  0.00     0.276 C 
BRANCH  21  22
ATOM     22  N   UNL A   1      30.222  28.218  24.185  1.00  0.00    -0.330 N 
ATOM     23  C   UNL A   1      28.593  27.621  23.536  1.00  0.00     0.291 C 
ATOM     24  C   UNL A   1      30.394  30.071  24.364  1.00  0.00     0.291 C 
ATOM     25  H   UNL A   1      30.370  27.898  25.142  1.00  0.00     0.348 HD
ATOM     26  C   UNL A   1      27.165  28.785  22.995  1.00  0.00     0.221 C 
ATOM     27  C   UNL A   1      29.011  31.331  23.744  1.00  0.00     0.221 C 
ATOM     28  O   UNL A   1      27.379  30.587  23.305  1.00  0.00    -0.370 OA
ENDBRANCH  21  22
ENDBRANCH   7  21
ENDBRANCH   4   7
ENDBRANCH   2   3
ENDBRANCH   1   2
BRANCH   1  29
ATOM     29  C   UNL A   1      36.385  22.184  23.806  1.00  0.00     0.023 C 
BRANCH  29  30
ATOM     30  C   UNL A   1      37.173  22.349  25.091  1.00  0.00     0.116 C 
BRANCH  30  31
ATOM     31  N   UNL A   1      38.042  21.209  25.380  1.00  0.00    -0.352 N 
ATOM     32  C   UNL A   1      39.233  21.220  26.068  1.00  0.00     0.251 C 
ATOM     33  H   UNL A   1      37.740  20.334  25.045  1.00  0.00     0.163 HD
ATOM     34  O   UNL A   1      39.922  20.222  26.175  1.00  0.00    -0.269 OA
BRANCH  32  35
ATOM     35  C   UNL A   1      39.649  22.511  26.640  1.00  0.00     0.039 A 
ATOM     36  C   UNL A   1      40.616  22.529  27.644  1.00  0.00     0.014 A 
ATOM     37  C   UNL A   1      39.199  23.686  26.034  1.00  0.00     0.014 A 
ATOM     38  C   UNL A   1      41.180  23.748  28.011  1.00  0.00     0.010 A 
ATOM     39  C   UNL A   1      39.836  24.879  26.327  1.00  0.00     0.010 A 
ATOM     40  C   UNL A   1      40.812  24.924  27.334  1.00  0.00    -0.014 A 
BRANCH  40  41
ATOM     41  C   UNL A   1      41.395  26.235  27.693  1.00  0.00     0.031 A 
ATOM     42  C   UNL A   1      42.812  26.533  27.291  1.00  0.00     0.074 A 
ATOM     43  C   UNL A   1      40.692  27.100  28.448  1.00  0.00     0.049 A 
ATOM     44  N   UNL A   1      43.537  27.587  27.548  1.00  0.00    -0.248 NA
ATOM     45  C   UNL A   1      43.525  25.486  26.535  1.00  0.00     0.031 C 
ATOM     46  C   UNL A   1      39.343  26.872  28.972  1.00  0.00     0.029 A 
ATOM     47  N   UNL A   1      41.026  28.343  28.920  1.00  0.00    -0.354 N 
ATOM     48  C   UNL A   1      44.797  27.310  27.031  1.00  0.00     0.074 A 
ATOM     49  C   UNL A   1      44.756  25.968  26.499  1.00  0.00     0.031 C 
ATOM     50  C   UNL A   1      38.955  27.952  29.672  1.00  0.00     0.029 A 
ATOM     51  C   UNL A   1      40.032  28.936  29.663  1.00  0.00     0.049 A 
ATOM     52  H   UNL A   1      41.895  28.771  28.744  1.00  0.00     0.167 HD
ATOM     53  C   UNL A   1      45.880  28.117  26.961  1.00  0.00     0.034 A 
ATOM     54  C   UNL A   1      39.997  30.146  30.254  1.00  0.00     0.034 A 
ATOM     55  C   UNL A   1      45.882  29.475  27.427  1.00  0.00     0.049 A 
ATOM     56  C   UNL A   1      41.189  31.053  30.105  1.00  0.00     0.074 A 
ATOM     57  C   UNL A   1      46.880  30.423  27.313  1.00  0.00     0.029 A 
ATOM     58  N   UNL A   1      44.825  30.076  28.093  1.00  0.00    -0.354 N 
ATOM     59  N   UNL A   1      42.314  30.840  29.464  1.00  0.00    -0.248 NA
ATOM     60  C   UNL A   1      41.094  32.382  30.726  1.00  0.00     0.031 C 
ATOM     61  C   UNL A   1      46.429  31.600  27.923  1.00  0.00     0.029 A 
ATOM     62  C   UNL A   1      45.145  31.385  28.403  1.00  0.00     0.049 A 
ATOM     63  H   UNL A   1      43.972  29.637  28.313  1.00  0.00     0.167 HD
ATOM     64  C   UNL A   1      43.044  32.018  29.571  1.00  0.00     0.074 A 
ATOM     65  C   UNL A   1      42.225  32.947  30.324  1.00  0.00     0.031 C 
ATOM     66  C   UNL A   1      44.284  32.305  29.102  1.00  0.00     0.034 A 
BRANCH  53  67
ATOM     67  C   UNL A   1      47.112  27.563  26.297  1.00  0.00     0.023 A 
ATOM     68  C   UNL A   1      47.317  27.785  24.918  1.00  0.00     0.012 A 
ATOM     69  C   UNL A   1      48.066  26.829  27.027  1.00  0.00     0.148 A 
ATOM     70  C   UNL A   1      48.423  27.240  24.266  1.00  0.00     0.002 A 
ATOM     71  C   UNL A   1      49.190  26.331  26.378  1.00  0.00     0.091 A 
ATOM     72  F   UNL A   1      47.842  26.602  28.328  1.00  0.00    -0.205 F 
ATOM     73  C   UNL A   1      49.363  26.522  24.997  1.00  0.00     0.022 A 
BRANCH  71  74
ATOM     74  S   UNL A   1      50.495  25.459  27.253  1.00  0.00     0.127 S 
ATOM     75  O   UNL A   1      51.465  25.228  26.183  1.00  0.00    -0.237 OA
ATOM     76  O   UNL A   1      50.913  26.445  28.250  1.00  0.00    -0.237 OA
ATOM     77  O   UNL A   1      49.872  24.266  27.808  1.00  0.00    -0.744 OA
ENDBRANCH  71  74
ENDBRANCH  53  67
BRANCH  54  78
ATOM     78  C   UNL A   1      38.754  30.611  30.934  1.00  0.00     0.023 A 
ATOM     79  C   UNL A   1      38.578  30.323  32.302  1.00  0.00     0.012 A 
ATOM     80  C   UNL A   1      37.771  31.359  30.260  1.00  0.00     0.148 A 
ATOM     81  C   UNL A   1      37.434  30.745  32.980  1.00  0.00     0.002 A 
ATOM     82  C   UNL A   1      36.655  31.819  30.952  1.00  0.00     0.091 A 
ATOM     83  F   UNL A   1      37.951  31.616  28.957  1.00  0.00    -0.205 F 
ATOM     84  C   UNL A   1      36.477  31.500  32.308  1.00  0.00     0.022 A 
BRANCH  82  85
ATOM     85  S   UNL A   1      35.430  32.900  30.204  1.00  0.00     0.127 S 
ATOM     86  O   UNL A   1      34.760  33.451  31.379  1.00  0.00    -0.237 OA
ATOM     87  O   UNL A   1      36.271  33.848  29.473  1.00  0.00    -0.237 OA
ATOM     88  O   UNL A   1      34.615  32.041  29.355  1.00  0.00    -0.744 OA
ENDBRANCH  82  85
ENDBRANCH  54  78
BRANCH  66  89
ATOM     89  C   UNL A   1      44.822  33.685  29.360  1.00  0.00     0.023 A 
ATOM     90  C   UNL A   1      45.446  33.974  30.589  1.00  0.00     0.012 A 
ATOM     91  C   UNL A   1      44.788  34.668  28.350  1.00  0.00     0.148 A 
ATOM     92  C   UNL A   1      46.006  35.229  30.820  1.00  0.00     0.002 A 
ATOM     93  C   UNL A   1      45.391  35.900  28.570  1.00  0.00     0.091 A 
ATOM     94  F   UNL A   1      44.172  34.378  27.195  1.00  0.00    -0.205 F 
ATOM     95  C   UNL A   1      45.990  36.186  29.808  1.00  0.00     0.022 A 
BRANCH  93  96
ATOM     96  S   UNL A   1      45.506  37.151  27.288  1.00  0.00     0.127 S 
ATOM     97  O   UNL A   1      46.412  38.123  27.899  1.00  0.00    -0.237 OA
ATOM     98  O   UNL A   1      46.081  36.401  26.170  1.00  0.00    -0.237 OA
ATOM     99  O   UNL A   1      44.145  37.619  27.061  1.00  0.00    -0.744 OA
ENDBRANCH  93  96
ENDBRANCH  66  89
ENDBRANCH  40  41
ENDBRANCH  32  35
ENDBRANCH  30  31
ENDBRANCH  29  30
ENDBRANCH   1  29
TORSDOF 20
ENDMDL
MODEL 3
REMARK VINA RESULT:     -12.3      5.517      8.400
REMARK SMILES COc1ccc(NC(=O)C[C@@H](C[NH+]2CCOCC2)C(=O)NCCCCNC(=O)c2ccc(-c3c4nc(c(-c5cccc(S(=O)(=O)[O-])c5F)c5ccc([nH]5)c(-c5cccc(S(=O)(=O)[O-])c5F)c5nc(c(-c6cccc(S(=O)(=O)[O-])c6F)c6ccc3[nH]6)C=C5)C=C4)cc2)cc1
REMARK SMILES IDX 23 1 22 2 21 3 19 4 20 5 11 7 10 8 8 9 7 10 9 12 6 13 3 14
REMARK SMILES IDX 4 15 93 16 5 17 92 18 2 19 1 20 12 21 13 22 14 23 18 24
REMARK SMILES IDX 15 26 17 27 16 28 24 29 25 30 26 31 27 32 28 34 29 35 30 36
REMARK SMILES IDX 91 37 31 38 90 39 32 40 33 41 34 42 84 43 35 44 89 45 83 46
REMARK SMILES IDX 85 47 36 48 88 49 82 50 81 51 37 53 69 54 49 55 68 56 50 57
REMARK SMILES IDX 53 58 67 59 86 60 51 61 52 62 66 64 87 65 54 66 38 67 39 68
REMARK SMILES IDX 47 69 40 70 42 71 48 72 41 73 43 74 44 75 45 76 46 77 70 78
REMARK SMILES IDX 71 79 79 80 72 81 74 82 80 83 73 84 75 85 76 86 77 87 78 88
REMARK SMILES IDX 55 89 56 90 64 91 57 92 59 93 65 94 58 95 60 96 61 97 62 98
REMARK SMILES IDX 63 99
REMARK H PARENT 21 6 7 11 13 25 26 33 85 52 53 63
REMARK Flexibility Score: inf
ROOT
ATOM      1  C   UNL A   1      31.973  30.527  27.079  1.00  0.00     0.023 C 
ENDROOT
BRANCH   1   2
ATOM      2  C   UNL A   1      33.335  30.052  26.251  1.00  0.00     0.116 C 
BRANCH   2   3
ATOM      3  N   UNL A   1      33.539  29.252  24.418  1.00  0.00    -0.356 N 
ATOM      4  C   UNL A   1      33.390  28.221  23.462  1.00  0.00     0.229 C 
ATOM      5  O   UNL A   1      33.942  28.399  22.369  1.00  0.00    -0.275 OA
ATOM      6  H   UNL A   1      33.985  29.967  23.909  1.00  0.00     0.163 HD
BRANCH   4   7
ATOM      7  C   UNL A   1      32.643  26.903  23.715  1.00  0.00     0.142 C 
BRANCH   7   8
ATOM      8  C   UNL A   1      32.103  26.197  22.447  1.00  0.00     0.119 C 
BRANCH   8   9
ATOM      9  C   UNL A   1      32.776  25.274  21.379  1.00  0.00     0.225 C 
ATOM     10  N   UNL A   1      32.830  23.918  21.306  1.00  0.00    -0.326 N 
ATOM     11  H   UNL A   1      32.613  23.575  20.408  1.00  0.00     0.169 HD
ATOM     12  O   UNL A   1      33.143  25.845  20.333  1.00  0.00    -0.275 OA
BRANCH  10  13
ATOM     13  C   UNL A   1      33.125  22.896  22.219  1.00  0.00     0.041 A 
ATOM     14  C   UNL A   1      33.302  21.071  24.335  1.00  0.00     0.119 A 
ATOM     15  C   UNL A   1      34.315  22.009  24.141  1.00  0.00     0.048 A 
ATOM     16  C   UNL A   1      32.285  20.954  23.389  1.00  0.00     0.048 A 
ATOM     17  C   UNL A   1      34.232  22.915  23.066  1.00  0.00     0.030 A 
ATOM     18  C   UNL A   1      32.221  21.833  22.304  1.00  0.00     0.030 A 
BRANCH  14  19
ATOM     19  O   UNL A   1      33.113  20.372  25.495  1.00  0.00    -0.497 OA
ATOM     20  C   UNL A   1      33.338  18.971  25.420  1.00  0.00     0.278 C 
ENDBRANCH  14  19
ENDBRANCH  10  13
ENDBRANCH   8   9
ENDBRANCH   7   8
BRANCH   7  21
ATOM     21  C   UNL A   1      33.517  26.150  24.639  1.00  0.00     0.276 C 
BRANCH  21  22
ATOM     22  N   UNL A   1      32.951  26.155  25.986  1.00  0.00    -0.330 N 
ATOM     23  C   UNL A   1      33.265  24.418  26.547  1.00  0.00     0.291 C 
ATOM     24  C   UNL A   1      31.159  26.687  25.959  1.00  0.00     0.291 C 
ATOM     25  H   UNL A   1      33.362  26.826  26.636  1.00  0.00     0.348 HD
ATOM     26  C   UNL A   1      31.877  23.175  27.010  1.00  0.00     0.221 C 
ATOM     27  C   UNL A   1      29.676  25.444  26.331  1.00  0.00     0.221 C 
ATOM     28  O   UNL A   1      30.151  23.815  27.060  1.00  0.00    -0.370 OA
ENDBRANCH  21  22
ENDBRANCH   7  21
ENDBRANCH   4   7
ENDBRANCH   2   3
ENDBRANCH   1   2
BRANCH   1  29
ATOM     29  C   UNL A   1      31.602  31.997  26.914  1.00  0.00     0.023 C 
BRANCH  29  30
ATOM     30  C   UNL A   1      32.795  32.926  27.018  1.00  0.00     0.116 C 
BRANCH  30  31
ATOM     31  N   UNL A   1      32.490  34.172  27.719  1.00  0.00    -0.352 N 
ATOM     32  C   UNL A   1      33.129  34.686  28.825  1.00  0.00     0.251 C 
ATOM     33  H   UNL A   1      31.744  34.704  27.361  1.00  0.00     0.163 HD
ATOM     34  O   UNL A   1      32.733  35.692  29.384  1.00  0.00    -0.269 OA
BRANCH  32  35
ATOM     35  C   UNL A   1      34.295  33.935  29.317  1.00  0.00     0.039 A 
ATOM     36  C   UNL A   1      35.575  34.417  29.047  1.00  0.00     0.014 A 
ATOM     37  C   UNL A   1      34.083  32.868  30.193  1.00  0.00     0.014 A 
ATOM     38  C   UNL A   1      36.659  33.848  29.710  1.00  0.00     0.010 A 
ATOM     39  C   UNL A   1      35.149  32.379  30.926  1.00  0.00     0.010 A 
ATOM     40  C   UNL A   1      36.447  32.846  30.673  1.00  0.00    -0.014 A 
BRANCH  40  41
ATOM     41  C   UNL A   1      37.575  32.225  31.401  1.00  0.00     0.031 A 
ATOM     42  C   UNL A   1      38.320  31.092  30.753  1.00  0.00     0.074 A 
ATOM     43  C   UNL A   1      37.859  32.612  32.659  1.00  0.00     0.049 A 
ATOM     44  N   UNL A   1      39.296  30.368  31.229  1.00  0.00    -0.248 NA
ATOM     45  C   UNL A   1      37.877  30.688  29.405  1.00  0.00     0.031 C 
ATOM     46  C   UNL A   1      37.140  33.638  33.418  1.00  0.00     0.029 A 
ATOM     47  N   UNL A   1      38.824  32.172  33.528  1.00  0.00    -0.354 N 
ATOM     48  C   UNL A   1      39.549  29.400  30.264  1.00  0.00     0.074 A 
ATOM     49  C   UNL A   1      38.587  29.590  29.204  1.00  0.00     0.031 C 
ATOM     50  C   UNL A   1      37.706  33.766  34.629  1.00  0.00     0.029 A 
ATOM     51  C   UNL A   1      38.811  32.821  34.740  1.00  0.00     0.049 A 
ATOM     52  H   UNL A   1      39.467  31.460  33.305  1.00  0.00     0.167 HD
ATOM     53  C   UNL A   1      40.526  28.466  30.239  1.00  0.00     0.034 A 
ATOM     54  C   UNL A   1      39.615  32.672  35.811  1.00  0.00     0.034 A 
ATOM     55  C   UNL A   1      41.521  28.338  31.265  1.00  0.00     0.049 A 
ATOM     56  C   UNL A   1      40.738  31.672  35.733  1.00  0.00     0.074 A 
ATOM     57  C   UNL A   1      42.622  27.504  31.299  1.00  0.00     0.029 A 
ATOM     58  N   UNL A   1      41.534  29.074  32.440  1.00  0.00    -0.354 N 
ATOM     59  N   UNL A   1      41.070  30.879  34.742  1.00  0.00    -0.248 NA
ATOM     60  C   UNL A   1      41.620  31.572  36.904  1.00  0.00     0.031 C 
ATOM     61  C   UNL A   1      43.298  27.729  32.504  1.00  0.00     0.029 A 
ATOM     62  C   UNL A   1      42.622  28.714  33.212  1.00  0.00     0.049 A 
ATOM     63  H   UNL A   1      40.867  29.754  32.688  1.00  0.00     0.167 HD
ATOM     64  C   UNL A   1      42.220  30.215  35.152  1.00  0.00     0.074 A 
ATOM     65  C   UNL A   1      42.536  30.713  36.477  1.00  0.00     0.031 C 
ATOM     66  C   UNL A   1      42.944  29.270  34.502  1.00  0.00     0.034 A 
BRANCH  53  67
ATOM     67  C   UNL A   1      40.593  27.569  29.032  1.00  0.00     0.023 A 
ATOM     68  C   UNL A   1      39.711  26.470  28.934  1.00  0.00     0.012 A 
ATOM     69  C   UNL A   1      41.517  27.806  27.997  1.00  0.00     0.148 A 
ATOM     70  C   UNL A   1      39.784  25.594  27.852  1.00  0.00     0.002 A 
ATOM     71  C   UNL A   1      41.550  26.954  26.898  1.00  0.00     0.091 A 
ATOM     72  F   UNL A   1      42.367  28.835  28.119  1.00  0.00    -0.205 F 
ATOM     73  C   UNL A   1      40.696  25.841  26.831  1.00  0.00     0.022 A 
BRANCH  71  74
ATOM     74  S   UNL A   1      42.638  27.236  25.497  1.00  0.00     0.127 S 
ATOM     75  O   UNL A   1      43.935  27.383  26.154  1.00  0.00    -0.237 OA
ATOM     76  O   UNL A   1      42.481  25.999  24.729  1.00  0.00    -0.237 OA
ATOM     77  O   UNL A   1      42.128  28.426  24.832  1.00  0.00    -0.744 OA
ENDBRANCH  71  74
ENDBRANCH  53  67
BRANCH  54  78
ATOM     78  C   UNL A   1      39.462  33.569  36.992  1.00  0.00     0.023 A 
ATOM     79  C   UNL A   1      39.965  34.883  36.918  1.00  0.00     0.012 A 
ATOM     80  C   UNL A   1      38.797  33.155  38.161  1.00  0.00     0.148 A 
ATOM     81  C   UNL A   1      39.837  35.758  37.997  1.00  0.00     0.002 A 
ATOM     82  C   UNL A   1      38.629  34.048  39.215  1.00  0.00     0.091 A 
ATOM     83  F   UNL A   1      38.331  31.899  38.216  1.00  0.00    -0.205 F 
ATOM     84  C   UNL A   1      39.161  35.345  39.141  1.00  0.00     0.022 A 
BRANCH  82  85
ATOM     85  S   UNL A   1      37.668  33.646  40.680  1.00  0.00     0.127 S 
ATOM     86  O   UNL A   1      36.500  32.988  40.100  1.00  0.00    -0.237 OA
ATOM     87  O   UNL A   1      38.579  32.759  41.404  1.00  0.00    -0.237 OA
ATOM     88  O   UNL A   1      37.414  34.917  41.343  1.00  0.00    -0.744 OA
ENDBRANCH  82  85
ENDBRANCH  54  78
BRANCH  66  89
ATOM     89  C   UNL A   1      44.166  28.732  35.195  1.00  0.00     0.023 A 
ATOM     90  C   UNL A   1      45.422  29.323  34.955  1.00  0.00     0.012 A 
ATOM     91  C   UNL A   1      44.053  27.702  36.150  1.00  0.00     0.148 A 
ATOM     92  C   UNL A   1      46.553  28.878  35.636  1.00  0.00     0.002 A 
ATOM     93  C   UNL A   1      45.177  27.298  36.860  1.00  0.00     0.091 A 
ATOM     94  F   UNL A   1      42.852  27.141  36.349  1.00  0.00    -0.205 F 
ATOM     95  C   UNL A   1      46.429  27.877  36.597  1.00  0.00     0.022 A 
BRANCH  93  96
ATOM     96  S   UNL A   1      45.088  26.089  38.184  1.00  0.00     0.127 S 
ATOM     97  O   UNL A   1      46.441  26.151  38.736  1.00  0.00    -0.237 OA
ATOM     98  O   UNL A   1      44.050  26.650  39.051  1.00  0.00    -0.237 OA
ATOM     99  O   UNL A   1      44.726  24.828  37.552  1.00  0.00    -0.744 OA
ENDBRANCH  93  96
ENDBRANCH  66  89
ENDBRANCH  40  41
ENDBRANCH  32  35
ENDBRANCH  30  31
ENDBRANCH  29  30
ENDBRANCH   1  29
TORSDOF 20
ENDMDL
