MODEL 1
REMARK VINA RESULT:     -11.7      0.000      0.000
REMARK SMILES C[C@@H]([NH2+]C[C@H]1CCC[C@@H]1C(=O)NCCCCNC(=O)c1ccc(-c2c3nc(c(-c4cccc(S(=O)(=O)[O-])c4F)c4ccc([nH]4)c(-c4cccc(S(=O)(=O)[O-])c4F)c4nc(c(-c5cccc(S(=O)(=O)[O-])c5F)c5ccc2[nH]5)C=C4)C=C3)cc1)c1cc(F)ccc1O
REMARK SMILES IDX 13 1 12 2 10 3 11 4 9 6 5 7 6 8 7 9 8 10 4 11 3 12 2 15 1 16
REMARK SMILES IDX 83 17 84 18 89 19 85 20 88 21 86 22 87 23 90 24 14 26 15 27
REMARK SMILES IDX 16 28 17 29 18 30 19 32 20 33 21 34 82 35 22 36 81 37 23 38
REMARK SMILES IDX 24 39 25 40 75 41 26 42 80 43 74 44 76 45 27 46 79 47 73 48
REMARK SMILES IDX 72 49 28 51 60 52 40 53 59 54 41 55 44 56 58 57 77 58 42 59
REMARK SMILES IDX 43 60 57 62 78 63 45 64 29 65 30 66 38 67 31 68 33 69 39 70
REMARK SMILES IDX 32 71 34 72 35 73 36 74 37 75 61 76 62 77 70 78 63 79 65 80
REMARK SMILES IDX 71 81 64 82 66 83 67 84 68 85 69 86 46 87 47 88 55 89 48 90
REMARK SMILES IDX 50 91 56 92 49 93 51 94 52 95 53 96 54 97
REMARK H PARENT 12 5 3 13 3 14 90 25 17 31 76 50 44 61
REMARK Flexibility Score: inf
ROOT
ATOM      1  C   UNL A   1      34.257  23.783  23.160  1.00  0.00     0.116 C 
ENDROOT
BRANCH   1   2
ATOM      2  N   UNL A   1      34.060  25.212  23.047  1.00  0.00    -0.356 N 
ATOM      3  C   UNL A   1      33.356  26.047  23.859  1.00  0.00     0.223 C 
ATOM      4  O   UNL A   1      33.090  27.171  23.436  1.00  0.00    -0.275 OA
ATOM      5  H   UNL A   1      34.495  25.640  22.275  1.00  0.00     0.163 HD
BRANCH   3   6
ATOM      6  C   UNL A   1      33.007  25.580  25.272  1.00  0.00     0.087 C 
ATOM      7  C   UNL A   1      31.620  24.913  25.356  1.00  0.00     0.057 C 
ATOM      8  C   UNL A   1      30.690  26.128  25.386  1.00  0.00     0.010 C 
ATOM      9  C   UNL A   1      31.413  27.182  26.215  1.00  0.00     0.001 C 
ATOM     10  C   UNL A   1      32.894  26.793  26.202  1.00  0.00     0.014 C 
BRANCH   7  11
ATOM     11  C   UNL A   1      31.555  23.907  26.540  1.00  0.00     0.265 C 
BRANCH  11  12
ATOM     12  N   UNL A   1      31.120  22.525  26.329  1.00  0.00    -0.340 N 
ATOM     13  H   UNL A   1      30.350  22.339  26.972  1.00  0.00     0.346 HD
ATOM     14  H   UNL A   1      30.864  22.465  25.344  1.00  0.00     0.346 HD
BRANCH  12  15
ATOM     15  C   UNL A   1      32.143  21.491  26.539  1.00  0.00     0.214 C 
ATOM     16  C   UNL A   1      33.424  22.164  27.057  1.00  0.00     0.081 C 
BRANCH  15  17
ATOM     17  C   UNL A   1      32.380  20.640  25.301  1.00  0.00     0.054 A 
ATOM     18  C   UNL A   1      32.156  21.196  24.027  1.00  0.00     0.053 A 
ATOM     19  C   UNL A   1      32.679  19.263  25.361  1.00  0.00     0.124 A 
ATOM     20  C   UNL A   1      32.226  20.410  22.881  1.00  0.00     0.123 A 
ATOM     21  C   UNL A   1      32.722  18.478  24.206  1.00  0.00     0.050 A 
ATOM     22  F   UNL A   1      32.001  20.969  21.685  1.00  0.00    -0.207 F 
ATOM     23  C   UNL A   1      32.497  19.053  22.959  1.00  0.00     0.043 A 
BRANCH  19  24
ATOM     24  O   UNL A   1      32.903  18.566  26.514  1.00  0.00    -0.507 OA
ATOM     25  H   UNL A   1      33.223  17.687  26.475  1.00  0.00     0.293 HD
ENDBRANCH  19  24
ENDBRANCH  15  17
ENDBRANCH  12  15
ENDBRANCH  11  12
ENDBRANCH   7  11
ENDBRANCH   3   6
ENDBRANCH   1   2
BRANCH   1  26
ATOM     26  C   UNL A   1      35.629  23.479  23.762  1.00  0.00     0.023 C 
BRANCH  26  27
ATOM     27  C   UNL A   1      35.801  22.030  24.235  1.00  0.00     0.023 C 
BRANCH  27  28
ATOM     28  C   UNL A   1      36.424  21.870  25.617  1.00  0.00     0.116 C 
BRANCH  28  29
ATOM     29  N   UNL A   1      37.462  20.852  25.648  1.00  0.00    -0.352 N 
ATOM     30  C   UNL A   1      38.804  20.996  25.908  1.00  0.00     0.251 C 
ATOM     31  H   UNL A   1      37.163  19.934  25.454  1.00  0.00     0.163 HD
ATOM     32  O   UNL A   1      39.565  20.053  25.750  1.00  0.00    -0.269 OA
BRANCH  30  33
ATOM     33  C   UNL A   1      39.319  22.310  26.353  1.00  0.00     0.039 A 
ATOM     34  C   UNL A   1      40.373  22.344  27.267  1.00  0.00     0.014 A 
ATOM     35  C   UNL A   1      38.779  23.499  25.853  1.00  0.00     0.014 A 
ATOM     36  C   UNL A   1      40.928  23.571  27.636  1.00  0.00     0.010 A 
ATOM     37  C   UNL A   1      39.382  24.714  26.164  1.00  0.00     0.010 A 
ATOM     38  C   UNL A   1      40.458  24.765  27.061  1.00  0.00    -0.014 A 
BRANCH  38  39
ATOM     39  C   UNL A   1      41.095  26.069  27.376  1.00  0.00     0.031 A 
ATOM     40  C   UNL A   1      42.514  26.345  26.958  1.00  0.00     0.074 A 
ATOM     41  C   UNL A   1      40.423  26.975  28.115  1.00  0.00     0.049 A 
ATOM     42  N   UNL A   1      43.249  27.403  27.187  1.00  0.00    -0.248 NA
ATOM     43  C   UNL A   1      43.208  25.286  26.208  1.00  0.00     0.031 C 
ATOM     44  C   UNL A   1      39.073  26.793  28.653  1.00  0.00     0.029 A 
ATOM     45  N   UNL A   1      40.794  28.218  28.566  1.00  0.00    -0.354 N 
ATOM     46  C   UNL A   1      44.498  27.123  26.647  1.00  0.00     0.074 A 
ATOM     47  C   UNL A   1      44.432  25.784  26.104  1.00  0.00     0.031 C 
ATOM     48  C   UNL A   1      38.729  27.882  29.358  1.00  0.00     0.029 A 
ATOM     49  C   UNL A   1      39.842  28.826  29.352  1.00  0.00     0.049 A 
ATOM     50  H   UNL A   1      41.659  28.634  28.348  1.00  0.00     0.167 HD
ATOM     51  C   UNL A   1      45.592  27.918  26.583  1.00  0.00     0.034 A 
ATOM     52  C   UNL A   1      39.866  30.006  30.004  1.00  0.00     0.034 A 
ATOM     53  C   UNL A   1      45.641  29.265  27.088  1.00  0.00     0.049 A 
ATOM     54  C   UNL A   1      41.078  30.887  29.881  1.00  0.00     0.074 A 
ATOM     55  C   UNL A   1      46.671  30.183  26.985  1.00  0.00     0.029 A 
ATOM     56  N   UNL A   1      44.626  29.881  27.802  1.00  0.00    -0.354 N 
ATOM     57  N   UNL A   1      42.192  30.671  29.222  1.00  0.00    -0.248 NA
ATOM     58  C   UNL A   1      41.025  32.190  30.557  1.00  0.00     0.031 C 
ATOM     59  C   UNL A   1      46.291  31.343  27.665  1.00  0.00     0.029 A 
ATOM     60  C   UNL A   1      45.009  31.163  28.159  1.00  0.00     0.049 A 
ATOM     61  H   UNL A   1      43.760  29.468  28.023  1.00  0.00     0.167 HD
ATOM     62  C   UNL A   1      42.955  31.822  29.375  1.00  0.00     0.074 A 
ATOM     63  C   UNL A   1      42.169  32.742  30.171  1.00  0.00     0.031 C 
ATOM     64  C   UNL A   1      44.201  32.088  28.910  1.00  0.00     0.034 A 
BRANCH  51  65
ATOM     65  C   UNL A   1      46.821  27.370  25.906  1.00  0.00     0.023 A 
ATOM     66  C   UNL A   1      46.990  27.545  24.517  1.00  0.00     0.012 A 
ATOM     67  C   UNL A   1      47.839  26.744  26.652  1.00  0.00     0.148 A 
ATOM     68  C   UNL A   1      48.136  27.076  23.876  1.00  0.00     0.002 A 
ATOM     69  C   UNL A   1      49.000  26.323  26.014  1.00  0.00     0.091 A 
ATOM     70  F   UNL A   1      47.653  26.569  27.968  1.00  0.00    -0.205 F 
ATOM     71  C   UNL A   1      49.145  26.477  24.626  1.00  0.00     0.022 A 
BRANCH  69  72
ATOM     72  S   UNL A   1      50.392  25.615  26.901  1.00  0.00     0.127 S 
ATOM     73  O   UNL A   1      50.746  26.705  27.810  1.00  0.00    -0.237 OA
ATOM     74  O   UNL A   1      49.784  24.453  27.551  1.00  0.00    -0.237 OA
ATOM     75  O   UNL A   1      51.392  25.295  25.893  1.00  0.00    -0.744 OA
ENDBRANCH  69  72
ENDBRANCH  51  65
BRANCH  52  76
ATOM     76  C   UNL A   1      38.677  30.443  30.790  1.00  0.00     0.023 A 
ATOM     77  C   UNL A   1      38.615  30.164  32.169  1.00  0.00     0.012 A 
ATOM     78  C   UNL A   1      37.626  31.158  30.185  1.00  0.00     0.148 A 
ATOM     79  C   UNL A   1      37.512  30.560  32.925  1.00  0.00     0.002 A 
ATOM     80  C   UNL A   1      36.557  31.600  30.955  1.00  0.00     0.091 A 
ATOM     81  F   UNL A   1      37.701  31.405  28.870  1.00  0.00    -0.205 F 
ATOM     82  C   UNL A   1      36.489  31.286  32.322  1.00  0.00     0.022 A 
BRANCH  80  83
ATOM     83  S   UNL A   1      35.262  32.654  30.292  1.00  0.00     0.127 S 
ATOM     84  O   UNL A   1      34.793  31.871  29.152  1.00  0.00    -0.237 OA
ATOM     85  O   UNL A   1      34.330  32.725  31.417  1.00  0.00    -0.237 OA
ATOM     86  O   UNL A   1      35.910  33.917  29.969  1.00  0.00    -0.744 OA
ENDBRANCH  80  83
ENDBRANCH  52  76
BRANCH  64  87
ATOM     87  C   UNL A   1      44.786  33.444  29.209  1.00  0.00     0.023 A 
ATOM     88  C   UNL A   1      45.607  33.624  30.340  1.00  0.00     0.012 A 
ATOM     89  C   UNL A   1      44.582  34.521  28.323  1.00  0.00     0.148 A 
ATOM     90  C   UNL A   1      46.187  34.865  30.604  1.00  0.00     0.002 A 
ATOM     91  C   UNL A   1      45.206  35.739  28.563  1.00  0.00     0.091 A 
ATOM     92  F   UNL A   1      43.784  34.335  27.262  1.00  0.00    -0.205 F 
ATOM     93  C   UNL A   1      45.998  35.917  29.710  1.00  0.00     0.022 A 
BRANCH  91  94
ATOM     94  S   UNL A   1      45.101  37.119  27.418  1.00  0.00     0.127 S 
ATOM     95  O   UNL A   1      45.437  38.249  28.282  1.00  0.00    -0.237 OA
ATOM     96  O   UNL A   1      46.125  36.779  26.430  1.00  0.00    -0.237 OA
ATOM     97  O   UNL A   1      43.738  37.111  26.904  1.00  0.00    -0.744 OA
ENDBRANCH  91  94
ENDBRANCH  64  87
ENDBRANCH  38  39
ENDBRANCH  30  33
ENDBRANCH  28  29
ENDBRANCH  27  28
ENDBRANCH  26  27
ENDBRANCH   1  26
TORSDOF 19
ENDMDL
MODEL 2
REMARK VINA RESULT:     -11.1      2.807      8.503
REMARK SMILES C[C@@H]([NH2+]C[C@H]1CCC[C@@H]1C(=O)NCCCCNC(=O)c1ccc(-c2c3nc(c(-c4cccc(S(=O)(=O)[O-])c4F)c4ccc([nH]4)c(-c4cccc(S(=O)(=O)[O-])c4F)c4nc(c(-c5cccc(S(=O)(=O)[O-])c5F)c5ccc2[nH]5)C=C4)C=C3)cc1)c1cc(F)ccc1O
REMARK SMILES IDX 13 1 12 2 10 3 11 4 9 6 5 7 6 8 7 9 8 10 4 11 3 12 2 15 1 16
REMARK SMILES IDX 83 17 84 18 89 19 85 20 88 21 86 22 87 23 90 24 14 26 15 27
REMARK SMILES IDX 16 28 17 29 18 30 19 32 20 33 21 34 82 35 22 36 81 37 23 38
REMARK SMILES IDX 24 39 25 40 75 41 26 42 80 43 74 44 76 45 27 46 79 47 73 48
REMARK SMILES IDX 72 49 28 51 60 52 40 53 59 54 41 55 44 56 58 57 77 58 42 59
REMARK SMILES IDX 43 60 57 62 78 63 45 64 29 65 30 66 38 67 31 68 33 69 39 70
REMARK SMILES IDX 32 71 34 72 35 73 36 74 37 75 61 76 62 77 70 78 63 79 65 80
REMARK SMILES IDX 71 81 64 82 66 83 67 84 68 85 69 86 46 87 47 88 55 89 48 90
REMARK SMILES IDX 50 91 56 92 49 93 51 94 52 95 53 96 54 97
REMARK H PARENT 12 5 3 13 3 14 90 25 17 31 76 50 44 61
REMARK Flexibility Score: inf
ROOT
ATOM      1  C   UNL A   1      36.110  21.653  25.837  1.00  0.00     0.116 C 
ENDROOT
BRANCH   1   2
ATOM      2  N   UNL A   1      34.974  21.533  26.725  1.00  0.00    -0.356 N 
ATOM      3  C   UNL A   1      33.956  22.412  26.938  1.00  0.00     0.223 C 
ATOM      4  O   UNL A   1      33.245  22.238  27.926  1.00  0.00    -0.275 OA
ATOM      5  H   UNL A   1      34.930  20.700  27.247  1.00  0.00     0.163 HD
BRANCH   3   6
ATOM      6  C   UNL A   1      33.701  23.510  25.906  1.00  0.00     0.087 C 
ATOM      7  C   UNL A   1      32.720  24.586  26.408  1.00  0.00     0.057 C 
ATOM      8  C   UNL A   1      31.369  23.897  26.203  1.00  0.00     0.010 C 
ATOM      9  C   UNL A   1      31.501  23.102  24.911  1.00  0.00     0.001 C 
ATOM     10  C   UNL A   1      33.003  22.911  24.680  1.00  0.00     0.014 C 
BRANCH   7  11
ATOM     11  C   UNL A   1      32.968  25.945  25.694  1.00  0.00     0.265 C 
BRANCH  11  12
ATOM     12  N   UNL A   1      31.849  26.749  25.198  1.00  0.00    -0.340 N 
ATOM     13  H   UNL A   1      31.004  26.433  25.673  1.00  0.00     0.346 HD
ATOM     14  H   UNL A   1      32.099  27.718  25.392  1.00  0.00     0.346 HD
BRANCH  12  15
ATOM     15  C   UNL A   1      31.604  26.683  23.750  1.00  0.00     0.214 C 
ATOM     16  C   UNL A   1      32.863  27.170  23.015  1.00  0.00     0.081 C 
BRANCH  15  17
ATOM     17  C   UNL A   1      30.348  27.432  23.332  1.00  0.00     0.054 A 
ATOM     18  C   UNL A   1      30.469  28.624  22.594  1.00  0.00     0.053 A 
ATOM     19  C   UNL A   1      29.057  27.071  23.769  1.00  0.00     0.124 A 
ATOM     20  C   UNL A   1      29.354  29.410  22.315  1.00  0.00     0.123 A 
ATOM     21  C   UNL A   1      27.948  27.879  23.504  1.00  0.00     0.050 A 
ATOM     22  F   UNL A   1      29.504  30.542  21.616  1.00  0.00    -0.207 F 
ATOM     23  C   UNL A   1      28.095  29.053  22.773  1.00  0.00     0.043 A 
BRANCH  19  24
ATOM     24  O   UNL A   1      28.770  25.960  24.509  1.00  0.00    -0.507 OA
ATOM     25  H   UNL A   1      29.460  25.392  24.790  1.00  0.00     0.293 HD
ENDBRANCH  19  24
ENDBRANCH  15  17
ENDBRANCH  12  15
ENDBRANCH  11  12
ENDBRANCH   7  11
ENDBRANCH   3   6
ENDBRANCH   1   2
BRANCH   1  26
ATOM     26  C   UNL A   1      36.302  20.365  25.037  1.00  0.00     0.023 C 
BRANCH  26  27
ATOM     27  C   UNL A   1      37.757  20.079  24.646  1.00  0.00     0.023 C 
BRANCH  27  28
ATOM     28  C   UNL A   1      38.790  20.402  25.719  1.00  0.00     0.116 C 
BRANCH  28  29
ATOM     29  N   UNL A   1      39.769  19.340  25.891  1.00  0.00    -0.352 N 
ATOM     30  C   UNL A   1      41.115  19.443  26.154  1.00  0.00     0.251 C 
ATOM     31  H   UNL A   1      39.422  18.424  25.804  1.00  0.00     0.163 HD
ATOM     32  O   UNL A   1      41.824  18.448  26.124  1.00  0.00    -0.269 OA
BRANCH  30  33
ATOM     33  C   UNL A   1      41.698  20.771  26.445  1.00  0.00     0.039 A 
ATOM     34  C   UNL A   1      42.149  21.554  25.381  1.00  0.00     0.014 A 
ATOM     35  C   UNL A   1      41.776  21.248  27.757  1.00  0.00     0.014 A 
ATOM     36  C   UNL A   1      42.626  22.843  25.627  1.00  0.00     0.010 A 
ATOM     37  C   UNL A   1      42.181  22.559  27.990  1.00  0.00     0.010 A 
ATOM     38  C   UNL A   1      42.614  23.369  26.930  1.00  0.00    -0.014 A 
BRANCH  38  39
ATOM     39  C   UNL A   1      43.035  24.769  27.196  1.00  0.00     0.031 A 
ATOM     40  C   UNL A   1      42.089  25.737  27.855  1.00  0.00     0.074 A 
ATOM     41  C   UNL A   1      44.241  25.193  26.767  1.00  0.00     0.049 A 
ATOM     42  N   UNL A   1      42.263  27.006  28.121  1.00  0.00    -0.248 NA
ATOM     43  C   UNL A   1      40.766  25.221  28.240  1.00  0.00     0.031 C 
ATOM     44  C   UNL A   1      45.215  24.375  26.041  1.00  0.00     0.029 A 
ATOM     45  N   UNL A   1      44.841  26.425  26.852  1.00  0.00    -0.354 N 
ATOM     46  C   UNL A   1      41.065  27.448  28.666  1.00  0.00     0.074 A 
ATOM     47  C   UNL A   1      40.159  26.320  28.667  1.00  0.00     0.031 C 
ATOM     48  C   UNL A   1      46.289  25.125  25.750  1.00  0.00     0.029 A 
ATOM     49  C   UNL A   1      46.070  26.483  26.237  1.00  0.00     0.049 A 
ATOM     50  H   UNL A   1      44.431  27.193  27.311  1.00  0.00     0.167 HD
ATOM     51  C   UNL A   1      40.753  28.675  29.149  1.00  0.00     0.034 A 
ATOM     52  C   UNL A   1      46.921  27.516  26.072  1.00  0.00     0.034 A 
ATOM     53  C   UNL A   1      41.669  29.783  29.184  1.00  0.00     0.049 A 
ATOM     54  C   UNL A   1      46.568  28.856  26.655  1.00  0.00     0.074 A 
ATOM     55  C   UNL A   1      41.480  31.036  29.741  1.00  0.00     0.029 A 
ATOM     56  N   UNL A   1      42.940  29.780  28.630  1.00  0.00    -0.354 N 
ATOM     57  N   UNL A   1      45.493  29.210  27.318  1.00  0.00    -0.248 NA
ATOM     58  C   UNL A   1      47.560  29.930  26.505  1.00  0.00     0.031 C 
ATOM     59  C   UNL A   1      42.623  31.801  29.494  1.00  0.00     0.029 A 
ATOM     60  C   UNL A   1      43.541  31.013  28.818  1.00  0.00     0.049 A 
ATOM     61  H   UNL A   1      43.353  29.014  28.171  1.00  0.00     0.167 HD
ATOM     62  C   UNL A   1      45.693  30.534  27.691  1.00  0.00     0.074 A 
ATOM     63  C   UNL A   1      47.003  30.912  27.201  1.00  0.00     0.031 C 
ATOM     64  C   UNL A   1      44.863  31.365  28.369  1.00  0.00     0.034 A 
BRANCH  51  65
ATOM     65  C   UNL A   1      39.374  28.876  29.720  1.00  0.00     0.023 A 
ATOM     66  C   UNL A   1      39.086  28.426  31.025  1.00  0.00     0.012 A 
ATOM     67  C   UNL A   1      38.386  29.570  28.994  1.00  0.00     0.148 A 
ATOM     68  C   UNL A   1      37.826  28.634  31.587  1.00  0.00     0.002 A 
ATOM     69  C   UNL A   1      37.148  29.815  29.579  1.00  0.00     0.091 A 
ATOM     70  F   UNL A   1      38.671  29.973  27.749  1.00  0.00    -0.205 F 
ATOM     71  C   UNL A   1      36.863  29.338  30.869  1.00  0.00     0.022 A 
BRANCH  69  72
ATOM     72  S   UNL A   1      35.869  30.784  28.771  1.00  0.00     0.127 S 
ATOM     73  O   UNL A   1      35.160  29.756  28.009  1.00  0.00    -0.237 OA
ATOM     74  O   UNL A   1      35.124  31.319  29.912  1.00  0.00    -0.237 OA
ATOM     75  O   UNL A   1      36.563  31.783  27.973  1.00  0.00    -0.744 OA
ENDBRANCH  69  72
ENDBRANCH  51  65
BRANCH  52  76
ATOM     76  C   UNL A   1      48.216  27.305  25.364  1.00  0.00     0.023 A 
ATOM     77  C   UNL A   1      49.349  26.901  26.096  1.00  0.00     0.012 A 
ATOM     78  C   UNL A   1      48.320  27.474  23.970  1.00  0.00     0.148 A 
ATOM     79  C   UNL A   1      50.573  26.701  25.456  1.00  0.00     0.002 A 
ATOM     80  C   UNL A   1      49.528  27.218  23.331  1.00  0.00     0.091 A 
ATOM     81  F   UNL A   1      47.232  27.869  23.295  1.00  0.00    -0.205 F 
ATOM     82  C   UNL A   1      50.660  26.849  24.075  1.00  0.00     0.022 A 
BRANCH  80  83
ATOM     83  S   UNL A   1      49.699  27.253  21.543  1.00  0.00     0.127 S 
ATOM     84  O   UNL A   1      48.665  26.310  21.126  1.00  0.00    -0.237 OA
ATOM     85  O   UNL A   1      49.412  28.656  21.243  1.00  0.00    -0.237 OA
ATOM     86  O   UNL A   1      51.071  26.849  21.271  1.00  0.00    -0.744 OA
ENDBRANCH  80  83
ENDBRANCH  52  76
BRANCH  64  87
ATOM     87  C   UNL A   1      45.352  32.759  28.662  1.00  0.00     0.023 A 
ATOM     88  C   UNL A   1      44.994  33.826  27.813  1.00  0.00     0.012 A 
ATOM     89  C   UNL A   1      46.105  33.023  29.823  1.00  0.00     0.148 A 
ATOM     90  C   UNL A   1      45.408  35.127  28.097  1.00  0.00     0.002 A 
ATOM     91  C   UNL A   1      46.468  34.328  30.129  1.00  0.00     0.091 A 
ATOM     92  F   UNL A   1      46.451  31.992  30.609  1.00  0.00    -0.205 F 
ATOM     93  C   UNL A   1      46.133  35.380  29.260  1.00  0.00     0.022 A 
BRANCH  91  94
ATOM     94  S   UNL A   1      47.316  34.762  31.653  1.00  0.00     0.127 S 
ATOM     95  O   UNL A   1      47.863  36.077  31.324  1.00  0.00    -0.237 OA
ATOM     96  O   UNL A   1      46.219  34.782  32.621  1.00  0.00    -0.237 OA
ATOM     97  O   UNL A   1      48.302  33.714  31.877  1.00  0.00    -0.744 OA
ENDBRANCH  91  94
ENDBRANCH  64  87
ENDBRANCH  38  39
ENDBRANCH  30  33
ENDBRANCH  28  29
ENDBRANCH  27  28
ENDBRANCH  26  27
ENDBRANCH   1  26
TORSDOF 19
ENDMDL
MODEL 3
REMARK VINA RESULT:     -10.8      2.218      3.933
REMARK SMILES C[C@@H]([NH2+]C[C@H]1CCC[C@@H]1C(=O)NCCCCNC(=O)c1ccc(-c2c3nc(c(-c4cccc(S(=O)(=O)[O-])c4F)c4ccc([nH]4)c(-c4cccc(S(=O)(=O)[O-])c4F)c4nc(c(-c5cccc(S(=O)(=O)[O-])c5F)c5ccc2[nH]5)C=C4)C=C3)cc1)c1cc(F)ccc1O
REMARK SMILES IDX 13 1 12 2 10 3 11 4 9 6 5 7 6 8 7 9 8 10 4 11 3 12 2 15 1 16
REMARK SMILES IDX 83 17 84 18 89 19 85 20 88 21 86 22 87 23 90 24 14 26 15 27
REMARK SMILES IDX 16 28 17 29 18 30 19 32 20 33 21 34 82 35 22 36 81 37 23 38
REMARK SMILES IDX 24 39 25 40 75 41 26 42 80 43 74 44 76 45 27 46 79 47 73 48
REMARK SMILES IDX 72 49 28 51 60 52 40 53 59 54 41 55 44 56 58 57 77 58 42 59
REMARK SMILES IDX 43 60 57 62 78 63 45 64 29 65 30 66 38 67 31 68 33 69 39 70
REMARK SMILES IDX 32 71 34 72 35 73 36 74 37 75 61 76 62 77 70 78 63 79 65 80
REMARK SMILES IDX 71 81 64 82 66 83 67 84 68 85 69 86 46 87 47 88 55 89 48 90
REMARK SMILES IDX 50 91 56 92 49 93 51 94 52 95 53 96 54 97
REMARK H PARENT 12 5 3 13 3 14 90 25 17 31 76 50 44 61
REMARK Flexibility Score: inf
ROOT
ATOM      1  C   UNL A   1      36.201  21.349  24.901  1.00  0.00     0.116 C 
ENDROOT
BRANCH   1   2
ATOM      2  N   UNL A   1      35.296  21.078  25.998  1.00  0.00    -0.356 N 
ATOM      3  C   UNL A   1      34.157  21.735  26.352  1.00  0.00     0.223 C 
ATOM      4  O   UNL A   1      33.690  21.514  27.468  1.00  0.00    -0.275 OA
ATOM      5  H   UNL A   1      35.539  20.314  26.568  1.00  0.00     0.163 HD
BRANCH   3   6
ATOM      6  C   UNL A   1      33.479  22.640  25.324  1.00  0.00     0.087 C 
ATOM      7  C   UNL A   1      33.351  24.098  25.803  1.00  0.00     0.057 C 
ATOM      8  C   UNL A   1      32.136  24.018  26.730  1.00  0.00     0.010 C 
ATOM      9  C   UNL A   1      31.180  23.029  26.074  1.00  0.00     0.001 C 
ATOM     10  C   UNL A   1      32.029  22.187  25.117  1.00  0.00     0.014 C 
BRANCH   7  11
ATOM     11  C   UNL A   1      33.294  25.080  24.599  1.00  0.00     0.265 C 
BRANCH  11  12
ATOM     12  N   UNL A   1      32.298  26.152  24.550  1.00  0.00    -0.340 N 
ATOM     13  H   UNL A   1      31.986  26.331  25.504  1.00  0.00     0.346 HD
ATOM     14  H   UNL A   1      32.766  26.943  24.109  1.00  0.00     0.346 HD
BRANCH  12  15
ATOM     15  C   UNL A   1      31.108  25.886  23.728  1.00  0.00     0.214 C 
ATOM     16  C   UNL A   1      31.532  25.068  22.498  1.00  0.00     0.081 C 
BRANCH  15  17
ATOM     17  C   UNL A   1      30.349  27.152  23.365  1.00  0.00     0.054 A 
ATOM     18  C   UNL A   1      28.959  27.209  23.579  1.00  0.00     0.053 A 
ATOM     19  C   UNL A   1      30.943  28.236  22.686  1.00  0.00     0.124 A 
ATOM     20  C   UNL A   1      28.210  28.293  23.131  1.00  0.00     0.123 A 
ATOM     21  C   UNL A   1      30.177  29.308  22.219  1.00  0.00     0.050 A 
ATOM     22  F   UNL A   1      26.887  28.313  23.344  1.00  0.00    -0.207 F 
ATOM     23  C   UNL A   1      28.805  29.339  22.443  1.00  0.00     0.043 A 
BRANCH  19  24
ATOM     24  O   UNL A   1      32.271  28.329  22.382  1.00  0.00    -0.507 OA
ATOM     25  H   UNL A   1      32.679  27.668  21.858  1.00  0.00     0.293 HD
ENDBRANCH  19  24
ENDBRANCH  15  17
ENDBRANCH  12  15
ENDBRANCH  11  12
ENDBRANCH   7  11
ENDBRANCH   3   6
ENDBRANCH   1   2
BRANCH   1  26
ATOM     26  C   UNL A   1      37.371  20.365  24.918  1.00  0.00     0.023 C 
BRANCH  26  27
ATOM     27  C   UNL A   1      38.721  21.002  25.269  1.00  0.00     0.023 C 
BRANCH  27  28
ATOM     28  C   UNL A   1      39.418  20.409  26.488  1.00  0.00     0.116 C 
BRANCH  28  29
ATOM     29  N   UNL A   1      40.546  19.562  26.132  1.00  0.00    -0.352 N 
ATOM     30  C   UNL A   1      41.869  19.906  25.980  1.00  0.00     0.251 C 
ATOM     31  H   UNL A   1      40.333  18.614  25.975  1.00  0.00     0.163 HD
ATOM     32  O   UNL A   1      42.666  19.095  25.533  1.00  0.00    -0.269 OA
BRANCH  30  33
ATOM     33  C   UNL A   1      42.308  21.273  26.336  1.00  0.00     0.039 A 
ATOM     34  C   UNL A   1      42.480  22.210  25.317  1.00  0.00     0.014 A 
ATOM     35  C   UNL A   1      42.525  21.632  27.670  1.00  0.00     0.014 A 
ATOM     36  C   UNL A   1      42.813  23.528  25.639  1.00  0.00     0.010 A 
ATOM     37  C   UNL A   1      42.784  22.961  27.993  1.00  0.00     0.010 A 
ATOM     38  C   UNL A   1      42.935  23.921  26.983  1.00  0.00    -0.014 A 
BRANCH  38  39
ATOM     39  C   UNL A   1      43.202  25.337  27.346  1.00  0.00     0.031 A 
ATOM     40  C   UNL A   1      44.590  25.906  27.221  1.00  0.00     0.074 A 
ATOM     41  C   UNL A   1      42.211  26.087  27.870  1.00  0.00     0.049 A 
ATOM     42  N   UNL A   1      45.021  27.101  27.536  1.00  0.00    -0.248 NA
ATOM     43  C   UNL A   1      45.635  25.012  26.700  1.00  0.00     0.031 C 
ATOM     44  C   UNL A   1      40.845  25.625  28.121  1.00  0.00     0.029 A 
ATOM     45  N   UNL A   1      42.209  27.386  28.314  1.00  0.00    -0.354 N 
ATOM     46  C   UNL A   1      46.388  27.089  27.290  1.00  0.00     0.074 A 
ATOM     47  C   UNL A   1      46.722  25.760  26.827  1.00  0.00     0.031 C 
ATOM     48  C   UNL A   1      40.136  26.624  28.670  1.00  0.00     0.029 A 
ATOM     49  C   UNL A   1      41.003  27.786  28.843  1.00  0.00     0.049 A 
ATOM     50  H   UNL A   1      42.995  27.976  28.259  1.00  0.00     0.167 HD
ATOM     51  C   UNL A   1      47.281  28.100  27.412  1.00  0.00     0.034 A 
ATOM     52  C   UNL A   1      40.638  28.951  29.413  1.00  0.00     0.034 A 
ATOM     53  C   UNL A   1      46.938  29.432  27.834  1.00  0.00     0.049 A 
ATOM     54  C   UNL A   1      41.639  30.071  29.496  1.00  0.00     0.074 A 
ATOM     55  C   UNL A   1      47.752  30.549  27.896  1.00  0.00     0.029 A 
ATOM     56  N   UNL A   1      45.685  29.825  28.279  1.00  0.00    -0.354 N 
ATOM     57  N   UNL A   1      42.889  30.091  29.102  1.00  0.00    -0.248 NA
ATOM     58  C   UNL A   1      41.170  31.342  30.066  1.00  0.00     0.031 C 
ATOM     59  C   UNL A   1      47.000  31.609  28.410  1.00  0.00     0.029 A 
ATOM     60  C   UNL A   1      45.707  31.164  28.631  1.00  0.00     0.049 A 
ATOM     61  H   UNL A   1      44.897  29.238  28.336  1.00  0.00     0.167 HD
ATOM     62  C   UNL A   1      43.345  31.381  29.344  1.00  0.00     0.074 A 
ATOM     63  C   UNL A   1      42.230  32.121  29.898  1.00  0.00     0.031 C 
ATOM     64  C   UNL A   1      44.580  31.903  29.137  1.00  0.00     0.034 A 
BRANCH  51  65
ATOM     65  C   UNL A   1      48.715  27.820  27.044  1.00  0.00     0.023 A 
ATOM     66  C   UNL A   1      49.637  27.463  28.049  1.00  0.00     0.012 A 
ATOM     67  C   UNL A   1      49.132  27.842  25.699  1.00  0.00     0.148 A 
ATOM     68  C   UNL A   1      50.960  27.165  27.726  1.00  0.00     0.002 A 
ATOM     69  C   UNL A   1      50.441  27.497  25.380  1.00  0.00     0.091 A 
ATOM     70  F   UNL A   1      48.248  28.202  24.759  1.00  0.00    -0.205 F 
ATOM     71  C   UNL A   1      51.358  27.170  26.391  1.00  0.00     0.022 A 
BRANCH  69  72
ATOM     72  S   UNL A   1      51.031  27.392  23.686  1.00  0.00     0.127 S 
ATOM     73  O   UNL A   1      49.908  26.727  23.024  1.00  0.00    -0.237 OA
ATOM     74  O   UNL A   1      51.198  28.802  23.332  1.00  0.00    -0.237 OA
ATOM     75  O   UNL A   1      52.267  26.626  23.736  1.00  0.00    -0.744 OA
ENDBRANCH  69  72
ENDBRANCH  51  65
BRANCH  52  76
ATOM     76  C   UNL A   1      39.242  29.133  29.903  1.00  0.00     0.023 A 
ATOM     77  C   UNL A   1      38.900  28.707  31.200  1.00  0.00     0.012 A 
ATOM     78  C   UNL A   1      38.264  29.751  29.101  1.00  0.00     0.148 A 
ATOM     79  C   UNL A   1      37.599  28.863  31.679  1.00  0.00     0.002 A 
ATOM     80  C   UNL A   1      36.984  29.956  29.605  1.00  0.00     0.091 A 
ATOM     81  F   UNL A   1      38.608  30.141  27.866  1.00  0.00    -0.205 F 
ATOM     82  C   UNL A   1      36.645  29.496  30.887  1.00  0.00     0.022 A 
BRANCH  80  83
ATOM     83  S   UNL A   1      35.731  30.880  28.709  1.00  0.00     0.127 S 
ATOM     84  O   UNL A   1      34.995  29.811  28.038  1.00  0.00    -0.237 OA
ATOM     85  O   UNL A   1      35.009  31.537  29.798  1.00  0.00    -0.237 OA
ATOM     86  O   UNL A   1      36.461  31.789  27.837  1.00  0.00    -0.744 OA
ENDBRANCH  80  83
ENDBRANCH  52  76
BRANCH  64  87
ATOM     87  C   UNL A   1      44.791  33.357  29.471  1.00  0.00     0.023 A 
ATOM     88  C   UNL A   1      45.253  33.728  30.749  1.00  0.00     0.012 A 
ATOM     89  C   UNL A   1      44.604  34.350  28.489  1.00  0.00     0.148 A 
ATOM     90  C   UNL A   1      45.491  35.067  31.056  1.00  0.00     0.002 A 
ATOM     91  C   UNL A   1      44.894  35.676  28.784  1.00  0.00     0.091 A 
ATOM     92  F   UNL A   1      44.148  33.980  27.283  1.00  0.00    -0.205 F 
ATOM     93  C   UNL A   1      45.324  36.039  30.071  1.00  0.00     0.022 A 
BRANCH  91  94
ATOM     94  S   UNL A   1      44.804  36.981  27.552  1.00  0.00     0.127 S 
ATOM     95  O   UNL A   1      45.158  38.160  28.341  1.00  0.00    -0.237 OA
ATOM     96  O   UNL A   1      45.823  36.565  26.587  1.00  0.00    -0.237 OA
ATOM     97  O   UNL A   1      43.441  36.958  27.041  1.00  0.00    -0.744 OA
ENDBRANCH  91  94
ENDBRANCH  64  87
ENDBRANCH  38  39
ENDBRANCH  30  33
ENDBRANCH  28  29
ENDBRANCH  27  28
ENDBRANCH  26  27
ENDBRANCH   1  26
TORSDOF 19
ENDMDL
