MODEL 1
REMARK VINA RESULT:      -9.9      0.000      0.000
REMARK SMILES CS(=O)(=O)c1ccc(C2=NN(c3ccc(C(=O)NCCCCNC(=O)c4ccc(-c5c6nc(c(-c7cccc(S(=O)(=O)[O-])c7F)c7ccc([nH]7)c(-c7cccc(S(=O)(=O)[O-])c7F)c7nc(c(-c8cccc(S(=O)(=O)[O-])c8F)c8ccc5[nH]8)C=C7)C=C6)cc4)cc3)[C@H](c3ccccc3)C2)cc1
REMARK SMILES IDX 20 1 19 2 18 3 16 4 17 5 15 7 12 8 13 9 90 10 14 11 89 12
REMARK SMILES IDX 11 13 9 14 10 15 98 16 91 17 8 18 5 19 6 20 100 21 7 22
REMARK SMILES IDX 99 23 2 24 1 25 3 26 4 27 92 28 93 29 97 30 94 31 96 32
REMARK SMILES IDX 95 33 21 34 22 35 23 36 24 37 25 39 26 40 27 41 88 42 28 43
REMARK SMILES IDX 87 44 29 45 30 46 31 47 81 48 32 49 86 50 80 51 82 52 33 53
REMARK SMILES IDX 85 54 79 55 78 56 34 58 66 59 46 60 65 61 47 62 50 63 64 64
REMARK SMILES IDX 83 65 48 66 49 67 63 69 84 70 51 71 35 72 36 73 44 74 37 75
REMARK SMILES IDX 39 76 45 77 38 78 40 79 41 80 42 81 43 82 67 83 68 84 76 85
REMARK SMILES IDX 69 86 71 87 77 88 70 89 72 90 73 91 74 92 75 93 52 94 53 95
REMARK SMILES IDX 61 96 54 97 56 98 62 99 55 100 57 101 58 102 59 103 60 104
REMARK H PARENT 18 6 23 38 82 57 50 68
REMARK Flexibility Score: inf
ROOT
ATOM      1  C   UNL A   1      42.437  22.020  25.636  1.00  0.00     0.023 C 
ENDROOT
BRANCH   1   2
ATOM      2  C   UNL A   1      43.199  23.036  26.489  1.00  0.00     0.116 C 
BRANCH   2   3
ATOM      3  N   UNL A   1      44.601  23.087  26.118  1.00  0.00    -0.352 N 
ATOM      4  C   UNL A   1      45.701  23.501  26.830  1.00  0.00     0.251 C 
ATOM      5  O   UNL A   1      46.819  23.347  26.343  1.00  0.00    -0.269 OA
ATOM      6  H   UNL A   1      44.797  22.775  25.205  1.00  0.00     0.163 HD
BRANCH   4   7
ATOM      7  C   UNL A   1      45.582  24.066  28.198  1.00  0.00     0.039 A 
ATOM      8  C   UNL A   1      45.190  25.149  30.767  1.00  0.00     0.060 A 
ATOM      9  C   UNL A   1      44.282  24.225  30.242  1.00  0.00     0.029 A 
ATOM     10  C   UNL A   1      46.328  25.467  30.024  1.00  0.00     0.029 A 
ATOM     11  C   UNL A   1      44.478  23.681  28.969  1.00  0.00     0.016 A 
ATOM     12  C   UNL A   1      46.530  24.921  28.758  1.00  0.00     0.016 A 
BRANCH   8  13
ATOM     13  N   UNL A   1      44.991  25.741  31.996  1.00  0.00    -0.257 N 
ATOM     14  C   UNL A   1      44.232  27.243  33.274  1.00  0.00     0.071 C 
ATOM     15  N   UNL A   1      44.005  26.648  32.146  1.00  0.00    -0.176 NA
ATOM     16  C   UNL A   1      45.472  26.795  34.005  1.00  0.00     0.091 C 
ATOM     17  C   UNL A   1      45.848  25.559  33.165  1.00  0.00     0.144 C 
BRANCH  14  18
ATOM     18  C   UNL A   1      43.351  28.318  33.761  1.00  0.00    -0.002 A 
ATOM     19  C   UNL A   1      41.514  30.246  34.559  1.00  0.00     0.067 A 
ATOM     20  C   UNL A   1      41.323  28.919  34.945  1.00  0.00     0.021 A 
ATOM     21  C   UNL A   1      42.614  30.616  33.773  1.00  0.00     0.021 A 
ATOM     22  C   UNL A   1      42.242  27.954  34.538  1.00  0.00     0.011 A 
ATOM     23  C   UNL A   1      43.546  29.649  33.383  1.00  0.00     0.011 A 
BRANCH  19  24
ATOM     24  S   UNL A   1      40.313  31.473  35.014  1.00  0.00     0.175 S 
ATOM     25  C   UNL A   1      41.171  33.003  34.758  1.00  0.00     0.163 C 
ATOM     26  O   UNL A   1      40.053  31.348  36.430  1.00  0.00    -0.224 OA
ATOM     27  O   UNL A   1      39.234  31.393  34.041  1.00  0.00    -0.224 OA
ENDBRANCH  19  24
ENDBRANCH  14  18
BRANCH  17  28
ATOM     28  C   UNL A   1      45.614  24.180  33.780  1.00  0.00    -0.023 A 
ATOM     29  C   UNL A   1      46.630  23.383  34.332  1.00  0.00     0.006 A 
ATOM     30  C   UNL A   1      44.292  23.697  33.859  1.00  0.00     0.006 A 
ATOM     31  C   UNL A   1      46.334  22.148  34.921  1.00  0.00     0.000 A 
ATOM     32  C   UNL A   1      43.994  22.477  34.470  1.00  0.00     0.000 A 
ATOM     33  C   UNL A   1      45.018  21.698  34.996  1.00  0.00     0.000 A 
ENDBRANCH  17  28
ENDBRANCH   8  13
ENDBRANCH   4   7
ENDBRANCH   2   3
ENDBRANCH   1   2
BRANCH   1  34
ATOM     34  C   UNL A   1      41.611  21.015  26.437  1.00  0.00     0.023 C 
BRANCH  34  35
ATOM     35  C   UNL A   1      40.493  21.624  27.274  1.00  0.00     0.116 C 
BRANCH  35  36
ATOM     36  N   UNL A   1      39.301  21.945  26.499  1.00  0.00    -0.352 N 
ATOM     37  C   UNL A   1      38.706  23.171  26.329  1.00  0.00     0.251 C 
ATOM     38  H   UNL A   1      38.870  21.188  26.039  1.00  0.00     0.163 HD
ATOM     39  O   UNL A   1      37.642  23.269  25.724  1.00  0.00    -0.269 OA
BRANCH  37  40
ATOM     40  C   UNL A   1      39.345  24.364  26.921  1.00  0.00     0.039 A 
ATOM     41  C   UNL A   1      40.069  25.225  26.092  1.00  0.00     0.014 A 
ATOM     42  C   UNL A   1      39.172  24.660  28.275  1.00  0.00     0.014 A 
ATOM     43  C   UNL A   1      40.560  26.424  26.611  1.00  0.00     0.010 A 
ATOM     44  C   UNL A   1      39.598  25.887  28.769  1.00  0.00     0.010 A 
ATOM     45  C   UNL A   1      40.294  26.782  27.943  1.00  0.00    -0.014 A 
BRANCH  45  46
ATOM     46  C   UNL A   1      40.715  28.097  28.491  1.00  0.00     0.031 A 
ATOM     47  C   UNL A   1      42.173  28.399  28.693  1.00  0.00     0.074 A 
ATOM     48  C   UNL A   1      39.778  28.973  28.908  1.00  0.00     0.049 A 
ATOM     49  N   UNL A   1      42.730  29.454  29.228  1.00  0.00    -0.248 NA
ATOM     50  C   UNL A   1      43.132  27.366  28.264  1.00  0.00     0.031 C 
ATOM     51  C   UNL A   1      38.331  28.755  28.851  1.00  0.00     0.029 A 
ATOM     52  N   UNL A   1      39.905  30.207  29.493  1.00  0.00    -0.354 N 
ATOM     53  C   UNL A   1      44.095  29.198  29.239  1.00  0.00     0.074 A 
ATOM     54  C   UNL A   1      44.281  27.874  28.688  1.00  0.00     0.031 C 
ATOM     55  C   UNL A   1      37.705  29.817  29.384  1.00  0.00     0.029 A 
ATOM     56  C   UNL A   1      38.703  30.778  29.843  1.00  0.00     0.049 A 
ATOM     57  H   UNL A   1      40.774  30.642  29.649  1.00  0.00     0.167 HD
ATOM     58  C   UNL A   1      45.106  30.004  29.640  1.00  0.00     0.034 A 
ATOM     59  C   UNL A   1      38.436  31.940  30.470  1.00  0.00     0.034 A 
ATOM     60  C   UNL A   1      44.920  31.339  30.142  1.00  0.00     0.049 A 
ATOM     61  C   UNL A   1      39.576  32.842  30.855  1.00  0.00     0.074 A 
ATOM     62  C   UNL A   1      45.883  32.271  30.484  1.00  0.00     0.029 A 
ATOM     63  N   UNL A   1      43.688  31.928  30.381  1.00  0.00    -0.354 N 
ATOM     64  N   UNL A   1      40.864  32.656  30.697  1.00  0.00    -0.248 NA
ATOM     65  C   UNL A   1      39.228  34.133  31.468  1.00  0.00     0.031 C 
ATOM     66  C   UNL A   1      45.232  33.421  30.946  1.00  0.00     0.029 A 
ATOM     67  C   UNL A   1      43.865  33.211  30.871  1.00  0.00     0.049 A 
ATOM     68  H   UNL A   1      42.816  31.498  30.226  1.00  0.00     0.167 HD
ATOM     69  C   UNL A   1      41.477  33.816  31.156  1.00  0.00     0.074 A 
ATOM     70  C   UNL A   1      40.417  34.708  31.580  1.00  0.00     0.031 C 
ATOM     71  C   UNL A   1      42.799  34.110  31.235  1.00  0.00     0.034 A 
BRANCH  58  72
ATOM     72  C   UNL A   1      46.513  29.484  29.494  1.00  0.00     0.023 A 
ATOM     73  C   UNL A   1      47.147  29.546  28.236  1.00  0.00     0.012 A 
ATOM     74  C   UNL A   1      47.223  28.981  30.601  1.00  0.00     0.148 A 
ATOM     75  C   UNL A   1      48.450  29.081  28.072  1.00  0.00     0.002 A 
ATOM     76  C   UNL A   1      48.538  28.561  30.439  1.00  0.00     0.091 A 
ATOM     77  F   UNL A   1      46.598  28.908  31.785  1.00  0.00    -0.205 F 
ATOM     78  C   UNL A   1      49.149  28.598  29.175  1.00  0.00     0.022 A 
BRANCH  76  79
ATOM     79  S   UNL A   1      49.549  27.996  31.814  1.00  0.00     0.127 S 
ATOM     80  O   UNL A   1      48.986  26.671  32.069  1.00  0.00    -0.237 OA
ATOM     81  O   UNL A   1      50.890  27.986  31.229  1.00  0.00    -0.237 OA
ATOM     82  O   UNL A   1      49.360  28.974  32.876  1.00  0.00    -0.744 OA
ENDBRANCH  76  79
ENDBRANCH  58  72
BRANCH  59  83
ATOM     83  C   UNL A   1      37.021  32.346  30.708  1.00  0.00     0.023 A 
ATOM     84  C   UNL A   1      36.463  32.185  31.991  1.00  0.00     0.012 A 
ATOM     85  C   UNL A   1      36.241  32.921  29.686  1.00  0.00     0.148 A 
ATOM     86  C   UNL A   1      35.143  32.560  32.244  1.00  0.00     0.002 A 
ATOM     87  C   UNL A   1      34.945  33.343  29.960  1.00  0.00     0.091 A 
ATOM     88  F   UNL A   1      36.787  33.055  28.469  1.00  0.00    -0.205 F 
ATOM     89  C   UNL A   1      34.388  33.149  31.233  1.00  0.00     0.022 A 
BRANCH  87  90
ATOM     90  S   UNL A   1      33.948  34.231  28.758  1.00  0.00     0.127 S 
ATOM     91  O   UNL A   1      34.872  35.270  28.312  1.00  0.00    -0.237 OA
ATOM     92  O   UNL A   1      33.665  33.189  27.769  1.00  0.00    -0.237 OA
ATOM     93  O   UNL A   1      32.776  34.693  29.490  1.00  0.00    -0.744 OA
ENDBRANCH  87  90
ENDBRANCH  59  83
BRANCH  71  94
ATOM     94  C   UNL A   1      43.185  35.465  31.767  1.00  0.00     0.023 A 
ATOM     95  C   UNL A   1      43.315  35.661  33.155  1.00  0.00     0.012 A 
ATOM     96  C   UNL A   1      43.498  36.519  30.886  1.00  0.00     0.148 A 
ATOM     97  C   UNL A   1      43.724  36.894  33.661  1.00  0.00     0.002 A 
ATOM     98  C   UNL A   1      43.950  37.730  31.395  1.00  0.00     0.091 A 
ATOM     99  F   UNL A   1      43.348  36.318  29.569  1.00  0.00    -0.205 F 
ATOM    100  C   UNL A   1      44.053  37.923  32.782  1.00  0.00     0.022 A 
BRANCH  98 101
ATOM    101  S   UNL A   1      44.489  39.077  30.335  1.00  0.00     0.127 S 
ATOM    102  O   UNL A   1      43.265  39.385  29.598  1.00  0.00    -0.237 OA
ATOM    103  O   UNL A   1      44.889  40.097  31.305  1.00  0.00    -0.237 OA
ATOM    104  O   UNL A   1      45.584  38.544  29.535  1.00  0.00    -0.744 OA
ENDBRANCH  98 101
ENDBRANCH  71  94
ENDBRANCH  45  46
ENDBRANCH  37  40
ENDBRANCH  35  36
ENDBRANCH  34  35
ENDBRANCH   1  34
TORSDOF 18
ENDMDL
MODEL 2
REMARK VINA RESULT:      -9.9      1.699      2.043
REMARK SMILES CS(=O)(=O)c1ccc(C2=NN(c3ccc(C(=O)NCCCCNC(=O)c4ccc(-c5c6nc(c(-c7cccc(S(=O)(=O)[O-])c7F)c7ccc([nH]7)c(-c7cccc(S(=O)(=O)[O-])c7F)c7nc(c(-c8cccc(S(=O)(=O)[O-])c8F)c8ccc5[nH]8)C=C7)C=C6)cc4)cc3)[C@H](c3ccccc3)C2)cc1
REMARK SMILES IDX 20 1 19 2 18 3 16 4 17 5 15 7 12 8 13 9 90 10 14 11 89 12
REMARK SMILES IDX 11 13 9 14 10 15 98 16 91 17 8 18 5 19 6 20 100 21 7 22
REMARK SMILES IDX 99 23 2 24 1 25 3 26 4 27 92 28 93 29 97 30 94 31 96 32
REMARK SMILES IDX 95 33 21 34 22 35 23 36 24 37 25 39 26 40 27 41 88 42 28 43
REMARK SMILES IDX 87 44 29 45 30 46 31 47 81 48 32 49 86 50 80 51 82 52 33 53
REMARK SMILES IDX 85 54 79 55 78 56 34 58 66 59 46 60 65 61 47 62 50 63 64 64
REMARK SMILES IDX 83 65 48 66 49 67 63 69 84 70 51 71 35 72 36 73 44 74 37 75
REMARK SMILES IDX 39 76 45 77 38 78 40 79 41 80 42 81 43 82 67 83 68 84 76 85
REMARK SMILES IDX 69 86 71 87 77 88 70 89 72 90 73 91 74 92 75 93 52 94 53 95
REMARK SMILES IDX 61 96 54 97 56 98 62 99 55 100 57 101 58 102 59 103 60 104
REMARK H PARENT 18 6 23 38 82 57 50 68
REMARK Flexibility Score: inf
ROOT
ATOM      1  C   UNL A   1      42.378  21.984  25.591  1.00  0.00     0.023 C 
ENDROOT
BRANCH   1   2
ATOM      2  C   UNL A   1      43.164  22.992  26.431  1.00  0.00     0.116 C 
BRANCH   2   3
ATOM      3  N   UNL A   1      44.570  22.993  26.072  1.00  0.00    -0.352 N 
ATOM      4  C   UNL A   1      45.678  23.377  26.788  1.00  0.00     0.251 C 
ATOM      5  O   UNL A   1      46.794  23.181  26.312  1.00  0.00    -0.269 OA
ATOM      6  H   UNL A   1      44.763  22.664  25.163  1.00  0.00     0.163 HD
BRANCH   4   7
ATOM      7  C   UNL A   1      45.566  23.961  28.149  1.00  0.00     0.039 A 
ATOM      8  C   UNL A   1      45.189  25.082  30.703  1.00  0.00     0.060 A 
ATOM      9  C   UNL A   1      44.267  24.168  30.188  1.00  0.00     0.029 A 
ATOM     10  C   UNL A   1      46.334  25.372  29.959  1.00  0.00     0.029 A 
ATOM     11  C   UNL A   1      44.455  23.604  28.923  1.00  0.00     0.016 A 
ATOM     12  C   UNL A   1      46.528  24.807  28.699  1.00  0.00     0.016 A 
BRANCH   8  13
ATOM     13  N   UNL A   1      44.999  25.693  31.925  1.00  0.00    -0.257 N 
ATOM     14  C   UNL A   1      44.201  27.183  33.194  1.00  0.00     0.071 C 
ATOM     15  N   UNL A   1      43.971  26.549  32.088  1.00  0.00    -0.176 NA
ATOM     16  C   UNL A   1      45.487  26.821  33.892  1.00  0.00     0.091 C 
ATOM     17  C   UNL A   1      45.903  25.587  33.068  1.00  0.00     0.144 C 
BRANCH  14  18
ATOM     18  C   UNL A   1      43.280  28.220  33.686  1.00  0.00    -0.002 A 
ATOM     19  C   UNL A   1      41.363  30.047  34.532  1.00  0.00     0.067 A 
ATOM     20  C   UNL A   1      41.375  28.765  35.084  1.00  0.00     0.021 A 
ATOM     21  C   UNL A   1      42.297  30.421  33.558  1.00  0.00     0.021 A 
ATOM     22  C   UNL A   1      42.334  27.850  34.652  1.00  0.00     0.011 A 
ATOM     23  C   UNL A   1      43.271  29.507  33.142  1.00  0.00     0.011 A 
BRANCH  19  24
ATOM     24  S   UNL A   1      40.104  31.200  35.024  1.00  0.00     0.175 S 
ATOM     25  C   UNL A   1      40.925  32.769  34.932  1.00  0.00     0.163 C 
ATOM     26  O   UNL A   1      39.783  30.954  36.412  1.00  0.00    -0.224 OA
ATOM     27  O   UNL A   1      39.074  31.168  33.997  1.00  0.00    -0.224 OA
ENDBRANCH  19  24
ENDBRANCH  14  18
BRANCH  17  28
ATOM     28  C   UNL A   1      45.766  24.213  33.721  1.00  0.00    -0.023 A 
ATOM     29  C   UNL A   1      46.841  23.489  34.263  1.00  0.00     0.006 A 
ATOM     30  C   UNL A   1      44.476  23.658  33.849  1.00  0.00     0.006 A 
ATOM     31  C   UNL A   1      46.632  22.254  34.889  1.00  0.00     0.000 A 
ATOM     32  C   UNL A   1      44.265  22.438  34.498  1.00  0.00     0.000 A 
ATOM     33  C   UNL A   1      45.347  21.732  35.012  1.00  0.00     0.000 A 
ENDBRANCH  17  28
ENDBRANCH   8  13
ENDBRANCH   4   7
ENDBRANCH   2   3
ENDBRANCH   1   2
BRANCH   1  34
ATOM     34  C   UNL A   1      41.549  20.992  26.405  1.00  0.00     0.023 C 
BRANCH  34  35
ATOM     35  C   UNL A   1      40.442  21.616  27.245  1.00  0.00     0.116 C 
BRANCH  35  36
ATOM     36  N   UNL A   1      39.254  21.958  26.473  1.00  0.00    -0.352 N 
ATOM     37  C   UNL A   1      38.673  23.193  26.314  1.00  0.00     0.251 C 
ATOM     38  H   UNL A   1      38.814  21.210  26.007  1.00  0.00     0.163 HD
ATOM     39  O   UNL A   1      37.611  23.308  25.710  1.00  0.00    -0.269 OA
BRANCH  37  40
ATOM     40  C   UNL A   1      39.327  24.372  26.915  1.00  0.00     0.039 A 
ATOM     41  C   UNL A   1      40.040  25.245  26.089  1.00  0.00     0.014 A 
ATOM     42  C   UNL A   1      39.178  24.646  28.277  1.00  0.00     0.014 A 
ATOM     43  C   UNL A   1      40.544  26.434  26.620  1.00  0.00     0.010 A 
ATOM     44  C   UNL A   1      39.617  25.862  28.785  1.00  0.00     0.010 A 
ATOM     45  C   UNL A   1      40.302  26.769  27.962  1.00  0.00    -0.014 A 
BRANCH  45  46
ATOM     46  C   UNL A   1      40.737  28.073  28.526  1.00  0.00     0.031 A 
ATOM     47  C   UNL A   1      42.198  28.357  28.731  1.00  0.00     0.074 A 
ATOM     48  C   UNL A   1      39.810  28.954  28.952  1.00  0.00     0.049 A 
ATOM     49  N   UNL A   1      42.766  29.400  29.278  1.00  0.00    -0.248 NA
ATOM     50  C   UNL A   1      43.146  27.319  28.290  1.00  0.00     0.031 C 
ATOM     51  C   UNL A   1      38.360  28.753  28.893  1.00  0.00     0.029 A 
ATOM     52  N   UNL A   1      39.950  30.180  29.552  1.00  0.00    -0.354 N 
ATOM     53  C   UNL A   1      44.129  29.129  29.286  1.00  0.00     0.074 A 
ATOM     54  C   UNL A   1      44.301  27.810  28.719  1.00  0.00     0.031 C 
ATOM     55  C   UNL A   1      37.746  29.815  29.439  1.00  0.00     0.029 A 
ATOM     56  C   UNL A   1      38.754  30.760  29.909  1.00  0.00     0.049 A 
ATOM     57  H   UNL A   1      40.824  30.604  29.713  1.00  0.00     0.167 HD
ATOM     58  C   UNL A   1      45.148  29.920  29.697  1.00  0.00     0.034 A 
ATOM     59  C   UNL A   1      38.499  31.918  30.549  1.00  0.00     0.034 A 
ATOM     60  C   UNL A   1      44.976  31.250  30.215  1.00  0.00     0.049 A 
ATOM     61  C   UNL A   1      39.649  32.803  30.945  1.00  0.00     0.074 A 
ATOM     62  C   UNL A   1      45.949  32.168  30.567  1.00  0.00     0.029 A 
ATOM     63  N   UNL A   1      43.751  31.850  30.460  1.00  0.00    -0.354 N 
ATOM     64  N   UNL A   1      40.935  32.605  30.785  1.00  0.00    -0.248 NA
ATOM     65  C   UNL A   1      39.314  34.090  31.573  1.00  0.00     0.031 C 
ATOM     66  C   UNL A   1      45.311  33.319  31.042  1.00  0.00     0.029 A 
ATOM     67  C   UNL A   1      43.941  33.125  30.965  1.00  0.00     0.049 A 
ATOM     68  H   UNL A   1      42.875  31.432  30.300  1.00  0.00     0.167 HD
ATOM     69  C   UNL A   1      41.561  33.752  31.257  1.00  0.00     0.074 A 
ATOM     70  C   UNL A   1      40.510  34.651  31.692  1.00  0.00     0.031 C 
ATOM     71  C   UNL A   1      42.886  34.031  31.340  1.00  0.00     0.034 A 
BRANCH  58  72
ATOM     72  C   UNL A   1      46.549  29.386  29.544  1.00  0.00     0.023 A 
ATOM     73  C   UNL A   1      47.167  28.737  30.633  1.00  0.00     0.012 A 
ATOM     74  C   UNL A   1      47.236  29.483  28.318  1.00  0.00     0.148 A 
ATOM     75  C   UNL A   1      48.458  28.225  30.518  1.00  0.00     0.002 A 
ATOM     76  C   UNL A   1      48.506  28.931  28.198  1.00  0.00     0.091 A 
ATOM     77  F   UNL A   1      46.644  30.124  27.300  1.00  0.00    -0.205 F 
ATOM     78  C   UNL A   1      49.123  28.314  29.299  1.00  0.00     0.022 A 
BRANCH  76  79
ATOM     79  S   UNL A   1      49.414  28.922  26.647  1.00  0.00     0.127 S 
ATOM     80  O   UNL A   1      49.797  30.328  26.523  1.00  0.00    -0.237 OA
ATOM     81  O   UNL A   1      50.523  28.014  26.942  1.00  0.00    -0.237 OA
ATOM     82  O   UNL A   1      48.482  28.435  25.641  1.00  0.00    -0.744 OA
ENDBRANCH  76  79
ENDBRANCH  58  72
BRANCH  59  83
ATOM     83  C   UNL A   1      37.089  32.336  30.791  1.00  0.00     0.023 A 
ATOM     84  C   UNL A   1      36.531  32.173  32.074  1.00  0.00     0.012 A 
ATOM     85  C   UNL A   1      36.313  32.925  29.774  1.00  0.00     0.148 A 
ATOM     86  C   UNL A   1      35.215  32.559  32.332  1.00  0.00     0.002 A 
ATOM     87  C   UNL A   1      35.022  33.358  30.053  1.00  0.00     0.091 A 
ATOM     88  F   UNL A   1      36.859  33.061  28.557  1.00  0.00    -0.205 F 
ATOM     89  C   UNL A   1      34.465  33.162  31.326  1.00  0.00     0.022 A 
BRANCH  87  90
ATOM     90  S   UNL A   1      34.031  34.263  28.858  1.00  0.00     0.127 S 
ATOM     91  O   UNL A   1      32.873  34.648  29.660  1.00  0.00    -0.237 OA
ATOM     92  O   UNL A   1      34.925  35.363  28.495  1.00  0.00    -0.237 OA
ATOM     93  O   UNL A   1      33.771  33.322  27.776  1.00  0.00    -0.744 OA
ENDBRANCH  87  90
ENDBRANCH  59  83
BRANCH  71  94
ATOM     94  C   UNL A   1      43.286  35.376  31.887  1.00  0.00     0.023 A 
ATOM     95  C   UNL A   1      43.492  36.456  31.008  1.00  0.00     0.012 A 
ATOM     96  C   UNL A   1      43.376  35.586  33.277  1.00  0.00     0.148 A 
ATOM     97  C   UNL A   1      43.809  37.721  31.503  1.00  0.00     0.002 A 
ATOM     98  C   UNL A   1      43.646  36.859  33.765  1.00  0.00     0.091 A 
ATOM     99  F   UNL A   1      43.196  34.540  34.097  1.00  0.00    -0.205 F 
ATOM    100  C   UNL A   1      43.874  37.925  32.879  1.00  0.00     0.022 A 
BRANCH  98 101
ATOM    101  S   UNL A   1      43.651  37.235  35.521  1.00  0.00     0.127 S 
ATOM    102  O   UNL A   1      44.768  36.419  35.997  1.00  0.00    -0.237 OA
ATOM    103  O   UNL A   1      43.903  38.676  35.532  1.00  0.00    -0.237 OA
ATOM    104  O   UNL A   1      42.338  36.848  36.018  1.00  0.00    -0.744 OA
ENDBRANCH  98 101
ENDBRANCH  71  94
ENDBRANCH  45  46
ENDBRANCH  37  40
ENDBRANCH  35  36
ENDBRANCH  34  35
ENDBRANCH   1  34
TORSDOF 18
ENDMDL
MODEL 3
REMARK VINA RESULT:      -9.9      2.399      4.168
REMARK SMILES CS(=O)(=O)c1ccc(C2=NN(c3ccc(C(=O)NCCCCNC(=O)c4ccc(-c5c6nc(c(-c7cccc(S(=O)(=O)[O-])c7F)c7ccc([nH]7)c(-c7cccc(S(=O)(=O)[O-])c7F)c7nc(c(-c8cccc(S(=O)(=O)[O-])c8F)c8ccc5[nH]8)C=C7)C=C6)cc4)cc3)[C@H](c3ccccc3)C2)cc1
REMARK SMILES IDX 20 1 19 2 18 3 16 4 17 5 15 7 12 8 13 9 90 10 14 11 89 12
REMARK SMILES IDX 11 13 9 14 10 15 98 16 91 17 8 18 5 19 6 20 100 21 7 22
REMARK SMILES IDX 99 23 2 24 1 25 3 26 4 27 92 28 93 29 97 30 94 31 96 32
REMARK SMILES IDX 95 33 21 34 22 35 23 36 24 37 25 39 26 40 27 41 88 42 28 43
REMARK SMILES IDX 87 44 29 45 30 46 31 47 81 48 32 49 86 50 80 51 82 52 33 53
REMARK SMILES IDX 85 54 79 55 78 56 34 58 66 59 46 60 65 61 47 62 50 63 64 64
REMARK SMILES IDX 83 65 48 66 49 67 63 69 84 70 51 71 35 72 36 73 44 74 37 75
REMARK SMILES IDX 39 76 45 77 38 78 40 79 41 80 42 81 43 82 67 83 68 84 76 85
REMARK SMILES IDX 69 86 71 87 77 88 70 89 72 90 73 91 74 92 75 93 52 94 53 95
REMARK SMILES IDX 61 96 54 97 56 98 62 99 55 100 57 101 58 102 59 103 60 104
REMARK H PARENT 18 6 23 38 82 57 50 68
REMARK Flexibility Score: inf
ROOT
ATOM      1  C   UNL A   1      42.910  22.729  25.376  1.00  0.00     0.023 C 
ENDROOT
BRANCH   1   2
ATOM      2  C   UNL A   1      43.563  23.980  25.966  1.00  0.00     0.116 C 
BRANCH   2   3
ATOM      3  N   UNL A   1      45.011  23.885  25.927  1.00  0.00    -0.352 N 
ATOM      4  C   UNL A   1      45.937  23.896  26.942  1.00  0.00     0.251 C 
ATOM      5  O   UNL A   1      47.118  23.688  26.675  1.00  0.00    -0.269 OA
ATOM      6  H   UNL A   1      45.394  23.800  25.024  1.00  0.00     0.163 HD
BRANCH   4   7
ATOM      7  C   UNL A   1      45.541  24.086  28.361  1.00  0.00     0.039 A 
ATOM      8  C   UNL A   1      44.953  24.462  31.088  1.00  0.00     0.060 A 
ATOM      9  C   UNL A   1      45.944  25.226  30.465  1.00  0.00     0.029 A 
ATOM     10  C   UNL A   1      44.214  23.564  30.317  1.00  0.00     0.029 A 
ATOM     11  C   UNL A   1      46.233  25.045  29.110  1.00  0.00     0.016 A 
ATOM     12  C   UNL A   1      44.495  23.386  28.963  1.00  0.00     0.016 A 
BRANCH   8  13
ATOM     13  N   UNL A   1      44.686  24.583  32.436  1.00  0.00    -0.257 N 
ATOM     14  C   UNL A   1      44.664  23.889  34.432  1.00  0.00     0.071 C 
ATOM     15  N   UNL A   1      45.304  23.766  33.312  1.00  0.00    -0.176 NA
ATOM     16  C   UNL A   1      43.476  24.816  34.400  1.00  0.00     0.091 C 
ATOM     17  C   UNL A   1      43.677  25.465  33.018  1.00  0.00     0.144 C 
BRANCH  14  18
ATOM     18  C   UNL A   1      45.059  23.122  35.625  1.00  0.00    -0.002 A 
ATOM     19  C   UNL A   1      45.995  21.811  37.891  1.00  0.00     0.067 A 
ATOM     20  C   UNL A   1      45.651  23.161  37.976  1.00  0.00     0.021 A 
ATOM     21  C   UNL A   1      45.880  21.113  36.682  1.00  0.00     0.021 A 
ATOM     22  C   UNL A   1      45.188  23.816  36.836  1.00  0.00     0.011 A 
ATOM     23  C   UNL A   1      45.396  21.768  35.545  1.00  0.00     0.011 A 
BRANCH  19  24
ATOM     24  S   UNL A   1      46.650  20.983  39.320  1.00  0.00     0.175 S 
ATOM     25  C   UNL A   1      48.218  21.771  39.569  1.00  0.00     0.163 C 
ATOM     26  O   UNL A   1      46.903  19.604  38.966  1.00  0.00    -0.224 OA
ATOM     27  O   UNL A   1      45.789  21.325  40.441  1.00  0.00    -0.224 OA
ENDBRANCH  19  24
ENDBRANCH  14  18
BRANCH  17  28
ATOM     28  C   UNL A   1      44.156  26.915  32.972  1.00  0.00    -0.023 A 
ATOM     29  C   UNL A   1      43.401  27.975  32.445  1.00  0.00     0.006 A 
ATOM     30  C   UNL A   1      45.404  27.226  33.549  1.00  0.00     0.006 A 
ATOM     31  C   UNL A   1      43.887  29.289  32.480  1.00  0.00     0.000 A 
ATOM     32  C   UNL A   1      45.876  28.540  33.607  1.00  0.00     0.000 A 
ATOM     33  C   UNL A   1      45.118  29.572  33.065  1.00  0.00     0.000 A 
ENDBRANCH  17  28
ENDBRANCH   8  13
ENDBRANCH   4   7
ENDBRANCH   2   3
ENDBRANCH   1   2
BRANCH   1  34
ATOM     34  C   UNL A   1      42.631  21.622  26.392  1.00  0.00     0.023 C 
BRANCH  34  35
ATOM     35  C   UNL A   1      41.446  21.881  27.314  1.00  0.00     0.116 C 
BRANCH  35  36
ATOM     36  N   UNL A   1      40.156  21.690  26.664  1.00  0.00    -0.352 N 
ATOM     37  C   UNL A   1      39.161  22.617  26.465  1.00  0.00     0.251 C 
ATOM     38  H   UNL A   1      39.975  20.784  26.323  1.00  0.00     0.163 HD
ATOM     39  O   UNL A   1      38.082  22.281  25.987  1.00  0.00    -0.269 OA
BRANCH  37  40
ATOM     40  C   UNL A   1      39.397  24.016  26.876  1.00  0.00     0.039 A 
ATOM     41  C   UNL A   1      39.091  24.398  28.185  1.00  0.00     0.014 A 
ATOM     42  C   UNL A   1      39.979  24.925  25.988  1.00  0.00     0.014 A 
ATOM     43  C   UNL A   1      39.437  25.676  28.625  1.00  0.00     0.010 A 
ATOM     44  C   UNL A   1      40.388  26.169  26.451  1.00  0.00     0.010 A 
ATOM     45  C   UNL A   1      40.124  26.558  27.773  1.00  0.00    -0.014 A 
BRANCH  45  46
ATOM     46  C   UNL A   1      40.596  27.884  28.247  1.00  0.00     0.031 A 
ATOM     47  C   UNL A   1      42.067  28.156  28.385  1.00  0.00     0.074 A 
ATOM     48  C   UNL A   1      39.697  28.802  28.654  1.00  0.00     0.049 A 
ATOM     49  N   UNL A   1      42.669  29.218  28.853  1.00  0.00    -0.248 NA
ATOM     50  C   UNL A   1      42.985  27.080  27.972  1.00  0.00     0.031 C 
ATOM     51  C   UNL A   1      38.243  28.621  28.656  1.00  0.00     0.029 A 
ATOM     52  N   UNL A   1      39.875  30.057  29.179  1.00  0.00    -0.354 N 
ATOM     53  C   UNL A   1      44.027  28.927  28.830  1.00  0.00     0.074 A 
ATOM     54  C   UNL A   1      44.160  27.575  28.333  1.00  0.00     0.031 C 
ATOM     55  C   UNL A   1      37.663  29.722  29.161  1.00  0.00     0.029 A 
ATOM     56  C   UNL A   1      38.700  30.675  29.543  1.00  0.00     0.049 A 
ATOM     57  H   UNL A   1      40.759  30.476  29.286  1.00  0.00     0.167 HD
ATOM     58  C   UNL A   1      45.071  29.723  29.161  1.00  0.00     0.034 A 
ATOM     59  C   UNL A   1      38.484  31.871  30.125  1.00  0.00     0.034 A 
ATOM     60  C   UNL A   1      44.936  31.083  29.608  1.00  0.00     0.049 A 
ATOM     61  C   UNL A   1      39.659  32.758  30.430  1.00  0.00     0.074 A 
ATOM     62  C   UNL A   1      45.933  32.004  29.875  1.00  0.00     0.029 A 
ATOM     63  N   UNL A   1      43.728  31.715  29.860  1.00  0.00    -0.354 N 
ATOM     64  N   UNL A   1      40.936  32.531  30.238  1.00  0.00    -0.248 NA
ATOM     65  C   UNL A   1      39.365  34.084  30.995  1.00  0.00     0.031 C 
ATOM     66  C   UNL A   1      45.327  33.189  30.305  1.00  0.00     0.029 A 
ATOM     67  C   UNL A   1      43.954  33.013  30.286  1.00  0.00     0.049 A 
ATOM     68  H   UNL A   1      42.841  31.302  29.754  1.00  0.00     0.167 HD
ATOM     69  C   UNL A   1      41.594  33.693  30.623  1.00  0.00     0.074 A 
ATOM     70  C   UNL A   1      40.572  34.631  31.042  1.00  0.00     0.031 C 
ATOM     71  C   UNL A   1      42.925  33.955  30.645  1.00  0.00     0.034 A 
BRANCH  58  72
ATOM     72  C   UNL A   1      46.458  29.159  28.991  1.00  0.00     0.023 A 
ATOM     73  C   UNL A   1      47.157  28.686  30.120  1.00  0.00     0.012 A 
ATOM     74  C   UNL A   1      47.051  29.054  27.717  1.00  0.00     0.148 A 
ATOM     75  C   UNL A   1      48.438  28.151  29.992  1.00  0.00     0.002 A 
ATOM     76  C   UNL A   1      48.310  28.478  27.592  1.00  0.00     0.091 A 
ATOM     77  F   UNL A   1      46.382  29.530  26.657  1.00  0.00    -0.205 F 
ATOM     78  C   UNL A   1      49.010  28.039  28.728  1.00  0.00     0.022 A 
BRANCH  76  79
ATOM     79  S   UNL A   1      49.099  28.216  25.999  1.00  0.00     0.127 S 
ATOM     80  O   UNL A   1      50.034  29.339  25.945  1.00  0.00    -0.237 OA
ATOM     81  O   UNL A   1      49.729  26.907  26.177  1.00  0.00    -0.237 OA
ATOM     82  O   UNL A   1      48.028  28.243  25.014  1.00  0.00    -0.744 OA
ENDBRANCH  76  79
ENDBRANCH  58  72
BRANCH  59  83
ATOM     83  C   UNL A   1      37.089  32.324  30.391  1.00  0.00     0.023 A 
ATOM     84  C   UNL A   1      36.518  32.094  31.657  1.00  0.00     0.012 A 
ATOM     85  C   UNL A   1      36.342  33.011  29.415  1.00  0.00     0.148 A 
ATOM     86  C   UNL A   1      35.216  32.511  31.938  1.00  0.00     0.002 A 
ATOM     87  C   UNL A   1      35.066  33.473  29.718  1.00  0.00     0.091 A 
ATOM     88  F   UNL A   1      36.899  33.210  28.212  1.00  0.00    -0.205 F 
ATOM     89  C   UNL A   1      34.495  33.210  30.973  1.00  0.00     0.022 A 
BRANCH  87  90
ATOM     90  S   UNL A   1      34.117  34.495  28.586  1.00  0.00     0.127 S 
ATOM     91  O   UNL A   1      32.796  34.485  29.210  1.00  0.00    -0.237 OA
ATOM     92  O   UNL A   1      34.827  35.772  28.663  1.00  0.00    -0.237 OA
ATOM     93  O   UNL A   1      34.214  33.834  27.290  1.00  0.00    -0.744 OA
ENDBRANCH  87  90
ENDBRANCH  59  83
BRANCH  71  94
ATOM     94  C   UNL A   1      43.362  35.322  31.101  1.00  0.00     0.023 A 
ATOM     95  C   UNL A   1      43.695  35.535  32.453  1.00  0.00     0.012 A 
ATOM     96  C   UNL A   1      43.521  36.371  30.175  1.00  0.00     0.148 A 
ATOM     97  C   UNL A   1      44.155  36.780  32.881  1.00  0.00     0.002 A 
ATOM     98  C   UNL A   1      44.024  37.595  30.600  1.00  0.00     0.091 A 
ATOM     99  F   UNL A   1      43.179  36.154  28.897  1.00  0.00    -0.205 F 
ATOM    100  C   UNL A   1      44.331  37.804  31.955  1.00  0.00     0.022 A 
BRANCH  98 101
ATOM    101  S   UNL A   1      44.375  38.938  29.460  1.00  0.00     0.127 S 
ATOM    102  O   UNL A   1      43.046  39.230  28.925  1.00  0.00    -0.237 OA
ATOM    103  O   UNL A   1      44.912  39.969  30.349  1.00  0.00    -0.237 OA
ATOM    104  O   UNL A   1      45.334  38.409  28.500  1.00  0.00    -0.744 OA
ENDBRANCH  98 101
ENDBRANCH  71  94
ENDBRANCH  45  46
ENDBRANCH  37  40
ENDBRANCH  35  36
ENDBRANCH  34  35
ENDBRANCH   1  34
TORSDOF 18
ENDMDL
