MODEL 1
REMARK VINA RESULT:     -13.2      0.000      0.000
REMARK SMILES CC(C)(C)c1ccc(OCC(=O)NNC(=O)[C@H]2[C@@H](C(=O)NCCCCNC(=O)c3ccc(-c4c5nc(c(-c6cccc(S(=O)(=O)[O-])c6F)c6ccc([nH]6)c(-c6cccc(S(=O)(=O)[O-])c6F)c6nc(c(-c7cccc(S(=O)(=O)[O-])c7F)c7ccc4[nH]7)C=C6)C=C5)cc3)[C@@H]3C=C[C@H]2C3)cc1
REMARK SMILES IDX 22 1 21 2 19 3 20 4 18 6 17 7 95 8 92 9 94 10 96 11 93 12
REMARK SMILES IDX 15 13 14 14 16 16 13 17 11 18 12 19 10 21 9 22 8 23 5 24
REMARK SMILES IDX 6 25 98 26 7 27 97 28 2 29 1 30 3 31 4 32 23 33 24 34 25 35
REMARK SMILES IDX 26 36 27 37 28 39 29 40 30 41 91 42 31 43 90 44 32 45 33 46
REMARK SMILES IDX 34 47 84 48 35 49 89 50 83 51 85 52 36 53 88 54 82 55 81 56
REMARK SMILES IDX 37 58 69 59 49 60 68 61 50 62 53 63 67 64 86 65 51 66 52 67
REMARK SMILES IDX 66 69 87 70 54 71 38 72 39 73 47 74 40 75 42 76 48 77 41 78
REMARK SMILES IDX 43 79 44 80 45 81 46 82 70 83 71 84 79 85 72 86 74 87 80 88
REMARK SMILES IDX 73 89 75 90 76 91 77 92 78 93 55 94 56 95 64 96 57 97 59 98
REMARK SMILES IDX 65 99 58 100 60 101 61 102 62 103 63 104
REMARK H PARENT 21 5 14 15 13 20 26 38 85 57 53 68
REMARK Flexibility Score: inf
ROOT
ATOM      1  C   UNL A   1      34.624  24.306  24.444  1.00  0.00     0.116 C 
ENDROOT
BRANCH   1   2
ATOM      2  N   UNL A   1      34.155  25.403  23.619  1.00  0.00    -0.356 N 
ATOM      3  C   UNL A   1      33.469  26.538  23.916  1.00  0.00     0.224 C 
ATOM      4  O   UNL A   1      33.203  27.283  22.974  1.00  0.00    -0.275 OA
ATOM      5  H   UNL A   1      34.376  25.307  22.664  1.00  0.00     0.163 HD
BRANCH   3   6
ATOM      6  C   UNL A   1      33.140  26.894  25.358  1.00  0.00     0.098 C 
ATOM      7  C   UNL A   1      31.630  27.094  25.726  1.00  0.00     0.100 C 
ATOM      8  C   UNL A   1      31.573  28.595  26.129  1.00  0.00     0.025 C 
ATOM      9  C   UNL A   1      33.741  28.297  25.676  1.00  0.00     0.025 C 
ATOM     10  C   UNL A   1      32.324  28.712  27.443  1.00  0.00    -0.027 C 
ATOM     11  C   UNL A   1      32.621  29.241  25.224  1.00  0.00     0.017 C 
ATOM     12  C   UNL A   1      33.625  28.522  27.171  1.00  0.00    -0.027 C 
BRANCH   7  13
ATOM     13  C   UNL A   1      30.592  26.745  24.668  1.00  0.00     0.242 C 
ATOM     14  N   UNL A   1      29.755  25.672  24.892  1.00  0.00    -0.267 N 
ATOM     15  H   UNL A   1      29.221  25.343  24.133  1.00  0.00     0.191 HD
ATOM     16  O   UNL A   1      30.441  27.411  23.645  1.00  0.00    -0.273 OA
BRANCH  14  17
ATOM     17  N   UNL A   1      29.607  25.016  26.115  1.00  0.00    -0.265 N 
ATOM     18  C   UNL A   1      30.382  23.959  26.529  1.00  0.00     0.276 C 
ATOM     19  O   UNL A   1      30.092  23.378  27.580  1.00  0.00    -0.269 OA
ATOM     20  H   UNL A   1      28.901  25.333  26.723  1.00  0.00     0.191 HD
BRANCH  18  21
ATOM     21  C   UNL A   1      31.618  23.564  25.714  1.00  0.00     0.331 C 
BRANCH  21  22
ATOM     22  O   UNL A   1      31.413  22.700  24.610  1.00  0.00    -0.484 OA
BRANCH  22  23
ATOM     23  C   UNL A   1      32.070  21.501  24.603  1.00  0.00     0.120 A 
ATOM     24  C   UNL A   1      33.242  18.926  24.309  1.00  0.00    -0.042 A 
ATOM     25  C   UNL A   1      32.718  19.618  23.208  1.00  0.00     0.008 A 
ATOM     26  C   UNL A   1      33.207  19.586  25.552  1.00  0.00     0.008 A 
ATOM     27  C   UNL A   1      32.141  20.886  23.355  1.00  0.00     0.047 A 
ATOM     28  C   UNL A   1      32.637  20.858  25.698  1.00  0.00     0.047 A 
BRANCH  24  29
ATOM     29  C   UNL A   1      33.815  17.503  24.206  1.00  0.00    -0.013 C 
ATOM     30  C   UNL A   1      35.275  17.491  24.704  1.00  0.00     0.016 C 
ATOM     31  C   UNL A   1      33.812  16.931  22.770  1.00  0.00     0.016 C 
ATOM     32  C   UNL A   1      32.973  16.541  25.075  1.00  0.00     0.016 C 
ENDBRANCH  24  29
ENDBRANCH  22  23
ENDBRANCH  21  22
ENDBRANCH  18  21
ENDBRANCH  14  17
ENDBRANCH   7  13
ENDBRANCH   3   6
ENDBRANCH   1   2
BRANCH   1  33
ATOM     33  C   UNL A   1      35.627  23.427  23.695  1.00  0.00     0.023 C 
BRANCH  33  34
ATOM     34  C   UNL A   1      35.728  21.980  24.188  1.00  0.00     0.023 C 
BRANCH  34  35
ATOM     35  C   UNL A   1      36.381  21.793  25.554  1.00  0.00     0.116 C 
BRANCH  35  36
ATOM     36  N   UNL A   1      37.385  20.739  25.559  1.00  0.00    -0.352 N 
ATOM     37  C   UNL A   1      38.727  20.815  25.850  1.00  0.00     0.251 C 
ATOM     38  H   UNL A   1      37.056  19.843  25.318  1.00  0.00     0.163 HD
ATOM     39  O   UNL A   1      39.447  19.838  25.652  1.00  0.00    -0.269 OA
BRANCH  37  40
ATOM     40  C   UNL A   1      39.310  22.072  26.372  1.00  0.00     0.039 A 
ATOM     41  C   UNL A   1      40.390  21.999  27.256  1.00  0.00     0.014 A 
ATOM     42  C   UNL A   1      38.803  23.317  25.990  1.00  0.00     0.014 A 
ATOM     43  C   UNL A   1      41.009  23.173  27.695  1.00  0.00     0.010 A 
ATOM     44  C   UNL A   1      39.465  24.483  26.372  1.00  0.00     0.010 A 
ATOM     45  C   UNL A   1      40.579  24.425  27.223  1.00  0.00    -0.014 A 
BRANCH  45  46
ATOM     46  C   UNL A   1      41.297  25.677  27.584  1.00  0.00     0.031 A 
ATOM     47  C   UNL A   1      40.596  26.766  28.352  1.00  0.00     0.074 A 
ATOM     48  C   UNL A   1      42.559  25.870  27.148  1.00  0.00     0.049 A 
ATOM     49  N   UNL A   1      41.033  27.953  28.686  1.00  0.00    -0.248 NA
ATOM     50  C   UNL A   1      39.214  26.496  28.786  1.00  0.00     0.031 C 
ATOM     51  C   UNL A   1      43.330  24.923  26.339  1.00  0.00     0.029 A 
ATOM     52  N   UNL A   1      43.408  26.941  27.297  1.00  0.00    -0.354 N 
ATOM     53  C   UNL A   1      39.980  28.579  29.344  1.00  0.00     0.074 A 
ATOM     54  C   UNL A   1      38.868  27.654  29.331  1.00  0.00     0.031 C 
ATOM     55  C   UNL A   1      44.534  25.452  26.065  1.00  0.00     0.029 A 
ATOM     56  C   UNL A   1      44.610  26.790  26.643  1.00  0.00     0.049 A 
ATOM     57  H   UNL A   1      43.178  27.741  27.822  1.00  0.00     0.167 HD
ATOM     58  C   UNL A   1      39.949  29.798  29.932  1.00  0.00     0.034 A 
ATOM     59  C   UNL A   1      45.649  27.637  26.510  1.00  0.00     0.034 A 
ATOM     60  C   UNL A   1      41.064  30.705  29.973  1.00  0.00     0.049 A 
ATOM     61  C   UNL A   1      45.585  28.985  27.178  1.00  0.00     0.074 A 
ATOM     62  C   UNL A   1      41.148  31.937  30.599  1.00  0.00     0.029 A 
ATOM     63  N   UNL A   1      42.289  30.483  29.364  1.00  0.00    -0.354 N 
ATOM     64  N   UNL A   1      44.631  29.497  27.917  1.00  0.00    -0.248 NA
ATOM     65  C   UNL A   1      46.757  29.861  27.022  1.00  0.00     0.031 C 
ATOM     66  C   UNL A   1      42.415  32.471  30.349  1.00  0.00     0.029 A 
ATOM     67  C   UNL A   1      43.133  31.558  29.594  1.00  0.00     0.049 A 
ATOM     68  H   UNL A   1      42.525  29.682  28.845  1.00  0.00     0.167 HD
ATOM     69  C   UNL A   1      45.104  30.731  28.347  1.00  0.00     0.074 A 
ATOM     70  C   UNL A   1      46.438  30.882  27.806  1.00  0.00     0.031 C 
ATOM     71  C   UNL A   1      44.482  31.666  29.107  1.00  0.00     0.034 A 
BRANCH  58  72
ATOM     72  C   UNL A   1      38.685  30.207  30.643  1.00  0.00     0.023 A 
ATOM     73  C   UNL A   1      38.544  29.924  32.016  1.00  0.00     0.012 A 
ATOM     74  C   UNL A   1      37.685  30.949  29.984  1.00  0.00     0.148 A 
ATOM     75  C   UNL A   1      37.417  30.349  32.718  1.00  0.00     0.002 A 
ATOM     76  C   UNL A   1      36.585  31.407  30.701  1.00  0.00     0.091 A 
ATOM     77  F   UNL A   1      37.831  31.197  28.674  1.00  0.00    -0.205 F 
ATOM     78  C   UNL A   1      36.444  31.100  32.063  1.00  0.00     0.022 A 
BRANCH  76  79
ATOM     79  S   UNL A   1      35.313  32.449  29.974  1.00  0.00     0.127 S 
ATOM     80  O   UNL A   1      34.401  32.632  31.103  1.00  0.00    -0.237 OA
ATOM     81  O   UNL A   1      36.073  33.644  29.605  1.00  0.00    -0.237 OA
ATOM     82  O   UNL A   1      34.768  31.699  28.852  1.00  0.00    -0.744 OA
ENDBRANCH  76  79
ENDBRANCH  58  72
BRANCH  59  83
ATOM     83  C   UNL A   1      46.867  27.232  25.747  1.00  0.00     0.023 A 
ATOM     84  C   UNL A   1      47.856  26.456  26.382  1.00  0.00     0.012 A 
ATOM     85  C   UNL A   1      47.060  27.624  24.409  1.00  0.00     0.148 A 
ATOM     86  C   UNL A   1      49.036  26.122  25.718  1.00  0.00     0.002 A 
ATOM     87  C   UNL A   1      48.211  27.237  23.732  1.00  0.00     0.091 A 
ATOM     88  F   UNL A   1      46.116  28.373  23.821  1.00  0.00    -0.205 F 
ATOM     89  C   UNL A   1      49.212  26.506  24.391  1.00  0.00     0.022 A 
BRANCH  87  90
ATOM     90  S   UNL A   1      48.456  27.575  21.986  1.00  0.00     0.127 S 
ATOM     91  O   UNL A   1      49.579  28.508  22.016  1.00  0.00    -0.237 OA
ATOM     92  O   UNL A   1      48.771  26.246  21.459  1.00  0.00    -0.237 OA
ATOM     93  O   UNL A   1      47.189  28.119  21.514  1.00  0.00    -0.744 OA
ENDBRANCH  87  90
ENDBRANCH  59  83
BRANCH  71  94
ATOM     94  C   UNL A   1      45.251  32.915  29.452  1.00  0.00     0.023 A 
ATOM     95  C   UNL A   1      46.121  32.922  30.560  1.00  0.00     0.012 A 
ATOM     96  C   UNL A   1      45.166  34.057  28.632  1.00  0.00     0.148 A 
ATOM     97  C   UNL A   1      46.867  34.060  30.867  1.00  0.00     0.002 A 
ATOM     98  C   UNL A   1      45.951  35.169  28.913  1.00  0.00     0.091 A 
ATOM     99  F   UNL A   1      44.320  34.036  27.591  1.00  0.00    -0.205 F 
ATOM    100  C   UNL A   1      46.792  35.177  30.038  1.00  0.00     0.022 A 
BRANCH  98 101
ATOM    101  S   UNL A   1      45.994  36.615  27.849  1.00  0.00     0.127 S 
ATOM    102  O   UNL A   1      44.598  37.047  27.877  1.00  0.00    -0.237 OA
ATOM    103  O   UNL A   1      46.919  37.496  28.563  1.00  0.00    -0.237 OA
ATOM    104  O   UNL A   1      46.477  36.151  26.556  1.00  0.00    -0.744 OA
ENDBRANCH  98 101
ENDBRANCH  71  94
ENDBRANCH  45  46
ENDBRANCH  37  40
ENDBRANCH  35  36
ENDBRANCH  34  35
ENDBRANCH  33  34
ENDBRANCH   1  33
TORSDOF 20
ENDMDL
MODEL 2
REMARK VINA RESULT:     -12.4      2.021      7.346
REMARK SMILES CC(C)(C)c1ccc(OCC(=O)NNC(=O)[C@H]2[C@@H](C(=O)NCCCCNC(=O)c3ccc(-c4c5nc(c(-c6cccc(S(=O)(=O)[O-])c6F)c6ccc([nH]6)c(-c6cccc(S(=O)(=O)[O-])c6F)c6nc(c(-c7cccc(S(=O)(=O)[O-])c7F)c7ccc4[nH]7)C=C6)C=C5)cc3)[C@@H]3C=C[C@H]2C3)cc1
REMARK SMILES IDX 22 1 21 2 19 3 20 4 18 6 17 7 95 8 92 9 94 10 96 11 93 12
REMARK SMILES IDX 15 13 14 14 16 16 13 17 11 18 12 19 10 21 9 22 8 23 5 24
REMARK SMILES IDX 6 25 98 26 7 27 97 28 2 29 1 30 3 31 4 32 23 33 24 34 25 35
REMARK SMILES IDX 26 36 27 37 28 39 29 40 30 41 91 42 31 43 90 44 32 45 33 46
REMARK SMILES IDX 34 47 84 48 35 49 89 50 83 51 85 52 36 53 88 54 82 55 81 56
REMARK SMILES IDX 37 58 69 59 49 60 68 61 50 62 53 63 67 64 86 65 51 66 52 67
REMARK SMILES IDX 66 69 87 70 54 71 38 72 39 73 47 74 40 75 42 76 48 77 41 78
REMARK SMILES IDX 43 79 44 80 45 81 46 82 70 83 71 84 79 85 72 86 74 87 80 88
REMARK SMILES IDX 73 89 75 90 76 91 77 92 78 93 55 94 56 95 64 96 57 97 59 98
REMARK SMILES IDX 65 99 58 100 60 101 61 102 62 103 63 104
REMARK H PARENT 21 5 14 15 13 20 26 38 85 57 53 68
REMARK Flexibility Score: inf
ROOT
ATOM      1  C   UNL A   1      34.542  24.729  24.624  1.00  0.00     0.116 C 
ENDROOT
BRANCH   1   2
ATOM      2  N   UNL A   1      33.488  24.939  23.651  1.00  0.00    -0.356 N 
ATOM      3  C   UNL A   1      32.513  25.881  23.553  1.00  0.00     0.224 C 
ATOM      4  O   UNL A   1      31.745  25.781  22.597  1.00  0.00    -0.275 OA
ATOM      5  H   UNL A   1      33.475  24.273  22.926  1.00  0.00     0.163 HD
BRANCH   3   6
ATOM      6  C   UNL A   1      32.454  27.045  24.531  1.00  0.00     0.098 C 
ATOM      7  C   UNL A   1      31.035  27.561  24.953  1.00  0.00     0.100 C 
ATOM      8  C   UNL A   1      31.018  29.010  24.389  1.00  0.00     0.025 C 
ATOM      9  C   UNL A   1      33.068  28.304  23.849  1.00  0.00     0.025 C 
ATOM     10  C   UNL A   1      32.000  29.806  25.229  1.00  0.00    -0.027 C 
ATOM     11  C   UNL A   1      31.860  28.902  23.119  1.00  0.00     0.017 C 
ATOM     12  C   UNL A   1      33.231  29.374  24.912  1.00  0.00    -0.027 C 
BRANCH   7  13
ATOM     13  C   UNL A   1      29.825  26.756  24.500  1.00  0.00     0.242 C 
ATOM     14  N   UNL A   1      29.576  25.541  25.103  1.00  0.00    -0.267 N 
ATOM     15  H   UNL A   1      28.910  24.950  24.682  1.00  0.00     0.191 HD
ATOM     16  O   UNL A   1      29.036  27.169  23.651  1.00  0.00    -0.273 OA
BRANCH  14  17
ATOM     17  N   UNL A   1      30.196  25.085  26.268  1.00  0.00    -0.265 N 
ATOM     18  C   UNL A   1      30.702  23.818  26.434  1.00  0.00     0.276 C 
ATOM     19  O   UNL A   1      31.127  23.484  27.544  1.00  0.00    -0.269 OA
ATOM     20  H   UNL A   1      30.277  25.715  27.020  1.00  0.00     0.191 HD
BRANCH  18  21
ATOM     21  C   UNL A   1      30.784  22.874  25.230  1.00  0.00     0.331 C 
BRANCH  21  22
ATOM     22  O   UNL A   1      32.076  22.570  24.734  1.00  0.00    -0.484 OA
BRANCH  22  23
ATOM     23  C   UNL A   1      32.399  21.256  24.547  1.00  0.00     0.120 A 
ATOM     24  C   UNL A   1      33.314  18.566  24.406  1.00  0.00    -0.042 A 
ATOM     25  C   UNL A   1      33.411  19.307  25.593  1.00  0.00     0.008 A 
ATOM     26  C   UNL A   1      32.697  19.197  23.309  1.00  0.00     0.008 A 
ATOM     27  C   UNL A   1      32.960  20.632  25.659  1.00  0.00     0.047 A 
ATOM     28  C   UNL A   1      32.239  20.520  23.378  1.00  0.00     0.047 A 
BRANCH  24  29
ATOM     29  C   UNL A   1      33.863  17.137  24.267  1.00  0.00    -0.013 C 
ATOM     30  C   UNL A   1      35.227  17.030  24.979  1.00  0.00     0.016 C 
ATOM     31  C   UNL A   1      34.069  16.686  22.803  1.00  0.00     0.016 C 
ATOM     32  C   UNL A   1      32.874  16.138  24.911  1.00  0.00     0.016 C 
ENDBRANCH  24  29
ENDBRANCH  22  23
ENDBRANCH  21  22
ENDBRANCH  18  21
ENDBRANCH  14  17
ENDBRANCH   7  13
ENDBRANCH   3   6
ENDBRANCH   1   2
BRANCH   1  33
ATOM     33  C   UNL A   1      35.504  23.625  24.183  1.00  0.00     0.023 C 
BRANCH  33  34
ATOM     34  C   UNL A   1      36.039  22.732  25.307  1.00  0.00     0.023 C 
BRANCH  34  35
ATOM     35  C   UNL A   1      37.301  23.234  26.003  1.00  0.00     0.116 C 
BRANCH  35  36
ATOM     36  N   UNL A   1      38.304  22.192  26.171  1.00  0.00    -0.352 N 
ATOM     37  C   UNL A   1      39.627  22.305  26.528  1.00  0.00     0.251 C 
ATOM     38  H   UNL A   1      37.989  21.274  26.004  1.00  0.00     0.163 HD
ATOM     39  O   UNL A   1      40.357  21.317  26.471  1.00  0.00    -0.269 OA
BRANCH  37  40
ATOM     40  C   UNL A   1      40.179  23.612  26.952  1.00  0.00     0.039 A 
ATOM     41  C   UNL A   1      40.159  24.678  26.048  1.00  0.00     0.014 A 
ATOM     42  C   UNL A   1      40.709  23.792  28.233  1.00  0.00     0.014 A 
ATOM     43  C   UNL A   1      40.598  25.942  26.455  1.00  0.00     0.010 A 
ATOM     44  C   UNL A   1      41.080  25.066  28.658  1.00  0.00     0.010 A 
ATOM     45  C   UNL A   1      41.023  26.157  27.777  1.00  0.00    -0.014 A 
BRANCH  45  46
ATOM     46  C   UNL A   1      41.382  27.517  28.263  1.00  0.00     0.031 A 
ATOM     47  C   UNL A   1      42.826  27.914  28.427  1.00  0.00     0.074 A 
ATOM     48  C   UNL A   1      40.406  28.370  28.636  1.00  0.00     0.049 A 
ATOM     49  N   UNL A   1      43.327  29.021  28.910  1.00  0.00    -0.248 NA
ATOM     50  C   UNL A   1      43.841  26.930  28.013  1.00  0.00     0.031 C 
ATOM     51  C   UNL A   1      38.969  28.086  28.591  1.00  0.00     0.029 A 
ATOM     52  N   UNL A   1      40.472  29.640  29.158  1.00  0.00    -0.354 N 
ATOM     53  C   UNL A   1      44.708  28.861  28.882  1.00  0.00     0.074 A 
ATOM     54  C   UNL A   1      44.967  27.534  28.369  1.00  0.00     0.031 C 
ATOM     55  C   UNL A   1      38.293  29.146  29.061  1.00  0.00     0.029 A 
ATOM     56  C   UNL A   1      39.243  30.172  29.479  1.00  0.00     0.049 A 
ATOM     57  H   UNL A   1      41.319  30.124  29.290  1.00  0.00     0.167 HD
ATOM     58  C   UNL A   1      45.674  29.747  29.223  1.00  0.00     0.034 A 
ATOM     59  C   UNL A   1      38.919  31.344  30.059  1.00  0.00     0.034 A 
ATOM     60  C   UNL A   1      45.418  31.078  29.703  1.00  0.00     0.049 A 
ATOM     61  C   UNL A   1      40.016  32.308  30.425  1.00  0.00     0.074 A 
ATOM     62  C   UNL A   1      46.331  32.069  30.017  1.00  0.00     0.029 A 
ATOM     63  N   UNL A   1      44.159  31.606  29.943  1.00  0.00    -0.354 N 
ATOM     64  N   UNL A   1      41.310  32.191  30.255  1.00  0.00    -0.248 NA
ATOM     65  C   UNL A   1      39.605  33.584  31.032  1.00  0.00     0.031 C 
ATOM     66  C   UNL A   1      45.626  33.189  30.468  1.00  0.00     0.029 A 
ATOM     67  C   UNL A   1      44.272  32.906  30.406  1.00  0.00     0.049 A 
ATOM     68  H   UNL A   1      43.310  31.128  29.806  1.00  0.00     0.167 HD
ATOM     69  C   UNL A   1      41.862  33.389  30.693  1.00  0.00     0.074 A 
ATOM     70  C   UNL A   1      40.761  34.229  31.114  1.00  0.00     0.031 C 
ATOM     71  C   UNL A   1      43.165  33.756  30.758  1.00  0.00     0.034 A 
BRANCH  58  72
ATOM     72  C   UNL A   1      47.110  29.335  29.029  1.00  0.00     0.023 A 
ATOM     73  C   UNL A   1      47.856  28.893  30.140  1.00  0.00     0.012 A 
ATOM     74  C   UNL A   1      47.690  29.292  27.746  1.00  0.00     0.148 A 
ATOM     75  C   UNL A   1      49.165  28.440  29.984  1.00  0.00     0.002 A 
ATOM     76  C   UNL A   1      48.981  28.797  27.592  1.00  0.00     0.091 A 
ATOM     77  F   UNL A   1      46.968  29.728  26.703  1.00  0.00    -0.205 F 
ATOM     78  C   UNL A   1      49.722  28.382  28.709  1.00  0.00     0.022 A 
BRANCH  76  79
ATOM     79  S   UNL A   1      49.764  28.604  25.986  1.00  0.00     0.127 S 
ATOM     80  O   UNL A   1      50.373  29.921  25.795  1.00  0.00    -0.237 OA
ATOM     81  O   UNL A   1      50.717  27.523  26.241  1.00  0.00    -0.237 OA
ATOM     82  O   UNL A   1      48.698  28.273  25.053  1.00  0.00    -0.744 OA
ENDBRANCH  76  79
ENDBRANCH  58  72
BRANCH  59  83
ATOM     83  C   UNL A   1      37.490  31.703  30.298  1.00  0.00     0.023 A 
ATOM     84  C   UNL A   1      36.948  31.564  31.591  1.00  0.00     0.012 A 
ATOM     85  C   UNL A   1      36.662  32.160  29.255  1.00  0.00     0.148 A 
ATOM     86  C   UNL A   1      35.598  31.823  31.830  1.00  0.00     0.002 A 
ATOM     87  C   UNL A   1      35.332  32.475  29.513  1.00  0.00     0.091 A 
ATOM     88  F   UNL A   1      37.189  32.275  28.027  1.00  0.00    -0.205 F 
ATOM     89  C   UNL A   1      34.792  32.286  30.794  1.00  0.00     0.022 A 
BRANCH  87  90
ATOM     90  S   UNL A   1      34.261  33.201  28.268  1.00  0.00     0.127 S 
ATOM     91  O   UNL A   1      35.186  34.075  27.551  1.00  0.00    -0.237 OA
ATOM     92  O   UNL A   1      33.820  32.023  27.520  1.00  0.00    -0.237 OA
ATOM     93  O   UNL A   1      33.199  33.868  29.010  1.00  0.00    -0.744 OA
ENDBRANCH  87  90
ENDBRANCH  59  83
BRANCH  71  94
ATOM     94  C   UNL A   1      43.480  35.145  31.251  1.00  0.00     0.023 A 
ATOM     95  C   UNL A   1      43.722  35.367  32.621  1.00  0.00     0.012 A 
ATOM     96  C   UNL A   1      43.606  36.215  30.343  1.00  0.00     0.148 A 
ATOM     97  C   UNL A   1      44.052  36.641  33.083  1.00  0.00     0.002 A 
ATOM     98  C   UNL A   1      43.986  37.470  30.804  1.00  0.00     0.091 A 
ATOM     99  F   UNL A   1      43.356  35.986  29.045  1.00  0.00    -0.205 F 
ATOM    100  C   UNL A   1      44.196  37.687  32.176  1.00  0.00     0.022 A 
BRANCH  98 101
ATOM    101  S   UNL A   1      44.291  38.853  29.700  1.00  0.00     0.127 S 
ATOM    102  O   UNL A   1      42.972  39.053  29.102  1.00  0.00    -0.237 OA
ATOM    103  O   UNL A   1      44.704  39.905  30.630  1.00  0.00    -0.237 OA
ATOM    104  O   UNL A   1      45.332  38.414  28.781  1.00  0.00    -0.744 OA
ENDBRANCH  98 101
ENDBRANCH  71  94
ENDBRANCH  45  46
ENDBRANCH  37  40
ENDBRANCH  35  36
ENDBRANCH  34  35
ENDBRANCH  33  34
ENDBRANCH   1  33
TORSDOF 20
ENDMDL
MODEL 3
REMARK VINA RESULT:     -12.3      1.919      5.072
REMARK SMILES CC(C)(C)c1ccc(OCC(=O)NNC(=O)[C@H]2[C@@H](C(=O)NCCCCNC(=O)c3ccc(-c4c5nc(c(-c6cccc(S(=O)(=O)[O-])c6F)c6ccc([nH]6)c(-c6cccc(S(=O)(=O)[O-])c6F)c6nc(c(-c7cccc(S(=O)(=O)[O-])c7F)c7ccc4[nH]7)C=C6)C=C5)cc3)[C@@H]3C=C[C@H]2C3)cc1
REMARK SMILES IDX 22 1 21 2 19 3 20 4 18 6 17 7 95 8 92 9 94 10 96 11 93 12
REMARK SMILES IDX 15 13 14 14 16 16 13 17 11 18 12 19 10 21 9 22 8 23 5 24
REMARK SMILES IDX 6 25 98 26 7 27 97 28 2 29 1 30 3 31 4 32 23 33 24 34 25 35
REMARK SMILES IDX 26 36 27 37 28 39 29 40 30 41 91 42 31 43 90 44 32 45 33 46
REMARK SMILES IDX 34 47 84 48 35 49 89 50 83 51 85 52 36 53 88 54 82 55 81 56
REMARK SMILES IDX 37 58 69 59 49 60 68 61 50 62 53 63 67 64 86 65 51 66 52 67
REMARK SMILES IDX 66 69 87 70 54 71 38 72 39 73 47 74 40 75 42 76 48 77 41 78
REMARK SMILES IDX 43 79 44 80 45 81 46 82 70 83 71 84 79 85 72 86 74 87 80 88
REMARK SMILES IDX 73 89 75 90 76 91 77 92 78 93 55 94 56 95 64 96 57 97 59 98
REMARK SMILES IDX 65 99 58 100 60 101 61 102 62 103 63 104
REMARK H PARENT 21 5 14 15 13 20 26 38 85 57 53 68
REMARK Flexibility Score: inf
ROOT
ATOM      1  C   UNL A   1      36.487  22.467  24.643  1.00  0.00     0.116 C 
ENDROOT
BRANCH   1   2
ATOM      2  N   UNL A   1      35.627  22.047  25.732  1.00  0.00    -0.356 N 
ATOM      3  C   UNL A   1      34.605  21.154  25.793  1.00  0.00     0.224 C 
ATOM      4  O   UNL A   1      34.050  21.025  26.883  1.00  0.00    -0.275 OA
ATOM      5  H   UNL A   1      35.819  22.494  26.588  1.00  0.00     0.163 HD
BRANCH   3   6
ATOM      6  C   UNL A   1      34.245  20.299  24.587  1.00  0.00     0.098 C 
ATOM      7  C   UNL A   1      32.792  20.433  24.015  1.00  0.00     0.100 C 
ATOM      8  C   UNL A   1      32.199  19.016  24.255  1.00  0.00     0.025 C 
ATOM      9  C   UNL A   1      34.292  18.798  25.005  1.00  0.00     0.025 C 
ATOM     10  C   UNL A   1      32.921  18.084  23.299  1.00  0.00    -0.027 C 
ATOM     11  C   UNL A   1      32.877  18.567  25.548  1.00  0.00     0.017 C 
ATOM     12  C   UNL A   1      34.181  17.962  23.745  1.00  0.00    -0.027 C 
BRANCH   7  13
ATOM     13  C   UNL A   1      31.905  21.531  24.586  1.00  0.00     0.242 C 
ATOM     14  N   UNL A   1      31.872  22.753  23.949  1.00  0.00    -0.267 N 
ATOM     15  H   UNL A   1      31.447  23.504  24.424  1.00  0.00     0.191 HD
ATOM     16  O   UNL A   1      31.182  21.353  25.566  1.00  0.00    -0.273 OA
BRANCH  14  17
ATOM     17  N   UNL A   1      32.395  23.006  22.680  1.00  0.00    -0.265 N 
ATOM     18  C   UNL A   1      33.036  24.168  22.322  1.00  0.00     0.276 C 
ATOM     19  O   UNL A   1      33.358  24.335  21.141  1.00  0.00    -0.269 OA
ATOM     20  H   UNL A   1      32.298  22.305  21.996  1.00  0.00     0.191 HD
BRANCH  18  21
ATOM     21  C   UNL A   1      33.390  25.198  23.399  1.00  0.00     0.331 C 
BRANCH  21  22
ATOM     22  O   UNL A   1      32.377  25.530  24.332  1.00  0.00    -0.484 OA
BRANCH  22  23
ATOM     23  C   UNL A   1      31.618  26.640  24.089  1.00  0.00     0.120 A 
ATOM     24  C   UNL A   1      29.845  28.747  23.376  1.00  0.00    -0.042 A 
ATOM     25  C   UNL A   1      29.421  27.410  23.386  1.00  0.00     0.008 A 
ATOM     26  C   UNL A   1      31.168  28.999  23.784  1.00  0.00     0.008 A 
ATOM     27  C   UNL A   1      30.296  26.374  23.737  1.00  0.00     0.047 A 
ATOM     28  C   UNL A   1      32.042  27.963  24.143  1.00  0.00     0.047 A 
BRANCH  24  29
ATOM     29  C   UNL A   1      28.940  29.906  22.925  1.00  0.00    -0.013 C 
ATOM     30  C   UNL A   1      29.180  31.135  23.825  1.00  0.00     0.016 C 
ATOM     31  C   UNL A   1      27.431  29.578  22.981  1.00  0.00     0.016 C 
ATOM     32  C   UNL A   1      29.266  30.276  21.460  1.00  0.00     0.016 C 
ENDBRANCH  24  29
ENDBRANCH  22  23
ENDBRANCH  21  22
ENDBRANCH  18  21
ENDBRANCH  14  17
ENDBRANCH   7  13
ENDBRANCH   3   6
ENDBRANCH   1   2
BRANCH   1  33
ATOM     33  C   UNL A   1      37.959  22.189  24.949  1.00  0.00     0.023 C 
BRANCH  33  34
ATOM     34  C   UNL A   1      38.349  20.707  25.004  1.00  0.00     0.023 C 
BRANCH  34  35
ATOM     35  C   UNL A   1      39.006  20.247  26.301  1.00  0.00     0.116 C 
BRANCH  35  36
ATOM     36  N   UNL A   1      40.050  19.257  26.084  1.00  0.00    -0.352 N 
ATOM     37  C   UNL A   1      41.414  19.425  26.029  1.00  0.00     0.251 C 
ATOM     38  H   UNL A   1      39.735  18.333  25.957  1.00  0.00     0.163 HD
ATOM     39  O   UNL A   1      42.128  18.486  25.684  1.00  0.00    -0.269 OA
BRANCH  37  40
ATOM     40  C   UNL A   1      42.020  20.736  26.355  1.00  0.00     0.039 A 
ATOM     41  C   UNL A   1      42.259  21.645  25.320  1.00  0.00     0.014 A 
ATOM     42  C   UNL A   1      42.347  21.074  27.671  1.00  0.00     0.014 A 
ATOM     43  C   UNL A   1      42.752  22.920  25.616  1.00  0.00     0.010 A 
ATOM     44  C   UNL A   1      42.771  22.368  27.970  1.00  0.00     0.010 A 
ATOM     45  C   UNL A   1      42.973  23.308  26.948  1.00  0.00    -0.014 A 
BRANCH  45  46
ATOM     46  C   UNL A   1      43.384  24.696  27.292  1.00  0.00     0.031 A 
ATOM     47  C   UNL A   1      42.384  25.672  27.853  1.00  0.00     0.074 A 
ATOM     48  C   UNL A   1      44.641  25.104  27.022  1.00  0.00     0.049 A 
ATOM     49  N   UNL A   1      42.538  26.940  28.138  1.00  0.00    -0.248 NA
ATOM     50  C   UNL A   1      41.025  25.164  28.111  1.00  0.00     0.031 C 
ATOM     51  C   UNL A   1      45.689  24.278  26.417  1.00  0.00     0.029 A 
ATOM     52  N   UNL A   1      45.245  26.327  27.193  1.00  0.00    -0.354 N 
ATOM     53  C   UNL A   1      41.299  27.386  28.582  1.00  0.00     0.074 A 
ATOM     54  C   UNL A   1      40.392  26.264  28.496  1.00  0.00     0.031 C 
ATOM     55  C   UNL A   1      46.802  25.014  26.270  1.00  0.00     0.029 A 
ATOM     56  C   UNL A   1      46.541  26.374  26.731  1.00  0.00     0.049 A 
ATOM     57  H   UNL A   1      44.793  27.098  27.606  1.00  0.00     0.167 HD
ATOM     58  C   UNL A   1      40.954  28.610  29.049  1.00  0.00     0.034 A 
ATOM     59  C   UNL A   1      47.415  27.398  26.669  1.00  0.00     0.034 A 
ATOM     60  C   UNL A   1      41.863  29.718  29.165  1.00  0.00     0.049 A 
ATOM     61  C   UNL A   1      47.001  28.746  27.198  1.00  0.00     0.074 A 
ATOM     62  C   UNL A   1      41.620  30.978  29.683  1.00  0.00     0.029 A 
ATOM     63  N   UNL A   1      43.187  29.703  28.757  1.00  0.00    -0.354 N 
ATOM     64  N   UNL A   1      45.867  29.106  27.747  1.00  0.00    -0.248 NA
ATOM     65  C   UNL A   1      48.001  29.823  27.130  1.00  0.00     0.031 C 
ATOM     66  C   UNL A   1      42.792  31.733  29.567  1.00  0.00     0.029 A 
ATOM     67  C   UNL A   1      43.773  30.933  29.006  1.00  0.00     0.049 A 
ATOM     68  H   UNL A   1      43.644  28.932  28.349  1.00  0.00     0.167 HD
ATOM     69  C   UNL A   1      46.031  30.433  28.127  1.00  0.00     0.074 A 
ATOM     70  C   UNL A   1      47.383  30.807  27.768  1.00  0.00     0.031 C 
ATOM     71  C   UNL A   1      45.138  31.273  28.705  1.00  0.00     0.034 A 
BRANCH  58  72
ATOM     72  C   UNL A   1      39.541  28.807  29.535  1.00  0.00     0.023 A 
ATOM     73  C   UNL A   1      39.210  28.443  30.856  1.00  0.00     0.012 A 
ATOM     74  C   UNL A   1      38.572  29.434  28.728  1.00  0.00     0.148 A 
ATOM     75  C   UNL A   1      37.930  28.674  31.359  1.00  0.00     0.002 A 
ATOM     76  C   UNL A   1      37.311  29.702  29.250  1.00  0.00     0.091 A 
ATOM     77  F   UNL A   1      38.903  29.762  27.470  1.00  0.00    -0.205 F 
ATOM     78  C   UNL A   1      36.986  29.314  30.560  1.00  0.00     0.022 A 
BRANCH  76  79
ATOM     79  S   UNL A   1      36.046  30.592  28.335  1.00  0.00     0.127 S 
ATOM     80  O   UNL A   1      35.003  30.746  29.349  1.00  0.00    -0.237 OA
ATOM     81  O   UNL A   1      36.741  31.831  27.982  1.00  0.00    -0.237 OA
ATOM     82  O   UNL A   1      35.693  29.745  27.206  1.00  0.00    -0.744 OA
ENDBRANCH  76  79
ENDBRANCH  58  72
BRANCH  59  83
ATOM     83  C   UNL A   1      48.789  27.192  26.124  1.00  0.00     0.023 A 
ATOM     84  C   UNL A   1      49.812  26.736  26.978  1.00  0.00     0.012 A 
ATOM     85  C   UNL A   1      49.093  27.463  24.777  1.00  0.00     0.148 A 
ATOM     86  C   UNL A   1      51.121  26.602  26.516  1.00  0.00     0.002 A 
ATOM     87  C   UNL A   1      50.388  27.270  24.306  1.00  0.00     0.091 A 
ATOM     88  F   UNL A   1      48.113  27.909  23.979  1.00  0.00    -0.205 F 
ATOM     89  C   UNL A   1      51.408  26.862  25.179  1.00  0.00     0.022 A 
BRANCH  87  90
ATOM     90  S   UNL A   1      50.814  27.453  22.572  1.00  0.00     0.127 S 
ATOM     91  O   UNL A   1      52.164  26.899  22.535  1.00  0.00    -0.237 OA
ATOM     92  O   UNL A   1      49.792  26.633  21.918  1.00  0.00    -0.237 OA
ATOM     93  O   UNL A   1      50.703  28.879  22.292  1.00  0.00    -0.744 OA
ENDBRANCH  87  90
ENDBRANCH  59  83
BRANCH  71  94
ATOM     94  C   UNL A   1      45.602  32.666  29.042  1.00  0.00     0.023 A 
ATOM     95  C   UNL A   1      46.307  32.904  30.238  1.00  0.00     0.012 A 
ATOM     96  C   UNL A   1      45.401  33.726  28.135  1.00  0.00     0.148 A 
ATOM     97  C   UNL A   1      46.774  34.183  30.542  1.00  0.00     0.002 A 
ATOM     98  C   UNL A   1      45.915  34.985  28.420  1.00  0.00     0.091 A 
ATOM     99  F   UNL A   1      44.714  33.482  27.009  1.00  0.00    -0.205 F 
ATOM    100  C   UNL A   1      46.590  35.218  29.629  1.00  0.00     0.022 A 
BRANCH  98 101
ATOM    101  S   UNL A   1      45.812  36.355  27.263  1.00  0.00     0.127 S 
ATOM    102  O   UNL A   1      46.543  37.402  27.976  1.00  0.00    -0.237 OA
ATOM    103  O   UNL A   1      46.504  35.821  26.089  1.00  0.00    -0.237 OA
ATOM    104  O   UNL A   1      44.393  36.610  27.065  1.00  0.00    -0.744 OA
ENDBRANCH  98 101
ENDBRANCH  71  94
ENDBRANCH  45  46
ENDBRANCH  37  40
ENDBRANCH  35  36
ENDBRANCH  34  35
ENDBRANCH  33  34
ENDBRANCH   1  33
TORSDOF 20
ENDMDL
