MODEL 1
REMARK VINA RESULT:     -10.9      0.000      0.000
REMARK SMILES O=C(NCCCCNC(=O)[C@@H]1CCC[N@@H+](Cc2ccc(F)cc2Cl)C1)c1ccc(-c2c3nc(c(-c4cccc(S(=O)(=O)[O-])c4F)c4ccc([nH]4)c(-c4cccc(S(=O)(=O)[O-])c4F)c4nc(c(-c5cccc(S(=O)(=O)[O-])c5F)c5ccc2[nH]5)C=C4)C=C3)cc1
REMARK SMILES IDX 5 1 4 2 3 3 1 4 2 5 26 7 27 8 88 9 28 10 87 11 29 12 30 13
REMARK SMILES IDX 31 14 81 15 32 16 86 17 80 18 82 19 33 20 85 21 79 22 78 23
REMARK SMILES IDX 34 25 66 26 46 27 65 28 47 29 50 30 64 31 83 32 48 33 49 34
REMARK SMILES IDX 63 36 84 37 51 38 35 39 36 40 44 41 37 42 39 43 45 44 38 45
REMARK SMILES IDX 40 46 41 47 42 48 43 49 67 50 68 51 76 52 69 53 71 54 77 55
REMARK SMILES IDX 70 56 72 57 73 58 74 59 75 60 52 61 53 62 61 63 54 64 56 65
REMARK SMILES IDX 62 66 55 67 57 68 58 69 59 70 60 71 6 72 7 73 8 74 9 75
REMARK SMILES IDX 10 77 11 78 12 79 25 80 13 81 15 82 14 83 16 85 17 86 18 87
REMARK SMILES IDX 23 88 19 89 22 90 24 91 20 92 21 93
REMARK H PARENT 3 6 82 24 50 35 8 76 15 84
REMARK Flexibility Score: inf
ROOT
ATOM      1  C   UNL A   1      35.218  33.528  28.029  1.00  0.00     0.023 C 
ENDROOT
BRANCH   1   2
ATOM      2  C   UNL A   1      34.457  32.517  28.873  1.00  0.00     0.116 C 
BRANCH   2   3
ATOM      3  N   UNL A   1      33.886  31.443  28.069  1.00  0.00    -0.352 N 
ATOM      4  O   UNL A   1      33.910  29.576  26.809  1.00  0.00    -0.269 OA
ATOM      5  C   UNL A   1      34.479  30.285  27.621  1.00  0.00     0.251 C 
ATOM      6  H   UNL A   1      32.944  31.562  27.812  1.00  0.00     0.163 HD
BRANCH   5   7
ATOM      7  C   UNL A   1      35.821  29.941  28.130  1.00  0.00     0.039 A 
ATOM      8  C   UNL A   1      36.939  30.152  27.321  1.00  0.00     0.014 A 
ATOM      9  C   UNL A   1      35.953  29.377  29.399  1.00  0.00     0.014 A 
ATOM     10  C   UNL A   1      38.169  29.653  27.714  1.00  0.00     0.010 A 
ATOM     11  C   UNL A   1      37.213  28.975  29.840  1.00  0.00     0.010 A 
ATOM     12  C   UNL A   1      38.323  29.086  28.989  1.00  0.00    -0.014 A 
BRANCH  12  13
ATOM     13  C   UNL A   1      39.684  28.711  29.436  1.00  0.00     0.031 A 
ATOM     14  C   UNL A   1      40.363  29.433  30.561  1.00  0.00     0.074 A 
ATOM     15  C   UNL A   1      40.288  27.685  28.806  1.00  0.00     0.049 A 
ATOM     16  N   UNL A   1      41.543  29.210  31.079  1.00  0.00    -0.248 NA
ATOM     17  C   UNL A   1      39.639  30.555  31.179  1.00  0.00     0.031 C 
ATOM     18  C   UNL A   1      39.719  26.946  27.675  1.00  0.00     0.029 A 
ATOM     19  N   UNL A   1      41.495  27.079  29.024  1.00  0.00    -0.354 N 
ATOM     20  C   UNL A   1      41.726  30.191  32.046  1.00  0.00     0.074 A 
ATOM     21  C   UNL A   1      40.534  31.011  32.045  1.00  0.00     0.031 C 
ATOM     22  C   UNL A   1      40.553  25.957  27.329  1.00  0.00     0.029 A 
ATOM     23  C   UNL A   1      41.744  26.036  28.163  1.00  0.00     0.049 A 
ATOM     24  H   UNL A   1      42.123  27.361  29.728  1.00  0.00     0.167 HD
ATOM     25  C   UNL A   1      42.790  30.377  32.863  1.00  0.00     0.034 A 
ATOM     26  C   UNL A   1      42.822  25.241  28.043  1.00  0.00     0.034 A 
ATOM     27  C   UNL A   1      43.950  29.524  32.874  1.00  0.00     0.049 A 
ATOM     28  C   UNL A   1      43.970  25.453  28.983  1.00  0.00     0.074 A 
ATOM     29  C   UNL A   1      45.056  29.585  33.703  1.00  0.00     0.029 A 
ATOM     30  N   UNL A   1      44.157  28.457  32.010  1.00  0.00    -0.354 N 
ATOM     31  N   UNL A   1      44.079  26.315  29.964  1.00  0.00    -0.248 NA
ATOM     32  C   UNL A   1      45.132  24.574  28.814  1.00  0.00     0.031 C 
ATOM     33  C   UNL A   1      45.939  28.566  33.328  1.00  0.00     0.029 A 
ATOM     34  C   UNL A   1      45.376  27.858  32.277  1.00  0.00     0.049 A 
ATOM     35  H   UNL A   1      43.528  28.170  31.309  1.00  0.00     0.167 HD
ATOM     36  C   UNL A   1      45.316  26.077  30.544  1.00  0.00     0.074 A 
ATOM     37  C   UNL A   1      45.906  24.966  29.820  1.00  0.00     0.031 C 
ATOM     38  C   UNL A   1      45.921  26.728  31.567  1.00  0.00     0.034 A 
BRANCH  25  39
ATOM     39  C   UNL A   1      42.738  31.531  33.831  1.00  0.00     0.023 A 
ATOM     40  C   UNL A   1      43.304  32.772  33.473  1.00  0.00     0.012 A 
ATOM     41  C   UNL A   1      42.088  31.404  35.076  1.00  0.00     0.148 A 
ATOM     42  C   UNL A   1      43.252  33.856  34.349  1.00  0.00     0.002 A 
ATOM     43  C   UNL A   1      42.006  32.501  35.926  1.00  0.00     0.091 A 
ATOM     44  F   UNL A   1      41.579  30.210  35.413  1.00  0.00    -0.205 F 
ATOM     45  C   UNL A   1      42.596  33.724  35.569  1.00  0.00     0.022 A 
BRANCH  43  46
ATOM     46  S   UNL A   1      41.117  32.443  37.487  1.00  0.00     0.127 S 
ATOM     47  O   UNL A   1      39.861  31.810  37.089  1.00  0.00    -0.237 OA
ATOM     48  O   UNL A   1      41.988  31.604  38.311  1.00  0.00    -0.237 OA
ATOM     49  O   UNL A   1      41.014  33.825  37.936  1.00  0.00    -0.744 OA
ENDBRANCH  43  46
ENDBRANCH  25  39
BRANCH  26  50
ATOM     50  C   UNL A   1      42.820  24.156  27.025  1.00  0.00     0.023 A 
ATOM     51  C   UNL A   1      43.578  24.313  25.848  1.00  0.00     0.012 A 
ATOM     52  C   UNL A   1      42.153  22.937  27.258  1.00  0.00     0.148 A 
ATOM     53  C   UNL A   1      43.661  23.277  24.916  1.00  0.00     0.002 A 
ATOM     54  C   UNL A   1      42.292  21.889  26.356  1.00  0.00     0.091 A 
ATOM     55  F   UNL A   1      41.428  22.814  28.378  1.00  0.00    -0.205 F 
ATOM     56  C   UNL A   1      43.033  22.063  25.177  1.00  0.00     0.022 A 
BRANCH  54  57
ATOM     57  S   UNL A   1      41.649  20.245  26.691  1.00  0.00     0.127 S 
ATOM     58  O   UNL A   1      40.220  20.505  26.830  1.00  0.00    -0.237 OA
ATOM     59  O   UNL A   1      42.029  19.518  25.479  1.00  0.00    -0.237 OA
ATOM     60  O   UNL A   1      42.334  19.797  27.896  1.00  0.00    -0.744 OA
ENDBRANCH  54  57
ENDBRANCH  26  50
BRANCH  38  61
ATOM     61  C   UNL A   1      47.287  26.245  31.971  1.00  0.00     0.023 A 
ATOM     62  C   UNL A   1      48.428  26.771  31.334  1.00  0.00     0.012 A 
ATOM     63  C   UNL A   1      47.441  25.313  33.015  1.00  0.00     0.148 A 
ATOM     64  C   UNL A   1      49.703  26.355  31.710  1.00  0.00     0.002 A 
ATOM     65  C   UNL A   1      48.718  24.937  33.416  1.00  0.00     0.091 A 
ATOM     66  F   UNL A   1      46.341  24.807  33.590  1.00  0.00    -0.205 F 
ATOM     67  C   UNL A   1      49.849  25.448  32.757  1.00  0.00     0.022 A 
BRANCH  65  68
ATOM     68  S   UNL A   1      48.997  23.844  34.813  1.00  0.00     0.127 S 
ATOM     69  O   UNL A   1      50.453  23.715  34.804  1.00  0.00    -0.237 OA
ATOM     70  O   UNL A   1      48.460  24.623  35.930  1.00  0.00    -0.237 OA
ATOM     71  O   UNL A   1      48.256  22.625  34.520  1.00  0.00    -0.744 OA
ENDBRANCH  65  68
ENDBRANCH  38  61
ENDBRANCH  12  13
ENDBRANCH   5   7
ENDBRANCH   2   3
ENDBRANCH   1   2
BRANCH   1  72
ATOM     72  C   UNL A   1      34.426  34.802  27.747  1.00  0.00     0.023 C 
BRANCH  72  73
ATOM     73  C   UNL A   1      33.064  34.880  28.438  1.00  0.00     0.116 C 
BRANCH  73  74
ATOM     74  N   UNL A   1      32.772  36.134  29.114  1.00  0.00    -0.356 N 
ATOM     75  C   UNL A   1      33.068  36.522  30.395  1.00  0.00     0.228 C 
ATOM     76  H   UNL A   1      32.292  36.802  28.573  1.00  0.00     0.163 HD
ATOM     77  O   UNL A   1      32.970  37.717  30.674  1.00  0.00    -0.275 OA
BRANCH  75  78
ATOM     78  C   UNL A   1      33.422  35.452  31.430  1.00  0.00     0.133 C 
ATOM     79  C   UNL A   1      32.954  35.956  32.798  1.00  0.00     0.025 C 
ATOM     80  C   UNL A   1      34.913  35.026  31.364  1.00  0.00     0.276 C 
ATOM     81  C   UNL A   1      34.079  36.438  33.680  1.00  0.00     0.062 C 
ATOM     82  N   UNL A   1      35.680  34.917  32.605  1.00  0.00    -0.330 N 
ATOM     83  C   UNL A   1      35.067  35.310  33.858  1.00  0.00     0.262 C 
ATOM     84  H   UNL A   1      36.260  35.738  32.431  1.00  0.00     0.348 HD
BRANCH  82  85
ATOM     85  C   UNL A   1      36.658  33.832  32.704  1.00  0.00     0.300 C 
BRANCH  85  86
ATOM     86  C   UNL A   1      37.963  34.097  31.973  1.00  0.00     0.025 A 
ATOM     87  C   UNL A   1      38.003  33.928  30.576  1.00  0.00     0.014 A 
ATOM     88  C   UNL A   1      39.161  34.434  32.637  1.00  0.00     0.052 A 
ATOM     89  C   UNL A   1      39.204  34.036  29.875  1.00  0.00     0.040 A 
ATOM     90  C   UNL A   1      40.365  34.524  31.935  1.00  0.00     0.060 A 
ATOM     91  Cl  UNL A   1      39.228  34.752  34.337  1.00  0.00    -0.084 Cl
ATOM     92  C   UNL A   1      40.375  34.316  30.565  1.00  0.00     0.124 A 
ATOM     93  F   UNL A   1      41.533  34.391  29.896  1.00  0.00    -0.207 F 
ENDBRANCH  85  86
ENDBRANCH  82  85
ENDBRANCH  75  78
ENDBRANCH  73  74
ENDBRANCH  72  73
ENDBRANCH   1  72
TORSDOF 16
ENDMDL
MODEL 2
REMARK VINA RESULT:     -10.7      4.785      7.983
REMARK SMILES O=C(NCCCCNC(=O)[C@@H]1CCC[N@@H+](Cc2ccc(F)cc2Cl)C1)c1ccc(-c2c3nc(c(-c4cccc(S(=O)(=O)[O-])c4F)c4ccc([nH]4)c(-c4cccc(S(=O)(=O)[O-])c4F)c4nc(c(-c5cccc(S(=O)(=O)[O-])c5F)c5ccc2[nH]5)C=C4)C=C3)cc1
REMARK SMILES IDX 5 1 4 2 3 3 1 4 2 5 26 7 27 8 88 9 28 10 87 11 29 12 30 13
REMARK SMILES IDX 31 14 81 15 32 16 86 17 80 18 82 19 33 20 85 21 79 22 78 23
REMARK SMILES IDX 34 25 66 26 46 27 65 28 47 29 50 30 64 31 83 32 48 33 49 34
REMARK SMILES IDX 63 36 84 37 51 38 35 39 36 40 44 41 37 42 39 43 45 44 38 45
REMARK SMILES IDX 40 46 41 47 42 48 43 49 67 50 68 51 76 52 69 53 71 54 77 55
REMARK SMILES IDX 70 56 72 57 73 58 74 59 75 60 52 61 53 62 61 63 54 64 56 65
REMARK SMILES IDX 62 66 55 67 57 68 58 69 59 70 60 71 6 72 7 73 8 74 9 75
REMARK SMILES IDX 10 77 11 78 12 79 25 80 13 81 15 82 14 83 16 85 17 86 18 87
REMARK SMILES IDX 23 88 19 89 22 90 24 91 20 92 21 93
REMARK H PARENT 3 6 82 24 50 35 8 76 15 84
REMARK Flexibility Score: inf
ROOT
ATOM      1  C   UNL A   1      32.921  28.943  23.703  1.00  0.00     0.023 C 
ENDROOT
BRANCH   1   2
ATOM      2  C   UNL A   1      33.214  29.190  25.174  1.00  0.00     0.116 C 
BRANCH   2   3
ATOM      3  N   UNL A   1      32.605  30.423  25.660  1.00  0.00    -0.352 N 
ATOM      4  O   UNL A   1      32.234  32.105  27.111  1.00  0.00    -0.269 OA
ATOM      5  C   UNL A   1      32.959  31.199  26.740  1.00  0.00     0.251 C 
ATOM      6  H   UNL A   1      31.833  30.745  25.143  1.00  0.00     0.163 HD
BRANCH   5   7
ATOM      7  C   UNL A   1      34.220  30.891  27.441  1.00  0.00     0.039 A 
ATOM      8  C   UNL A   1      34.470  29.586  27.868  1.00  0.00     0.014 A 
ATOM      9  C   UNL A   1      35.132  31.915  27.701  1.00  0.00     0.014 A 
ATOM     10  C   UNL A   1      35.552  29.333  28.693  1.00  0.00     0.010 A 
ATOM     11  C   UNL A   1      36.281  31.634  28.441  1.00  0.00     0.010 A 
ATOM     12  C   UNL A   1      36.483  30.348  28.963  1.00  0.00    -0.014 A 
BRANCH  12  13
ATOM     13  C   UNL A   1      37.711  30.000  29.713  1.00  0.00     0.031 A 
ATOM     14  C   UNL A   1      37.927  30.470  31.120  1.00  0.00     0.074 A 
ATOM     15  C   UNL A   1      38.626  29.230  29.092  1.00  0.00     0.049 A 
ATOM     16  N   UNL A   1      38.939  30.234  31.914  1.00  0.00    -0.248 NA
ATOM     17  C   UNL A   1      36.886  31.324  31.714  1.00  0.00     0.031 C 
ATOM     18  C   UNL A   1      38.519  28.755  27.709  1.00  0.00     0.029 A 
ATOM     19  N   UNL A   1      39.809  28.704  29.532  1.00  0.00    -0.354 N 
ATOM     20  C   UNL A   1      38.685  30.947  33.078  1.00  0.00     0.074 A 
ATOM     21  C   UNL A   1      37.421  31.624  32.890  1.00  0.00     0.031 C 
ATOM     22  C   UNL A   1      39.568  27.970  27.429  1.00  0.00     0.029 A 
ATOM     23  C   UNL A   1      40.454  27.944  28.585  1.00  0.00     0.049 A 
ATOM     24  H   UNL A   1      40.164  28.854  30.438  1.00  0.00     0.167 HD
ATOM     25  C   UNL A   1      39.438  31.017  34.202  1.00  0.00     0.034 A 
ATOM     26  C   UNL A   1      41.639  27.311  28.632  1.00  0.00     0.034 A 
ATOM     27  C   UNL A   1      40.674  30.301  34.383  1.00  0.00     0.049 A 
ATOM     28  C   UNL A   1      42.434  27.382  29.901  1.00  0.00     0.074 A 
ATOM     29  C   UNL A   1      41.484  30.252  35.503  1.00  0.00     0.029 A 
ATOM     30  N   UNL A   1      41.283  29.515  33.415  1.00  0.00    -0.354 N 
ATOM     31  N   UNL A   1      42.125  27.971  31.030  1.00  0.00    -0.248 NA
ATOM     32  C   UNL A   1      43.726  26.688  29.910  1.00  0.00     0.031 C 
ATOM     33  C   UNL A   1      42.592  29.450  35.206  1.00  0.00     0.029 A 
ATOM     34  C   UNL A   1      42.464  28.984  33.906  1.00  0.00     0.049 A 
ATOM     35  H   UNL A   1      40.928  29.359  32.510  1.00  0.00     0.167 HD
ATOM     36  C   UNL A   1      43.177  27.709  31.895  1.00  0.00     0.074 A 
ATOM     37  C   UNL A   1      44.118  26.880  31.163  1.00  0.00     0.031 C 
ATOM     38  C   UNL A   1      43.362  28.130  33.170  1.00  0.00     0.034 A 
BRANCH  25  39
ATOM     39  C   UNL A   1      38.932  31.874  35.334  1.00  0.00     0.023 A 
ATOM     40  C   UNL A   1      39.064  33.276  35.263  1.00  0.00     0.012 A 
ATOM     41  C   UNL A   1      38.284  31.299  36.446  1.00  0.00     0.148 A 
ATOM     42  C   UNL A   1      38.588  34.088  36.292  1.00  0.00     0.002 A 
ATOM     43  C   UNL A   1      37.777  32.118  37.449  1.00  0.00     0.091 A 
ATOM     44  F   UNL A   1      38.191  29.963  36.512  1.00  0.00    -0.205 F 
ATOM     45  C   UNL A   1      37.937  33.511  37.379  1.00  0.00     0.022 A 
BRANCH  43  46
ATOM     46  S   UNL A   1      36.861  31.466  38.851  1.00  0.00     0.127 S 
ATOM     47  O   UNL A   1      37.821  31.642  39.939  1.00  0.00    -0.237 OA
ATOM     48  O   UNL A   1      35.703  32.360  38.909  1.00  0.00    -0.237 OA
ATOM     49  O   UNL A   1      36.540  30.087  38.508  1.00  0.00    -0.744 OA
ENDBRANCH  43  46
ENDBRANCH  25  39
BRANCH  26  50
ATOM     50  C   UNL A   1      42.096  26.527  27.452  1.00  0.00     0.023 A 
ATOM     51  C   UNL A   1      42.850  27.166  26.449  1.00  0.00     0.012 A 
ATOM     52  C   UNL A   1      41.871  25.139  27.366  1.00  0.00     0.148 A 
ATOM     53  C   UNL A   1      43.363  26.436  25.375  1.00  0.00     0.002 A 
ATOM     54  C   UNL A   1      42.437  24.409  26.327  1.00  0.00     0.091 A 
ATOM     55  F   UNL A   1      41.140  24.554  28.324  1.00  0.00    -0.205 F 
ATOM     56  C   UNL A   1      43.170  25.059  25.323  1.00  0.00     0.022 A 
BRANCH  54  57
ATOM     57  S   UNL A   1      42.372  22.614  26.271  1.00  0.00     0.127 S 
ATOM     58  O   UNL A   1      43.026  22.332  24.997  1.00  0.00    -0.237 OA
ATOM     59  O   UNL A   1      43.145  22.246  27.457  1.00  0.00    -0.237 OA
ATOM     60  O   UNL A   1      40.958  22.272  26.350  1.00  0.00    -0.744 OA
ENDBRANCH  54  57
ENDBRANCH  26  50
BRANCH  38  61
ATOM     61  C   UNL A   1      44.625  27.689  33.858  1.00  0.00     0.023 A 
ATOM     62  C   UNL A   1      45.751  28.536  33.854  1.00  0.00     0.012 A 
ATOM     63  C   UNL A   1      44.677  26.466  34.551  1.00  0.00     0.148 A 
ATOM     64  C   UNL A   1      46.922  28.156  34.507  1.00  0.00     0.002 A 
ATOM     65  C   UNL A   1      45.833  26.115  35.239  1.00  0.00     0.091 A 
ATOM     66  F   UNL A   1      43.603  25.665  34.520  1.00  0.00    -0.205 F 
ATOM     67  C   UNL A   1      46.960  26.953  35.207  1.00  0.00     0.022 A 
BRANCH  65  68
ATOM     68  S   UNL A   1      45.936  24.628  36.240  1.00  0.00     0.127 S 
ATOM     69  O   UNL A   1      47.369  24.555  36.520  1.00  0.00    -0.237 OA
ATOM     70  O   UNL A   1      45.104  24.971  37.394  1.00  0.00    -0.237 OA
ATOM     71  O   UNL A   1      45.402  23.553  35.413  1.00  0.00    -0.744 OA
ENDBRANCH  65  68
ENDBRANCH  38  61
ENDBRANCH  12  13
ENDBRANCH   5   7
ENDBRANCH   2   3
ENDBRANCH   1   2
BRANCH   1  72
ATOM     72  C   UNL A   1      31.455  28.623  23.420  1.00  0.00     0.023 C 
BRANCH  72  73
ATOM     73  C   UNL A   1      31.185  27.188  22.967  1.00  0.00     0.116 C 
BRANCH  73  74
ATOM     74  N   UNL A   1      32.274  26.537  22.257  1.00  0.00    -0.356 N 
ATOM     75  C   UNL A   1      32.951  25.385  22.564  1.00  0.00     0.228 C 
ATOM     76  H   UNL A   1      32.569  26.990  21.433  1.00  0.00     0.163 HD
ATOM     77  O   UNL A   1      33.650  24.874  21.689  1.00  0.00    -0.275 OA
BRANCH  75  78
ATOM     78  C   UNL A   1      32.874  24.841  23.992  1.00  0.00     0.133 C 
ATOM     79  C   UNL A   1      34.019  25.467  24.791  1.00  0.00     0.025 C 
ATOM     80  C   UNL A   1      32.814  23.290  24.038  1.00  0.00     0.276 C 
ATOM     81  C   UNL A   1      35.165  24.519  25.048  1.00  0.00     0.062 C 
ATOM     82  N   UNL A   1      33.671  22.570  24.981  1.00  0.00    -0.330 N 
ATOM     83  C   UNL A   1      34.632  23.308  25.777  1.00  0.00     0.262 C 
ATOM     84  H   UNL A   1      34.294  22.186  24.271  1.00  0.00     0.348 HD
BRANCH  82  85
ATOM     85  C   UNL A   1      33.118  21.376  25.623  1.00  0.00     0.300 C 
BRANCH  85  86
ATOM     86  C   UNL A   1      33.411  20.079  24.889  1.00  0.00     0.025 A 
ATOM     87  C   UNL A   1      32.337  19.361  24.330  1.00  0.00     0.014 A 
ATOM     88  C   UNL A   1      34.703  19.519  24.804  1.00  0.00     0.052 A 
ATOM     89  C   UNL A   1      32.537  18.104  23.757  1.00  0.00     0.040 A 
ATOM     90  C   UNL A   1      34.896  18.254  24.245  1.00  0.00     0.060 A 
ATOM     91  Cl  UNL A   1      36.115  20.338  25.376  1.00  0.00    -0.084 Cl
ATOM     92  C   UNL A   1      33.811  17.557  23.736  1.00  0.00     0.124 A 
ATOM     93  F   UNL A   1      33.998  16.339  23.213  1.00  0.00    -0.207 F 
ENDBRANCH  85  86
ENDBRANCH  82  85
ENDBRANCH  75  78
ENDBRANCH  73  74
ENDBRANCH  72  73
ENDBRANCH   1  72
TORSDOF 16
ENDMDL
MODEL 3
REMARK VINA RESULT:     -10.7      4.982      8.141
REMARK SMILES O=C(NCCCCNC(=O)[C@@H]1CCC[N@@H+](Cc2ccc(F)cc2Cl)C1)c1ccc(-c2c3nc(c(-c4cccc(S(=O)(=O)[O-])c4F)c4ccc([nH]4)c(-c4cccc(S(=O)(=O)[O-])c4F)c4nc(c(-c5cccc(S(=O)(=O)[O-])c5F)c5ccc2[nH]5)C=C4)C=C3)cc1
REMARK SMILES IDX 5 1 4 2 3 3 1 4 2 5 26 7 27 8 88 9 28 10 87 11 29 12 30 13
REMARK SMILES IDX 31 14 81 15 32 16 86 17 80 18 82 19 33 20 85 21 79 22 78 23
REMARK SMILES IDX 34 25 66 26 46 27 65 28 47 29 50 30 64 31 83 32 48 33 49 34
REMARK SMILES IDX 63 36 84 37 51 38 35 39 36 40 44 41 37 42 39 43 45 44 38 45
REMARK SMILES IDX 40 46 41 47 42 48 43 49 67 50 68 51 76 52 69 53 71 54 77 55
REMARK SMILES IDX 70 56 72 57 73 58 74 59 75 60 52 61 53 62 61 63 54 64 56 65
REMARK SMILES IDX 62 66 55 67 57 68 58 69 59 70 60 71 6 72 7 73 8 74 9 75
REMARK SMILES IDX 10 77 11 78 12 79 25 80 13 81 15 82 14 83 16 85 17 86 18 87
REMARK SMILES IDX 23 88 19 89 22 90 24 91 20 92 21 93
REMARK H PARENT 3 6 82 24 50 35 8 76 15 84
REMARK Flexibility Score: inf
ROOT
ATOM      1  C   UNL A   1      31.867  28.173  25.573  1.00  0.00     0.023 C 
ENDROOT
BRANCH   1   2
ATOM      2  C   UNL A   1      33.005  29.180  25.652  1.00  0.00     0.116 C 
BRANCH   2   3
ATOM      3  N   UNL A   1      32.538  30.517  25.995  1.00  0.00    -0.352 N 
ATOM      4  O   UNL A   1      32.414  32.407  27.214  1.00  0.00    -0.269 OA
ATOM      5  C   UNL A   1      33.032  31.396  26.931  1.00  0.00     0.251 C 
ATOM      6  H   UNL A   1      31.760  30.837  25.484  1.00  0.00     0.163 HD
BRANCH   5   7
ATOM      7  C   UNL A   1      34.311  31.071  27.592  1.00  0.00     0.039 A 
ATOM      8  C   UNL A   1      34.539  29.771  28.047  1.00  0.00     0.014 A 
ATOM      9  C   UNL A   1      35.261  32.074  27.786  1.00  0.00     0.014 A 
ATOM     10  C   UNL A   1      35.646  29.510  28.836  1.00  0.00     0.010 A 
ATOM     11  C   UNL A   1      36.430  31.780  28.488  1.00  0.00     0.010 A 
ATOM     12  C   UNL A   1      36.616  30.503  29.040  1.00  0.00    -0.014 A 
BRANCH  12  13
ATOM     13  C   UNL A   1      37.861  30.141  29.752  1.00  0.00     0.031 A 
ATOM     14  C   UNL A   1      38.130  30.614  31.149  1.00  0.00     0.074 A 
ATOM     15  C   UNL A   1      38.745  29.354  29.105  1.00  0.00     0.049 A 
ATOM     16  N   UNL A   1      39.163  30.366  31.911  1.00  0.00    -0.248 NA
ATOM     17  C   UNL A   1      37.121  31.485  31.772  1.00  0.00     0.031 C 
ATOM     18  C   UNL A   1      38.586  28.875  27.728  1.00  0.00     0.029 A 
ATOM     19  N   UNL A   1      39.933  28.813  29.510  1.00  0.00    -0.354 N 
ATOM     20  C   UNL A   1      38.957  31.087  33.079  1.00  0.00     0.074 A 
ATOM     21  C   UNL A   1      37.698  31.783  32.929  1.00  0.00     0.031 C 
ATOM     22  C   UNL A   1      39.613  28.073  27.419  1.00  0.00     0.029 A 
ATOM     23  C   UNL A   1      40.536  28.039  28.546  1.00  0.00     0.049 A 
ATOM     24  H   UNL A   1      40.320  28.961  30.403  1.00  0.00     0.167 HD
ATOM     25  C   UNL A   1      39.747  31.151  34.178  1.00  0.00     0.034 A 
ATOM     26  C   UNL A   1      41.712  27.388  28.558  1.00  0.00     0.034 A 
ATOM     27  C   UNL A   1      40.978  30.418  34.323  1.00  0.00     0.049 A 
ATOM     28  C   UNL A   1      42.548  27.453  29.800  1.00  0.00     0.074 A 
ATOM     29  C   UNL A   1      41.823  30.361  35.417  1.00  0.00     0.029 A 
ATOM     30  N   UNL A   1      41.544  29.618  33.339  1.00  0.00    -0.354 N 
ATOM     31  N   UNL A   1      42.285  28.051  30.936  1.00  0.00    -0.248 NA
ATOM     32  C   UNL A   1      43.830  26.740  29.772  1.00  0.00     0.031 C 
ATOM     33  C   UNL A   1      42.908  29.541  35.087  1.00  0.00     0.029 A 
ATOM     34  C   UNL A   1      42.731  29.072  33.795  1.00  0.00     0.049 A 
ATOM     35  H   UNL A   1      41.157  29.464  32.447  1.00  0.00     0.167 HD
ATOM     36  C   UNL A   1      43.361  27.777  31.768  1.00  0.00     0.074 A 
ATOM     37  C   UNL A   1      44.265  26.931  31.011  1.00  0.00     0.031 C 
ATOM     38  C   UNL A   1      43.593  28.201  33.034  1.00  0.00     0.034 A 
BRANCH  25  39
ATOM     39  C   UNL A   1      39.291  32.021  35.321  1.00  0.00     0.023 A 
ATOM     40  C   UNL A   1      38.400  31.503  36.283  1.00  0.00     0.012 A 
ATOM     41  C   UNL A   1      39.779  33.335  35.472  1.00  0.00     0.148 A 
ATOM     42  C   UNL A   1      37.978  32.286  37.357  1.00  0.00     0.002 A 
ATOM     43  C   UNL A   1      39.385  34.096  36.567  1.00  0.00     0.091 A 
ATOM     44  F   UNL A   1      40.604  33.823  34.535  1.00  0.00    -0.205 F 
ATOM     45  C   UNL A   1      38.477  33.577  37.505  1.00  0.00     0.022 A 
BRANCH  43  46
ATOM     46  S   UNL A   1      40.033  35.743  36.877  1.00  0.00     0.127 S 
ATOM     47  O   UNL A   1      41.473  35.492  36.915  1.00  0.00    -0.237 OA
ATOM     48  O   UNL A   1      39.575  36.484  35.701  1.00  0.00    -0.237 OA
ATOM     49  O   UNL A   1      39.433  36.175  38.132  1.00  0.00    -0.744 OA
ENDBRANCH  43  46
ENDBRANCH  25  39
BRANCH  26  50
ATOM     50  C   UNL A   1      42.120  26.593  27.368  1.00  0.00     0.023 A 
ATOM     51  C   UNL A   1      42.873  27.209  26.351  1.00  0.00     0.012 A 
ATOM     52  C   UNL A   1      41.848  25.212  27.284  1.00  0.00     0.148 A 
ATOM     53  C   UNL A   1      43.339  26.465  25.266  1.00  0.00     0.002 A 
ATOM     54  C   UNL A   1      42.368  24.467  26.234  1.00  0.00     0.091 A 
ATOM     55  F   UNL A   1      41.118  24.649  28.257  1.00  0.00    -0.205 F 
ATOM     56  C   UNL A   1      43.101  25.095  25.215  1.00  0.00     0.022 A 
BRANCH  54  57
ATOM     57  S   UNL A   1      42.244  22.675  26.176  1.00  0.00     0.127 S 
ATOM     58  O   UNL A   1      40.798  22.477  26.135  1.00  0.00    -0.237 OA
ATOM     59  O   UNL A   1      42.945  22.363  24.930  1.00  0.00    -0.237 OA
ATOM     60  O   UNL A   1      42.917  22.199  27.376  1.00  0.00    -0.744 OA
ENDBRANCH  54  57
ENDBRANCH  26  50
BRANCH  38  61
ATOM     61  C   UNL A   1      44.870  27.744  33.684  1.00  0.00     0.023 A 
ATOM     62  C   UNL A   1      46.023  28.548  33.591  1.00  0.00     0.012 A 
ATOM     63  C   UNL A   1      44.912  26.551  34.429  1.00  0.00     0.148 A 
ATOM     64  C   UNL A   1      47.210  28.154  34.206  1.00  0.00     0.002 A 
ATOM     65  C   UNL A   1      46.086  26.188  35.078  1.00  0.00     0.091 A 
ATOM     66  F   UNL A   1      43.810  25.790  34.482  1.00  0.00    -0.205 F 
ATOM     67  C   UNL A   1      47.239  26.982  34.957  1.00  0.00     0.022 A 
BRANCH  65  68
ATOM     68  S   UNL A   1      46.184  24.743  36.139  1.00  0.00     0.127 S 
ATOM     69  O   UNL A   1      45.341  25.141  37.264  1.00  0.00    -0.237 OA
ATOM     70  O   UNL A   1      45.616  23.694  35.290  1.00  0.00    -0.237 OA
ATOM     71  O   UNL A   1      47.598  24.568  36.444  1.00  0.00    -0.744 OA
ENDBRANCH  65  68
ENDBRANCH  38  61
ENDBRANCH  12  13
ENDBRANCH   5   7
ENDBRANCH   2   3
ENDBRANCH   1   2
BRANCH   1  72
ATOM     72  C   UNL A   1      31.010  28.322  24.318  1.00  0.00     0.023 C 
BRANCH  72  73
ATOM     73  C   UNL A   1      31.017  27.109  23.387  1.00  0.00     0.116 C 
BRANCH  73  74
ATOM     74  N   UNL A   1      32.275  26.844  22.708  1.00  0.00    -0.356 N 
ATOM     75  C   UNL A   1      33.153  25.805  22.873  1.00  0.00     0.228 C 
ATOM     76  H   UNL A   1      32.534  27.509  22.029  1.00  0.00     0.163 HD
ATOM     77  O   UNL A   1      34.015  25.633  22.011  1.00  0.00    -0.275 OA
BRANCH  75  78
ATOM     78  C   UNL A   1      33.075  24.966  24.151  1.00  0.00     0.133 C 
ATOM     79  C   UNL A   1      34.487  24.876  24.735  1.00  0.00     0.025 C 
ATOM     80  C   UNL A   1      32.370  23.601  23.928  1.00  0.00     0.276 C 
ATOM     81  C   UNL A   1      35.146  23.536  24.518  1.00  0.00     0.062 C 
ATOM     82  N   UNL A   1      32.975  22.387  24.477  1.00  0.00    -0.330 N 
ATOM     83  C   UNL A   1      34.269  22.466  25.125  1.00  0.00     0.262 C 
ATOM     84  H   UNL A   1      33.256  22.004  23.575  1.00  0.00     0.348 HD
BRANCH  82  85
ATOM     85  C   UNL A   1      32.074  21.363  25.009  1.00  0.00     0.300 C 
BRANCH  85  86
ATOM     86  C   UNL A   1      32.373  19.954  24.526  1.00  0.00     0.025 A 
ATOM     87  C   UNL A   1      32.758  18.983  25.469  1.00  0.00     0.014 A 
ATOM     88  C   UNL A   1      32.355  19.589  23.164  1.00  0.00     0.052 A 
ATOM     89  C   UNL A   1      33.163  17.711  25.063  1.00  0.00     0.040 A 
ATOM     90  C   UNL A   1      32.779  18.321  22.759  1.00  0.00     0.060 A 
ATOM     91  Cl  UNL A   1      31.822  20.663  21.916  1.00  0.00    -0.084 Cl
ATOM     92  C   UNL A   1      33.186  17.399  23.712  1.00  0.00     0.124 A 
ATOM     93  F   UNL A   1      33.603  16.189  23.320  1.00  0.00    -0.207 F 
ENDBRANCH  85  86
ENDBRANCH  82  85
ENDBRANCH  75  78
ENDBRANCH  73  74
ENDBRANCH  72  73
ENDBRANCH   1  72
TORSDOF 16
ENDMDL
