MODEL 1
REMARK VINA RESULT:     -11.9      0.000      0.000
REMARK SMILES CC(C)[NH2+][C@@H](C(=O)NCCCCNC(=O)c1ccc(-c2c3nc(c(-c4cccc(S(=O)(=O)[O-])c4F)c4ccc([nH]4)c(-c4cccc(S(=O)(=O)[O-])c4F)c4nc(c(-c5cccc(S(=O)(=O)[O-])c5F)c5ccc2[nH]5)C=C4)C=C3)cc1)c1c[nH]c2ccc(Br)cc12
REMARK SMILES IDX 11 1 10 2 9 3 8 4 6 5 7 6 5 8 4 9 2 12 1 13 3 14 79 15 80 16
REMARK SMILES IDX 88 17 81 18 82 19 87 20 83 22 85 23 84 24 86 25 12 26 13 27
REMARK SMILES IDX 14 28 15 30 16 31 17 32 78 33 18 34 77 35 19 36 20 37 21 38
REMARK SMILES IDX 71 39 22 40 76 41 70 42 72 43 23 44 75 45 69 46 68 47 24 49
REMARK SMILES IDX 56 50 36 51 55 52 37 53 40 54 54 55 73 56 38 57 39 58 53 60
REMARK SMILES IDX 74 61 41 62 25 63 26 64 34 65 27 66 29 67 35 68 28 69 30 70
REMARK SMILES IDX 31 71 32 72 33 73 57 74 58 75 66 76 59 77 61 78 67 79 60 80
REMARK SMILES IDX 62 81 63 82 64 83 65 84 42 85 43 86 51 87 44 88 46 89 52 90
REMARK SMILES IDX 45 91 47 92 48 93 49 94 50 95
REMARK H PARENT 8 7 4 10 4 11 81 21 13 29 72 48 40 59
REMARK Flexibility Score: inf
ROOT
ATOM      1  C   UNL A   1      31.830  28.234  25.433  1.00  0.00     0.023 C 
ENDROOT
BRANCH   1   2
ATOM      2  C   UNL A   1      31.312  27.076  26.278  1.00  0.00     0.023 C 
BRANCH   2   3
ATOM      3  C   UNL A   1      30.274  26.139  25.621  1.00  0.00     0.116 C 
BRANCH   3   4
ATOM      4  N   UNL A   1      29.984  24.901  26.331  1.00  0.00    -0.351 N 
ATOM      5  C   UNL A   1      30.720  23.787  26.652  1.00  0.00     0.283 C 
ATOM      6  O   UNL A   1      30.224  23.088  27.545  1.00  0.00    -0.268 OA
ATOM      7  H   UNL A   1      29.055  24.852  26.652  1.00  0.00     0.163 HD
BRANCH   5   8
ATOM      8  C   UNL A   1      32.111  23.464  26.053  1.00  0.00     0.306 C 
BRANCH   8   9
ATOM      9  N   UNL A   1      32.218  23.237  24.588  1.00  0.00    -0.330 N 
ATOM     10  H   UNL A   1      32.421  22.244  24.470  1.00  0.00     0.347 HD
ATOM     11  H   UNL A   1      31.330  23.614  24.255  1.00  0.00     0.347 HD
BRANCH   9  12
ATOM     12  C   UNL A   1      33.168  23.942  23.753  1.00  0.00     0.176 C 
ATOM     13  C   UNL A   1      33.840  25.059  24.555  1.00  0.00     0.075 C 
ATOM     14  C   UNL A   1      34.216  23.194  22.934  1.00  0.00     0.075 C 
ENDBRANCH   9  12
ENDBRANCH   8   9
BRANCH   8  15
ATOM     15  C   UNL A   1      32.917  22.304  26.669  1.00  0.00     0.044 A 
ATOM     16  C   UNL A   1      33.723  22.480  27.811  1.00  0.00     0.094 A 
ATOM     17  C   UNL A   1      33.625  21.222  26.037  1.00  0.00     0.010 A 
ATOM     18  N   UNL A   1      34.960  22.605  27.137  1.00  0.00    -0.361 N 
ATOM     19  C   UNL A   1      34.975  21.558  26.224  1.00  0.00     0.046 A 
ATOM     20  C   UNL A   1      33.330  20.080  25.270  1.00  0.00     0.026 A 
ATOM     21  H   UNL A   1      35.658  23.285  27.282  1.00  0.00     0.166 HD
ATOM     22  C   UNL A   1      36.027  20.966  25.529  1.00  0.00     0.028 A 
ATOM     23  C   UNL A   1      34.403  19.340  24.748  1.00  0.00     0.018 A 
ATOM     24  C   UNL A   1      35.717  19.807  24.817  1.00  0.00     0.018 A 
ATOM     25  Br  UNL A   1      34.082  17.636  23.985  1.00  0.00    -0.051 Br
ENDBRANCH   8  15
ENDBRANCH   5   8
ENDBRANCH   3   4
ENDBRANCH   2   3
ENDBRANCH   1   2
BRANCH   1  26
ATOM     26  C   UNL A   1      32.856  29.064  26.173  1.00  0.00     0.116 C 
BRANCH  26  27
ATOM     27  N   UNL A   1      32.381  30.422  26.440  1.00  0.00    -0.352 N 
ATOM     28  C   UNL A   1      33.010  31.430  27.138  1.00  0.00     0.251 C 
ATOM     29  H   UNL A   1      31.495  30.645  26.073  1.00  0.00     0.163 HD
ATOM     30  O   UNL A   1      32.438  32.477  27.382  1.00  0.00    -0.269 OA
BRANCH  28  31
ATOM     31  C   UNL A   1      34.385  31.182  27.615  1.00  0.00     0.039 A 
ATOM     32  C   UNL A   1      35.289  32.246  27.679  1.00  0.00     0.014 A 
ATOM     33  C   UNL A   1      34.726  29.920  28.100  1.00  0.00     0.014 A 
ATOM     34  C   UNL A   1      36.520  32.056  28.307  1.00  0.00     0.010 A 
ATOM     35  C   UNL A   1      35.898  29.767  28.819  1.00  0.00     0.010 A 
ATOM     36  C   UNL A   1      36.813  30.828  28.916  1.00  0.00    -0.014 A 
BRANCH  36  37
ATOM     37  C   UNL A   1      38.076  30.581  29.650  1.00  0.00     0.031 A 
ATOM     38  C   UNL A   1      39.082  29.631  29.061  1.00  0.00     0.074 A 
ATOM     39  C   UNL A   1      38.238  31.066  30.895  1.00  0.00     0.049 A 
ATOM     40  N   UNL A   1      40.139  29.101  29.610  1.00  0.00    -0.248 NA
ATOM     41  C   UNL A   1      38.822  29.168  27.686  1.00  0.00     0.031 C 
ATOM     42  C   UNL A   1      37.282  31.919  31.604  1.00  0.00     0.029 A 
ATOM     43  N   UNL A   1      39.244  30.863  31.807  1.00  0.00    -0.354 N 
ATOM     44  C   UNL A   1      40.626  28.189  28.683  1.00  0.00     0.074 A 
ATOM     45  C   UNL A   1      39.728  28.213  27.550  1.00  0.00     0.031 C 
ATOM     46  C   UNL A   1      37.738  32.151  32.846  1.00  0.00     0.029 A 
ATOM     47  C   UNL A   1      38.997  31.438  33.032  1.00  0.00     0.049 A 
ATOM     48  H   UNL A   1      40.062  30.355  31.604  1.00  0.00     0.167 HD
ATOM     49  C   UNL A   1      41.737  27.422  28.754  1.00  0.00     0.034 A 
ATOM     50  C   UNL A   1      39.697  31.375  34.182  1.00  0.00     0.034 A 
ATOM     51  C   UNL A   1      42.661  27.469  29.851  1.00  0.00     0.049 A 
ATOM     52  C   UNL A   1      40.985  30.599  34.206  1.00  0.00     0.074 A 
ATOM     53  C   UNL A   1      43.887  26.842  29.972  1.00  0.00     0.029 A 
ATOM     54  N   UNL A   1      42.458  28.189  31.020  1.00  0.00    -0.354 N 
ATOM     55  N   UNL A   1      41.525  29.874  33.256  1.00  0.00    -0.248 NA
ATOM     56  C   UNL A   1      41.781  30.662  35.439  1.00  0.00     0.031 C 
ATOM     57  C   UNL A   1      44.420  27.172  31.224  1.00  0.00     0.029 A 
ATOM     58  C   UNL A   1      43.535  28.021  31.871  1.00  0.00     0.049 A 
ATOM     59  H   UNL A   1      41.666  28.738  31.213  1.00  0.00     0.167 HD
ATOM     60  C   UNL A   1      42.738  29.421  33.761  1.00  0.00     0.074 A 
ATOM     61  C   UNL A   1      42.859  29.965  35.099  1.00  0.00     0.031 C 
ATOM     62  C   UNL A   1      43.662  28.620  33.175  1.00  0.00     0.034 A 
BRANCH  49  63
ATOM     63  C   UNL A   1      42.031  26.513  27.589  1.00  0.00     0.023 A 
ATOM     64  C   UNL A   1      42.658  27.033  26.437  1.00  0.00     0.012 A 
ATOM     65  C   UNL A   1      41.698  25.146  27.634  1.00  0.00     0.148 A 
ATOM     66  C   UNL A   1      42.897  26.222  25.329  1.00  0.00     0.002 A 
ATOM     67  C   UNL A   1      41.986  24.332  26.544  1.00  0.00     0.091 A 
ATOM     68  F   UNL A   1      41.078  24.671  28.724  1.00  0.00    -0.205 F 
ATOM     69  C   UNL A   1      42.569  24.870  25.387  1.00  0.00     0.022 A 
BRANCH  67  70
ATOM     70  S   UNL A   1      41.676  22.563  26.563  1.00  0.00     0.127 S 
ATOM     71  O   UNL A   1      40.216  22.518  26.618  1.00  0.00    -0.237 OA
ATOM     72  O   UNL A   1      42.249  22.133  25.286  1.00  0.00    -0.237 OA
ATOM     73  O   UNL A   1      42.371  22.052  27.735  1.00  0.00    -0.744 OA
ENDBRANCH  67  70
ENDBRANCH  49  63
BRANCH  50  74
ATOM     74  C   UNL A   1      39.216  32.131  35.372  1.00  0.00     0.023 A 
ATOM     75  C   UNL A   1      38.381  31.488  36.306  1.00  0.00     0.012 A 
ATOM     76  C   UNL A   1      39.650  33.446  35.628  1.00  0.00     0.148 A 
ATOM     77  C   UNL A   1      37.969  32.149  37.465  1.00  0.00     0.002 A 
ATOM     78  C   UNL A   1      39.281  34.079  36.810  1.00  0.00     0.091 A 
ATOM     79  F   UNL A   1      40.443  34.039  34.724  1.00  0.00    -0.205 F 
ATOM     80  C   UNL A   1      38.428  33.437  37.722  1.00  0.00     0.022 A 
BRANCH  78  81
ATOM     81  S   UNL A   1      39.932  35.680  37.297  1.00  0.00     0.127 S 
ATOM     82  O   UNL A   1      41.354  35.390  37.453  1.00  0.00    -0.237 OA
ATOM     83  O   UNL A   1      39.594  36.505  36.136  1.00  0.00    -0.237 OA
ATOM     84  O   UNL A   1      39.224  36.039  38.519  1.00  0.00    -0.744 OA
ENDBRANCH  78  81
ENDBRANCH  50  74
BRANCH  62  85
ATOM     85  C   UNL A   1      44.915  28.309  33.947  1.00  0.00     0.023 A 
ATOM     86  C   UNL A   1      46.011  29.192  33.890  1.00  0.00     0.012 A 
ATOM     87  C   UNL A   1      44.956  27.205  34.821  1.00  0.00     0.148 A 
ATOM     88  C   UNL A   1      47.137  28.970  34.681  1.00  0.00     0.002 A 
ATOM     89  C   UNL A   1      46.062  27.017  35.641  1.00  0.00     0.091 A 
ATOM     90  F   UNL A   1      43.909  26.368  34.844  1.00  0.00    -0.205 F 
ATOM     91  C   UNL A   1      47.157  27.893  35.565  1.00  0.00     0.022 A 
BRANCH  89  92
ATOM     92  S   UNL A   1      46.131  25.719  36.881  1.00  0.00     0.127 S 
ATOM     93  O   UNL A   1      44.879  25.932  37.604  1.00  0.00    -0.237 OA
ATOM     94  O   UNL A   1      46.163  24.508  36.060  1.00  0.00    -0.237 OA
ATOM     95  O   UNL A   1      47.345  25.961  37.650  1.00  0.00    -0.744 OA
ENDBRANCH  89  92
ENDBRANCH  62  85
ENDBRANCH  36  37
ENDBRANCH  28  31
ENDBRANCH  26  27
ENDBRANCH   1  26
TORSDOF 17
ENDMDL
MODEL 2
REMARK VINA RESULT:     -11.8      5.304      9.875
REMARK SMILES CC(C)[NH2+][C@@H](C(=O)NCCCCNC(=O)c1ccc(-c2c3nc(c(-c4cccc(S(=O)(=O)[O-])c4F)c4ccc([nH]4)c(-c4cccc(S(=O)(=O)[O-])c4F)c4nc(c(-c5cccc(S(=O)(=O)[O-])c5F)c5ccc2[nH]5)C=C4)C=C3)cc1)c1c[nH]c2ccc(Br)cc12
REMARK SMILES IDX 11 1 10 2 9 3 8 4 6 5 7 6 5 8 4 9 2 12 1 13 3 14 79 15 80 16
REMARK SMILES IDX 88 17 81 18 82 19 87 20 83 22 85 23 84 24 86 25 12 26 13 27
REMARK SMILES IDX 14 28 15 30 16 31 17 32 78 33 18 34 77 35 19 36 20 37 21 38
REMARK SMILES IDX 71 39 22 40 76 41 70 42 72 43 23 44 75 45 69 46 68 47 24 49
REMARK SMILES IDX 56 50 36 51 55 52 37 53 40 54 54 55 73 56 38 57 39 58 53 60
REMARK SMILES IDX 74 61 41 62 25 63 26 64 34 65 27 66 29 67 35 68 28 69 30 70
REMARK SMILES IDX 31 71 32 72 33 73 57 74 58 75 66 76 59 77 61 78 67 79 60 80
REMARK SMILES IDX 62 81 63 82 64 83 65 84 42 85 43 86 51 87 44 88 46 89 52 90
REMARK SMILES IDX 45 91 47 92 48 93 49 94 50 95
REMARK H PARENT 8 7 4 10 4 11 81 21 13 29 72 48 40 59
REMARK Flexibility Score: inf
ROOT
ATOM      1  C   UNL A   1      35.075  22.083  24.971  1.00  0.00     0.023 C 
ENDROOT
BRANCH   1   2
ATOM      2  C   UNL A   1      34.046  21.356  25.829  1.00  0.00     0.023 C 
BRANCH   2   3
ATOM      3  C   UNL A   1      33.844  21.873  27.271  1.00  0.00     0.116 C 
BRANCH   3   4
ATOM      4  N   UNL A   1      32.498  22.310  27.615  1.00  0.00    -0.351 N 
ATOM      5  C   UNL A   1      31.614  23.208  27.069  1.00  0.00     0.283 C 
ATOM      6  O   UNL A   1      30.445  23.067  27.449  1.00  0.00    -0.268 OA
ATOM      7  H   UNL A   1      32.144  21.863  28.418  1.00  0.00     0.163 HD
BRANCH   5   8
ATOM      8  C   UNL A   1      31.991  24.245  25.982  1.00  0.00     0.306 C 
BRANCH   8   9
ATOM      9  N   UNL A   1      32.173  25.664  26.386  1.00  0.00    -0.330 N 
ATOM     10  H   UNL A   1      31.393  26.176  25.974  1.00  0.00     0.347 HD
ATOM     11  H   UNL A   1      32.245  25.582  27.400  1.00  0.00     0.347 HD
BRANCH   9  12
ATOM     12  C   UNL A   1      33.364  26.423  26.067  1.00  0.00     0.176 C 
ATOM     13  C   UNL A   1      34.388  25.521  25.374  1.00  0.00     0.075 C 
ATOM     14  C   UNL A   1      33.282  27.762  25.340  1.00  0.00     0.075 C 
ENDBRANCH   9  12
ENDBRANCH   8   9
BRANCH   8  15
ATOM     15  C   UNL A   1      31.112  24.326  24.720  1.00  0.00     0.044 A 
ATOM     16  C   UNL A   1      31.180  23.357  23.699  1.00  0.00     0.094 A 
ATOM     17  C   UNL A   1      30.699  25.466  23.943  1.00  0.00     0.010 A 
ATOM     18  N   UNL A   1      32.014  24.084  22.819  1.00  0.00    -0.361 N 
ATOM     19  C   UNL A   1      31.455  25.353  22.766  1.00  0.00     0.046 A 
ATOM     20  C   UNL A   1      29.884  26.602  24.097  1.00  0.00     0.026 A 
ATOM     21  H   UNL A   1      32.817  23.760  22.348  1.00  0.00     0.166 HD
ATOM     22  C   UNL A   1      31.616  26.386  21.844  1.00  0.00     0.028 A 
ATOM     23  C   UNL A   1      29.867  27.549  23.061  1.00  0.00     0.018 A 
ATOM     24  C   UNL A   1      30.761  27.479  21.990  1.00  0.00     0.018 A 
ATOM     25  Br  UNL A   1      28.565  28.924  23.069  1.00  0.00    -0.051 Br
ENDBRANCH   8  15
ENDBRANCH   5   8
ENDBRANCH   3   4
ENDBRANCH   2   3
ENDBRANCH   1   2
BRANCH   1  26
ATOM     26  C   UNL A   1      36.382  22.291  25.704  1.00  0.00     0.116 C 
BRANCH  26  27
ATOM     27  N   UNL A   1      37.314  21.183  25.500  1.00  0.00    -0.352 N 
ATOM     28  C   UNL A   1      38.664  21.135  25.771  1.00  0.00     0.251 C 
ATOM     29  H   UNL A   1      36.927  20.362  25.118  1.00  0.00     0.163 HD
ATOM     30  O   UNL A   1      39.339  20.179  25.436  1.00  0.00    -0.269 OA
BRANCH  28  31
ATOM     31  C   UNL A   1      39.273  22.300  26.444  1.00  0.00     0.039 A 
ATOM     32  C   UNL A   1      40.291  22.095  27.378  1.00  0.00     0.014 A 
ATOM     33  C   UNL A   1      38.904  23.587  26.055  1.00  0.00     0.014 A 
ATOM     34  C   UNL A   1      40.995  23.194  27.869  1.00  0.00     0.010 A 
ATOM     35  C   UNL A   1      39.677  24.662  26.456  1.00  0.00     0.010 A 
ATOM     36  C   UNL A   1      40.719  24.479  27.379  1.00  0.00    -0.014 A 
BRANCH  36  37
ATOM     37  C   UNL A   1      41.471  25.679  27.814  1.00  0.00     0.031 A 
ATOM     38  C   UNL A   1      40.741  26.758  28.563  1.00  0.00     0.074 A 
ATOM     39  C   UNL A   1      42.736  25.870  27.396  1.00  0.00     0.049 A 
ATOM     40  N   UNL A   1      41.125  27.971  28.851  1.00  0.00    -0.248 NA
ATOM     41  C   UNL A   1      39.364  26.446  28.990  1.00  0.00     0.031 C 
ATOM     42  C   UNL A   1      43.511  24.932  26.581  1.00  0.00     0.029 A 
ATOM     43  N   UNL A   1      43.574  26.945  27.553  1.00  0.00    -0.354 N 
ATOM     44  C   UNL A   1      40.020  28.589  29.420  1.00  0.00     0.074 A 
ATOM     45  C   UNL A   1      38.940  27.629  29.406  1.00  0.00     0.031 C 
ATOM     46  C   UNL A   1      44.703  25.480  26.295  1.00  0.00     0.029 A 
ATOM     47  C   UNL A   1      44.764  26.818  26.875  1.00  0.00     0.049 A 
ATOM     48  H   UNL A   1      43.346  27.732  28.099  1.00  0.00     0.167 HD
ATOM     49  C   UNL A   1      39.921  29.836  29.936  1.00  0.00     0.034 A 
ATOM     50  C   UNL A   1      45.777  27.692  26.718  1.00  0.00     0.034 A 
ATOM     51  C   UNL A   1      41.025  30.749  30.016  1.00  0.00     0.049 A 
ATOM     52  C   UNL A   1      45.688  29.035  27.390  1.00  0.00     0.074 A 
ATOM     53  C   UNL A   1      41.080  31.982  30.638  1.00  0.00     0.029 A 
ATOM     54  N   UNL A   1      42.273  30.524  29.453  1.00  0.00    -0.354 N 
ATOM     55  N   UNL A   1      44.694  29.545  28.078  1.00  0.00    -0.248 NA
ATOM     56  C   UNL A   1      46.866  29.907  27.302  1.00  0.00     0.031 C 
ATOM     57  C   UNL A   1      42.360  32.510  30.438  1.00  0.00     0.029 A 
ATOM     58  C   UNL A   1      43.107  31.596  29.710  1.00  0.00     0.049 A 
ATOM     59  H   UNL A   1      42.527  29.720  28.946  1.00  0.00     0.167 HD
ATOM     60  C   UNL A   1      45.137  30.780  28.533  1.00  0.00     0.074 A 
ATOM     61  C   UNL A   1      46.495  30.937  28.053  1.00  0.00     0.031 C 
ATOM     62  C   UNL A   1      44.476  31.705  29.272  1.00  0.00     0.034 A 
BRANCH  49  63
ATOM     63  C   UNL A   1      38.586  30.251  30.499  1.00  0.00     0.023 A 
ATOM     64  C   UNL A   1      38.252  29.915  31.828  1.00  0.00     0.012 A 
ATOM     65  C   UNL A   1      37.667  30.980  29.721  1.00  0.00     0.148 A 
ATOM     66  C   UNL A   1      37.005  30.248  32.354  1.00  0.00     0.002 A 
ATOM     67  C   UNL A   1      36.445  31.354  30.270  1.00  0.00     0.091 A 
ATOM     68  F   UNL A   1      37.987  31.269  28.451  1.00  0.00    -0.205 F 
ATOM     69  C   UNL A   1      36.106  30.975  31.578  1.00  0.00     0.022 A 
BRANCH  67  70
ATOM     70  S   UNL A   1      35.261  32.363  29.373  1.00  0.00     0.127 S 
ATOM     71  O   UNL A   1      34.710  31.399  28.423  1.00  0.00    -0.237 OA
ATOM     72  O   UNL A   1      34.336  32.772  30.431  1.00  0.00    -0.237 OA
ATOM     73  O   UNL A   1      36.031  33.454  28.794  1.00  0.00    -0.744 OA
ENDBRANCH  67  70
ENDBRANCH  49  63
BRANCH  50  74
ATOM     74  C   UNL A   1      46.985  27.281  25.949  1.00  0.00     0.023 A 
ATOM     75  C   UNL A   1      47.900  26.383  26.531  1.00  0.00     0.012 A 
ATOM     76  C   UNL A   1      47.186  27.705  24.621  1.00  0.00     0.148 A 
ATOM     77  C   UNL A   1      49.005  25.926  25.810  1.00  0.00     0.002 A 
ATOM     78  C   UNL A   1      48.258  27.205  23.891  1.00  0.00     0.091 A 
ATOM     79  F   UNL A   1      46.304  28.562  24.089  1.00  0.00    -0.205 F 
ATOM     80  C   UNL A   1      49.178  26.327  24.488  1.00  0.00     0.022 A 
BRANCH  78  81
ATOM     81  S   UNL A   1      48.487  27.551  22.143  1.00  0.00     0.127 S 
ATOM     82  O   UNL A   1      48.725  26.215  21.602  1.00  0.00    -0.237 OA
ATOM     83  O   UNL A   1      47.196  28.141  21.785  1.00  0.00    -0.237 OA
ATOM     84  O   UNL A   1      49.613  28.471  22.067  1.00  0.00    -0.744 OA
ENDBRANCH  78  81
ENDBRANCH  50  74
BRANCH  62  85
ATOM     85  C   UNL A   1      45.214  32.959  29.655  1.00  0.00     0.023 A 
ATOM     86  C   UNL A   1      46.016  32.974  30.813  1.00  0.00     0.012 A 
ATOM     87  C   UNL A   1      45.205  34.079  28.801  1.00  0.00     0.148 A 
ATOM     88  C   UNL A   1      46.787  34.094  31.122  1.00  0.00     0.002 A 
ATOM     89  C   UNL A   1      46.012  35.172  29.091  1.00  0.00     0.091 A 
ATOM     90  F   UNL A   1      44.419  34.048  27.715  1.00  0.00    -0.205 F 
ATOM     91  C   UNL A   1      46.796  35.185  30.256  1.00  0.00     0.022 A 
BRANCH  89  92
ATOM     92  S   UNL A   1      46.165  36.576  27.981  1.00  0.00     0.127 S 
ATOM     93  O   UNL A   1      44.823  37.150  28.040  1.00  0.00    -0.237 OA
ATOM     94  O   UNL A   1      47.202  37.376  28.634  1.00  0.00    -0.237 OA
ATOM     95  O   UNL A   1      46.552  36.026  26.688  1.00  0.00    -0.744 OA
ENDBRANCH  89  92
ENDBRANCH  62  85
ENDBRANCH  36  37
ENDBRANCH  28  31
ENDBRANCH  26  27
ENDBRANCH   1  26
TORSDOF 17
ENDMDL
MODEL 3
REMARK VINA RESULT:     -11.6      4.602      7.958
REMARK SMILES CC(C)[NH2+][C@@H](C(=O)NCCCCNC(=O)c1ccc(-c2c3nc(c(-c4cccc(S(=O)(=O)[O-])c4F)c4ccc([nH]4)c(-c4cccc(S(=O)(=O)[O-])c4F)c4nc(c(-c5cccc(S(=O)(=O)[O-])c5F)c5ccc2[nH]5)C=C4)C=C3)cc1)c1c[nH]c2ccc(Br)cc12
REMARK SMILES IDX 11 1 10 2 9 3 8 4 6 5 7 6 5 8 4 9 2 12 1 13 3 14 79 15 80 16
REMARK SMILES IDX 88 17 81 18 82 19 87 20 83 22 85 23 84 24 86 25 12 26 13 27
REMARK SMILES IDX 14 28 15 30 16 31 17 32 78 33 18 34 77 35 19 36 20 37 21 38
REMARK SMILES IDX 71 39 22 40 76 41 70 42 72 43 23 44 75 45 69 46 68 47 24 49
REMARK SMILES IDX 56 50 36 51 55 52 37 53 40 54 54 55 73 56 38 57 39 58 53 60
REMARK SMILES IDX 74 61 41 62 25 63 26 64 34 65 27 66 29 67 35 68 28 69 30 70
REMARK SMILES IDX 31 71 32 72 33 73 57 74 58 75 66 76 59 77 61 78 67 79 60 80
REMARK SMILES IDX 62 81 63 82 64 83 65 84 42 85 43 86 51 87 44 88 46 89 52 90
REMARK SMILES IDX 45 91 47 92 48 93 49 94 50 95
REMARK H PARENT 8 7 4 10 4 11 81 21 13 29 72 48 40 59
REMARK Flexibility Score: inf
ROOT
ATOM      1  C   UNL A   1      36.322  22.202  24.576  1.00  0.00     0.023 C 
ENDROOT
BRANCH   1   2
ATOM      2  C   UNL A   1      35.786  20.840  25.000  1.00  0.00     0.023 C 
BRANCH   2   3
ATOM      3  C   UNL A   1      34.284  20.756  25.355  1.00  0.00     0.116 C 
BRANCH   3   4
ATOM      4  N   UNL A   1      33.872  21.433  26.576  1.00  0.00    -0.351 N 
ATOM      5  C   UNL A   1      33.080  22.521  26.848  1.00  0.00     0.283 C 
ATOM      6  O   UNL A   1      32.700  22.594  28.024  1.00  0.00    -0.268 OA
ATOM      7  H   UNL A   1      34.245  21.018  27.388  1.00  0.00     0.163 HD
BRANCH   5   8
ATOM      8  C   UNL A   1      32.587  23.524  25.776  1.00  0.00     0.306 C 
BRANCH   8   9
ATOM      9  N   UNL A   1      33.598  24.244  24.959  1.00  0.00    -0.330 N 
ATOM     10  H   UNL A   1      33.529  25.226  25.226  1.00  0.00     0.347 HD
ATOM     11  H   UNL A   1      34.447  23.720  25.173  1.00  0.00     0.347 HD
BRANCH   9  12
ATOM     12  C   UNL A   1      33.597  24.221  23.511  1.00  0.00     0.176 C 
ATOM     13  C   UNL A   1      32.599  23.176  23.007  1.00  0.00     0.075 C 
ATOM     14  C   UNL A   1      33.455  25.503  22.696  1.00  0.00     0.075 C 
ENDBRANCH   9  12
ENDBRANCH   8   9
BRANCH   8  15
ATOM     15  C   UNL A   1      31.605  24.628  26.211  1.00  0.00     0.044 A 
ATOM     16  C   UNL A   1      30.208  24.455  26.141  1.00  0.00     0.094 A 
ATOM     17  C   UNL A   1      31.678  26.057  26.052  1.00  0.00     0.010 A 
ATOM     18  N   UNL A   1      30.004  25.147  24.925  1.00  0.00    -0.361 N 
ATOM     19  C   UNL A   1      30.719  26.328  25.064  1.00  0.00     0.046 A 
ATOM     20  C   UNL A   1      32.463  27.127  26.521  1.00  0.00     0.026 A 
ATOM     21  H   UNL A   1      29.471  24.855  24.149  1.00  0.00     0.166 HD
ATOM     22  C   UNL A   1      30.640  27.533  24.368  1.00  0.00     0.028 A 
ATOM     23  C   UNL A   1      32.232  28.402  25.981  1.00  0.00     0.018 A 
ATOM     24  C   UNL A   1      31.389  28.591  24.883  1.00  0.00     0.018 A 
ATOM     25  Br  UNL A   1      33.026  29.920  26.789  1.00  0.00    -0.051 Br
ENDBRANCH   8  15
ENDBRANCH   5   8
ENDBRANCH   3   4
ENDBRANCH   2   3
ENDBRANCH   1   2
BRANCH   1  26
ATOM     26  C   UNL A   1      37.083  22.886  25.691  1.00  0.00     0.116 C 
BRANCH  26  27
ATOM     27  N   UNL A   1      38.239  22.106  26.131  1.00  0.00    -0.352 N 
ATOM     28  C   UNL A   1      39.417  22.556  26.689  1.00  0.00     0.251 C 
ATOM     29  H   UNL A   1      38.169  21.131  26.013  1.00  0.00     0.163 HD
ATOM     30  O   UNL A   1      40.344  21.796  26.897  1.00  0.00    -0.269 OA
BRANCH  28  31
ATOM     31  C   UNL A   1      39.531  23.998  26.986  1.00  0.00     0.039 A 
ATOM     32  C   UNL A   1      39.265  24.452  28.280  1.00  0.00     0.014 A 
ATOM     33  C   UNL A   1      40.009  24.865  26.004  1.00  0.00     0.014 A 
ATOM     34  C   UNL A   1      39.557  25.776  28.610  1.00  0.00     0.010 A 
ATOM     35  C   UNL A   1      40.401  26.142  26.364  1.00  0.00     0.010 A 
ATOM     36  C   UNL A   1      40.165  26.615  27.665  1.00  0.00    -0.014 A 
BRANCH  36  37
ATOM     37  C   UNL A   1      40.554  28.012  27.970  1.00  0.00     0.031 A 
ATOM     38  C   UNL A   1      42.013  28.374  27.970  1.00  0.00     0.074 A 
ATOM     39  C   UNL A   1      39.629  28.889  28.405  1.00  0.00     0.049 A 
ATOM     40  N   UNL A   1      42.597  29.454  28.410  1.00  0.00    -0.248 NA
ATOM     41  C   UNL A   1      42.944  27.350  27.462  1.00  0.00     0.031 C 
ATOM     42  C   UNL A   1      38.197  28.615  28.539  1.00  0.00     0.029 A 
ATOM     43  N   UNL A   1      39.768  30.173  28.868  1.00  0.00    -0.354 N 
ATOM     44  C   UNL A   1      43.960  29.211  28.303  1.00  0.00     0.074 A 
ATOM     45  C   UNL A   1      44.116  27.869  27.790  1.00  0.00     0.031 C 
ATOM     46  C   UNL A   1      37.592  29.692  29.067  1.00  0.00     0.029 A 
ATOM     47  C   UNL A   1      38.595  30.716  29.340  1.00  0.00     0.049 A 
ATOM     48  H   UNL A   1      40.624  30.659  28.864  1.00  0.00     0.167 HD
ATOM     49  C   UNL A   1      44.991  30.043  28.580  1.00  0.00     0.034 A 
ATOM     50  C   UNL A   1      38.362  31.896  29.947  1.00  0.00     0.034 A 
ATOM     51  C   UNL A   1      44.818  31.400  29.013  1.00  0.00     0.049 A 
ATOM     52  C   UNL A   1      39.509  32.847  30.149  1.00  0.00     0.074 A 
ATOM     53  C   UNL A   1      45.780  32.376  29.192  1.00  0.00     0.029 A 
ATOM     54  N   UNL A   1      43.596  31.973  29.333  1.00  0.00    -0.354 N 
ATOM     55  N   UNL A   1      40.781  32.669  29.883  1.00  0.00    -0.248 NA
ATOM     56  C   UNL A   1      39.190  34.173  30.696  1.00  0.00     0.031 C 
ATOM     57  C   UNL A   1      45.139  33.538  29.636  1.00  0.00     0.029 A 
ATOM     58  C   UNL A   1      43.776  33.290  29.712  1.00  0.00     0.049 A 
ATOM     59  H   UNL A   1      42.728  31.510  29.295  1.00  0.00     0.167 HD
ATOM     60  C   UNL A   1      41.410  33.868  30.196  1.00  0.00     0.074 A 
ATOM     61  C   UNL A   1      40.375  34.770  30.661  1.00  0.00     0.031 C 
ATOM     62  C   UNL A   1      42.725  34.189  30.116  1.00  0.00     0.034 A 
BRANCH  49  63
ATOM     63  C   UNL A   1      46.386  29.514  28.369  1.00  0.00     0.023 A 
ATOM     64  C   UNL A   1      47.008  29.666  27.111  1.00  0.00     0.012 A 
ATOM     65  C   UNL A   1      47.086  28.879  29.411  1.00  0.00     0.148 A 
ATOM     66  C   UNL A   1      48.280  29.144  26.879  1.00  0.00     0.002 A 
ATOM     67  C   UNL A   1      48.375  28.407  29.187  1.00  0.00     0.091 A 
ATOM     68  F   UNL A   1      46.473  28.718  30.593  1.00  0.00    -0.205 F 
ATOM     69  C   UNL A   1      48.966  28.523  27.919  1.00  0.00     0.022 A 
BRANCH  67  70
ATOM     70  S   UNL A   1      49.365  27.669  30.491  1.00  0.00     0.127 S 
ATOM     71  O   UNL A   1      48.605  26.457  30.791  1.00  0.00    -0.237 OA
ATOM     72  O   UNL A   1      50.643  27.434  29.817  1.00  0.00    -0.237 OA
ATOM     73  O   UNL A   1      49.420  28.662  31.554  1.00  0.00    -0.744 OA
ENDBRANCH  67  70
ENDBRANCH  49  63
BRANCH  50  74
ATOM     74  C   UNL A   1      36.969  32.256  30.333  1.00  0.00     0.023 A 
ATOM     75  C   UNL A   1      36.536  32.018  31.651  1.00  0.00     0.012 A 
ATOM     76  C   UNL A   1      36.105  32.908  29.432  1.00  0.00     0.148 A 
ATOM     77  C   UNL A   1      35.259  32.406  32.062  1.00  0.00     0.002 A 
ATOM     78  C   UNL A   1      34.855  33.341  29.863  1.00  0.00     0.091 A 
ATOM     79  F   UNL A   1      36.537  33.123  28.182  1.00  0.00    -0.205 F 
ATOM     80  C   UNL A   1      34.425  33.077  31.173  1.00  0.00     0.022 A 
BRANCH  78  81
ATOM     81  S   UNL A   1      33.766  34.335  28.836  1.00  0.00     0.127 S 
ATOM     82  O   UNL A   1      34.668  35.387  28.376  1.00  0.00    -0.237 OA
ATOM     83  O   UNL A   1      33.364  33.373  27.809  1.00  0.00    -0.237 OA
ATOM     84  O   UNL A   1      32.686  34.769  29.713  1.00  0.00    -0.744 OA
ENDBRANCH  78  81
ENDBRANCH  50  74
BRANCH  62  85
ATOM     85  C   UNL A   1      43.133  35.587  30.494  1.00  0.00     0.023 A 
ATOM     86  C   UNL A   1      43.585  35.855  31.800  1.00  0.00     0.012 A 
ATOM     87  C   UNL A   1      43.180  36.602  29.519  1.00  0.00     0.148 A 
ATOM     88  C   UNL A   1      44.065  37.121  32.135  1.00  0.00     0.002 A 
ATOM     89  C   UNL A   1      43.703  37.847  29.847  1.00  0.00     0.091 A 
ATOM     90  F   UNL A   1      42.727  36.328  28.288  1.00  0.00    -0.205 F 
ATOM     91  C   UNL A   1      44.137  38.110  31.157  1.00  0.00     0.022 A 
BRANCH  89  92
ATOM     92  S   UNL A   1      43.931  39.146  28.628  1.00  0.00     0.127 S 
ATOM     93  O   UNL A   1      42.549  39.486  28.294  1.00  0.00    -0.237 OA
ATOM     94  O   UNL A   1      44.643  40.169  29.395  1.00  0.00    -0.237 OA
ATOM     95  O   UNL A   1      44.705  38.553  27.546  1.00  0.00    -0.744 OA
ENDBRANCH  89  92
ENDBRANCH  62  85
ENDBRANCH  36  37
ENDBRANCH  28  31
ENDBRANCH  26  27
ENDBRANCH   1  26
TORSDOF 17
ENDMDL
