MODEL 1
REMARK VINA RESULT:     -13.1      0.000      0.000
REMARK SMILES CC[C@H](C)N1C(=O)c2ccccc2[C@@H](C(=O)NCCCCNC(=O)c2ccc(-c3c4nc(c(-c5cccc(S(=O)(=O)[O-])c5F)c5ccc([nH]5)c(-c5cccc(S(=O)(=O)[O-])c5F)c5nc(c(-c6cccc(S(=O)(=O)[O-])c6F)c6ccc3[nH]6)C=C5)C=C4)cc2)C12CCCCC2
REMARK SMILES IDX 20 1 19 2 18 3 17 4 15 5 16 6 14 8 5 9 6 10 88 11 7 12 8 13
REMARK SMILES IDX 89 14 93 15 9 16 13 17 90 18 92 19 10 20 12 21 91 22 11 23
REMARK SMILES IDX 3 24 4 25 2 26 1 27 21 28 22 29 23 30 24 32 25 33 26 34
REMARK SMILES IDX 87 35 27 36 86 37 28 38 29 39 30 40 80 41 31 42 85 43 79 44
REMARK SMILES IDX 81 45 32 46 84 47 78 48 77 49 33 51 65 52 45 53 64 54 46 55
REMARK SMILES IDX 49 56 63 57 82 58 47 59 48 60 62 62 83 63 50 64 34 65 35 66
REMARK SMILES IDX 43 67 36 68 38 69 44 70 37 71 39 72 40 73 41 74 42 75 66 76
REMARK SMILES IDX 67 77 75 78 68 79 70 80 76 81 69 82 71 83 72 84 73 85 74 86
REMARK SMILES IDX 51 87 52 88 60 89 53 90 55 91 61 92 54 93 56 94 57 95 58 96
REMARK SMILES IDX 59 97
REMARK H PARENT 17 7 22 31 81 50 49 61
REMARK Flexibility Score: inf
ROOT
ATOM      1  C   UNL A   1      35.924  21.465  24.783  1.00  0.00     0.023 C 
ENDROOT
BRANCH   1   2
ATOM      2  C   UNL A   1      35.317  21.985  26.073  1.00  0.00     0.023 C 
BRANCH   2   3
ATOM      3  C   UNL A   1      34.852  23.443  26.026  1.00  0.00     0.116 C 
BRANCH   3   4
ATOM      4  N   UNL A   1      33.739  23.730  26.919  1.00  0.00    -0.355 N 
ATOM      5  C   UNL A   1      32.441  24.074  26.682  1.00  0.00     0.229 C 
ATOM      6  O   UNL A   1      31.705  24.166  27.670  1.00  0.00    -0.274 OA
ATOM      7  H   UNL A   1      33.966  23.662  27.875  1.00  0.00     0.163 HD
BRANCH   5   8
ATOM      8  C   UNL A   1      31.871  24.289  25.268  1.00  0.00     0.135 C 
ATOM      9  N   UNL A   1      32.310  25.481  23.031  1.00  0.00    -0.329 N 
ATOM     10  C   UNL A   1      32.791  24.294  22.460  1.00  0.00     0.254 C 
ATOM     11  C   UNL A   1      32.220  25.668  24.554  1.00  0.00     0.059 C 
ATOM     12  O   UNL A   1      33.277  24.206  21.336  1.00  0.00    -0.269 OA
ATOM     13  C   UNL A   1      32.613  23.031  23.203  1.00  0.00     0.044 A 
ATOM     14  C   UNL A   1      33.566  26.335  24.942  1.00  0.00     0.030 C 
ATOM     15  C   UNL A   1      31.101  26.701  24.959  1.00  0.00     0.030 C 
ATOM     16  C   UNL A   1      32.955  21.819  22.576  1.00  0.00     0.014 A 
ATOM     17  C   UNL A   1      32.039  23.016  24.465  1.00  0.00    -0.020 A 
ATOM     18  C   UNL A   1      33.692  26.911  26.355  1.00  0.00     0.002 C 
ATOM     19  C   UNL A   1      31.178  27.206  26.401  1.00  0.00     0.002 C 
ATOM     20  C   UNL A   1      32.657  20.595  23.175  1.00  0.00     0.001 A 
ATOM     21  C   UNL A   1      31.674  21.773  25.028  1.00  0.00     0.005 A 
ATOM     22  C   UNL A   1      32.533  27.824  26.721  1.00  0.00     0.000 C 
ATOM     23  C   UNL A   1      31.983  20.574  24.389  1.00  0.00     0.000 A 
BRANCH   9  24
ATOM     24  C   UNL A   1      32.046  26.645  22.135  1.00  0.00     0.082 C 
ATOM     25  C   UNL A   1      30.749  27.435  22.377  1.00  0.00     0.031 C 
BRANCH  24  26
ATOM     26  C   UNL A   1      33.267  27.585  22.147  1.00  0.00     0.021 C 
ATOM     27  C   UNL A   1      32.914  28.978  22.648  1.00  0.00     0.006 C 
ENDBRANCH  24  26
ENDBRANCH   9  24
ENDBRANCH   5   8
ENDBRANCH   3   4
ENDBRANCH   2   3
ENDBRANCH   1   2
BRANCH   1  28
ATOM     28  C   UNL A   1      37.415  21.707  24.702  1.00  0.00     0.116 C 
BRANCH  28  29
ATOM     29  N   UNL A   1      38.174  20.558  25.184  1.00  0.00    -0.352 N 
ATOM     30  C   UNL A   1      39.336  20.545  25.920  1.00  0.00     0.251 C 
ATOM     31  H   UNL A   1      37.805  19.674  24.953  1.00  0.00     0.163 HD
ATOM     32  O   UNL A   1      39.985  19.514  26.050  1.00  0.00    -0.269 OA
BRANCH  30  33
ATOM     33  C   UNL A   1      39.787  21.814  26.521  1.00  0.00     0.039 A 
ATOM     34  C   UNL A   1      39.227  23.009  26.068  1.00  0.00     0.014 A 
ATOM     35  C   UNL A   1      40.834  21.820  27.444  1.00  0.00     0.014 A 
ATOM     36  C   UNL A   1      39.858  24.204  26.362  1.00  0.00     0.010 A 
ATOM     37  C   UNL A   1      41.379  23.042  27.847  1.00  0.00     0.010 A 
ATOM     38  C   UNL A   1      40.930  24.240  27.270  1.00  0.00    -0.014 A 
BRANCH  38  39
ATOM     39  C   UNL A   1      41.524  25.555  27.615  1.00  0.00     0.031 A 
ATOM     40  C   UNL A   1      42.885  25.955  27.117  1.00  0.00     0.074 A 
ATOM     41  C   UNL A   1      40.782  26.417  28.339  1.00  0.00     0.049 A 
ATOM     42  N   UNL A   1      43.541  27.064  27.341  1.00  0.00    -0.248 NA
ATOM     43  C   UNL A   1      43.612  24.996  26.267  1.00  0.00     0.031 C 
ATOM     44  C   UNL A   1      39.447  26.131  28.876  1.00  0.00     0.029 A 
ATOM     45  N   UNL A   1      41.017  27.711  28.721  1.00  0.00    -0.354 N 
ATOM     46  C   UNL A   1      44.772  26.916  26.714  1.00  0.00     0.074 A 
ATOM     47  C   UNL A   1      44.773  25.614  26.085  1.00  0.00     0.031 C 
ATOM     48  C   UNL A   1      38.952  27.238  29.444  1.00  0.00     0.029 A 
ATOM     49  C   UNL A   1      39.963  28.284  29.394  1.00  0.00     0.049 A 
ATOM     50  H   UNL A   1      41.860  28.185  28.532  1.00  0.00     0.167 HD
ATOM     51  C   UNL A   1      45.799  27.796  26.658  1.00  0.00     0.034 A 
ATOM     52  C   UNL A   1      39.827  29.511  29.929  1.00  0.00     0.034 A 
ATOM     53  C   UNL A   1      45.760  29.116  27.227  1.00  0.00     0.049 A 
ATOM     54  C   UNL A   1      40.974  30.469  29.834  1.00  0.00     0.074 A 
ATOM     55  C   UNL A   1      46.744  30.088  27.203  1.00  0.00     0.029 A 
ATOM     56  N   UNL A   1      44.678  29.654  27.906  1.00  0.00    -0.354 N 
ATOM     57  N   UNL A   1      42.119  30.313  29.218  1.00  0.00    -0.248 NA
ATOM     58  C   UNL A   1      40.815  31.763  30.508  1.00  0.00     0.031 C 
ATOM     59  C   UNL A   1      46.255  31.219  27.865  1.00  0.00     0.029 A 
ATOM     60  C   UNL A   1      44.966  30.949  28.299  1.00  0.00     0.049 A 
ATOM     61  H   UNL A   1      43.831  29.185  28.082  1.00  0.00     0.167 HD
ATOM     62  C   UNL A   1      42.822  31.491  29.427  1.00  0.00     0.074 A 
ATOM     63  C   UNL A   1      41.961  32.361  30.203  1.00  0.00     0.031 C 
ATOM     64  C   UNL A   1      44.077  31.811  29.031  1.00  0.00     0.034 A 
BRANCH  51  65
ATOM     65  C   UNL A   1      47.046  27.395  25.918  1.00  0.00     0.023 A 
ATOM     66  C   UNL A   1      47.994  26.578  26.562  1.00  0.00     0.012 A 
ATOM     67  C   UNL A   1      47.221  27.725  24.560  1.00  0.00     0.148 A 
ATOM     68  C   UNL A   1      49.103  26.096  25.867  1.00  0.00     0.002 A 
ATOM     69  C   UNL A   1      48.314  27.219  23.865  1.00  0.00     0.091 A 
ATOM     70  F   UNL A   1      46.308  28.512  23.973  1.00  0.00    -0.205 F 
ATOM     71  C   UNL A   1      49.257  26.408  24.518  1.00  0.00     0.022 A 
BRANCH  69  72
ATOM     72  S   UNL A   1      48.579  27.514  22.113  1.00  0.00     0.127 S 
ATOM     73  O   UNL A   1      48.753  26.151  21.609  1.00  0.00    -0.237 OA
ATOM     74  O   UNL A   1      47.326  28.155  21.717  1.00  0.00    -0.237 OA
ATOM     75  O   UNL A   1      49.760  28.361  22.019  1.00  0.00    -0.744 OA
ENDBRANCH  69  72
ENDBRANCH  51  65
BRANCH  52  76
ATOM     76  C   UNL A   1      38.537  29.886  30.565  1.00  0.00     0.023 A 
ATOM     77  C   UNL A   1      38.317  29.554  31.915  1.00  0.00     0.012 A 
ATOM     78  C   UNL A   1      37.581  30.658  29.878  1.00  0.00     0.148 A 
ATOM     79  C   UNL A   1      37.162  29.986  32.570  1.00  0.00     0.002 A 
ATOM     80  C   UNL A   1      36.460  31.127  30.550  1.00  0.00     0.091 A 
ATOM     81  F   UNL A   1      37.812  30.953  28.591  1.00  0.00    -0.205 F 
ATOM     82  C   UNL A   1      36.243  30.784  31.894  1.00  0.00     0.022 A 
BRANCH  80  83
ATOM     83  S   UNL A   1      35.295  32.271  29.799  1.00  0.00     0.127 S 
ATOM     84  O   UNL A   1      34.723  31.455  28.732  1.00  0.00    -0.237 OA
ATOM     85  O   UNL A   1      34.390  32.554  30.914  1.00  0.00    -0.237 OA
ATOM     86  O   UNL A   1      36.088  33.412  29.365  1.00  0.00    -0.744 OA
ENDBRANCH  80  83
ENDBRANCH  52  76
BRANCH  64  87
ATOM     87  C   UNL A   1      44.605  33.159  29.424  1.00  0.00     0.023 A 
ATOM     88  C   UNL A   1      45.354  33.283  30.609  1.00  0.00     0.012 A 
ATOM     89  C   UNL A   1      44.457  34.266  28.568  1.00  0.00     0.148 A 
ATOM     90  C   UNL A   1      45.948  34.498  30.942  1.00  0.00     0.002 A 
ATOM     91  C   UNL A   1      45.078  35.466  28.891  1.00  0.00     0.091 A 
ATOM     92  F   UNL A   1      43.728  34.118  27.453  1.00  0.00    -0.205 F 
ATOM     93  C   UNL A   1      45.819  35.585  30.079  1.00  0.00     0.022 A 
BRANCH  91  94
ATOM     94  S   UNL A   1      45.031  36.900  27.810  1.00  0.00     0.127 S 
ATOM     95  O   UNL A   1      45.625  36.366  26.585  1.00  0.00    -0.237 OA
ATOM     96  O   UNL A   1      43.597  37.174  27.726  1.00  0.00    -0.237 OA
ATOM     97  O   UNL A   1      45.811  37.933  28.477  1.00  0.00    -0.744 OA
ENDBRANCH  91  94
ENDBRANCH  64  87
ENDBRANCH  38  39
ENDBRANCH  30  33
ENDBRANCH  28  29
ENDBRANCH   1  28
TORSDOF 16
ENDMDL
MODEL 2
REMARK VINA RESULT:     -12.9      5.004      7.514
REMARK SMILES CC[C@H](C)N1C(=O)c2ccccc2[C@@H](C(=O)NCCCCNC(=O)c2ccc(-c3c4nc(c(-c5cccc(S(=O)(=O)[O-])c5F)c5ccc([nH]5)c(-c5cccc(S(=O)(=O)[O-])c5F)c5nc(c(-c6cccc(S(=O)(=O)[O-])c6F)c6ccc3[nH]6)C=C5)C=C4)cc2)C12CCCCC2
REMARK SMILES IDX 20 1 19 2 18 3 17 4 15 5 16 6 14 8 5 9 6 10 88 11 7 12 8 13
REMARK SMILES IDX 89 14 93 15 9 16 13 17 90 18 92 19 10 20 12 21 91 22 11 23
REMARK SMILES IDX 3 24 4 25 2 26 1 27 21 28 22 29 23 30 24 32 25 33 26 34
REMARK SMILES IDX 87 35 27 36 86 37 28 38 29 39 30 40 80 41 31 42 85 43 79 44
REMARK SMILES IDX 81 45 32 46 84 47 78 48 77 49 33 51 65 52 45 53 64 54 46 55
REMARK SMILES IDX 49 56 63 57 82 58 47 59 48 60 62 62 83 63 50 64 34 65 35 66
REMARK SMILES IDX 43 67 36 68 38 69 44 70 37 71 39 72 40 73 41 74 42 75 66 76
REMARK SMILES IDX 67 77 75 78 68 79 70 80 76 81 69 82 71 83 72 84 73 85 74 86
REMARK SMILES IDX 51 87 52 88 60 89 53 90 55 91 61 92 54 93 56 94 57 95 58 96
REMARK SMILES IDX 59 97
REMARK H PARENT 17 7 22 31 81 50 49 61
REMARK Flexibility Score: inf
ROOT
ATOM      1  C   UNL A   1      31.970  28.372  26.743  1.00  0.00     0.023 C 
ENDROOT
BRANCH   1   2
ATOM      2  C   UNL A   1      31.903  27.065  25.976  1.00  0.00     0.023 C 
BRANCH   2   3
ATOM      3  C   UNL A   1      33.129  26.161  26.132  1.00  0.00     0.116 C 
BRANCH   3   4
ATOM      4  N   UNL A   1      33.777  25.833  24.870  1.00  0.00    -0.355 N 
ATOM      5  C   UNL A   1      34.201  24.650  24.341  1.00  0.00     0.229 C 
ATOM      6  O   UNL A   1      34.642  24.689  23.187  1.00  0.00    -0.274 OA
ATOM      7  H   UNL A   1      33.938  26.611  24.290  1.00  0.00     0.163 HD
BRANCH   5   8
ATOM      8  C   UNL A   1      34.100  23.307  25.086  1.00  0.00     0.135 C 
ATOM      9  N   UNL A   1      33.532  20.817  24.775  1.00  0.00    -0.329 N 
ATOM     10  C   UNL A   1      34.893  20.483  24.729  1.00  0.00     0.254 C 
ATOM     11  C   UNL A   1      33.043  22.255  24.532  1.00  0.00     0.059 C 
ATOM     12  O   UNL A   1      35.329  19.359  24.497  1.00  0.00    -0.269 OA
ATOM     13  C   UNL A   1      35.885  21.516  25.086  1.00  0.00     0.044 A 
ATOM     14  C   UNL A   1      32.735  22.306  23.012  1.00  0.00     0.030 C 
ATOM     15  C   UNL A   1      31.673  22.543  25.253  1.00  0.00     0.030 C 
ATOM     16  C   UNL A   1      37.241  21.151  25.189  1.00  0.00     0.014 A 
ATOM     17  C   UNL A   1      35.495  22.808  25.402  1.00  0.00    -0.020 A 
ATOM     18  C   UNL A   1      31.965  23.520  22.485  1.00  0.00     0.002 C 
ATOM     19  C   UNL A   1      30.948  23.808  24.786  1.00  0.00     0.002 C 
ATOM     20  C   UNL A   1      38.189  22.050  25.676  1.00  0.00     0.001 A 
ATOM     21  C   UNL A   1      36.448  23.685  25.964  1.00  0.00     0.005 A 
ATOM     22  C   UNL A   1      30.703  23.804  23.283  1.00  0.00     0.000 C 
ATOM     23  C   UNL A   1      37.784  23.310  26.097  1.00  0.00     0.000 A 
BRANCH   9  24
ATOM     24  C   UNL A   1      32.533  19.715  24.891  1.00  0.00     0.082 C 
ATOM     25  C   UNL A   1      32.302  18.846  23.643  1.00  0.00     0.031 C 
BRANCH  24  26
ATOM     26  C   UNL A   1      32.879  18.838  26.110  1.00  0.00     0.021 C 
ATOM     27  C   UNL A   1      32.763  17.353  25.800  1.00  0.00     0.006 C 
ENDBRANCH  24  26
ENDBRANCH   9  24
ENDBRANCH   5   8
ENDBRANCH   3   4
ENDBRANCH   2   3
ENDBRANCH   1   2
BRANCH   1  28
ATOM     28  C   UNL A   1      32.977  29.339  26.159  1.00  0.00     0.116 C 
BRANCH  28  29
ATOM     29  N   UNL A   1      32.642  30.723  26.477  1.00  0.00    -0.352 N 
ATOM     30  C   UNL A   1      33.321  31.605  27.284  1.00  0.00     0.251 C 
ATOM     31  H   UNL A   1      31.820  31.072  26.060  1.00  0.00     0.163 HD
ATOM     32  O   UNL A   1      32.799  32.653  27.647  1.00  0.00    -0.269 OA
BRANCH  30  33
ATOM     33  C   UNL A   1      34.682  31.239  27.717  1.00  0.00     0.039 A 
ATOM     34  C   UNL A   1      34.952  29.905  28.027  1.00  0.00     0.014 A 
ATOM     35  C   UNL A   1      35.645  32.228  27.920  1.00  0.00     0.014 A 
ATOM     36  C   UNL A   1      36.094  29.597  28.745  1.00  0.00     0.010 A 
ATOM     37  C   UNL A   1      36.859  31.885  28.521  1.00  0.00     0.010 A 
ATOM     38  C   UNL A   1      37.072  30.577  28.985  1.00  0.00    -0.014 A 
BRANCH  38  39
ATOM     39  C   UNL A   1      38.315  30.181  29.690  1.00  0.00     0.031 A 
ATOM     40  C   UNL A   1      39.378  29.367  29.006  1.00  0.00     0.074 A 
ATOM     41  C   UNL A   1      38.500  30.625  30.949  1.00  0.00     0.049 A 
ATOM     42  N   UNL A   1      40.514  28.936  29.492  1.00  0.00    -0.248 NA
ATOM     43  C   UNL A   1      39.147  28.979  27.604  1.00  0.00     0.031 C 
ATOM     44  C   UNL A   1      37.532  31.421  31.711  1.00  0.00     0.029 A 
ATOM     45  N   UNL A   1      39.568  30.507  31.800  1.00  0.00    -0.354 N 
ATOM     46  C   UNL A   1      41.102  28.182  28.484  1.00  0.00     0.074 A 
ATOM     47  C   UNL A   1      40.208  28.222  27.349  1.00  0.00     0.031 C 
ATOM     48  C   UNL A   1      38.079  31.786  32.878  1.00  0.00     0.029 A 
ATOM     49  C   UNL A   1      39.397  31.179  32.988  1.00  0.00     0.049 A 
ATOM     50  H   UNL A   1      40.378  29.992  31.582  1.00  0.00     0.167 HD
ATOM     51  C   UNL A   1      42.288  27.530  28.505  1.00  0.00     0.034 A 
ATOM     52  C   UNL A   1      40.204  31.284  34.060  1.00  0.00     0.034 A 
ATOM     53  C   UNL A   1      43.201  27.555  29.615  1.00  0.00     0.049 A 
ATOM     54  C   UNL A   1      41.518  30.567  34.045  1.00  0.00     0.074 A 
ATOM     55  C   UNL A   1      44.438  26.943  29.721  1.00  0.00     0.029 A 
ATOM     56  N   UNL A   1      42.988  28.240  30.801  1.00  0.00    -0.354 N 
ATOM     57  N   UNL A   1      42.061  29.877  33.073  1.00  0.00    -0.248 NA
ATOM     58  C   UNL A   1      42.326  30.635  35.268  1.00  0.00     0.031 C 
ATOM     59  C   UNL A   1      44.976  27.261  30.972  1.00  0.00     0.029 A 
ATOM     60  C   UNL A   1      44.073  28.073  31.642  1.00  0.00     0.049 A 
ATOM     61  H   UNL A   1      42.184  28.767  31.012  1.00  0.00     0.167 HD
ATOM     62  C   UNL A   1      43.278  29.429  33.564  1.00  0.00     0.074 A 
ATOM     63  C   UNL A   1      43.405  29.949  34.911  1.00  0.00     0.031 C 
ATOM     64  C   UNL A   1      44.196  28.637  32.960  1.00  0.00     0.034 A 
BRANCH  51  65
ATOM     65  C   UNL A   1      42.706  26.765  27.279  1.00  0.00     0.023 A 
ATOM     66  C   UNL A   1      43.423  27.429  26.265  1.00  0.00     0.012 A 
ATOM     67  C   UNL A   1      42.494  25.376  27.184  1.00  0.00     0.148 A 
ATOM     68  C   UNL A   1      43.922  26.723  25.172  1.00  0.00     0.002 A 
ATOM     69  C   UNL A   1      43.018  24.673  26.104  1.00  0.00     0.091 A 
ATOM     70  F   UNL A   1      41.800  24.769  28.158  1.00  0.00    -0.205 F 
ATOM     71  C   UNL A   1      43.729  25.345  25.096  1.00  0.00     0.022 A 
BRANCH  69  72
ATOM     72  S   UNL A   1      42.874  22.890  25.937  1.00  0.00     0.127 S 
ATOM     73  O   UNL A   1      43.429  22.675  24.600  1.00  0.00    -0.237 OA
ATOM     74  O   UNL A   1      43.717  22.411  27.032  1.00  0.00    -0.237 OA
ATOM     75  O   UNL A   1      41.458  22.584  26.073  1.00  0.00    -0.744 OA
ENDBRANCH  69  72
ENDBRANCH  51  65
BRANCH  52  76
ATOM     76  C   UNL A   1      39.781  32.131  35.206  1.00  0.00     0.023 A 
ATOM     77  C   UNL A   1      40.053  33.511  35.175  1.00  0.00     0.012 A 
ATOM     78  C   UNL A   1      39.022  31.600  36.267  1.00  0.00     0.148 A 
ATOM     79  C   UNL A   1      39.576  34.350  36.184  1.00  0.00     0.002 A 
ATOM     80  C   UNL A   1      38.507  32.447  37.239  1.00  0.00     0.091 A 
ATOM     81  F   UNL A   1      38.784  30.281  36.276  1.00  0.00    -0.205 F 
ATOM     82  C   UNL A   1      38.791  33.821  37.206  1.00  0.00     0.022 A 
BRANCH  80  83
ATOM     83  S   UNL A   1      37.376  31.876  38.513  1.00  0.00     0.127 S 
ATOM     84  O   UNL A   1      38.153  32.112  39.727  1.00  0.00    -0.237 OA
ATOM     85  O   UNL A   1      36.235  32.773  38.326  1.00  0.00    -0.237 OA
ATOM     86  O   UNL A   1      37.102  30.481  38.200  1.00  0.00    -0.744 OA
ENDBRANCH  80  83
ENDBRANCH  52  76
BRANCH  64  87
ATOM     87  C   UNL A   1      45.425  28.279  33.743  1.00  0.00     0.023 A 
ATOM     88  C   UNL A   1      46.520  29.163  33.740  1.00  0.00     0.012 A 
ATOM     89  C   UNL A   1      45.447  27.136  34.563  1.00  0.00     0.148 A 
ATOM     90  C   UNL A   1      47.630  28.910  34.543  1.00  0.00     0.002 A 
ATOM     91  C   UNL A   1      46.544  26.907  35.384  1.00  0.00     0.091 A 
ATOM     92  F   UNL A   1      44.393  26.309  34.533  1.00  0.00    -0.205 F 
ATOM     93  C   UNL A   1      47.637  27.789  35.372  1.00  0.00     0.022 A 
BRANCH  91  94
ATOM     94  S   UNL A   1      46.616  25.533  36.539  1.00  0.00     0.127 S 
ATOM     95  O   UNL A   1      46.508  24.385  35.639  1.00  0.00    -0.237 OA
ATOM     96  O   UNL A   1      47.933  25.712  37.147  1.00  0.00    -0.237 OA
ATOM     97  O   UNL A   1      45.494  25.713  37.450  1.00  0.00    -0.744 OA
ENDBRANCH  91  94
ENDBRANCH  64  87
ENDBRANCH  38  39
ENDBRANCH  30  33
ENDBRANCH  28  29
ENDBRANCH   1  28
TORSDOF 16
ENDMDL
MODEL 3
REMARK VINA RESULT:     -12.8      1.371      2.858
REMARK SMILES CC[C@H](C)N1C(=O)c2ccccc2[C@@H](C(=O)NCCCCNC(=O)c2ccc(-c3c4nc(c(-c5cccc(S(=O)(=O)[O-])c5F)c5ccc([nH]5)c(-c5cccc(S(=O)(=O)[O-])c5F)c5nc(c(-c6cccc(S(=O)(=O)[O-])c6F)c6ccc3[nH]6)C=C5)C=C4)cc2)C12CCCCC2
REMARK SMILES IDX 20 1 19 2 18 3 17 4 15 5 16 6 14 8 5 9 6 10 88 11 7 12 8 13
REMARK SMILES IDX 89 14 93 15 9 16 13 17 90 18 92 19 10 20 12 21 91 22 11 23
REMARK SMILES IDX 3 24 4 25 2 26 1 27 21 28 22 29 23 30 24 32 25 33 26 34
REMARK SMILES IDX 87 35 27 36 86 37 28 38 29 39 30 40 80 41 31 42 85 43 79 44
REMARK SMILES IDX 81 45 32 46 84 47 78 48 77 49 33 51 65 52 45 53 64 54 46 55
REMARK SMILES IDX 49 56 63 57 82 58 47 59 48 60 62 62 83 63 50 64 34 65 35 66
REMARK SMILES IDX 43 67 36 68 38 69 44 70 37 71 39 72 40 73 41 74 42 75 66 76
REMARK SMILES IDX 67 77 75 78 68 79 70 80 76 81 69 82 71 83 72 84 73 85 74 86
REMARK SMILES IDX 51 87 52 88 60 89 53 90 55 91 61 92 54 93 56 94 57 95 58 96
REMARK SMILES IDX 59 97
REMARK H PARENT 17 7 22 31 81 50 49 61
REMARK Flexibility Score: inf
ROOT
ATOM      1  C   UNL A   1      36.332  22.579  23.985  1.00  0.00     0.023 C 
ENDROOT
BRANCH   1   2
ATOM      2  C   UNL A   1      34.924  23.113  23.800  1.00  0.00     0.023 C 
BRANCH   2   3
ATOM      3  C   UNL A   1      34.744  24.594  24.143  1.00  0.00     0.116 C 
BRANCH   3   4
ATOM      4  N   UNL A   1      33.925  24.825  25.323  1.00  0.00    -0.355 N 
ATOM      5  C   UNL A   1      33.022  25.798  25.634  1.00  0.00     0.229 C 
ATOM      6  O   UNL A   1      32.414  25.666  26.702  1.00  0.00    -0.274 OA
ATOM      7  H   UNL A   1      34.045  24.151  26.031  1.00  0.00     0.163 HD
BRANCH   5   8
ATOM      8  C   UNL A   1      32.708  26.985  24.705  1.00  0.00     0.135 C 
ATOM      9  N   UNL A   1      30.777  28.356  23.699  1.00  0.00    -0.329 N 
ATOM     10  C   UNL A   1      30.975  29.378  24.639  1.00  0.00     0.254 C 
ATOM     11  C   UNL A   1      31.324  26.936  23.921  1.00  0.00     0.059 C 
ATOM     12  O   UNL A   1      30.260  30.369  24.755  1.00  0.00    -0.269 OA
ATOM     13  C   UNL A   1      32.184  29.333  25.485  1.00  0.00     0.044 A 
ATOM     14  C   UNL A   1      30.157  26.175  24.606  1.00  0.00     0.030 C 
ATOM     15  C   UNL A   1      31.582  26.183  22.561  1.00  0.00     0.030 C 
ATOM     16  C   UNL A   1      32.470  30.427  26.322  1.00  0.00     0.014 A 
ATOM     17  C   UNL A   1      33.077  28.276  25.404  1.00  0.00    -0.020 A 
ATOM     18  C   UNL A   1      30.271  24.653  24.716  1.00  0.00     0.002 C 
ATOM     19  C   UNL A   1      31.785  24.671  22.687  1.00  0.00     0.002 C 
ATOM     20  C   UNL A   1      33.676  30.500  27.018  1.00  0.00     0.001 A 
ATOM     21  C   UNL A   1      34.327  28.395  26.052  1.00  0.00     0.005 A 
ATOM     22  C   UNL A   1      30.617  23.993  23.391  1.00  0.00     0.000 C 
ATOM     23  C   UNL A   1      34.622  29.495  26.854  1.00  0.00     0.000 A 
BRANCH   9  24
ATOM     24  C   UNL A   1      29.865  28.617  22.547  1.00  0.00     0.082 C 
ATOM     25  C   UNL A   1      28.353  28.543  22.820  1.00  0.00     0.031 C 
BRANCH  24  26
ATOM     26  C   UNL A   1      30.237  29.963  21.897  1.00  0.00     0.021 C 
ATOM     27  C   UNL A   1      29.008  30.757  21.477  1.00  0.00     0.006 C 
ENDBRANCH  24  26
ENDBRANCH   9  24
ENDBRANCH   5   8
ENDBRANCH   3   4
ENDBRANCH   2   3
ENDBRANCH   1   2
BRANCH   1  28
ATOM     28  C   UNL A   1      36.646  22.252  25.429  1.00  0.00     0.116 C 
BRANCH  28  29
ATOM     29  N   UNL A   1      37.563  21.122  25.537  1.00  0.00    -0.352 N 
ATOM     30  C   UNL A   1      38.880  21.123  25.933  1.00  0.00     0.251 C 
ATOM     31  H   UNL A   1      37.190  20.243  25.296  1.00  0.00     0.163 HD
ATOM     32  O   UNL A   1      39.591  20.140  25.749  1.00  0.00    -0.269 OA
BRANCH  30  33
ATOM     33  C   UNL A   1      39.414  22.347  26.558  1.00  0.00     0.039 A 
ATOM     34  C   UNL A   1      38.956  23.586  26.107  1.00  0.00     0.014 A 
ATOM     35  C   UNL A   1      40.438  22.264  27.502  1.00  0.00     0.014 A 
ATOM     36  C   UNL A   1      39.671  24.726  26.427  1.00  0.00     0.010 A 
ATOM     37  C   UNL A   1      41.066  23.437  27.930  1.00  0.00     0.010 A 
ATOM     38  C   UNL A   1      40.722  24.671  27.357  1.00  0.00    -0.014 A 
BRANCH  38  39
ATOM     39  C   UNL A   1      41.407  25.933  27.729  1.00  0.00     0.031 A 
ATOM     40  C   UNL A   1      42.790  26.250  27.230  1.00  0.00     0.074 A 
ATOM     41  C   UNL A   1      40.731  26.825  28.480  1.00  0.00     0.049 A 
ATOM     42  N   UNL A   1      43.522  27.307  27.475  1.00  0.00    -0.248 NA
ATOM     43  C   UNL A   1      43.443  25.266  26.350  1.00  0.00     0.031 C 
ATOM     44  C   UNL A   1      39.384  26.618  29.021  1.00  0.00     0.029 A 
ATOM     45  N   UNL A   1      41.058  28.091  28.892  1.00  0.00    -0.354 N 
ATOM     46  C   UNL A   1      44.736  27.090  26.835  1.00  0.00     0.074 A 
ATOM     47  C   UNL A   1      44.643  25.807  26.175  1.00  0.00     0.031 C 
ATOM     48  C   UNL A   1      38.970  27.742  29.620  1.00  0.00     0.029 A 
ATOM     49  C   UNL A   1      40.050  28.717  29.587  1.00  0.00     0.049 A 
ATOM     50  H   UNL A   1      41.930  28.510  28.707  1.00  0.00     0.167 HD
ATOM     51  C   UNL A   1      45.820  27.899  26.792  1.00  0.00     0.034 A 
ATOM     52  C   UNL A   1      40.002  29.937  30.153  1.00  0.00     0.034 A 
ATOM     53  C   UNL A   1      45.876  29.203  27.393  1.00  0.00     0.049 A 
ATOM     54  C   UNL A   1      41.212  30.816  30.072  1.00  0.00     0.074 A 
ATOM     55  C   UNL A   1      46.924  30.107  27.385  1.00  0.00     0.029 A 
ATOM     56  N   UNL A   1      44.838  29.798  28.094  1.00  0.00    -0.354 N 
ATOM     57  N   UNL A   1      42.340  30.598  29.443  1.00  0.00    -0.248 NA
ATOM     58  C   UNL A   1      41.147  32.101  30.779  1.00  0.00     0.031 C 
ATOM     59  C   UNL A   1      46.518  31.251  28.078  1.00  0.00     0.029 A 
ATOM     60  C   UNL A   1      45.217  31.059  28.516  1.00  0.00     0.049 A 
ATOM     61  H   UNL A   1      43.962  29.383  28.265  1.00  0.00     0.167 HD
ATOM     62  C   UNL A   1      43.123  31.719  29.674  1.00  0.00     0.074 A 
ATOM     63  C   UNL A   1      42.329  32.627  30.479  1.00  0.00     0.031 C 
ATOM     64  C   UNL A   1      44.394  31.962  29.276  1.00  0.00     0.034 A 
BRANCH  51  65
ATOM     65  C   UNL A   1      47.032  27.432  26.032  1.00  0.00     0.023 A 
ATOM     66  C   UNL A   1      47.937  26.552  26.656  1.00  0.00     0.012 A 
ATOM     67  C   UNL A   1      47.209  27.765  24.675  1.00  0.00     0.148 A 
ATOM     68  C   UNL A   1      49.006  26.013  25.942  1.00  0.00     0.002 A 
ATOM     69  C   UNL A   1      48.262  27.202  23.962  1.00  0.00     0.091 A 
ATOM     70  F   UNL A   1      46.338  28.611  24.107  1.00  0.00    -0.205 F 
ATOM     71  C   UNL A   1      49.162  26.329  24.594  1.00  0.00     0.022 A 
BRANCH  69  72
ATOM     72  S   UNL A   1      48.523  27.498  22.208  1.00  0.00     0.127 S 
ATOM     73  O   UNL A   1      49.774  28.257  22.222  1.00  0.00    -0.237 OA
ATOM     74  O   UNL A   1      48.638  26.139  21.682  1.00  0.00    -0.237 OA
ATOM     75  O   UNL A   1      47.358  28.240  21.746  1.00  0.00    -0.744 OA
ENDBRANCH  69  72
ENDBRANCH  51  65
BRANCH  52  76
ATOM     76  C   UNL A   1      38.745  30.384  30.809  1.00  0.00     0.023 A 
ATOM     77  C   UNL A   1      38.477  29.974  32.128  1.00  0.00     0.012 A 
ATOM     78  C   UNL A   1      37.875  31.293  30.177  1.00  0.00     0.148 A 
ATOM     79  C   UNL A   1      37.361  30.462  32.808  1.00  0.00     0.002 A 
ATOM     80  C   UNL A   1      36.795  31.814  30.877  1.00  0.00     0.091 A 
ATOM     81  F   UNL A   1      38.149  31.661  28.918  1.00  0.00    -0.205 F 
ATOM     82  C   UNL A   1      36.530  31.392  32.189  1.00  0.00     0.022 A 
BRANCH  80  83
ATOM     83  S   UNL A   1      35.753  33.117  30.209  1.00  0.00     0.127 S 
ATOM     84  O   UNL A   1      34.546  32.377  29.850  1.00  0.00    -0.237 OA
ATOM     85  O   UNL A   1      35.611  34.008  31.361  1.00  0.00    -0.237 OA
ATOM     86  O   UNL A   1      36.498  33.686  29.096  1.00  0.00    -0.744 OA
ENDBRANCH  80  83
ENDBRANCH  52  76
BRANCH  64  87
ATOM     87  C   UNL A   1      45.016  33.261  29.697  1.00  0.00     0.023 A 
ATOM     88  C   UNL A   1      45.802  33.297  30.864  1.00  0.00     0.012 A 
ATOM     89  C   UNL A   1      44.916  34.403  28.882  1.00  0.00     0.148 A 
ATOM     90  C   UNL A   1      46.480  34.461  31.219  1.00  0.00     0.002 A 
ATOM     91  C   UNL A   1      45.620  35.550  29.226  1.00  0.00     0.091 A 
ATOM     92  F   UNL A   1      44.150  34.339  27.784  1.00  0.00    -0.205 F 
ATOM     93  C   UNL A   1      46.397  35.583  30.396  1.00  0.00     0.022 A 
BRANCH  91  94
ATOM     94  S   UNL A   1      45.636  37.020  28.194  1.00  0.00     0.127 S 
ATOM     95  O   UNL A   1      46.574  37.878  28.916  1.00  0.00    -0.237 OA
ATOM     96  O   UNL A   1      46.137  36.498  26.923  1.00  0.00    -0.237 OA
ATOM     97  O   UNL A   1      44.261  37.500  28.154  1.00  0.00    -0.744 OA
ENDBRANCH  91  94
ENDBRANCH  64  87
ENDBRANCH  38  39
ENDBRANCH  30  33
ENDBRANCH  28  29
ENDBRANCH   1  28
TORSDOF 16
ENDMDL
