MODEL 1
REMARK VINA RESULT:     -11.1      0.000      0.000
REMARK SMILES CC(C)[C@H](Sc1ccncc1)C(=O)NCCCCNC(=O)c1ccc(-c2c3nc(c(-c4cccc(S(=O)(=O)[O-])c4F)c4ccc([nH]4)c(-c4cccc(S(=O)(=O)[O-])c4F)c4nc(c(-c5cccc(S(=O)(=O)[O-])c5F)c5ccc2[nH]5)C=C4)C=C3)cc1
REMARK SMILES IDX 17 1 16 2 15 3 14 4 12 5 13 6 4 8 2 9 1 10 3 11 5 12 6 13
REMARK SMILES IDX 7 14 11 15 8 16 10 17 9 18 18 19 19 20 20 21 21 23 22 24
REMARK SMILES IDX 23 25 84 26 24 27 83 28 25 29 26 30 27 31 77 32 28 33 82 34
REMARK SMILES IDX 76 35 78 36 29 37 81 38 75 39 74 40 30 42 62 43 42 44 61 45
REMARK SMILES IDX 43 46 46 47 60 48 79 49 44 50 45 51 59 53 80 54 47 55 31 56
REMARK SMILES IDX 32 57 40 58 33 59 35 60 41 61 34 62 36 63 37 64 38 65 39 66
REMARK SMILES IDX 63 67 64 68 72 69 65 70 67 71 73 72 66 73 68 74 69 75 70 76
REMARK SMILES IDX 71 77 48 78 49 79 57 80 50 81 52 82 58 83 51 84 53 85 54 86
REMARK SMILES IDX 55 87 56 88
REMARK H PARENT 14 7 19 22 78 41 46 52
REMARK Flexibility Score: inf
ROOT
ATOM      1  C   UNL A   1      31.645  31.983  27.188  1.00  0.00     0.023 C 
ENDROOT
BRANCH   1   2
ATOM      2  C   UNL A   1      31.611  31.039  25.991  1.00  0.00     0.023 C 
BRANCH   2   3
ATOM      3  C   UNL A   1      32.191  29.656  26.257  1.00  0.00     0.116 C 
BRANCH   3   4
ATOM      4  N   UNL A   1      32.770  29.039  25.079  1.00  0.00    -0.355 N 
ATOM      5  C   UNL A   1      32.145  28.322  24.091  1.00  0.00     0.233 C 
ATOM      6  O   UNL A   1      32.829  27.921  23.144  1.00  0.00    -0.274 OA
ATOM      7  H   UNL A   1      33.742  29.151  24.974  1.00  0.00     0.163 HD
BRANCH   5   8
ATOM      8  C   UNL A   1      30.621  28.056  24.133  1.00  0.00     0.143 C 
BRANCH   8   9
ATOM      9  C   UNL A   1      30.352  26.700  24.866  1.00  0.00     0.006 C 
ATOM     10  C   UNL A   1      30.188  25.570  23.834  1.00  0.00     0.009 C 
ATOM     11  C   UNL A   1      31.335  26.236  25.945  1.00  0.00     0.009 C 
ENDBRANCH   8   9
BRANCH   8  12
ATOM     12  S   UNL A   1      29.995  28.432  22.422  1.00  0.00    -0.112 SA
BRANCH  12  13
ATOM     13  C   UNL A   1      29.267  30.047  22.513  1.00  0.00     0.011 A 
ATOM     14  C   UNL A   1      29.082  30.770  23.684  1.00  0.00     0.035 A 
ATOM     15  C   UNL A   1      28.856  30.611  21.304  1.00  0.00     0.035 A 
ATOM     16  C   UNL A   1      28.415  31.982  23.608  1.00  0.00     0.112 A 
ATOM     17  C   UNL A   1      28.222  31.839  21.326  1.00  0.00     0.112 A 
ATOM     18  N   UNL A   1      27.975  32.531  22.456  1.00  0.00    -0.265 NA
ENDBRANCH  12  13
ENDBRANCH   8  12
ENDBRANCH   5   8
ENDBRANCH   3   4
ENDBRANCH   2   3
ENDBRANCH   1   2
BRANCH   1  19
ATOM     19  C   UNL A   1      32.866  32.893  27.260  1.00  0.00     0.116 C 
BRANCH  19  20
ATOM     20  N   UNL A   1      32.550  34.248  27.689  1.00  0.00    -0.352 N 
ATOM     21  C   UNL A   1      33.093  34.987  28.714  1.00  0.00     0.251 C 
ATOM     22  H   UNL A   1      31.846  34.702  27.170  1.00  0.00     0.163 HD
ATOM     23  O   UNL A   1      32.608  36.074  29.006  1.00  0.00    -0.269 OA
BRANCH  21  24
ATOM     24  C   UNL A   1      34.241  34.451  29.479  1.00  0.00     0.039 A 
ATOM     25  C   UNL A   1      34.011  33.911  30.746  1.00  0.00     0.014 A 
ATOM     26  C   UNL A   1      35.534  34.465  28.948  1.00  0.00     0.014 A 
ATOM     27  C   UNL A   1      35.067  33.331  31.452  1.00  0.00     0.010 A 
ATOM     28  C   UNL A   1      36.563  33.801  29.610  1.00  0.00     0.010 A 
ATOM     29  C   UNL A   1      36.346  33.239  30.876  1.00  0.00    -0.014 A 
BRANCH  29  30
ATOM     30  C   UNL A   1      37.453  32.548  31.587  1.00  0.00     0.031 A 
ATOM     31  C   UNL A   1      38.188  31.405  30.937  1.00  0.00     0.074 A 
ATOM     32  C   UNL A   1      37.764  32.916  32.846  1.00  0.00     0.049 A 
ATOM     33  N   UNL A   1      39.192  30.704  31.397  1.00  0.00    -0.248 NA
ATOM     34  C   UNL A   1      37.720  30.975  29.608  1.00  0.00     0.031 C 
ATOM     35  C   UNL A   1      37.066  33.943  33.624  1.00  0.00     0.029 A 
ATOM     36  N   UNL A   1      38.737  32.461  33.700  1.00  0.00    -0.354 N 
ATOM     37  C   UNL A   1      39.457  29.738  30.434  1.00  0.00     0.074 A 
ATOM     38  C   UNL A   1      38.479  29.913  29.384  1.00  0.00     0.031 C 
ATOM     39  C   UNL A   1      37.649  34.055  34.827  1.00  0.00     0.029 A 
ATOM     40  C   UNL A   1      38.740  33.092  34.922  1.00  0.00     0.049 A 
ATOM     41  H   UNL A   1      39.374  31.749  33.460  1.00  0.00     0.167 HD
ATOM     42  C   UNL A   1      40.445  28.811  30.408  1.00  0.00     0.034 A 
ATOM     43  C   UNL A   1      39.533  32.917  35.996  1.00  0.00     0.034 A 
ATOM     44  C   UNL A   1      41.435  28.661  31.440  1.00  0.00     0.049 A 
ATOM     45  C   UNL A   1      40.650  31.912  35.923  1.00  0.00     0.074 A 
ATOM     46  C   UNL A   1      42.526  27.809  31.469  1.00  0.00     0.029 A 
ATOM     47  N   UNL A   1      41.451  29.370  32.631  1.00  0.00    -0.354 N 
ATOM     48  N   UNL A   1      40.987  31.122  34.932  1.00  0.00    -0.248 NA
ATOM     49  C   UNL A   1      41.525  31.806  37.100  1.00  0.00     0.031 C 
ATOM     50  C   UNL A   1      43.182  27.981  32.692  1.00  0.00     0.029 A 
ATOM     51  C   UNL A   1      42.525  28.968  33.408  1.00  0.00     0.049 A 
ATOM     52  H   UNL A   1      40.796  30.058  32.888  1.00  0.00     0.167 HD
ATOM     53  C   UNL A   1      42.131  30.453  35.351  1.00  0.00     0.074 A 
ATOM     54  C   UNL A   1      42.444  30.952  36.675  1.00  0.00     0.031 C 
ATOM     55  C   UNL A   1      42.851  29.502  34.705  1.00  0.00     0.034 A 
BRANCH  42  56
ATOM     56  C   UNL A   1      40.531  27.915  29.198  1.00  0.00     0.023 A 
ATOM     57  C   UNL A   1      39.653  26.818  29.077  1.00  0.00     0.012 A 
ATOM     58  C   UNL A   1      41.440  28.188  28.156  1.00  0.00     0.148 A 
ATOM     59  C   UNL A   1      39.702  25.985  27.959  1.00  0.00     0.002 A 
ATOM     60  C   UNL A   1      41.449  27.384  27.023  1.00  0.00     0.091 A 
ATOM     61  F   UNL A   1      42.281  29.222  28.296  1.00  0.00    -0.205 F 
ATOM     62  C   UNL A   1      40.591  26.275  26.929  1.00  0.00     0.022 A 
BRANCH  60  63
ATOM     63  S   UNL A   1      42.497  27.718  25.603  1.00  0.00     0.127 S 
ATOM     64  O   UNL A   1      42.261  26.535  24.777  1.00  0.00    -0.237 OA
ATOM     65  O   UNL A   1      41.917  28.954  25.077  1.00  0.00    -0.237 OA
ATOM     66  O   UNL A   1      43.850  27.855  26.124  1.00  0.00    -0.744 OA
ENDBRANCH  60  63
ENDBRANCH  42  56
BRANCH  43  67
ATOM     67  C   UNL A   1      39.344  33.762  37.210  1.00  0.00     0.023 A 
ATOM     68  C   UNL A   1      39.822  35.087  37.218  1.00  0.00     0.012 A 
ATOM     69  C   UNL A   1      38.677  33.266  38.347  1.00  0.00     0.148 A 
ATOM     70  C   UNL A   1      39.675  35.891  38.348  1.00  0.00     0.002 A 
ATOM     71  C   UNL A   1      38.482  34.090  39.449  1.00  0.00     0.091 A 
ATOM     72  F   UNL A   1      38.237  32.000  38.324  1.00  0.00    -0.205 F 
ATOM     73  C   UNL A   1      38.997  35.396  39.460  1.00  0.00     0.022 A 
BRANCH  71  74
ATOM     74  S   UNL A   1      37.507  33.584  40.869  1.00  0.00     0.127 S 
ATOM     75  O   UNL A   1      37.376  34.840  41.605  1.00  0.00    -0.237 OA
ATOM     76  O   UNL A   1      36.276  33.109  40.235  1.00  0.00    -0.237 OA
ATOM     77  O   UNL A   1      38.283  32.544  41.530  1.00  0.00    -0.744 OA
ENDBRANCH  71  74
ENDBRANCH  43  67
BRANCH  55  78
ATOM     78  C   UNL A   1      44.076  28.966  35.401  1.00  0.00     0.023 A 
ATOM     79  C   UNL A   1      45.337  29.549  35.163  1.00  0.00     0.012 A 
ATOM     80  C   UNL A   1      43.969  27.909  36.326  1.00  0.00     0.148 A 
ATOM     81  C   UNL A   1      46.478  29.056  35.796  1.00  0.00     0.002 A 
ATOM     82  C   UNL A   1      45.102  27.461  36.996  1.00  0.00     0.091 A 
ATOM     83  F   UNL A   1      42.765  27.354  36.529  1.00  0.00    -0.205 F 
ATOM     84  C   UNL A   1      46.358  28.021  36.720  1.00  0.00     0.022 A 
BRANCH  82  85
ATOM     85  S   UNL A   1      45.025  26.201  38.274  1.00  0.00     0.127 S 
ATOM     86  O   UNL A   1      46.409  26.168  38.744  1.00  0.00    -0.237 OA
ATOM     87  O   UNL A   1      44.073  26.779  39.222  1.00  0.00    -0.237 OA
ATOM     88  O   UNL A   1      44.558  24.989  37.614  1.00  0.00    -0.744 OA
ENDBRANCH  82  85
ENDBRANCH  55  78
ENDBRANCH  29  30
ENDBRANCH  21  24
ENDBRANCH  19  20
ENDBRANCH   1  19
TORSDOF 17
ENDMDL
MODEL 2
REMARK VINA RESULT:     -11.1      1.393      2.635
REMARK SMILES CC(C)[C@H](Sc1ccncc1)C(=O)NCCCCNC(=O)c1ccc(-c2c3nc(c(-c4cccc(S(=O)(=O)[O-])c4F)c4ccc([nH]4)c(-c4cccc(S(=O)(=O)[O-])c4F)c4nc(c(-c5cccc(S(=O)(=O)[O-])c5F)c5ccc2[nH]5)C=C4)C=C3)cc1
REMARK SMILES IDX 17 1 16 2 15 3 14 4 12 5 13 6 4 8 2 9 1 10 3 11 5 12 6 13
REMARK SMILES IDX 7 14 11 15 8 16 10 17 9 18 18 19 19 20 20 21 21 23 22 24
REMARK SMILES IDX 23 25 84 26 24 27 83 28 25 29 26 30 27 31 77 32 28 33 82 34
REMARK SMILES IDX 76 35 78 36 29 37 81 38 75 39 74 40 30 42 62 43 42 44 61 45
REMARK SMILES IDX 43 46 46 47 60 48 79 49 44 50 45 51 59 53 80 54 47 55 31 56
REMARK SMILES IDX 32 57 40 58 33 59 35 60 41 61 34 62 36 63 37 64 38 65 39 66
REMARK SMILES IDX 63 67 64 68 72 69 65 70 67 71 73 72 66 73 68 74 69 75 70 76
REMARK SMILES IDX 71 77 48 78 49 79 57 80 50 81 52 82 58 83 51 84 53 85 54 86
REMARK SMILES IDX 55 87 56 88
REMARK H PARENT 14 7 19 22 78 41 46 52
REMARK Flexibility Score: inf
ROOT
ATOM      1  C   UNL A   1      31.660  31.865  26.572  1.00  0.00     0.023 C 
ENDROOT
BRANCH   1   2
ATOM      2  C   UNL A   1      31.787  30.349  26.477  1.00  0.00     0.023 C 
BRANCH   2   3
ATOM      3  C   UNL A   1      31.575  29.781  25.079  1.00  0.00     0.116 C 
BRANCH   3   4
ATOM      4  N   UNL A   1      32.794  29.712  24.296  1.00  0.00    -0.355 N 
ATOM      5  C   UNL A   1      33.425  28.606  23.785  1.00  0.00     0.233 C 
ATOM      6  O   UNL A   1      34.438  28.780  23.102  1.00  0.00    -0.274 OA
ATOM      7  H   UNL A   1      33.227  30.575  24.106  1.00  0.00     0.163 HD
BRANCH   5   8
ATOM      8  C   UNL A   1      32.864  27.182  24.019  1.00  0.00     0.143 C 
BRANCH   8   9
ATOM      9  C   UNL A   1      33.397  26.633  25.382  1.00  0.00     0.006 C 
ATOM     10  C   UNL A   1      32.216  26.254  26.293  1.00  0.00     0.009 C 
ATOM     11  C   UNL A   1      34.396  25.472  25.372  1.00  0.00     0.009 C 
ENDBRANCH   8   9
BRANCH   8  12
ATOM     12  S   UNL A   1      33.077  26.285  22.403  1.00  0.00    -0.112 SA
BRANCH  12  13
ATOM     13  C   UNL A   1      32.486  24.636  22.679  1.00  0.00     0.011 A 
ATOM     14  C   UNL A   1      31.265  24.317  23.259  1.00  0.00     0.035 A 
ATOM     15  C   UNL A   1      33.329  23.598  22.276  1.00  0.00     0.035 A 
ATOM     16  C   UNL A   1      30.979  22.982  23.493  1.00  0.00     0.112 A 
ATOM     17  C   UNL A   1      32.946  22.295  22.530  1.00  0.00     0.112 A 
ATOM     18  N   UNL A   1      31.794  21.963  23.148  1.00  0.00    -0.265 NA
ENDBRANCH  12  13
ENDBRANCH   8  12
ENDBRANCH   5   8
ENDBRANCH   3   4
ENDBRANCH   2   3
ENDBRANCH   1   2
BRANCH   1  19
ATOM     19  C   UNL A   1      32.825  32.571  27.257  1.00  0.00     0.116 C 
BRANCH  19  20
ATOM     20  N   UNL A   1      32.539  33.957  27.600  1.00  0.00    -0.352 N 
ATOM     21  C   UNL A   1      33.103  34.747  28.574  1.00  0.00     0.251 C 
ATOM     22  H   UNL A   1      31.842  34.390  27.056  1.00  0.00     0.163 HD
ATOM     23  O   UNL A   1      32.641  35.860  28.798  1.00  0.00    -0.269 OA
BRANCH  21  24
ATOM     24  C   UNL A   1      34.244  34.238  29.367  1.00  0.00     0.039 A 
ATOM     25  C   UNL A   1      33.983  33.548  30.552  1.00  0.00     0.014 A 
ATOM     26  C   UNL A   1      35.562  34.424  28.939  1.00  0.00     0.014 A 
ATOM     27  C   UNL A   1      35.042  32.993  31.275  1.00  0.00     0.010 A 
ATOM     28  C   UNL A   1      36.604  33.789  29.608  1.00  0.00     0.010 A 
ATOM     29  C   UNL A   1      36.359  33.077  30.791  1.00  0.00    -0.014 A 
BRANCH  29  30
ATOM     30  C   UNL A   1      37.478  32.417  31.512  1.00  0.00     0.031 A 
ATOM     31  C   UNL A   1      38.237  31.281  30.876  1.00  0.00     0.074 A 
ATOM     32  C   UNL A   1      37.779  32.805  32.768  1.00  0.00     0.049 A 
ATOM     33  N   UNL A   1      39.253  30.606  31.346  1.00  0.00    -0.248 NA
ATOM     34  C   UNL A   1      37.780  30.827  29.552  1.00  0.00     0.031 C 
ATOM     35  C   UNL A   1      37.060  33.827  33.532  1.00  0.00     0.029 A 
ATOM     36  N   UNL A   1      38.760  32.379  33.628  1.00  0.00    -0.354 N 
ATOM     37  C   UNL A   1      39.539  29.634  30.395  1.00  0.00     0.074 A 
ATOM     38  C   UNL A   1      38.560  29.777  29.341  1.00  0.00     0.031 C 
ATOM     39  C   UNL A   1      37.638  33.965  34.735  1.00  0.00     0.029 A 
ATOM     40  C   UNL A   1      38.748  33.024  34.842  1.00  0.00     0.049 A 
ATOM     41  H   UNL A   1      39.411  31.677  33.397  1.00  0.00     0.167 HD
ATOM     42  C   UNL A   1      40.545  28.726  30.381  1.00  0.00     0.034 A 
ATOM     43  C   UNL A   1      39.543  32.877  35.920  1.00  0.00     0.034 A 
ATOM     44  C   UNL A   1      41.536  28.607  31.416  1.00  0.00     0.049 A 
ATOM     45  C   UNL A   1      40.679  31.894  35.860  1.00  0.00     0.074 A 
ATOM     46  C   UNL A   1      42.643  27.778  31.456  1.00  0.00     0.029 A 
ATOM     47  N   UNL A   1      41.536  29.330  32.599  1.00  0.00    -0.354 N 
ATOM     48  N   UNL A   1      41.033  31.099  34.879  1.00  0.00    -0.248 NA
ATOM     49  C   UNL A   1      41.554  31.819  37.039  1.00  0.00     0.031 C 
ATOM     50  C   UNL A   1      43.293  27.976  32.679  1.00  0.00     0.029 A 
ATOM     51  C   UNL A   1      42.616  28.959  33.382  1.00  0.00     0.049 A 
ATOM     52  H   UNL A   1      40.867  30.008  32.846  1.00  0.00     0.167 HD
ATOM     53  C   UNL A   1      42.190  30.458  35.307  1.00  0.00     0.074 A 
ATOM     54  C   UNL A   1      42.490  30.978  36.625  1.00  0.00     0.031 C 
ATOM     55  C   UNL A   1      42.929  29.514  34.673  1.00  0.00     0.034 A 
BRANCH  42  56
ATOM     56  C   UNL A   1      40.651  27.819  29.182  1.00  0.00     0.023 A 
ATOM     57  C   UNL A   1      39.836  26.670  29.100  1.00  0.00     0.012 A 
ATOM     58  C   UNL A   1      41.513  28.128  28.111  1.00  0.00     0.148 A 
ATOM     59  C   UNL A   1      39.903  25.824  27.993  1.00  0.00     0.002 A 
ATOM     60  C   UNL A   1      41.539  27.308  26.989  1.00  0.00     0.091 A 
ATOM     61  F   UNL A   1      42.295  29.211  28.213  1.00  0.00    -0.205 F 
ATOM     62  C   UNL A   1      40.745  26.149  26.934  1.00  0.00     0.022 A 
BRANCH  60  63
ATOM     63  S   UNL A   1      42.527  27.681  25.536  1.00  0.00     0.127 S 
ATOM     64  O   UNL A   1      42.277  26.507  24.700  1.00  0.00    -0.237 OA
ATOM     65  O   UNL A   1      41.907  28.915  25.052  1.00  0.00    -0.237 OA
ATOM     66  O   UNL A   1      43.896  27.831  26.007  1.00  0.00    -0.744 OA
ENDBRANCH  60  63
ENDBRANCH  42  56
BRANCH  43  67
ATOM     67  C   UNL A   1      39.335  33.732  37.124  1.00  0.00     0.023 A 
ATOM     68  C   UNL A   1      39.792  35.065  37.119  1.00  0.00     0.012 A 
ATOM     69  C   UNL A   1      38.671  33.238  38.263  1.00  0.00     0.148 A 
ATOM     70  C   UNL A   1      39.628  35.878  38.240  1.00  0.00     0.002 A 
ATOM     71  C   UNL A   1      38.458  34.071  39.355  1.00  0.00     0.091 A 
ATOM     72  F   UNL A   1      38.251  31.965  38.252  1.00  0.00    -0.205 F 
ATOM     73  C   UNL A   1      38.952  35.385  39.354  1.00  0.00     0.022 A 
BRANCH  71  74
ATOM     74  S   UNL A   1      37.485  33.565  40.777  1.00  0.00     0.127 S 
ATOM     75  O   UNL A   1      38.353  32.566  41.394  1.00  0.00    -0.237 OA
ATOM     76  O   UNL A   1      37.363  34.821  41.520  1.00  0.00    -0.237 OA
ATOM     77  O   UNL A   1      36.229  33.063  40.236  1.00  0.00    -0.744 OA
ENDBRANCH  71  74
ENDBRANCH  43  67
BRANCH  55  78
ATOM     78  C   UNL A   1      44.164  29.010  35.377  1.00  0.00     0.023 A 
ATOM     79  C   UNL A   1      45.405  29.643  35.169  1.00  0.00     0.012 A 
ATOM     80  C   UNL A   1      44.083  27.932  36.281  1.00  0.00     0.148 A 
ATOM     81  C   UNL A   1      46.554  29.181  35.810  1.00  0.00     0.002 A 
ATOM     82  C   UNL A   1      45.221  27.513  36.959  1.00  0.00     0.091 A 
ATOM     83  F   UNL A   1      42.898  27.329  36.455  1.00  0.00    -0.205 F 
ATOM     84  C   UNL A   1      46.460  28.124  36.712  1.00  0.00     0.022 A 
BRANCH  82  85
ATOM     85  S   UNL A   1      45.173  26.227  38.211  1.00  0.00     0.127 S 
ATOM     86  O   UNL A   1      44.172  26.751  39.139  1.00  0.00    -0.237 OA
ATOM     87  O   UNL A   1      44.741  25.061  37.442  1.00  0.00    -0.237 OA
ATOM     88  O   UNL A   1      46.527  26.131  38.740  1.00  0.00    -0.744 OA
ENDBRANCH  82  85
ENDBRANCH  55  78
ENDBRANCH  29  30
ENDBRANCH  21  24
ENDBRANCH  19  20
ENDBRANCH   1  19
TORSDOF 17
ENDMDL
MODEL 3
REMARK VINA RESULT:     -11.0      7.377     12.641
REMARK SMILES CC(C)[C@H](Sc1ccncc1)C(=O)NCCCCNC(=O)c1ccc(-c2c3nc(c(-c4cccc(S(=O)(=O)[O-])c4F)c4ccc([nH]4)c(-c4cccc(S(=O)(=O)[O-])c4F)c4nc(c(-c5cccc(S(=O)(=O)[O-])c5F)c5ccc2[nH]5)C=C4)C=C3)cc1
REMARK SMILES IDX 17 1 16 2 15 3 14 4 12 5 13 6 4 8 2 9 1 10 3 11 5 12 6 13
REMARK SMILES IDX 7 14 11 15 8 16 10 17 9 18 18 19 19 20 20 21 21 23 22 24
REMARK SMILES IDX 23 25 84 26 24 27 83 28 25 29 26 30 27 31 77 32 28 33 82 34
REMARK SMILES IDX 76 35 78 36 29 37 81 38 75 39 74 40 30 42 62 43 42 44 61 45
REMARK SMILES IDX 43 46 46 47 60 48 79 49 44 50 45 51 59 53 80 54 47 55 31 56
REMARK SMILES IDX 32 57 40 58 33 59 35 60 41 61 34 62 36 63 37 64 38 65 39 66
REMARK SMILES IDX 63 67 64 68 72 69 65 70 67 71 73 72 66 73 68 74 69 75 70 76
REMARK SMILES IDX 71 77 48 78 49 79 57 80 50 81 52 82 58 83 51 84 53 85 54 86
REMARK SMILES IDX 55 87 56 88
REMARK H PARENT 14 7 19 22 78 41 46 52
REMARK Flexibility Score: inf
ROOT
ATOM      1  C   UNL A   1      38.451  19.947  24.675  1.00  0.00     0.023 C 
ENDROOT
BRANCH   1   2
ATOM      2  C   UNL A   1      37.370  21.018  24.581  1.00  0.00     0.023 C 
BRANCH   2   3
ATOM      3  C   UNL A   1      36.095  20.702  25.353  1.00  0.00     0.116 C 
BRANCH   3   4
ATOM      4  N   UNL A   1      35.261  21.866  25.584  1.00  0.00    -0.355 N 
ATOM      5  C   UNL A   1      33.993  22.118  25.126  1.00  0.00     0.233 C 
ATOM      6  O   UNL A   1      33.444  23.164  25.485  1.00  0.00    -0.274 OA
ATOM      7  H   UNL A   1      35.658  22.569  26.147  1.00  0.00     0.163 HD
BRANCH   5   8
ATOM      8  C   UNL A   1      33.251  21.106  24.219  1.00  0.00     0.143 C 
BRANCH   8   9
ATOM      9  C   UNL A   1      32.506  21.880  23.082  1.00  0.00     0.006 C 
ATOM     10  C   UNL A   1      33.472  22.864  22.398  1.00  0.00     0.009 C 
ATOM     11  C   UNL A   1      31.778  21.080  21.998  1.00  0.00     0.009 C 
ENDBRANCH   8   9
BRANCH   8  12
ATOM     12  S   UNL A   1      32.400  19.923  25.375  1.00  0.00    -0.112 SA
BRANCH  12  13
ATOM     13  C   UNL A   1      32.958  18.304  24.915  1.00  0.00     0.011 A 
ATOM     14  C   UNL A   1      32.878  17.177  25.723  1.00  0.00     0.035 A 
ATOM     15  C   UNL A   1      33.519  18.179  23.642  1.00  0.00     0.035 A 
ATOM     16  C   UNL A   1      33.440  15.998  25.261  1.00  0.00     0.112 A 
ATOM     17  C   UNL A   1      34.031  16.954  23.260  1.00  0.00     0.112 A 
ATOM     18  N   UNL A   1      34.021  15.861  24.050  1.00  0.00    -0.265 NA
ENDBRANCH  12  13
ENDBRANCH   8  12
ENDBRANCH   5   8
ENDBRANCH   3   4
ENDBRANCH   2   3
ENDBRANCH   1   2
BRANCH   1  19
ATOM     19  C   UNL A   1      38.993  19.695  26.078  1.00  0.00     0.116 C 
BRANCH  19  20
ATOM     20  N   UNL A   1      40.237  18.938  26.088  1.00  0.00    -0.352 N 
ATOM     21  C   UNL A   1      41.530  19.388  26.217  1.00  0.00     0.251 C 
ATOM     22  H   UNL A   1      40.137  17.963  25.990  1.00  0.00     0.163 HD
ATOM     23  O   UNL A   1      42.464  18.606  26.076  1.00  0.00    -0.269 OA
BRANCH  21  24
ATOM     24  C   UNL A   1      41.787  20.818  26.494  1.00  0.00     0.039 A 
ATOM     25  C   UNL A   1      42.459  21.164  27.668  1.00  0.00     0.014 A 
ATOM     26  C   UNL A   1      41.384  21.812  25.599  1.00  0.00     0.014 A 
ATOM     27  C   UNL A   1      42.780  22.501  27.911  1.00  0.00     0.010 A 
ATOM     28  C   UNL A   1      41.789  23.130  25.797  1.00  0.00     0.010 A 
ATOM     29  C   UNL A   1      42.479  23.493  26.961  1.00  0.00    -0.014 A 
BRANCH  29  30
ATOM     30  C   UNL A   1      42.892  24.904  27.177  1.00  0.00     0.031 A 
ATOM     31  C   UNL A   1      41.963  25.882  27.846  1.00  0.00     0.074 A 
ATOM     32  C   UNL A   1      44.090  25.321  26.719  1.00  0.00     0.049 A 
ATOM     33  N   UNL A   1      42.165  27.141  28.138  1.00  0.00    -0.248 NA
ATOM     34  C   UNL A   1      40.624  25.392  28.214  1.00  0.00     0.031 C 
ATOM     35  C   UNL A   1      45.043  24.498  25.970  1.00  0.00     0.029 A 
ATOM     36  N   UNL A   1      44.707  26.544  26.805  1.00  0.00    -0.354 N 
ATOM     37  C   UNL A   1      40.977  27.600  28.694  1.00  0.00     0.074 A 
ATOM     38  C   UNL A   1      40.043  26.497  28.658  1.00  0.00     0.031 C 
ATOM     39  C   UNL A   1      46.130  25.231  25.687  1.00  0.00     0.029 A 
ATOM     40  C   UNL A   1      45.944  26.582  26.205  1.00  0.00     0.049 A 
ATOM     41  H   UNL A   1      44.301  27.321  27.253  1.00  0.00     0.167 HD
ATOM     42  C   UNL A   1      40.697  28.817  29.219  1.00  0.00     0.034 A 
ATOM     43  C   UNL A   1      46.830  27.590  26.088  1.00  0.00     0.034 A 
ATOM     44  C   UNL A   1      41.639  29.902  29.282  1.00  0.00     0.049 A 
ATOM     45  C   UNL A   1      46.513  28.918  26.719  1.00  0.00     0.074 A 
ATOM     46  C   UNL A   1      41.481  31.146  29.868  1.00  0.00     0.029 A 
ATOM     47  N   UNL A   1      42.911  29.880  28.730  1.00  0.00    -0.354 N 
ATOM     48  N   UNL A   1      45.445  29.280  27.390  1.00  0.00    -0.248 NA
ATOM     49  C   UNL A   1      47.541  29.963  26.617  1.00  0.00     0.031 C 
ATOM     50  C   UNL A   1      42.646  31.887  29.641  1.00  0.00     0.029 A 
ATOM     51  C   UNL A   1      43.545  31.091  28.952  1.00  0.00     0.049 A 
ATOM     52  H   UNL A   1      43.305  29.116  28.252  1.00  0.00     0.167 HD
ATOM     53  C   UNL A   1      45.688  30.579  27.819  1.00  0.00     0.074 A 
ATOM     54  C   UNL A   1      47.015  30.929  27.356  1.00  0.00     0.031 C 
ATOM     55  C   UNL A   1      44.882  31.413  28.523  1.00  0.00     0.034 A 
BRANCH  42  56
ATOM     56  C   UNL A   1      39.327  29.025  29.812  1.00  0.00     0.023 A 
ATOM     57  C   UNL A   1      39.062  28.589  31.128  1.00  0.00     0.012 A 
ATOM     58  C   UNL A   1      38.319  29.698  29.094  1.00  0.00     0.148 A 
ATOM     59  C   UNL A   1      37.807  28.786  31.705  1.00  0.00     0.002 A 
ATOM     60  C   UNL A   1      37.087  29.934  29.694  1.00  0.00     0.091 A 
ATOM     61  F   UNL A   1      38.580  30.086  27.838  1.00  0.00    -0.205 F 
ATOM     62  C   UNL A   1      36.825  29.467  30.993  1.00  0.00     0.022 A 
BRANCH  60  63
ATOM     63  S   UNL A   1      35.782  30.874  28.894  1.00  0.00     0.127 S 
ATOM     64  O   UNL A   1      35.158  31.543  30.035  1.00  0.00    -0.237 OA
ATOM     65  O   UNL A   1      36.539  31.759  28.009  1.00  0.00    -0.237 OA
ATOM     66  O   UNL A   1      34.945  29.899  28.209  1.00  0.00    -0.744 OA
ENDBRANCH  60  63
ENDBRANCH  42  56
BRANCH  43  67
ATOM     67  C   UNL A   1      48.135  27.362  25.403  1.00  0.00     0.023 A 
ATOM     68  C   UNL A   1      49.245  26.920  26.149  1.00  0.00     0.012 A 
ATOM     69  C   UNL A   1      48.275  27.563  24.017  1.00  0.00     0.148 A 
ATOM     70  C   UNL A   1      50.481  26.719  25.535  1.00  0.00     0.002 A 
ATOM     71  C   UNL A   1      49.494  27.305  23.400  1.00  0.00     0.091 A 
ATOM     72  F   UNL A   1      47.209  27.992  23.326  1.00  0.00    -0.205 F 
ATOM     73  C   UNL A   1      50.603  26.902  24.160  1.00  0.00     0.022 A 
BRANCH  71  74
ATOM     74  S   UNL A   1      49.708  27.385  21.619  1.00  0.00     0.127 S 
ATOM     75  O   UNL A   1      51.097  26.960  21.466  1.00  0.00    -0.237 OA
ATOM     76  O   UNL A   1      48.712  26.418  21.153  1.00  0.00    -0.237 OA
ATOM     77  O   UNL A   1      49.424  28.765  21.250  1.00  0.00    -0.744 OA
ENDBRANCH  71  74
ENDBRANCH  43  67
BRANCH  55  78
ATOM     78  C   UNL A   1      45.426  32.775  28.873  1.00  0.00     0.023 A 
ATOM     79  C   UNL A   1      46.126  32.967  30.082  1.00  0.00     0.012 A 
ATOM     80  C   UNL A   1      45.280  33.855  27.982  1.00  0.00     0.148 A 
ATOM     81  C   UNL A   1      46.629  34.223  30.419  1.00  0.00     0.002 A 
ATOM     82  C   UNL A   1      45.832  35.091  28.299  1.00  0.00     0.091 A 
ATOM     83  F   UNL A   1      44.596  33.660  26.845  1.00  0.00    -0.205 F 
ATOM     84  C   UNL A   1      46.491  35.281  29.524  1.00  0.00     0.022 A 
BRANCH  82  85
ATOM     85  S   UNL A   1      45.790  36.481  27.163  1.00  0.00     0.127 S 
ATOM     86  O   UNL A   1      44.354  36.733  27.054  1.00  0.00    -0.237 OA
ATOM     87  O   UNL A   1      46.534  37.504  27.897  1.00  0.00    -0.237 OA
ATOM     88  O   UNL A   1      46.440  36.021  25.943  1.00  0.00    -0.744 OA
ENDBRANCH  82  85
ENDBRANCH  55  78
ENDBRANCH  29  30
ENDBRANCH  21  24
ENDBRANCH  19  20
ENDBRANCH   1  19
TORSDOF 17
ENDMDL
