MODEL 1
REMARK VINA RESULT:     -11.9      0.000      0.000
REMARK SMILES O=C(NCCCCNC(=O)[C@@H](CCc1ccccc1)[C@@H]1CCS(=O)(=O)C1)c1ccc(-c2c3nc(c(-c4cccc(S(=O)(=O)[O-])c4F)c4ccc([nH]4)c(-c4cccc(S(=O)(=O)[O-])c4F)c4nc(c(-c5cccc(S(=O)(=O)[O-])c5F)c5ccc2[nH]5)C=C4)C=C3)cc1
REMARK SMILES IDX 5 1 4 2 3 3 1 4 2 5 27 7 28 8 89 9 29 10 88 11 30 12 31 13
REMARK SMILES IDX 32 14 82 15 33 16 87 17 81 18 83 19 34 20 86 21 80 22 79 23
REMARK SMILES IDX 35 25 67 26 47 27 66 28 48 29 51 30 65 31 84 32 49 33 50 34
REMARK SMILES IDX 64 36 85 37 52 38 36 39 37 40 45 41 38 42 40 43 46 44 39 45
REMARK SMILES IDX 41 46 42 47 43 48 44 49 68 50 69 51 77 52 70 53 72 54 78 55
REMARK SMILES IDX 71 56 73 57 74 58 75 59 76 60 53 61 54 62 62 63 55 64 57 65
REMARK SMILES IDX 63 66 56 67 58 68 59 69 60 70 61 71 6 72 7 73 8 74 9 75
REMARK SMILES IDX 10 77 11 78 12 79 13 80 14 81 15 82 19 83 16 84 18 85 17 86
REMARK SMILES IDX 20 87 21 88 26 89 22 90 23 91 24 92 25 93
REMARK H PARENT 3 6 83 24 51 35 8 76
REMARK Flexibility Score: inf
ROOT
ATOM      1  C   UNL A   1      31.426  31.932  26.877  1.00  0.00     0.023 C 
ENDROOT
BRANCH   1   2
ATOM      2  C   UNL A   1      32.529  32.976  26.814  1.00  0.00     0.116 C 
BRANCH   2   3
ATOM      3  N   UNL A   1      32.361  34.135  27.688  1.00  0.00    -0.352 N 
ATOM      4  O   UNL A   1      32.994  35.601  29.305  1.00  0.00    -0.269 OA
ATOM      5  C   UNL A   1      33.239  34.593  28.653  1.00  0.00     0.251 C 
ATOM      6  H   UNL A   1      31.528  34.649  27.577  1.00  0.00     0.163 HD
BRANCH   5   7
ATOM      7  C   UNL A   1      34.441  33.780  28.923  1.00  0.00     0.039 A 
ATOM      8  C   UNL A   1      34.296  32.545  29.553  1.00  0.00     0.014 A 
ATOM      9  C   UNL A   1      35.701  34.353  28.748  1.00  0.00     0.014 A 
ATOM     10  C   UNL A   1      35.378  32.013  30.231  1.00  0.00     0.010 A 
ATOM     11  C   UNL A   1      36.819  33.723  29.297  1.00  0.00     0.010 A 
ATOM     12  C   UNL A   1      36.661  32.573  30.087  1.00  0.00    -0.014 A 
BRANCH  12  13
ATOM     13  C   UNL A   1      37.819  31.859  30.679  1.00  0.00     0.031 A 
ATOM     14  C   UNL A   1      38.594  30.816  29.922  1.00  0.00     0.074 A 
ATOM     15  C   UNL A   1      38.160  32.182  31.943  1.00  0.00     0.049 A 
ATOM     16  N   UNL A   1      39.611  30.100  30.330  1.00  0.00    -0.248 NA
ATOM     17  C   UNL A   1      38.181  30.524  28.539  1.00  0.00     0.031 C 
ATOM     18  C   UNL A   1      37.448  33.154  32.783  1.00  0.00     0.029 A 
ATOM     19  N   UNL A   1      39.177  31.742  32.747  1.00  0.00    -0.354 N 
ATOM     20  C   UNL A   1      39.925  29.239  29.285  1.00  0.00     0.074 A 
ATOM     21  C   UNL A   1      38.998  29.529  28.212  1.00  0.00     0.031 C 
ATOM     22  C   UNL A   1      38.071  33.267  33.961  1.00  0.00     0.029 A 
ATOM     23  C   UNL A   1      39.159  32.304  34.001  1.00  0.00     0.049 A 
ATOM     24  H   UNL A   1      39.854  31.089  32.455  1.00  0.00     0.167 HD
ATOM     25  C   UNL A   1      40.898  28.297  29.233  1.00  0.00     0.034 A 
ATOM     26  C   UNL A   1      39.900  32.040  35.091  1.00  0.00     0.034 A 
ATOM     27  C   UNL A   1      41.831  28.044  30.301  1.00  0.00     0.049 A 
ATOM     28  C   UNL A   1      40.966  30.994  34.993  1.00  0.00     0.074 A 
ATOM     29  C   UNL A   1      42.896  27.160  30.319  1.00  0.00     0.029 A 
ATOM     30  N   UNL A   1      41.803  28.656  31.545  1.00  0.00    -0.354 N 
ATOM     31  N   UNL A   1      41.319  30.276  33.956  1.00  0.00    -0.248 NA
ATOM     32  C   UNL A   1      41.749  30.737  36.206  1.00  0.00     0.031 C 
ATOM     33  C   UNL A   1      43.485  27.206  31.587  1.00  0.00     0.029 A 
ATOM     34  C   UNL A   1      42.816  28.154  32.344  1.00  0.00     0.049 A 
ATOM     35  H   UNL A   1      41.156  29.346  31.820  1.00  0.00     0.167 HD
ATOM     36  C   UNL A   1      42.386  29.499  34.383  1.00  0.00     0.074 A 
ATOM     37  C   UNL A   1      42.640  29.861  35.763  1.00  0.00     0.031 C 
ATOM     38  C   UNL A   1      43.082  28.558  33.701  1.00  0.00     0.034 A 
BRANCH  25  39
ATOM     39  C   UNL A   1      41.030  27.462  27.982  1.00  0.00     0.023 A 
ATOM     40  C   UNL A   1      41.667  27.994  26.844  1.00  0.00     0.012 A 
ATOM     41  C   UNL A   1      40.630  26.110  27.980  1.00  0.00     0.148 A 
ATOM     42  C   UNL A   1      41.887  27.200  25.717  1.00  0.00     0.002 A 
ATOM     43  C   UNL A   1      40.891  25.313  26.871  1.00  0.00     0.091 A 
ATOM     44  F   UNL A   1      40.014  25.626  29.068  1.00  0.00    -0.205 F 
ATOM     45  C   UNL A   1      41.512  25.859  25.736  1.00  0.00     0.022 A 
BRANCH  43  46
ATOM     46  S   UNL A   1      40.524  23.554  26.826  1.00  0.00     0.127 S 
ATOM     47  O   UNL A   1      39.096  23.561  26.508  1.00  0.00    -0.237 OA
ATOM     48  O   UNL A   1      41.387  23.089  25.740  1.00  0.00    -0.237 OA
ATOM     49  O   UNL A   1      40.862  23.036  28.143  1.00  0.00    -0.744 OA
ENDBRANCH  43  46
ENDBRANCH  25  39
BRANCH  26  50
ATOM     50  C   UNL A   1      39.641  32.772  36.362  1.00  0.00     0.023 A 
ATOM     51  C   UNL A   1      40.312  33.981  36.620  1.00  0.00     0.012 A 
ATOM     52  C   UNL A   1      38.711  32.285  37.302  1.00  0.00     0.148 A 
ATOM     53  C   UNL A   1      40.094  34.670  37.812  1.00  0.00     0.002 A 
ATOM     54  C   UNL A   1      38.447  33.013  38.455  1.00  0.00     0.091 A 
ATOM     55  F   UNL A   1      38.086  31.128  37.041  1.00  0.00    -0.205 F 
ATOM     56  C   UNL A   1      39.155  34.193  38.723  1.00  0.00     0.022 A 
BRANCH  54  57
ATOM     57  S   UNL A   1      37.146  32.547  39.601  1.00  0.00     0.127 S 
ATOM     58  O   UNL A   1      37.573  31.212  40.009  1.00  0.00    -0.237 OA
ATOM     59  O   UNL A   1      37.268  33.578  40.633  1.00  0.00    -0.237 OA
ATOM     60  O   UNL A   1      35.909  32.614  38.835  1.00  0.00    -0.744 OA
ENDBRANCH  54  57
ENDBRANCH  26  50
BRANCH  38  61
ATOM     61  C   UNL A   1      44.216  27.887  34.427  1.00  0.00     0.023 A 
ATOM     62  C   UNL A   1      45.483  28.502  34.478  1.00  0.00     0.012 A 
ATOM     63  C   UNL A   1      44.010  26.665  35.093  1.00  0.00     0.148 A 
ATOM     64  C   UNL A   1      46.540  27.887  35.147  1.00  0.00     0.002 A 
ATOM     65  C   UNL A   1      45.053  26.086  35.805  1.00  0.00     0.091 A 
ATOM     66  F   UNL A   1      42.803  26.087  35.014  1.00  0.00    -0.205 F 
ATOM     67  C   UNL A   1      46.322  26.687  35.819  1.00  0.00     0.022 A 
BRANCH  65  68
ATOM     68  S   UNL A   1      44.839  24.595  36.782  1.00  0.00     0.127 S 
ATOM     69  O   UNL A   1      46.188  24.387  37.306  1.00  0.00    -0.237 OA
ATOM     70  O   UNL A   1      43.854  25.018  37.778  1.00  0.00    -0.237 OA
ATOM     71  O   UNL A   1      44.365  23.573  35.858  1.00  0.00    -0.744 OA
ENDBRANCH  65  68
ENDBRANCH  38  61
ENDBRANCH  12  13
ENDBRANCH   5   7
ENDBRANCH   2   3
ENDBRANCH   1   2
BRANCH   1  72
ATOM     72  C   UNL A   1      31.925  30.501  26.817  1.00  0.00     0.023 C 
BRANCH  72  73
ATOM     73  C   UNL A   1      31.494  29.724  25.572  1.00  0.00     0.116 C 
BRANCH  73  74
ATOM     74  N   UNL A   1      32.551  29.594  24.614  1.00  0.00    -0.356 N 
ATOM     75  C   UNL A   1      32.638  28.720  23.584  1.00  0.00     0.223 C 
ATOM     76  H   UNL A   1      33.306  30.217  24.717  1.00  0.00     0.163 HD
ATOM     77  O   UNL A   1      33.502  28.944  22.731  1.00  0.00    -0.275 OA
BRANCH  75  78
ATOM     78  C   UNL A   1      31.660  27.534  23.395  1.00  0.00     0.083 C 
BRANCH  78  79
ATOM     79  C   UNL A   1      30.376  27.768  22.534  1.00  0.00     0.018 C 
BRANCH  79  80
ATOM     80  C   UNL A   1      29.007  28.477  22.801  1.00  0.00     0.036 C 
BRANCH  80  81
ATOM     81  C   UNL A   1      28.698  29.936  22.562  1.00  0.00    -0.048 A 
ATOM     82  C   UNL A   1      28.228  30.374  21.316  1.00  0.00     0.004 A 
ATOM     83  C   UNL A   1      28.848  30.912  23.559  1.00  0.00     0.004 A 
ATOM     84  C   UNL A   1      28.122  31.740  21.028  1.00  0.00     0.000 A 
ATOM     85  C   UNL A   1      28.749  32.276  23.280  1.00  0.00     0.000 A 
ATOM     86  C   UNL A   1      28.425  32.691  21.998  1.00  0.00     0.000 A 
ENDBRANCH  80  81
ENDBRANCH  79  80
ENDBRANCH  78  79
BRANCH  78  87
ATOM     87  C   UNL A   1      32.447  26.185  23.528  1.00  0.00     0.017 C 
ATOM     88  C   UNL A   1      31.692  24.876  23.351  1.00  0.00     0.021 C 
ATOM     89  C   UNL A   1      33.064  26.003  24.942  1.00  0.00     0.141 C 
ATOM     90  C   UNL A   1      30.802  24.683  24.571  1.00  0.00     0.137 C 
ATOM     91  S   UNL A   1      31.772  25.263  25.941  1.00  0.00     0.150 S 
ATOM     92  O   UNL A   1      31.031  26.315  26.611  1.00  0.00    -0.229 OA
ATOM     93  O   UNL A   1      32.298  24.119  26.650  1.00  0.00    -0.229 OA
ENDBRANCH  78  87
ENDBRANCH  75  78
ENDBRANCH  73  74
ENDBRANCH  72  73
ENDBRANCH   1  72
TORSDOF 18
ENDMDL
MODEL 2
REMARK VINA RESULT:     -11.7      6.290     11.730
REMARK SMILES O=C(NCCCCNC(=O)[C@@H](CCc1ccccc1)[C@@H]1CCS(=O)(=O)C1)c1ccc(-c2c3nc(c(-c4cccc(S(=O)(=O)[O-])c4F)c4ccc([nH]4)c(-c4cccc(S(=O)(=O)[O-])c4F)c4nc(c(-c5cccc(S(=O)(=O)[O-])c5F)c5ccc2[nH]5)C=C4)C=C3)cc1
REMARK SMILES IDX 5 1 4 2 3 3 1 4 2 5 27 7 28 8 89 9 29 10 88 11 30 12 31 13
REMARK SMILES IDX 32 14 82 15 33 16 87 17 81 18 83 19 34 20 86 21 80 22 79 23
REMARK SMILES IDX 35 25 67 26 47 27 66 28 48 29 51 30 65 31 84 32 49 33 50 34
REMARK SMILES IDX 64 36 85 37 52 38 36 39 37 40 45 41 38 42 40 43 46 44 39 45
REMARK SMILES IDX 41 46 42 47 43 48 44 49 68 50 69 51 77 52 70 53 72 54 78 55
REMARK SMILES IDX 71 56 73 57 74 58 75 59 76 60 53 61 54 62 62 63 55 64 57 65
REMARK SMILES IDX 63 66 56 67 58 68 59 69 60 70 61 71 6 72 7 73 8 74 9 75
REMARK SMILES IDX 10 77 11 78 12 79 13 80 14 81 15 82 19 83 16 84 18 85 17 86
REMARK SMILES IDX 20 87 21 88 26 89 22 90 23 91 24 92 25 93
REMARK H PARENT 3 6 83 24 51 35 8 76
REMARK Flexibility Score: inf
ROOT
ATOM      1  C   UNL A   1      37.793  20.950  24.890  1.00  0.00     0.023 C 
ENDROOT
BRANCH   1   2
ATOM      2  C   UNL A   1      38.845  20.822  25.980  1.00  0.00     0.116 C 
BRANCH   2   3
ATOM      3  N   UNL A   1      39.717  19.654  25.891  1.00  0.00    -0.352 N 
ATOM      4  O   UNL A   1      41.694  18.545  26.052  1.00  0.00    -0.269 OA
ATOM      5  C   UNL A   1      41.077  19.601  26.133  1.00  0.00     0.251 C 
ATOM      6  H   UNL A   1      39.288  18.807  25.629  1.00  0.00     0.163 HD
BRANCH   5   7
ATOM      7  C   UNL A   1      41.770  20.873  26.415  1.00  0.00     0.039 A 
ATOM      8  C   UNL A   1      41.953  21.266  27.740  1.00  0.00     0.014 A 
ATOM      9  C   UNL A   1      42.026  21.754  25.364  1.00  0.00     0.014 A 
ATOM     10  C   UNL A   1      42.141  22.608  28.016  1.00  0.00     0.010 A 
ATOM     11  C   UNL A   1      42.378  23.074  25.650  1.00  0.00     0.010 A 
ATOM     12  C   UNL A   1      42.390  23.526  26.979  1.00  0.00    -0.014 A 
BRANCH  12  13
ATOM     13  C   UNL A   1      42.772  24.915  27.335  1.00  0.00     0.031 A 
ATOM     14  C   UNL A   1      41.816  25.865  28.005  1.00  0.00     0.074 A 
ATOM     15  C   UNL A   1      44.026  25.306  27.032  1.00  0.00     0.049 A 
ATOM     16  N   UNL A   1      42.015  27.112  28.350  1.00  0.00    -0.248 NA
ATOM     17  C   UNL A   1      40.468  25.369  28.326  1.00  0.00     0.031 C 
ATOM     18  C   UNL A   1      45.021  24.474  26.343  1.00  0.00     0.029 A 
ATOM     19  N   UNL A   1      44.686  26.485  27.255  1.00  0.00    -0.354 N 
ATOM     20  C   UNL A   1      40.810  27.568  28.872  1.00  0.00     0.074 A 
ATOM     21  C   UNL A   1      39.883  26.457  28.815  1.00  0.00     0.031 C 
ATOM     22  C   UNL A   1      46.171  25.150  26.239  1.00  0.00     0.029 A 
ATOM     23  C   UNL A   1      45.966  26.493  26.754  1.00  0.00     0.049 A 
ATOM     24  H   UNL A   1      44.283  27.250  27.727  1.00  0.00     0.167 HD
ATOM     25  C   UNL A   1      40.512  28.799  29.354  1.00  0.00     0.034 A 
ATOM     26  C   UNL A   1      46.867  27.486  26.665  1.00  0.00     0.034 A 
ATOM     27  C   UNL A   1      41.458  29.883  29.431  1.00  0.00     0.049 A 
ATOM     28  C   UNL A   1      46.500  28.831  27.211  1.00  0.00     0.074 A 
ATOM     29  C   UNL A   1      41.273  31.147  29.966  1.00  0.00     0.029 A 
ATOM     30  N   UNL A   1      42.755  29.844  28.944  1.00  0.00    -0.354 N 
ATOM     31  N   UNL A   1      45.394  29.203  27.806  1.00  0.00    -0.248 NA
ATOM     32  C   UNL A   1      47.512  29.887  27.092  1.00  0.00     0.031 C 
ATOM     33  C   UNL A   1      42.444  31.884  29.764  1.00  0.00     0.029 A 
ATOM     34  C   UNL A   1      43.375  31.066  29.146  1.00  0.00     0.049 A 
ATOM     35  H   UNL A   1      43.175  29.062  28.516  1.00  0.00     0.167 HD
ATOM     36  C   UNL A   1      45.587  30.531  28.159  1.00  0.00     0.074 A 
ATOM     37  C   UNL A   1      46.928  30.885  27.739  1.00  0.00     0.031 C 
ATOM     38  C   UNL A   1      44.726  31.386  28.761  1.00  0.00     0.034 A 
BRANCH  25  39
ATOM     39  C   UNL A   1      39.112  29.061  29.853  1.00  0.00     0.023 A 
ATOM     40  C   UNL A   1      38.740  28.660  31.152  1.00  0.00     0.012 A 
ATOM     41  C   UNL A   1      38.206  29.813  29.077  1.00  0.00     0.148 A 
ATOM     42  C   UNL A   1      37.483  28.986  31.663  1.00  0.00     0.002 A 
ATOM     43  C   UNL A   1      36.972  30.172  29.609  1.00  0.00     0.091 A 
ATOM     44  F   UNL A   1      38.573  30.175  27.840  1.00  0.00    -0.205 F 
ATOM     45  C   UNL A   1      36.606  29.752  30.899  1.00  0.00     0.022 A 
BRANCH  43  46
ATOM     46  S   UNL A   1      35.805  31.226  28.739  1.00  0.00     0.127 S 
ATOM     47  O   UNL A   1      34.921  31.645  29.827  1.00  0.00    -0.237 OA
ATOM     48  O   UNL A   1      36.675  32.281  28.220  1.00  0.00    -0.237 OA
ATOM     49  O   UNL A   1      35.183  30.389  27.724  1.00  0.00    -0.744 OA
ENDBRANCH  43  46
ENDBRANCH  25  39
BRANCH  26  50
ATOM     50  C   UNL A   1      48.186  27.239  26.023  1.00  0.00     0.023 A 
ATOM     51  C   UNL A   1      49.257  26.750  26.794  1.00  0.00     0.012 A 
ATOM     52  C   UNL A   1      48.375  27.461  24.644  1.00  0.00     0.148 A 
ATOM     53  C   UNL A   1      50.505  26.528  26.212  1.00  0.00     0.002 A 
ATOM     54  C   UNL A   1      49.600  27.172  24.058  1.00  0.00     0.091 A 
ATOM     55  F   UNL A   1      47.345  27.933  23.928  1.00  0.00    -0.205 F 
ATOM     56  C   UNL A   1      50.673  26.728  24.844  1.00  0.00     0.022 A 
BRANCH  54  57
ATOM     57  S   UNL A   1      49.852  27.257  22.283  1.00  0.00     0.127 S 
ATOM     58  O   UNL A   1      51.250  26.855  22.161  1.00  0.00    -0.237 OA
ATOM     59  O   UNL A   1      48.882  26.278  21.792  1.00  0.00    -0.237 OA
ATOM     60  O   UNL A   1      49.550  28.633  21.911  1.00  0.00    -0.744 OA
ENDBRANCH  54  57
ENDBRANCH  26  50
BRANCH  38  61
ATOM     61  C   UNL A   1      45.227  32.776  29.042  1.00  0.00     0.023 A 
ATOM     62  C   UNL A   1      45.919  33.049  30.239  1.00  0.00     0.012 A 
ATOM     63  C   UNL A   1      45.047  33.802  28.095  1.00  0.00     0.148 A 
ATOM     64  C   UNL A   1      46.386  34.335  30.508  1.00  0.00     0.002 A 
ATOM     65  C   UNL A   1      45.565  35.067  28.345  1.00  0.00     0.091 A 
ATOM     66  F   UNL A   1      44.368  33.526  26.972  1.00  0.00    -0.205 F 
ATOM     67  C   UNL A   1      46.219  35.338  29.557  1.00  0.00     0.022 A 
BRANCH  65  68
ATOM     68  S   UNL A   1      45.486  36.394  27.139  1.00  0.00     0.127 S 
ATOM     69  O   UNL A   1      46.221  37.459  27.820  1.00  0.00    -0.237 OA
ATOM     70  O   UNL A   1      46.180  35.808  25.991  1.00  0.00    -0.237 OA
ATOM     71  O   UNL A   1      44.070  36.656  26.920  1.00  0.00    -0.744 OA
ENDBRANCH  65  68
ENDBRANCH  38  61
ENDBRANCH  12  13
ENDBRANCH   5   7
ENDBRANCH   2   3
ENDBRANCH   1   2
BRANCH   1  72
ATOM     72  C   UNL A   1      36.402  21.264  25.405  1.00  0.00     0.023 C 
BRANCH  72  73
ATOM     73  C   UNL A   1      36.196  22.711  25.855  1.00  0.00     0.116 C 
BRANCH  73  74
ATOM     74  N   UNL A   1      35.268  22.821  26.940  1.00  0.00    -0.356 N 
ATOM     75  C   UNL A   1      33.925  22.658  26.907  1.00  0.00     0.223 C 
ATOM     76  H   UNL A   1      35.655  23.041  27.818  1.00  0.00     0.163 HD
ATOM     77  O   UNL A   1      33.348  22.543  27.994  1.00  0.00    -0.275 OA
BRANCH  75  78
ATOM     78  C   UNL A   1      33.120  22.524  25.591  1.00  0.00     0.083 C 
BRANCH  78  79
ATOM     79  C   UNL A   1      32.507  21.127  25.243  1.00  0.00     0.018 C 
BRANCH  79  80
ATOM     80  C   UNL A   1      32.774  20.079  24.113  1.00  0.00     0.036 C 
BRANCH  80  81
ATOM     81  C   UNL A   1      32.930  18.588  24.299  1.00  0.00    -0.048 A 
ATOM     82  C   UNL A   1      32.494  17.964  25.476  1.00  0.00     0.004 A 
ATOM     83  C   UNL A   1      33.497  17.761  23.317  1.00  0.00     0.004 A 
ATOM     84  C   UNL A   1      32.805  16.623  25.736  1.00  0.00     0.000 A 
ATOM     85  C   UNL A   1      33.816  16.425  23.569  1.00  0.00     0.000 A 
ATOM     86  C   UNL A   1      33.505  15.867  24.800  1.00  0.00     0.000 A 
ENDBRANCH  80  81
ENDBRANCH  79  80
ENDBRANCH  78  79
BRANCH  78  87
ATOM     87  C   UNL A   1      32.517  23.917  25.205  1.00  0.00     0.017 C 
ATOM     88  C   UNL A   1      31.469  23.982  24.105  1.00  0.00     0.021 C 
ATOM     89  C   UNL A   1      33.597  24.896  24.669  1.00  0.00     0.141 C 
ATOM     90  C   UNL A   1      32.170  23.719  22.779  1.00  0.00     0.137 C 
ATOM     91  S   UNL A   1      33.733  24.551  22.915  1.00  0.00     0.150 S 
ATOM     92  O   UNL A   1      34.787  23.576  22.704  1.00  0.00    -0.229 OA
ATOM     93  O   UNL A   1      33.665  25.786  22.168  1.00  0.00    -0.229 OA
ENDBRANCH  78  87
ENDBRANCH  75  78
ENDBRANCH  73  74
ENDBRANCH  72  73
ENDBRANCH   1  72
TORSDOF 18
ENDMDL
MODEL 3
REMARK VINA RESULT:     -11.5      2.126      3.009
REMARK SMILES O=C(NCCCCNC(=O)[C@@H](CCc1ccccc1)[C@@H]1CCS(=O)(=O)C1)c1ccc(-c2c3nc(c(-c4cccc(S(=O)(=O)[O-])c4F)c4ccc([nH]4)c(-c4cccc(S(=O)(=O)[O-])c4F)c4nc(c(-c5cccc(S(=O)(=O)[O-])c5F)c5ccc2[nH]5)C=C4)C=C3)cc1
REMARK SMILES IDX 5 1 4 2 3 3 1 4 2 5 27 7 28 8 89 9 29 10 88 11 30 12 31 13
REMARK SMILES IDX 32 14 82 15 33 16 87 17 81 18 83 19 34 20 86 21 80 22 79 23
REMARK SMILES IDX 35 25 67 26 47 27 66 28 48 29 51 30 65 31 84 32 49 33 50 34
REMARK SMILES IDX 64 36 85 37 52 38 36 39 37 40 45 41 38 42 40 43 46 44 39 45
REMARK SMILES IDX 41 46 42 47 43 48 44 49 68 50 69 51 77 52 70 53 72 54 78 55
REMARK SMILES IDX 71 56 73 57 74 58 75 59 76 60 53 61 54 62 62 63 55 64 57 65
REMARK SMILES IDX 63 66 56 67 58 68 59 69 60 70 61 71 6 72 7 73 8 74 9 75
REMARK SMILES IDX 10 77 11 78 12 79 13 80 14 81 15 82 19 83 16 84 18 85 17 86
REMARK SMILES IDX 20 87 21 88 26 89 22 90 23 91 24 92 25 93
REMARK H PARENT 3 6 83 24 51 35 8 76
REMARK Flexibility Score: inf
ROOT
ATOM      1  C   UNL A   1      31.541  29.150  26.778  1.00  0.00     0.023 C 
ENDROOT
BRANCH   1   2
ATOM      2  C   UNL A   1      32.466  30.235  26.251  1.00  0.00     0.116 C 
BRANCH   2   3
ATOM      3  N   UNL A   1      32.170  31.596  26.692  1.00  0.00    -0.352 N 
ATOM      4  O   UNL A   1      32.659  33.607  27.629  1.00  0.00    -0.269 OA
ATOM      5  C   UNL A   1      33.022  32.474  27.335  1.00  0.00     0.251 C 
ATOM      6  H   UNL A   1      31.259  31.925  26.512  1.00  0.00     0.163 HD
BRANCH   5   7
ATOM      7  C   UNL A   1      34.354  31.972  27.723  1.00  0.00     0.039 A 
ATOM      8  C   UNL A   1      34.508  30.620  28.024  1.00  0.00     0.014 A 
ATOM      9  C   UNL A   1      35.372  32.888  27.994  1.00  0.00     0.014 A 
ATOM     10  C   UNL A   1      35.566  30.233  28.826  1.00  0.00     0.010 A 
ATOM     11  C   UNL A   1      36.518  32.455  28.663  1.00  0.00     0.010 A 
ATOM     12  C   UNL A   1      36.603  31.134  29.129  1.00  0.00    -0.014 A 
BRANCH  12  13
ATOM     13  C   UNL A   1      37.806  30.623  29.832  1.00  0.00     0.031 A 
ATOM     14  C   UNL A   1      38.762  29.655  29.189  1.00  0.00     0.074 A 
ATOM     15  C   UNL A   1      38.018  31.061  31.089  1.00  0.00     0.049 A 
ATOM     16  N   UNL A   1      39.839  29.112  29.700  1.00  0.00    -0.248 NA
ATOM     17  C   UNL A   1      38.483  29.231  27.807  1.00  0.00     0.031 C 
ATOM     18  C   UNL A   1      37.128  31.970  31.822  1.00  0.00     0.029 A 
ATOM     19  N   UNL A   1      39.031  30.813  31.976  1.00  0.00    -0.354 N 
ATOM     20  C   UNL A   1      40.333  28.245  28.733  1.00  0.00     0.074 A 
ATOM     21  C   UNL A   1      39.447  28.342  27.593  1.00  0.00     0.031 C 
ATOM     22  C   UNL A   1      37.652  32.235  33.024  1.00  0.00     0.029 A 
ATOM     23  C   UNL A   1      38.855  31.437  33.188  1.00  0.00     0.049 A 
ATOM     24  H   UNL A   1      39.807  30.244  31.767  1.00  0.00     0.167 HD
ATOM     25  C   UNL A   1      41.426  27.445  28.797  1.00  0.00     0.034 A 
ATOM     26  C   UNL A   1      39.552  31.341  34.333  1.00  0.00     0.034 A 
ATOM     27  C   UNL A   1      42.313  27.385  29.931  1.00  0.00     0.049 A 
ATOM     28  C   UNL A   1      40.754  30.448  34.364  1.00  0.00     0.074 A 
ATOM     29  C   UNL A   1      43.484  26.660  30.066  1.00  0.00     0.029 A 
ATOM     30  N   UNL A   1      42.121  28.057  31.128  1.00  0.00    -0.354 N 
ATOM     31  N   UNL A   1      41.268  29.729  33.397  1.00  0.00    -0.248 NA
ATOM     32  C   UNL A   1      41.485  30.372  35.633  1.00  0.00     0.031 C 
ATOM     33  C   UNL A   1      43.977  26.860  31.360  1.00  0.00     0.029 A 
ATOM     34  C   UNL A   1      43.139  27.747  32.015  1.00  0.00     0.049 A 
ATOM     35  H   UNL A   1      41.371  28.666  31.321  1.00  0.00     0.167 HD
ATOM     36  C   UNL A   1      42.399  29.133  33.934  1.00  0.00     0.074 A 
ATOM     37  C   UNL A   1      42.512  29.605  35.299  1.00  0.00     0.031 C 
ATOM     38  C   UNL A   1      43.259  28.260  33.355  1.00  0.00     0.034 A 
BRANCH  25  39
ATOM     39  C   UNL A   1      41.750  26.568  27.613  1.00  0.00     0.023 A 
ATOM     40  C   UNL A   1      42.494  27.085  26.534  1.00  0.00     0.012 A 
ATOM     41  C   UNL A   1      41.421  25.197  27.628  1.00  0.00     0.148 A 
ATOM     42  C   UNL A   1      42.889  26.258  25.482  1.00  0.00     0.002 A 
ATOM     43  C   UNL A   1      41.854  24.369  26.598  1.00  0.00     0.091 A 
ATOM     44  F   UNL A   1      40.702  24.725  28.657  1.00  0.00    -0.205 F 
ATOM     45  C   UNL A   1      42.581  24.900  25.520  1.00  0.00     0.022 A 
BRANCH  43  46
ATOM     46  S   UNL A   1      41.583  22.593  26.594  1.00  0.00     0.127 S 
ATOM     47  O   UNL A   1      40.124  22.519  26.515  1.00  0.00    -0.237 OA
ATOM     48  O   UNL A   1      42.282  22.179  25.378  1.00  0.00    -0.237 OA
ATOM     49  O   UNL A   1      42.161  22.093  27.833  1.00  0.00    -0.744 OA
ENDBRANCH  43  46
ENDBRANCH  25  39
BRANCH  26  50
ATOM     50  C   UNL A   1      39.115  32.100  35.537  1.00  0.00     0.023 A 
ATOM     51  C   UNL A   1      38.225  31.508  36.450  1.00  0.00     0.012 A 
ATOM     52  C   UNL A   1      39.602  33.398  35.792  1.00  0.00     0.148 A 
ATOM     53  C   UNL A   1      37.791  32.212  37.574  1.00  0.00     0.002 A 
ATOM     54  C   UNL A   1      39.221  34.066  36.948  1.00  0.00     0.091 A 
ATOM     55  F   UNL A   1      40.445  33.948  34.906  1.00  0.00    -0.205 F 
ATOM     56  C   UNL A   1      38.298  33.484  37.828  1.00  0.00     0.022 A 
BRANCH  54  57
ATOM     57  S   UNL A   1      39.944  35.638  37.424  1.00  0.00     0.127 S 
ATOM     58  O   UNL A   1      41.349  35.280  37.594  1.00  0.00    -0.237 OA
ATOM     59  O   UNL A   1      39.655  36.471  36.255  1.00  0.00    -0.237 OA
ATOM     60  O   UNL A   1      39.238  36.043  38.632  1.00  0.00    -0.744 OA
ENDBRANCH  54  57
ENDBRANCH  26  50
BRANCH  38  61
ATOM     61  C   UNL A   1      44.424  27.796  34.186  1.00  0.00     0.023 A 
ATOM     62  C   UNL A   1      45.604  28.564  34.240  1.00  0.00     0.012 A 
ATOM     63  C   UNL A   1      44.329  26.616  34.947  1.00  0.00     0.148 A 
ATOM     64  C   UNL A   1      46.689  28.141  35.005  1.00  0.00     0.002 A 
ATOM     65  C   UNL A   1      45.393  26.230  35.752  1.00  0.00     0.091 A 
ATOM     66  F   UNL A   1      43.205  25.889  34.865  1.00  0.00    -0.205 F 
ATOM     67  C   UNL A   1      46.579  26.982  35.770  1.00  0.00     0.022 A 
BRANCH  65  68
ATOM     68  S   UNL A   1      45.306  24.808  36.845  1.00  0.00     0.127 S 
ATOM     69  O   UNL A   1      44.549  25.347  37.974  1.00  0.00    -0.237 OA
ATOM     70  O   UNL A   1      44.578  23.836  36.028  1.00  0.00    -0.237 OA
ATOM     71  O   UNL A   1      46.684  24.440  37.138  1.00  0.00    -0.744 OA
ENDBRANCH  65  68
ENDBRANCH  38  61
ENDBRANCH  12  13
ENDBRANCH   5   7
ENDBRANCH   2   3
ENDBRANCH   1   2
BRANCH   1  72
ATOM     72  C   UNL A   1      32.251  27.869  27.173  1.00  0.00     0.023 C 
BRANCH  72  73
ATOM     73  C   UNL A   1      32.041  26.697  26.214  1.00  0.00     0.116 C 
BRANCH  73  74
ATOM     74  N   UNL A   1      31.429  25.569  26.851  1.00  0.00    -0.356 N 
ATOM     75  C   UNL A   1      31.620  24.257  26.583  1.00  0.00     0.223 C 
ATOM     76  H   UNL A   1      30.793  25.775  27.574  1.00  0.00     0.163 HD
ATOM     77  O   UNL A   1      31.196  23.448  27.414  1.00  0.00    -0.275 OA
BRANCH  75  78
ATOM     78  C   UNL A   1      32.410  23.750  25.351  1.00  0.00     0.083 C 
BRANCH  78  79
ATOM     79  C   UNL A   1      31.643  23.597  23.996  1.00  0.00     0.018 C 
BRANCH  79  80
ATOM     80  C   UNL A   1      31.107  24.614  22.935  1.00  0.00     0.036 C 
BRANCH  80  81
ATOM     81  C   UNL A   1      31.515  26.063  22.803  1.00  0.00    -0.048 A 
ATOM     82  C   UNL A   1      32.846  26.410  22.538  1.00  0.00     0.004 A 
ATOM     83  C   UNL A   1      30.598  27.118  22.922  1.00  0.00     0.004 A 
ATOM     84  C   UNL A   1      33.268  27.744  22.602  1.00  0.00     0.000 A 
ATOM     85  C   UNL A   1      31.009  28.450  22.993  1.00  0.00     0.000 A 
ATOM     86  C   UNL A   1      32.355  28.759  22.874  1.00  0.00     0.000 A 
ENDBRANCH  80  81
ENDBRANCH  79  80
ENDBRANCH  78  79
BRANCH  78  87
ATOM     87  C   UNL A   1      33.924  24.117  25.516  1.00  0.00     0.017 C 
ATOM     88  C   UNL A   1      34.831  24.052  24.297  1.00  0.00     0.021 C 
ATOM     89  C   UNL A   1      34.655  23.165  26.502  1.00  0.00     0.141 C 
ATOM     90  C   UNL A   1      35.042  22.585  23.951  1.00  0.00     0.137 C 
ATOM     91  S   UNL A   1      35.178  21.761  25.518  1.00  0.00     0.150 S 
ATOM     92  O   UNL A   1      34.158  20.731  25.581  1.00  0.00    -0.229 OA
ATOM     93  O   UNL A   1      36.573  21.480  25.771  1.00  0.00    -0.229 OA
ENDBRANCH  78  87
ENDBRANCH  75  78
ENDBRANCH  73  74
ENDBRANCH  72  73
ENDBRANCH   1  72
TORSDOF 18
ENDMDL
