MODEL 1
REMARK VINA RESULT:     -12.9      0.000      0.000
REMARK SMILES O=C(NCCCCNC(=O)[C@H]1C=C[C@H](NC(=O)[C@]23C[C@H]4C[C@H](C[C@H](C4)C2)C3)C1)c1ccc(-c2c3nc(c(-c4cccc(S(=O)(=O)[O-])c4F)c4ccc([nH]4)c(-c4cccc(S(=O)(=O)[O-])c4F)c4nc(c(-c5cccc(S(=O)(=O)[O-])c5F)c5ccc2[nH]5)C=C4)C=C3)cc1
REMARK SMILES IDX 5 1 4 2 3 3 1 4 2 5 29 7 30 8 91 9 31 10 90 11 32 12 33 13
REMARK SMILES IDX 34 14 84 15 35 16 89 17 83 18 85 19 36 20 88 21 82 22 81 23
REMARK SMILES IDX 37 25 69 26 49 27 68 28 50 29 53 30 67 31 86 32 51 33 52 34
REMARK SMILES IDX 66 36 87 37 54 38 38 39 39 40 47 41 40 42 42 43 48 44 41 45
REMARK SMILES IDX 43 46 44 47 45 48 46 49 70 50 71 51 79 52 72 53 74 54 80 55
REMARK SMILES IDX 73 56 75 57 76 58 77 59 78 60 55 61 56 62 64 63 57 64 59 65
REMARK SMILES IDX 65 66 58 67 60 68 61 69 62 70 63 71 6 72 7 73 8 74 9 75
REMARK SMILES IDX 10 77 11 78 12 79 28 80 13 81 14 82 15 83 16 84 17 86 18 87
REMARK SMILES IDX 19 88 26 89 27 90 20 91 24 92 22 93 21 94 25 95 23 96
REMARK H PARENT 3 6 85 24 53 35 8 76 15 85
REMARK Flexibility Score: inf
ROOT
ATOM      1  C   UNL A   1      38.036  19.609  24.884  1.00  0.00     0.023 C 
ENDROOT
BRANCH   1   2
ATOM      2  C   UNL A   1      39.060  20.199  25.832  1.00  0.00     0.116 C 
BRANCH   2   3
ATOM      3  N   UNL A   1      40.162  19.286  26.104  1.00  0.00    -0.352 N 
ATOM      4  O   UNL A   1      42.304  18.665  26.411  1.00  0.00    -0.269 OA
ATOM      5  C   UNL A   1      41.484  19.568  26.376  1.00  0.00     0.251 C 
ATOM      6  H   UNL A   1      39.929  18.330  26.092  1.00  0.00     0.163 HD
BRANCH   5   7
ATOM      7  C   UNL A   1      41.893  20.973  26.597  1.00  0.00     0.039 A 
ATOM      8  C   UNL A   1      42.188  21.425  27.884  1.00  0.00     0.014 A 
ATOM      9  C   UNL A   1      41.970  21.848  25.511  1.00  0.00     0.014 A 
ATOM     10  C   UNL A   1      42.390  22.777  28.110  1.00  0.00     0.010 A 
ATOM     11  C   UNL A   1      42.292  23.190  25.726  1.00  0.00     0.010 A 
ATOM     12  C   UNL A   1      42.476  23.671  27.032  1.00  0.00    -0.014 A 
BRANCH  12  13
ATOM     13  C   UNL A   1      42.862  25.076  27.304  1.00  0.00     0.031 A 
ATOM     14  C   UNL A   1      41.936  26.023  28.009  1.00  0.00     0.074 A 
ATOM     15  C   UNL A   1      44.088  25.478  26.911  1.00  0.00     0.049 A 
ATOM     16  N   UNL A   1      42.139  27.273  28.335  1.00  0.00    -0.248 NA
ATOM     17  C   UNL A   1      40.610  25.513  28.391  1.00  0.00     0.031 C 
ATOM     18  C   UNL A   1      45.050  24.646  26.179  1.00  0.00     0.029 A 
ATOM     19  N   UNL A   1      44.741  26.671  27.072  1.00  0.00    -0.354 N 
ATOM     20  C   UNL A   1      40.956  27.715  28.914  1.00  0.00     0.074 A 
ATOM     21  C   UNL A   1      40.036  26.597  28.897  1.00  0.00     0.031 C 
ATOM     22  C   UNL A   1      46.181  25.336  25.995  1.00  0.00     0.029 A 
ATOM     23  C   UNL A   1      46.004  26.680  26.526  1.00  0.00     0.049 A 
ATOM     24  H   UNL A   1      44.345  27.447  27.532  1.00  0.00     0.167 HD
ATOM     25  C   UNL A   1      40.671  28.939  29.421  1.00  0.00     0.034 A 
ATOM     26  C   UNL A   1      46.914  27.667  26.443  1.00  0.00     0.034 A 
ATOM     27  C   UNL A   1      41.611  30.028  29.466  1.00  0.00     0.049 A 
ATOM     28  C   UNL A   1      46.580  29.000  27.043  1.00  0.00     0.074 A 
ATOM     29  C   UNL A   1      41.443  31.288  30.011  1.00  0.00     0.029 A 
ATOM     30  N   UNL A   1      42.895  29.989  28.941  1.00  0.00    -0.354 N 
ATOM     31  N   UNL A   1      45.497  29.363  27.687  1.00  0.00    -0.248 NA
ATOM     32  C   UNL A   1      47.597  30.051  26.929  1.00  0.00     0.031 C 
ATOM     33  C   UNL A   1      42.618  32.017  29.800  1.00  0.00     0.029 A 
ATOM     34  C   UNL A   1      43.528  31.204  29.142  1.00  0.00     0.049 A 
ATOM     35  H   UNL A   1      43.298  29.211  28.492  1.00  0.00     0.167 HD
ATOM     36  C   UNL A   1      45.706  30.680  28.068  1.00  0.00     0.074 A 
ATOM     37  C   UNL A   1      47.035  31.039  27.613  1.00  0.00     0.031 C 
ATOM     38  C   UNL A   1      44.867  31.524  28.717  1.00  0.00     0.034 A 
BRANCH  25  39
ATOM     39  C   UNL A   1      39.296  29.160  30.000  1.00  0.00     0.023 A 
ATOM     40  C   UNL A   1      38.986  28.645  31.274  1.00  0.00     0.012 A 
ATOM     41  C   UNL A   1      38.337  29.933  29.315  1.00  0.00     0.148 A 
ATOM     42  C   UNL A   1      37.734  28.873  31.847  1.00  0.00     0.002 A 
ATOM     43  C   UNL A   1      37.106  30.188  29.908  1.00  0.00     0.091 A 
ATOM     44  F   UNL A   1      38.642  30.395  28.094  1.00  0.00    -0.205 F 
ATOM     45  C   UNL A   1      36.799  29.652  31.170  1.00  0.00     0.022 A 
BRANCH  43  46
ATOM     46  S   UNL A   1      35.864  31.240  29.147  1.00  0.00     0.127 S 
ATOM     47  O   UNL A   1      35.160  30.290  28.287  1.00  0.00    -0.237 OA
ATOM     48  O   UNL A   1      35.095  31.700  30.304  1.00  0.00    -0.237 OA
ATOM     49  O   UNL A   1      36.599  32.288  28.453  1.00  0.00    -0.744 OA
ENDBRANCH  43  46
ENDBRANCH  25  39
BRANCH  26  50
ATOM     50  C   UNL A   1      48.228  27.402  25.796  1.00  0.00     0.023 A 
ATOM     51  C   UNL A   1      49.286  26.878  26.563  1.00  0.00     0.012 A 
ATOM     52  C   UNL A   1      48.414  27.597  24.413  1.00  0.00     0.148 A 
ATOM     53  C   UNL A   1      50.509  26.567  25.967  1.00  0.00     0.002 A 
ATOM     54  C   UNL A   1      49.612  27.228  23.816  1.00  0.00     0.091 A 
ATOM     55  F   UNL A   1      47.401  28.114  23.703  1.00  0.00    -0.205 F 
ATOM     56  C   UNL A   1      50.667  26.728  24.593  1.00  0.00     0.022 A 
BRANCH  54  57
ATOM     57  S   UNL A   1      49.837  27.255  22.033  1.00  0.00     0.127 S 
ATOM     58  O   UNL A   1      51.210  26.778  21.898  1.00  0.00    -0.237 OA
ATOM     59  O   UNL A   1      48.809  26.315  21.581  1.00  0.00    -0.237 OA
ATOM     60  O   UNL A   1      49.598  28.636  21.634  1.00  0.00    -0.744 OA
ENDBRANCH  54  57
ENDBRANCH  26  50
BRANCH  38  61
ATOM     61  C   UNL A   1      45.372  32.915  28.989  1.00  0.00     0.023 A 
ATOM     62  C   UNL A   1      46.091  33.175  30.172  1.00  0.00     0.012 A 
ATOM     63  C   UNL A   1      45.186  33.945  28.049  1.00  0.00     0.148 A 
ATOM     64  C   UNL A   1      46.592  34.450  30.430  1.00  0.00     0.002 A 
ATOM     65  C   UNL A   1      45.727  35.202  28.290  1.00  0.00     0.091 A 
ATOM     66  F   UNL A   1      44.478  33.681  26.940  1.00  0.00    -0.205 F 
ATOM     67  C   UNL A   1      46.420  35.459  29.485  1.00  0.00     0.022 A 
BRANCH  65  68
ATOM     68  S   UNL A   1      45.632  36.533  27.088  1.00  0.00     0.127 S 
ATOM     69  O   UNL A   1      46.266  35.926  25.921  1.00  0.00    -0.237 OA
ATOM     70  O   UNL A   1      44.188  36.737  26.963  1.00  0.00    -0.237 OA
ATOM     71  O   UNL A   1      46.349  37.655  27.680  1.00  0.00    -0.744 OA
ENDBRANCH  65  68
ENDBRANCH  38  61
ENDBRANCH  12  13
ENDBRANCH   5   7
ENDBRANCH   2   3
ENDBRANCH   1   2
BRANCH   1  72
ATOM     72  C   UNL A   1      36.717  20.370  24.855  1.00  0.00     0.023 C 
BRANCH  72  73
ATOM     73  C   UNL A   1      36.673  21.688  25.625  1.00  0.00     0.116 C 
BRANCH  73  74
ATOM     74  N   UNL A   1      35.559  21.804  26.562  1.00  0.00    -0.356 N 
ATOM     75  C   UNL A   1      34.208  21.884  26.321  1.00  0.00     0.227 C 
ATOM     76  H   UNL A   1      35.815  21.831  27.512  1.00  0.00     0.163 HD
ATOM     77  O   UNL A   1      33.430  21.690  27.255  1.00  0.00    -0.274 OA
BRANCH  75  78
ATOM     78  C   UNL A   1      33.727  22.293  24.932  1.00  0.00     0.103 C 
ATOM     79  C   UNL A   1      33.239  21.275  23.941  1.00  0.00    -0.016 C 
ATOM     80  C   UNL A   1      32.436  23.118  25.033  1.00  0.00     0.047 C 
ATOM     81  C   UNL A   1      32.300  21.839  23.155  1.00  0.00    -0.006 C 
ATOM     82  C   UNL A   1      32.004  23.266  23.581  1.00  0.00     0.106 C 
BRANCH  82  83
ATOM     83  N   UNL A   1      32.794  24.136  22.701  1.00  0.00    -0.349 N 
ATOM     84  C   UNL A   1      33.073  25.464  22.580  1.00  0.00     0.226 C 
ATOM     85  H   UNL A   1      33.249  23.613  22.001  1.00  0.00     0.164 HD
ATOM     86  O   UNL A   1      33.599  25.792  21.508  1.00  0.00    -0.274 OA
BRANCH  84  87
ATOM     87  C   UNL A   1      32.851  26.516  23.684  1.00  0.00     0.050 C 
ATOM     88  C   UNL A   1      33.270  27.951  23.216  1.00  0.00     0.020 C 
ATOM     89  C   UNL A   1      33.805  26.248  24.854  1.00  0.00     0.020 C 
ATOM     90  C   UNL A   1      31.373  26.608  24.100  1.00  0.00     0.020 C 
ATOM     91  C   UNL A   1      33.107  28.979  24.369  1.00  0.00    -0.010 C 
ATOM     92  C   UNL A   1      33.552  27.179  26.042  1.00  0.00    -0.010 C 
ATOM     93  C   UNL A   1      31.195  27.600  25.260  1.00  0.00    -0.010 C 
ATOM     94  C   UNL A   1      31.635  29.003  24.807  1.00  0.00     0.007 C 
ATOM     95  C   UNL A   1      33.958  28.581  25.590  1.00  0.00     0.007 C 
ATOM     96  C   UNL A   1      32.068  27.153  26.441  1.00  0.00     0.007 C 
ENDBRANCH  84  87
ENDBRANCH  82  83
ENDBRANCH  75  78
ENDBRANCH  73  74
ENDBRANCH  72  73
ENDBRANCH   1  72
TORSDOF 16
ENDMDL
MODEL 2
REMARK VINA RESULT:     -12.8      6.063     11.367
REMARK SMILES O=C(NCCCCNC(=O)[C@H]1C=C[C@H](NC(=O)[C@]23C[C@H]4C[C@H](C[C@H](C4)C2)C3)C1)c1ccc(-c2c3nc(c(-c4cccc(S(=O)(=O)[O-])c4F)c4ccc([nH]4)c(-c4cccc(S(=O)(=O)[O-])c4F)c4nc(c(-c5cccc(S(=O)(=O)[O-])c5F)c5ccc2[nH]5)C=C4)C=C3)cc1
REMARK SMILES IDX 5 1 4 2 3 3 1 4 2 5 29 7 30 8 91 9 31 10 90 11 32 12 33 13
REMARK SMILES IDX 34 14 84 15 35 16 89 17 83 18 85 19 36 20 88 21 82 22 81 23
REMARK SMILES IDX 37 25 69 26 49 27 68 28 50 29 53 30 67 31 86 32 51 33 52 34
REMARK SMILES IDX 66 36 87 37 54 38 38 39 39 40 47 41 40 42 42 43 48 44 41 45
REMARK SMILES IDX 43 46 44 47 45 48 46 49 70 50 71 51 79 52 72 53 74 54 80 55
REMARK SMILES IDX 73 56 75 57 76 58 77 59 78 60 55 61 56 62 64 63 57 64 59 65
REMARK SMILES IDX 65 66 58 67 60 68 61 69 62 70 63 71 6 72 7 73 8 74 9 75
REMARK SMILES IDX 10 77 11 78 12 79 28 80 13 81 14 82 15 83 16 84 17 86 18 87
REMARK SMILES IDX 19 88 26 89 27 90 20 91 24 92 22 93 21 94 25 95 23 96
REMARK H PARENT 3 6 85 24 53 35 8 76 15 85
REMARK Flexibility Score: inf
ROOT
ATOM      1  C   UNL A   1      31.366  31.950  26.850  1.00  0.00     0.023 C 
ENDROOT
BRANCH   1   2
ATOM      2  C   UNL A   1      32.697  32.604  27.165  1.00  0.00     0.116 C 
BRANCH   2   3
ATOM      3  N   UNL A   1      32.548  33.972  27.644  1.00  0.00    -0.352 N 
ATOM      4  O   UNL A   1      32.845  35.720  29.031  1.00  0.00    -0.269 OA
ATOM      5  C   UNL A   1      33.222  34.622  28.656  1.00  0.00     0.251 C 
ATOM      6  H   UNL A   1      31.869  34.509  27.175  1.00  0.00     0.163 HD
BRANCH   5   7
ATOM      7  C   UNL A   1      34.382  33.960  29.293  1.00  0.00     0.039 A 
ATOM      8  C   UNL A   1      34.188  32.896  30.175  1.00  0.00     0.014 A 
ATOM      9  C   UNL A   1      35.674  34.415  29.016  1.00  0.00     0.014 A 
ATOM     10  C   UNL A   1      35.256  32.404  30.907  1.00  0.00     0.010 A 
ATOM     11  C   UNL A   1      36.765  33.834  29.667  1.00  0.00     0.010 A 
ATOM     12  C   UNL A   1      36.561  32.843  30.639  1.00  0.00    -0.014 A 
BRANCH  12  13
ATOM     13  C   UNL A   1      37.691  32.170  31.322  1.00  0.00     0.031 A 
ATOM     14  C   UNL A   1      38.446  31.047  30.672  1.00  0.00     0.074 A 
ATOM     15  C   UNL A   1      38.037  32.611  32.549  1.00  0.00     0.049 A 
ATOM     16  N   UNL A   1      39.467  30.374  31.136  1.00  0.00    -0.248 NA
ATOM     17  C   UNL A   1      37.998  30.613  29.340  1.00  0.00     0.031 C 
ATOM     18  C   UNL A   1      37.339  33.670  33.287  1.00  0.00     0.029 A 
ATOM     19  N   UNL A   1      39.053  32.240  33.388  1.00  0.00    -0.354 N 
ATOM     20  C   UNL A   1      39.755  29.408  30.179  1.00  0.00     0.074 A 
ATOM     21  C   UNL A   1      38.799  29.581  29.106  1.00  0.00     0.031 C 
ATOM     22  C   UNL A   1      37.972  33.893  34.444  1.00  0.00     0.029 A 
ATOM     23  C   UNL A   1      39.073  32.948  34.567  1.00  0.00     0.049 A 
ATOM     24  H   UNL A   1      39.705  31.535  33.169  1.00  0.00     0.167 HD
ATOM     25  C   UNL A   1      40.733  28.471  30.195  1.00  0.00     0.034 A 
ATOM     26  C   UNL A   1      39.876  32.837  35.641  1.00  0.00     0.034 A 
ATOM     27  C   UNL A   1      41.701  28.338  31.253  1.00  0.00     0.049 A 
ATOM     28  C   UNL A   1      40.970  31.813  35.613  1.00  0.00     0.074 A 
ATOM     29  C   UNL A   1      42.768  27.462  31.339  1.00  0.00     0.029 A 
ATOM     30  N   UNL A   1      41.716  29.099  32.413  1.00  0.00    -0.354 N 
ATOM     31  N   UNL A   1      41.295  30.984  34.650  1.00  0.00    -0.248 NA
ATOM     32  C   UNL A   1      41.822  31.721  36.804  1.00  0.00     0.031 C 
ATOM     33  C   UNL A   1      43.418  27.681  32.558  1.00  0.00     0.029 A 
ATOM     34  C   UNL A   1      42.769  28.709  33.224  1.00  0.00     0.049 A 
ATOM     35  H   UNL A   1      41.074  29.814  32.628  1.00  0.00     0.167 HD
ATOM     36  C   UNL A   1      42.398  30.281  35.111  1.00  0.00     0.074 A 
ATOM     37  C   UNL A   1      42.706  30.807  36.427  1.00  0.00     0.031 C 
ATOM     38  C   UNL A   1      43.082  29.276  34.510  1.00  0.00     0.034 A 
BRANCH  25  39
ATOM     39  C   UNL A   1      40.831  27.533  29.019  1.00  0.00     0.023 A 
ATOM     40  C   UNL A   1      39.965  26.424  28.937  1.00  0.00     0.012 A 
ATOM     41  C   UNL A   1      41.729  27.787  27.963  1.00  0.00     0.148 A 
ATOM     42  C   UNL A   1      40.010  25.567  27.837  1.00  0.00     0.002 A 
ATOM     43  C   UNL A   1      41.741  26.951  26.852  1.00  0.00     0.091 A 
ATOM     44  F   UNL A   1      42.560  28.833  28.068  1.00  0.00    -0.205 F 
ATOM     45  C   UNL A   1      40.889  25.836  26.791  1.00  0.00     0.022 A 
BRANCH  43  46
ATOM     46  S   UNL A   1      42.786  27.256  25.422  1.00  0.00     0.127 S 
ATOM     47  O   UNL A   1      42.653  25.998  24.687  1.00  0.00    -0.237 OA
ATOM     48  O   UNL A   1      42.126  28.401  24.794  1.00  0.00    -0.237 OA
ATOM     49  O   UNL A   1      44.113  27.537  25.950  1.00  0.00    -0.744 OA
ENDBRANCH  43  46
ENDBRANCH  25  39
BRANCH  26  50
ATOM     50  C   UNL A   1      39.683  33.750  36.801  1.00  0.00     0.023 A 
ATOM     51  C   UNL A   1      39.996  35.116  36.669  1.00  0.00     0.012 A 
ATOM     52  C   UNL A   1      39.121  33.288  38.008  1.00  0.00     0.148 A 
ATOM     53  C   UNL A   1      39.769  36.002  37.723  1.00  0.00     0.002 A 
ATOM     54  C   UNL A   1      38.841  34.185  39.030  1.00  0.00     0.091 A 
ATOM     55  F   UNL A   1      38.846  31.980  38.121  1.00  0.00    -0.205 F 
ATOM     56  C   UNL A   1      39.178  35.540  38.897  1.00  0.00     0.022 A 
BRANCH  54  57
ATOM     57  S   UNL A   1      37.938  33.698  40.506  1.00  0.00     0.127 S 
ATOM     58  O   UNL A   1      37.773  34.976  41.191  1.00  0.00    -0.237 OA
ATOM     59  O   UNL A   1      36.710  33.137  39.941  1.00  0.00    -0.237 OA
ATOM     60  O   UNL A   1      38.787  32.720  41.173  1.00  0.00    -0.744 OA
ENDBRANCH  54  57
ENDBRANCH  26  50
BRANCH  38  61
ATOM     61  C   UNL A   1      44.244  28.693  35.267  1.00  0.00     0.023 A 
ATOM     62  C   UNL A   1      45.535  29.223  35.076  1.00  0.00     0.012 A 
ATOM     63  C   UNL A   1      44.048  27.664  36.207  1.00  0.00     0.148 A 
ATOM     64  C   UNL A   1      46.621  28.715  35.787  1.00  0.00     0.002 A 
ATOM     65  C   UNL A   1      45.126  27.194  36.946  1.00  0.00     0.091 A 
ATOM     66  F   UNL A   1      42.814  27.158  36.356  1.00  0.00    -0.205 F 
ATOM     67  C   UNL A   1      46.415  27.710  36.729  1.00  0.00     0.022 A 
BRANCH  65  68
ATOM     68  S   UNL A   1      44.936  25.967  38.243  1.00  0.00     0.127 S 
ATOM     69  O   UNL A   1      44.024  26.643  39.162  1.00  0.00    -0.237 OA
ATOM     70  O   UNL A   1      44.351  24.837  37.521  1.00  0.00    -0.237 OA
ATOM     71  O   UNL A   1      46.277  25.721  38.758  1.00  0.00    -0.744 OA
ENDBRANCH  65  68
ENDBRANCH  38  61
ENDBRANCH  12  13
ENDBRANCH   5   7
ENDBRANCH   2   3
ENDBRANCH   1   2
BRANCH   1  72
ATOM     72  C   UNL A   1      31.486  30.711  25.972  1.00  0.00     0.023 C 
BRANCH  72  73
ATOM     73  C   UNL A   1      32.868  30.068  25.882  1.00  0.00     0.116 C 
BRANCH  73  74
ATOM     74  N   UNL A   1      33.268  29.681  24.532  1.00  0.00    -0.356 N 
ATOM     75  C   UNL A   1      32.715  28.756  23.680  1.00  0.00     0.227 C 
ATOM     76  H   UNL A   1      34.055  30.155  24.180  1.00  0.00     0.163 HD
ATOM     77  O   UNL A   1      33.030  28.788  22.490  1.00  0.00    -0.274 OA
BRANCH  75  78
ATOM     78  C   UNL A   1      31.805  27.674  24.252  1.00  0.00     0.103 C 
ATOM     79  C   UNL A   1      30.314  27.733  24.080  1.00  0.00    -0.016 C 
ATOM     80  C   UNL A   1      32.042  26.338  23.532  1.00  0.00     0.047 C 
ATOM     81  C   UNL A   1      29.825  26.478  24.028  1.00  0.00    -0.006 C 
ATOM     82  C   UNL A   1      30.938  25.446  24.083  1.00  0.00     0.106 C 
BRANCH  82  83
ATOM     83  N   UNL A   1      31.026  25.003  25.479  1.00  0.00    -0.349 N 
ATOM     84  C   UNL A   1      31.790  24.155  26.223  1.00  0.00     0.226 C 
ATOM     85  H   UNL A   1      30.340  25.441  26.034  1.00  0.00     0.164 HD
ATOM     86  O   UNL A   1      31.338  23.892  27.345  1.00  0.00    -0.274 OA
BRANCH  84  87
ATOM     87  C   UNL A   1      33.160  23.595  25.793  1.00  0.00     0.050 C 
ATOM     88  C   UNL A   1      34.197  24.736  25.520  1.00  0.00     0.020 C 
ATOM     89  C   UNL A   1      33.035  22.914  24.424  1.00  0.00     0.020 C 
ATOM     90  C   UNL A   1      33.777  22.695  26.877  1.00  0.00     0.020 C 
ATOM     91  C   UNL A   1      35.545  24.150  25.018  1.00  0.00    -0.010 C 
ATOM     92  C   UNL A   1      34.331  22.223  23.993  1.00  0.00    -0.010 C 
ATOM     93  C   UNL A   1      35.099  22.083  26.387  1.00  0.00    -0.010 C 
ATOM     94  C   UNL A   1      36.107  23.207  26.092  1.00  0.00     0.007 C 
ATOM     95  C   UNL A   1      35.348  23.333  23.727  1.00  0.00     0.007 C 
ATOM     96  C   UNL A   1      34.838  21.287  25.101  1.00  0.00     0.007 C 
ENDBRANCH  84  87
ENDBRANCH  82  83
ENDBRANCH  75  78
ENDBRANCH  73  74
ENDBRANCH  72  73
ENDBRANCH   1  72
TORSDOF 16
ENDMDL
MODEL 3
REMARK VINA RESULT:     -12.7      0.417      7.451
REMARK SMILES O=C(NCCCCNC(=O)[C@H]1C=C[C@H](NC(=O)[C@]23C[C@H]4C[C@H](C[C@H](C4)C2)C3)C1)c1ccc(-c2c3nc(c(-c4cccc(S(=O)(=O)[O-])c4F)c4ccc([nH]4)c(-c4cccc(S(=O)(=O)[O-])c4F)c4nc(c(-c5cccc(S(=O)(=O)[O-])c5F)c5ccc2[nH]5)C=C4)C=C3)cc1
REMARK SMILES IDX 5 1 4 2 3 3 1 4 2 5 29 7 30 8 91 9 31 10 90 11 32 12 33 13
REMARK SMILES IDX 34 14 84 15 35 16 89 17 83 18 85 19 36 20 88 21 82 22 81 23
REMARK SMILES IDX 37 25 69 26 49 27 68 28 50 29 53 30 67 31 86 32 51 33 52 34
REMARK SMILES IDX 66 36 87 37 54 38 38 39 39 40 47 41 40 42 42 43 48 44 41 45
REMARK SMILES IDX 43 46 44 47 45 48 46 49 70 50 71 51 79 52 72 53 74 54 80 55
REMARK SMILES IDX 73 56 75 57 76 58 77 59 78 60 55 61 56 62 64 63 57 64 59 65
REMARK SMILES IDX 65 66 58 67 60 68 61 69 62 70 63 71 6 72 7 73 8 74 9 75
REMARK SMILES IDX 10 77 11 78 12 79 28 80 13 81 14 82 15 83 16 84 17 86 18 87
REMARK SMILES IDX 19 88 26 89 27 90 20 91 24 92 22 93 21 94 25 95 23 96
REMARK H PARENT 3 6 85 24 53 35 8 76 15 85
REMARK Flexibility Score: inf
ROOT
ATOM      1  C   UNL A   1      38.110  19.692  24.813  1.00  0.00     0.023 C 
ENDROOT
BRANCH   1   2
ATOM      2  C   UNL A   1      39.132  20.147  25.837  1.00  0.00     0.116 C 
BRANCH   2   3
ATOM      3  N   UNL A   1      40.245  19.214  25.968  1.00  0.00    -0.352 N 
ATOM      4  O   UNL A   1      42.399  18.571  26.078  1.00  0.00    -0.269 OA
ATOM      5  C   UNL A   1      41.584  19.475  26.163  1.00  0.00     0.251 C 
ATOM      6  H   UNL A   1      40.004  18.262  25.908  1.00  0.00     0.163 HD
BRANCH   5   7
ATOM      7  C   UNL A   1      42.017  20.861  26.448  1.00  0.00     0.039 A 
ATOM      8  C   UNL A   1      42.347  21.242  27.749  1.00  0.00     0.014 A 
ATOM      9  C   UNL A   1      42.083  21.791  25.407  1.00  0.00     0.014 A 
ATOM     10  C   UNL A   1      42.572  22.577  28.041  1.00  0.00     0.010 A 
ATOM     11  C   UNL A   1      42.428  23.116  25.685  1.00  0.00     0.010 A 
ATOM     12  C   UNL A   1      42.647  23.525  27.010  1.00  0.00    -0.014 A 
BRANCH  12  13
ATOM     13  C   UNL A   1      43.058  24.909  27.346  1.00  0.00     0.031 A 
ATOM     14  C   UNL A   1      44.430  25.423  27.021  1.00  0.00     0.074 A 
ATOM     15  C   UNL A   1      42.148  25.708  27.941  1.00  0.00     0.049 A 
ATOM     16  N   UNL A   1      44.928  26.613  27.234  1.00  0.00    -0.248 NA
ATOM     17  C   UNL A   1      45.370  24.485  26.386  1.00  0.00     0.031 C 
ATOM     18  C   UNL A   1      40.799  25.291  28.337  1.00  0.00     0.029 A 
ATOM     19  N   UNL A   1      42.208  27.025  28.310  1.00  0.00    -0.354 N 
ATOM     20  C   UNL A   1      46.250  26.557  26.808  1.00  0.00     0.074 A 
ATOM     21  C   UNL A   1      46.478  25.213  26.320  1.00  0.00     0.031 C 
ATOM     22  C   UNL A   1      40.145  26.340  28.852  1.00  0.00     0.029 A 
ATOM     23  C   UNL A   1      41.048  27.482  28.891  1.00  0.00     0.049 A 
ATOM     24  H   UNL A   1      43.003  27.589  28.174  1.00  0.00     0.167 HD
ATOM     25  C   UNL A   1      47.180  27.542  26.815  1.00  0.00     0.034 A 
ATOM     26  C   UNL A   1      40.747  28.683  29.417  1.00  0.00     0.034 A 
ATOM     27  C   UNL A   1      46.924  28.885  27.266  1.00  0.00     0.049 A 
ATOM     28  C   UNL A   1      41.788  29.761  29.379  1.00  0.00     0.074 A 
ATOM     29  C   UNL A   1      47.779  29.972  27.260  1.00  0.00     0.029 A 
ATOM     30  N   UNL A   1      45.725  29.324  27.810  1.00  0.00    -0.354 N 
ATOM     31  N   UNL A   1      42.994  29.720  28.868  1.00  0.00    -0.248 NA
ATOM     32  C   UNL A   1      41.422  31.055  29.966  1.00  0.00     0.031 C 
ATOM     33  C   UNL A   1      47.104  31.064  27.816  1.00  0.00     0.029 A 
ATOM     34  C   UNL A   1      45.819  30.663  28.150  1.00  0.00     0.049 A 
ATOM     35  H   UNL A   1      44.924  28.765  27.935  1.00  0.00     0.167 HD
ATOM     36  C   UNL A   1      43.530  30.986  29.058  1.00  0.00     0.074 A 
ATOM     37  C   UNL A   1      42.501  31.780  29.700  1.00  0.00     0.031 C 
ATOM     38  C   UNL A   1      44.768  31.444  28.749  1.00  0.00     0.034 A 
BRANCH  25  39
ATOM     39  C   UNL A   1      48.555  27.217  26.288  1.00  0.00     0.023 A 
ATOM     40  C   UNL A   1      49.486  26.568  27.124  1.00  0.00     0.012 A 
ATOM     41  C   UNL A   1      48.901  27.490  24.950  1.00  0.00     0.148 A 
ATOM     42  C   UNL A   1      50.750  26.221  26.644  1.00  0.00     0.002 A 
ATOM     43  C   UNL A   1      50.148  27.106  24.468  1.00  0.00     0.091 A 
ATOM     44  F   UNL A   1      48.012  28.128  24.176  1.00  0.00    -0.205 F 
ATOM     45  C   UNL A   1      51.076  26.480  25.316  1.00  0.00     0.022 A 
BRANCH  43  46
ATOM     46  S   UNL A   1      50.634  27.330  22.753  1.00  0.00     0.127 S 
ATOM     47  O   UNL A   1      51.946  26.685  22.733  1.00  0.00    -0.237 OA
ATOM     48  O   UNL A   1      49.587  26.603  22.036  1.00  0.00    -0.237 OA
ATOM     49  O   UNL A   1      50.638  28.768  22.524  1.00  0.00    -0.744 OA
ENDBRANCH  43  46
ENDBRANCH  25  39
BRANCH  26  50
ATOM     50  C   UNL A   1      39.391  28.918  29.984  1.00  0.00     0.023 A 
ATOM     51  C   UNL A   1      39.074  28.412  31.259  1.00  0.00     0.012 A 
ATOM     52  C   UNL A   1      38.440  29.702  29.300  1.00  0.00     0.148 A 
ATOM     53  C   UNL A   1      37.829  28.669  31.835  1.00  0.00     0.002 A 
ATOM     54  C   UNL A   1      37.228  30.005  29.906  1.00  0.00     0.091 A 
ATOM     55  F   UNL A   1      38.754  30.160  28.080  1.00  0.00    -0.205 F 
ATOM     56  C   UNL A   1      36.913  29.477  31.166  1.00  0.00     0.022 A 
BRANCH  54  57
ATOM     57  S   UNL A   1      36.063  31.165  29.180  1.00  0.00     0.127 S 
ATOM     58  O   UNL A   1      35.357  30.320  28.221  1.00  0.00    -0.237 OA
ATOM     59  O   UNL A   1      35.273  31.573  30.342  1.00  0.00    -0.237 OA
ATOM     60  O   UNL A   1      36.881  32.230  28.611  1.00  0.00    -0.744 OA
ENDBRANCH  54  57
ENDBRANCH  26  50
BRANCH  38  61
ATOM     61  C   UNL A   1      45.069  32.878  29.086  1.00  0.00     0.023 A 
ATOM     62  C   UNL A   1      45.570  33.203  30.363  1.00  0.00     0.012 A 
ATOM     63  C   UNL A   1      44.914  33.893  28.124  1.00  0.00     0.148 A 
ATOM     64  C   UNL A   1      45.882  34.522  30.687  1.00  0.00     0.002 A 
ATOM     65  C   UNL A   1      45.270  35.199  28.437  1.00  0.00     0.091 A 
ATOM     66  F   UNL A   1      44.413  33.566  26.923  1.00  0.00    -0.205 F 
ATOM     67  C   UNL A   1      45.743  35.517  29.721  1.00  0.00     0.022 A 
BRANCH  65  68
ATOM     68  S   UNL A   1      45.210  36.525  27.228  1.00  0.00     0.127 S 
ATOM     69  O   UNL A   1      43.788  36.559  26.894  1.00  0.00    -0.237 OA
ATOM     70  O   UNL A   1      45.683  37.674  28.001  1.00  0.00    -0.237 OA
ATOM     71  O   UNL A   1      46.099  36.120  26.148  1.00  0.00    -0.744 OA
ENDBRANCH  65  68
ENDBRANCH  38  61
ENDBRANCH  12  13
ENDBRANCH   5   7
ENDBRANCH   2   3
ENDBRANCH   1   2
BRANCH   1  72
ATOM     72  C   UNL A   1      36.725  20.288  25.026  1.00  0.00     0.023 C 
BRANCH  72  73
ATOM     73  C   UNL A   1      36.669  21.692  25.624  1.00  0.00     0.116 C 
BRANCH  73  74
ATOM     74  N   UNL A   1      35.571  21.907  26.561  1.00  0.00    -0.356 N 
ATOM     75  C   UNL A   1      34.225  22.049  26.325  1.00  0.00     0.227 C 
ATOM     76  H   UNL A   1      35.836  21.960  27.507  1.00  0.00     0.163 HD
ATOM     77  O   UNL A   1      33.445  21.936  27.271  1.00  0.00    -0.274 OA
BRANCH  75  78
ATOM     78  C   UNL A   1      33.755  22.424  24.923  1.00  0.00     0.103 C 
ATOM     79  C   UNL A   1      33.307  21.380  23.941  1.00  0.00    -0.016 C 
ATOM     80  C   UNL A   1      32.441  23.218  24.992  1.00  0.00     0.047 C 
ATOM     81  C   UNL A   1      32.367  21.907  23.132  1.00  0.00    -0.006 C 
ATOM     82  C   UNL A   1      32.029  23.333  23.532  1.00  0.00     0.106 C 
BRANCH  82  83
ATOM     83  N   UNL A   1      32.809  24.209  22.649  1.00  0.00    -0.349 N 
ATOM     84  C   UNL A   1      33.077  25.539  22.527  1.00  0.00     0.226 C 
ATOM     85  H   UNL A   1      33.267  23.689  21.949  1.00  0.00     0.164 HD
ATOM     86  O   UNL A   1      33.599  25.871  21.455  1.00  0.00    -0.274 OA
BRANCH  84  87
ATOM     87  C   UNL A   1      32.849  26.590  23.631  1.00  0.00     0.050 C 
ATOM     88  C   UNL A   1      33.299  28.020  23.179  1.00  0.00     0.020 C 
ATOM     89  C   UNL A   1      33.774  26.302  24.820  1.00  0.00     0.020 C 
ATOM     90  C   UNL A   1      31.364  26.702  24.017  1.00  0.00     0.020 C 
ATOM     91  C   UNL A   1      33.127  29.045  24.333  1.00  0.00    -0.010 C 
ATOM     92  C   UNL A   1      33.510  27.232  26.007  1.00  0.00    -0.010 C 
ATOM     93  C   UNL A   1      31.177  27.692  25.178  1.00  0.00    -0.010 C 
ATOM     94  C   UNL A   1      31.647  29.090  24.740  1.00  0.00     0.007 C 
ATOM     95  C   UNL A   1      33.947  28.630  25.569  1.00  0.00     0.007 C 
ATOM     96  C   UNL A   1      32.018  27.227  26.375  1.00  0.00     0.007 C 
ENDBRANCH  84  87
ENDBRANCH  82  83
ENDBRANCH  75  78
ENDBRANCH  73  74
ENDBRANCH  72  73
ENDBRANCH   1  72
TORSDOF 16
ENDMDL
