MODEL 1
REMARK VINA RESULT:     -11.5      0.000      0.000
REMARK SMILES COc1cc2nc(SCC(=O)NCCCCNC(=O)c3ccc(-c4c5nc(c(-c6cccc(S(=O)(=O)[O-])c6F)c6ccc([nH]6)c(-c6cccc(S(=O)(=O)[O-])c6F)c6nc(c(-c7cccc(S(=O)(=O)[O-])c7F)c7ccc4[nH]7)C=C6)C=C5)cc3)nc(O)c2cc1OC
REMARK SMILES IDX 14 1 13 2 12 3 10 4 11 5 9 7 8 8 7 9 3 10 4 11 88 12 5 13
REMARK SMILES IDX 87 14 6 15 86 16 84 17 83 18 2 19 1 20 89 21 90 22 85 23
REMARK SMILES IDX 15 25 16 26 17 27 18 28 19 30 20 31 21 32 82 33 22 34 81 35
REMARK SMILES IDX 23 36 24 37 25 38 75 39 26 40 80 41 74 42 76 43 27 44 79 45
REMARK SMILES IDX 73 46 72 47 28 49 60 50 40 51 59 52 41 53 44 54 58 55 77 56
REMARK SMILES IDX 42 57 43 58 57 60 78 61 45 62 29 63 30 64 38 65 31 66 33 67
REMARK SMILES IDX 39 68 32 69 34 70 35 71 36 72 37 73 61 74 62 75 70 76 63 77
REMARK SMILES IDX 65 78 71 79 64 80 66 81 67 82 68 83 69 84 46 85 47 86 55 87
REMARK SMILES IDX 48 88 50 89 56 90 49 91 51 92 52 93 53 94 54 95
REMARK H PARENT 12 6 85 24 17 29 76 48 44 59
REMARK Flexibility Score: inf
ROOT
ATOM      1  C   UNL A   1      32.195  27.249  26.446  1.00  0.00     0.023 C 
ENDROOT
BRANCH   1   2
ATOM      2  C   UNL A   1      31.127  26.159  26.560  1.00  0.00     0.116 C 
BRANCH   2   3
ATOM      3  N   UNL A   1      31.698  24.880  26.942  1.00  0.00    -0.355 N 
ATOM      4  C   UNL A   1      31.643  23.674  26.305  1.00  0.00     0.230 C 
ATOM      5  O   UNL A   1      32.231  22.721  26.825  1.00  0.00    -0.274 OA
ATOM      6  H   UNL A   1      32.201  24.882  27.789  1.00  0.00     0.163 HD
BRANCH   4   7
ATOM      7  C   UNL A   1      30.974  23.537  24.947  1.00  0.00     0.178 C 
BRANCH   7   8
ATOM      8  S   UNL A   1      32.066  23.844  23.527  1.00  0.00    -0.076 SA
BRANCH   8   9
ATOM      9  C   UNL A   1      31.721  25.545  23.166  1.00  0.00     0.192 A 
ATOM     10  C   UNL A   1      28.478  28.984  22.934  1.00  0.00     0.162 A 
ATOM     11  C   UNL A   1      28.844  27.663  23.223  1.00  0.00     0.079 A 
ATOM     12  C   UNL A   1      29.434  29.910  22.496  1.00  0.00     0.161 A 
ATOM     13  C   UNL A   1      30.145  27.213  23.058  1.00  0.00     0.083 A 
ATOM     14  C   UNL A   1      30.747  29.469  22.325  1.00  0.00     0.066 A 
ATOM     15  N   UNL A   1      30.447  25.936  23.330  1.00  0.00    -0.222 NA
ATOM     16  C   UNL A   1      31.096  28.125  22.608  1.00  0.00     0.066 A 
ATOM     17  C   UNL A   1      32.368  27.591  22.481  1.00  0.00     0.223 A 
ATOM     18  N   UNL A   1      32.716  26.336  22.767  1.00  0.00    -0.187 NA
BRANCH  10  19
ATOM     19  O   UNL A   1      27.163  29.288  23.184  1.00  0.00    -0.493 OA
ATOM     20  C   UNL A   1      26.388  28.153  23.569  1.00  0.00     0.278 C 
ENDBRANCH  10  19
BRANCH  12  21
ATOM     21  O   UNL A   1      29.018  31.198  22.303  1.00  0.00    -0.493 OA
ATOM     22  C   UNL A   1      28.732  31.979  23.457  1.00  0.00     0.278 C 
ENDBRANCH  12  21
BRANCH  17  23
ATOM     23  O   UNL A   1      33.409  28.333  22.014  1.00  0.00    -0.493 OA
ATOM     24  H   UNL A   1      34.229  28.327  22.466  1.00  0.00     0.295 HD
ENDBRANCH  17  23
ENDBRANCH   8   9
ENDBRANCH   7   8
ENDBRANCH   4   7
ENDBRANCH   2   3
ENDBRANCH   1   2
BRANCH   1  25
ATOM     25  C   UNL A   1      31.655  28.662  26.205  1.00  0.00     0.023 C 
BRANCH  25  26
ATOM     26  C   UNL A   1      32.703  29.722  25.882  1.00  0.00     0.116 C 
BRANCH  26  27
ATOM     27  N   UNL A   1      32.375  31.044  26.393  1.00  0.00    -0.352 N 
ATOM     28  C   UNL A   1      33.121  31.850  27.227  1.00  0.00     0.251 C 
ATOM     29  H   UNL A   1      31.507  31.410  26.107  1.00  0.00     0.163 HD
ATOM     30  O   UNL A   1      32.648  32.905  27.641  1.00  0.00    -0.269 OA
BRANCH  28  31
ATOM     31  C   UNL A   1      34.467  31.410  27.659  1.00  0.00     0.039 A 
ATOM     32  C   UNL A   1      34.713  30.071  27.971  1.00  0.00     0.014 A 
ATOM     33  C   UNL A   1      35.481  32.360  27.809  1.00  0.00     0.014 A 
ATOM     34  C   UNL A   1      35.900  29.719  28.607  1.00  0.00     0.010 A 
ATOM     35  C   UNL A   1      36.706  31.987  28.376  1.00  0.00     0.010 A 
ATOM     36  C   UNL A   1      36.902  30.678  28.840  1.00  0.00    -0.014 A 
BRANCH  36  37
ATOM     37  C   UNL A   1      38.119  30.283  29.599  1.00  0.00     0.031 A 
ATOM     38  C   UNL A   1      38.316  30.719  31.030  1.00  0.00     0.074 A 
ATOM     39  C   UNL A   1      39.028  29.473  29.020  1.00  0.00     0.049 A 
ATOM     40  N   UNL A   1      39.278  30.397  31.858  1.00  0.00    -0.248 NA
ATOM     41  C   UNL A   1      37.316  31.632  31.609  1.00  0.00     0.031 C 
ATOM     42  C   UNL A   1      38.979  29.012  27.631  1.00  0.00     0.029 A 
ATOM     43  N   UNL A   1      40.159  28.882  29.526  1.00  0.00    -0.354 N 
ATOM     44  C   UNL A   1      39.024  31.096  33.032  1.00  0.00     0.074 A 
ATOM     45  C   UNL A   1      37.819  31.863  32.816  1.00  0.00     0.031 C 
ATOM     46  C   UNL A   1      40.010  28.183  27.406  1.00  0.00     0.029 A 
ATOM     47  C   UNL A   1      40.814  28.081  28.622  1.00  0.00     0.049 A 
ATOM     48  H   UNL A   1      40.471  29.021  30.450  1.00  0.00     0.167 HD
ATOM     49  C   UNL A   1      39.714  31.078  34.196  1.00  0.00     0.034 A 
ATOM     50  C   UNL A   1      41.935  27.343  28.748  1.00  0.00     0.034 A 
ATOM     51  C   UNL A   1      40.868  30.259  34.446  1.00  0.00     0.049 A 
ATOM     52  C   UNL A   1      42.652  27.304  30.066  1.00  0.00     0.074 A 
ATOM     53  C   UNL A   1      41.579  30.122  35.627  1.00  0.00     0.029 A 
ATOM     54  N   UNL A   1      41.476  29.437  33.514  1.00  0.00    -0.354 N 
ATOM     55  N   UNL A   1      42.321  27.878  31.197  1.00  0.00    -0.248 NA
ATOM     56  C   UNL A   1      43.885  26.505  30.135  1.00  0.00     0.031 C 
ATOM     57  C   UNL A   1      42.618  29.216  35.407  1.00  0.00     0.029 A 
ATOM     58  C   UNL A   1      42.555  28.793  34.090  1.00  0.00     0.049 A 
ATOM     59  H   UNL A   1      41.183  29.328  32.579  1.00  0.00     0.167 HD
ATOM     60  C   UNL A   1      43.302  27.511  32.110  1.00  0.00     0.074 A 
ATOM     61  C   UNL A   1      44.223  26.639  31.412  1.00  0.00     0.031 C 
ATOM     62  C   UNL A   1      43.438  27.890  33.402  1.00  0.00     0.034 A 
BRANCH  49  63
ATOM     63  C   UNL A   1      39.214  31.915  35.340  1.00  0.00     0.023 A 
ATOM     64  C   UNL A   1      38.378  31.320  36.305  1.00  0.00     0.012 A 
ATOM     65  C   UNL A   1      39.686  33.227  35.538  1.00  0.00     0.148 A 
ATOM     66  C   UNL A   1      38.018  32.020  37.455  1.00  0.00     0.002 A 
ATOM     67  C   UNL A   1      39.343  33.910  36.699  1.00  0.00     0.091 A 
ATOM     68  F   UNL A   1      40.480  33.767  34.602  1.00  0.00    -0.205 F 
ATOM     69  C   UNL A   1      38.508  33.308  37.657  1.00  0.00     0.022 A 
BRANCH  67  70
ATOM     70  S   UNL A   1      39.957  35.552  37.086  1.00  0.00     0.127 S 
ATOM     71  O   UNL A   1      41.398  35.317  37.169  1.00  0.00    -0.237 OA
ATOM     72  O   UNL A   1      39.530  36.320  35.917  1.00  0.00    -0.237 OA
ATOM     73  O   UNL A   1      39.326  35.934  38.342  1.00  0.00    -0.744 OA
ENDBRANCH  67  70
ENDBRANCH  49  63
BRANCH  50  74
ATOM     74  C   UNL A   1      42.416  26.548  27.587  1.00  0.00     0.023 A 
ATOM     75  C   UNL A   1      43.312  27.131  26.671  1.00  0.00     0.012 A 
ATOM     76  C   UNL A   1      42.042  25.200  27.427  1.00  0.00     0.148 A 
ATOM     77  C   UNL A   1      43.823  26.384  25.609  1.00  0.00     0.002 A 
ATOM     78  C   UNL A   1      42.592  24.449  26.396  1.00  0.00     0.091 A 
ATOM     79  F   UNL A   1      41.174  24.675  28.303  1.00  0.00    -0.205 F 
ATOM     80  C   UNL A   1      43.475  25.041  25.480  1.00  0.00     0.022 A 
BRANCH  78  81
ATOM     81  S   UNL A   1      42.294  22.686  26.229  1.00  0.00     0.127 S 
ATOM     82  O   UNL A   1      42.931  22.395  24.948  1.00  0.00    -0.237 OA
ATOM     83  O   UNL A   1      42.989  22.149  27.399  1.00  0.00    -0.237 OA
ATOM     84  O   UNL A   1      40.846  22.528  26.269  1.00  0.00    -0.744 OA
ENDBRANCH  78  81
ENDBRANCH  50  74
BRANCH  62  85
ATOM     85  C   UNL A   1      44.629  27.389  34.168  1.00  0.00     0.023 A 
ATOM     86  C   UNL A   1      45.788  28.188  34.218  1.00  0.00     0.012 A 
ATOM     87  C   UNL A   1      44.553  26.220  34.948  1.00  0.00     0.148 A 
ATOM     88  C   UNL A   1      46.858  27.829  35.035  1.00  0.00     0.002 A 
ATOM     89  C   UNL A   1      45.612  25.883  35.783  1.00  0.00     0.091 A 
ATOM     90  F   UNL A   1      43.438  25.478  34.877  1.00  0.00    -0.205 F 
ATOM     91  C   UNL A   1      46.765  26.685  35.825  1.00  0.00     0.022 A 
BRANCH  89  92
ATOM     92  S   UNL A   1      45.561  24.473  36.894  1.00  0.00     0.127 S 
ATOM     93  O   UNL A   1      46.889  24.526  37.503  1.00  0.00    -0.237 OA
ATOM     94  O   UNL A   1      44.462  24.827  37.792  1.00  0.00    -0.237 OA
ATOM     95  O   UNL A   1      45.312  23.307  36.058  1.00  0.00    -0.744 OA
ENDBRANCH  89  92
ENDBRANCH  62  85
ENDBRANCH  36  37
ENDBRANCH  28  31
ENDBRANCH  26  27
ENDBRANCH  25  26
ENDBRANCH   1  25
TORSDOF 19
ENDMDL
MODEL 2
REMARK VINA RESULT:     -11.1      1.291      3.606
REMARK SMILES COc1cc2nc(SCC(=O)NCCCCNC(=O)c3ccc(-c4c5nc(c(-c6cccc(S(=O)(=O)[O-])c6F)c6ccc([nH]6)c(-c6cccc(S(=O)(=O)[O-])c6F)c6nc(c(-c7cccc(S(=O)(=O)[O-])c7F)c7ccc4[nH]7)C=C6)C=C5)cc3)nc(O)c2cc1OC
REMARK SMILES IDX 14 1 13 2 12 3 10 4 11 5 9 7 8 8 7 9 3 10 4 11 88 12 5 13
REMARK SMILES IDX 87 14 6 15 86 16 84 17 83 18 2 19 1 20 89 21 90 22 85 23
REMARK SMILES IDX 15 25 16 26 17 27 18 28 19 30 20 31 21 32 82 33 22 34 81 35
REMARK SMILES IDX 23 36 24 37 25 38 75 39 26 40 80 41 74 42 76 43 27 44 79 45
REMARK SMILES IDX 73 46 72 47 28 49 60 50 40 51 59 52 41 53 44 54 58 55 77 56
REMARK SMILES IDX 42 57 43 58 57 60 78 61 45 62 29 63 30 64 38 65 31 66 33 67
REMARK SMILES IDX 39 68 32 69 34 70 35 71 36 72 37 73 61 74 62 75 70 76 63 77
REMARK SMILES IDX 65 78 71 79 64 80 66 81 67 82 68 83 69 84 46 85 47 86 55 87
REMARK SMILES IDX 48 88 50 89 56 90 49 91 51 92 52 93 53 94 54 95
REMARK H PARENT 12 6 85 24 17 29 76 48 44 59
REMARK Flexibility Score: inf
ROOT
ATOM      1  C   UNL A   1      32.732  29.633  24.562  1.00  0.00     0.023 C 
ENDROOT
BRANCH   1   2
ATOM      2  C   UNL A   1      32.841  28.917  23.214  1.00  0.00     0.116 C 
BRANCH   2   3
ATOM      3  N   UNL A   1      31.832  29.374  22.275  1.00  0.00    -0.355 N 
ATOM      4  C   UNL A   1      30.471  29.339  22.370  1.00  0.00     0.230 C 
ATOM      5  O   UNL A   1      29.816  29.812  21.436  1.00  0.00    -0.274 OA
ATOM      6  H   UNL A   1      32.183  29.770  21.445  1.00  0.00     0.163 HD
BRANCH   4   7
ATOM      7  C   UNL A   1      29.788  28.833  23.631  1.00  0.00     0.178 C 
BRANCH   7   8
ATOM      8  S   UNL A   1      28.943  27.235  23.448  1.00  0.00    -0.076 SA
BRANCH   8   9
ATOM      9  C   UNL A   1      29.969  26.169  24.424  1.00  0.00     0.192 A 
ATOM     10  C   UNL A   1      34.250  24.255  25.059  1.00  0.00     0.162 A 
ATOM     11  C   UNL A   1      33.377  25.099  24.361  1.00  0.00     0.079 A 
ATOM     12  C   UNL A   1      33.811  23.551  26.189  1.00  0.00     0.161 A 
ATOM     13  C   UNL A   1      32.049  25.245  24.732  1.00  0.00     0.083 A 
ATOM     14  C   UNL A   1      32.476  23.689  26.572  1.00  0.00     0.066 A 
ATOM     15  N   UNL A   1      31.244  26.050  24.024  1.00  0.00    -0.222 NA
ATOM     16  C   UNL A   1      31.604  24.535  25.844  1.00  0.00     0.066 A 
ATOM     17  C   UNL A   1      30.268  24.748  26.147  1.00  0.00     0.223 A 
ATOM     18  N   UNL A   1      29.441  25.559  25.486  1.00  0.00    -0.187 NA
BRANCH  10  19
ATOM     19  O   UNL A   1      35.542  24.246  24.595  1.00  0.00    -0.493 OA
ATOM     20  C   UNL A   1      35.788  23.209  23.646  1.00  0.00     0.278 C 
ENDBRANCH  10  19
BRANCH  12  21
ATOM     21  O   UNL A   1      34.737  22.804  26.862  1.00  0.00    -0.493 OA
ATOM     22  C   UNL A   1      34.371  21.483  27.240  1.00  0.00     0.278 C 
ENDBRANCH  12  21
BRANCH  17  23
ATOM     23  O   UNL A   1      29.659  24.101  27.177  1.00  0.00    -0.493 OA
ATOM     24  H   UNL A   1      29.893  24.303  28.061  1.00  0.00     0.295 HD
ENDBRANCH  17  23
ENDBRANCH   8   9
ENDBRANCH   7   8
ENDBRANCH   4   7
ENDBRANCH   2   3
ENDBRANCH   1   2
BRANCH   1  25
ATOM     25  C   UNL A   1      32.648  28.709  25.781  1.00  0.00     0.023 C 
BRANCH  25  26
ATOM     26  C   UNL A   1      32.269  29.385  27.095  1.00  0.00     0.116 C 
BRANCH  26  27
ATOM     27  N   UNL A   1      32.156  30.833  26.997  1.00  0.00    -0.352 N 
ATOM     28  C   UNL A   1      33.102  31.790  27.298  1.00  0.00     0.251 C 
ATOM     29  H   UNL A   1      31.291  31.173  26.673  1.00  0.00     0.163 HD
ATOM     30  O   UNL A   1      32.806  32.980  27.248  1.00  0.00    -0.269 OA
BRANCH  28  31
ATOM     31  C   UNL A   1      34.454  31.370  27.732  1.00  0.00     0.039 A 
ATOM     32  C   UNL A   1      34.742  30.024  27.968  1.00  0.00     0.014 A 
ATOM     33  C   UNL A   1      35.430  32.344  27.964  1.00  0.00     0.014 A 
ATOM     34  C   UNL A   1      35.928  29.675  28.608  1.00  0.00     0.010 A 
ATOM     35  C   UNL A   1      36.656  31.979  28.534  1.00  0.00     0.010 A 
ATOM     36  C   UNL A   1      36.890  30.651  28.921  1.00  0.00    -0.014 A 
BRANCH  36  37
ATOM     37  C   UNL A   1      38.105  30.253  29.682  1.00  0.00     0.031 A 
ATOM     38  C   UNL A   1      38.314  30.711  31.105  1.00  0.00     0.074 A 
ATOM     39  C   UNL A   1      38.999  29.420  29.113  1.00  0.00     0.049 A 
ATOM     40  N   UNL A   1      39.275  30.390  31.934  1.00  0.00    -0.248 NA
ATOM     41  C   UNL A   1      37.329  31.648  31.672  1.00  0.00     0.031 C 
ATOM     42  C   UNL A   1      38.938  28.936  27.733  1.00  0.00     0.029 A 
ATOM     43  N   UNL A   1      40.124  28.823  29.625  1.00  0.00    -0.354 N 
ATOM     44  C   UNL A   1      39.036  31.112  33.097  1.00  0.00     0.074 A 
ATOM     45  C   UNL A   1      37.840  31.892  32.872  1.00  0.00     0.031 C 
ATOM     46  C   UNL A   1      39.957  28.089  27.519  1.00  0.00     0.029 A 
ATOM     47  C   UNL A   1      40.764  27.996  28.732  1.00  0.00     0.049 A 
ATOM     48  H   UNL A   1      40.443  28.973  30.545  1.00  0.00     0.167 HD
ATOM     49  C   UNL A   1      39.730  31.105  34.258  1.00  0.00     0.034 A 
ATOM     50  C   UNL A   1      41.875  27.245  28.867  1.00  0.00     0.034 A 
ATOM     51  C   UNL A   1      40.874  30.274  34.517  1.00  0.00     0.049 A 
ATOM     52  C   UNL A   1      42.597  27.219  30.182  1.00  0.00     0.074 A 
ATOM     53  C   UNL A   1      41.588  30.148  35.697  1.00  0.00     0.029 A 
ATOM     54  N   UNL A   1      41.466  29.428  33.597  1.00  0.00    -0.354 N 
ATOM     55  N   UNL A   1      42.280  27.817  31.304  1.00  0.00    -0.248 NA
ATOM     56  C   UNL A   1      43.819  26.404  30.260  1.00  0.00     0.031 C 
ATOM     57  C   UNL A   1      42.613  29.223  35.489  1.00  0.00     0.029 A 
ATOM     58  C   UNL A   1      42.538  28.779  34.180  1.00  0.00     0.049 A 
ATOM     59  H   UNL A   1      41.168  29.306  32.666  1.00  0.00     0.167 HD
ATOM     60  C   UNL A   1      43.259  27.453  32.219  1.00  0.00     0.074 A 
ATOM     61  C   UNL A   1      44.165  26.555  31.533  1.00  0.00     0.031 C 
ATOM     62  C   UNL A   1      43.406  27.852  33.505  1.00  0.00     0.034 A 
BRANCH  49  63
ATOM     63  C   UNL A   1      39.247  31.969  35.389  1.00  0.00     0.023 A 
ATOM     64  C   UNL A   1      38.429  31.395  36.382  1.00  0.00     0.012 A 
ATOM     65  C   UNL A   1      39.718  33.286  35.547  1.00  0.00     0.148 A 
ATOM     66  C   UNL A   1      38.087  32.122  37.521  1.00  0.00     0.002 A 
ATOM     67  C   UNL A   1      39.393  33.996  36.696  1.00  0.00     0.091 A 
ATOM     68  F   UNL A   1      40.495  33.805  34.585  1.00  0.00    -0.205 F 
ATOM     69  C   UNL A   1      38.576  33.416  37.683  1.00  0.00     0.022 A 
BRANCH  67  70
ATOM     70  S   UNL A   1      40.008  35.650  37.033  1.00  0.00     0.127 S 
ATOM     71  O   UNL A   1      39.288  35.989  38.260  1.00  0.00    -0.237 OA
ATOM     72  O   UNL A   1      41.440  35.410  37.212  1.00  0.00    -0.237 OA
ATOM     73  O   UNL A   1      39.655  36.457  35.873  1.00  0.00    -0.744 OA
ENDBRANCH  67  70
ENDBRANCH  49  63
BRANCH  50  74
ATOM     74  C   UNL A   1      42.340  26.424  27.718  1.00  0.00     0.023 A 
ATOM     75  C   UNL A   1      43.306  26.946  26.837  1.00  0.00     0.012 A 
ATOM     76  C   UNL A   1      41.879  25.106  27.536  1.00  0.00     0.148 A 
ATOM     77  C   UNL A   1      43.800  26.170  25.789  1.00  0.00     0.002 A 
ATOM     78  C   UNL A   1      42.411  24.322  26.520  1.00  0.00     0.091 A 
ATOM     79  F   UNL A   1      40.946  24.638  28.378  1.00  0.00    -0.205 F 
ATOM     80  C   UNL A   1      43.364  24.856  25.638  1.00  0.00     0.022 A 
BRANCH  78  81
ATOM     81  S   UNL A   1      41.997  22.585  26.331  1.00  0.00     0.127 S 
ATOM     82  O   UNL A   1      40.539  22.634  26.244  1.00  0.00    -0.237 OA
ATOM     83  O   UNL A   1      42.678  22.245  25.082  1.00  0.00    -0.237 OA
ATOM     84  O   UNL A   1      42.540  21.923  27.509  1.00  0.00    -0.744 OA
ENDBRANCH  78  81
ENDBRANCH  50  74
BRANCH  62  85
ATOM     85  C   UNL A   1      44.594  27.348  34.274  1.00  0.00     0.023 A 
ATOM     86  C   UNL A   1      45.765  28.130  34.303  1.00  0.00     0.012 A 
ATOM     87  C   UNL A   1      44.503  26.195  35.077  1.00  0.00     0.148 A 
ATOM     88  C   UNL A   1      46.833  27.770  35.121  1.00  0.00     0.002 A 
ATOM     89  C   UNL A   1      45.561  25.858  35.913  1.00  0.00     0.091 A 
ATOM     90  F   UNL A   1      43.377  25.469  35.026  1.00  0.00    -0.205 F 
ATOM     91  C   UNL A   1      46.726  26.642  35.934  1.00  0.00     0.022 A 
BRANCH  89  92
ATOM     92  S   UNL A   1      45.495  24.471  37.051  1.00  0.00     0.127 S 
ATOM     93  O   UNL A   1      44.326  24.808  37.864  1.00  0.00    -0.237 OA
ATOM     94  O   UNL A   1      45.303  23.338  36.146  1.00  0.00    -0.237 OA
ATOM     95  O   UNL A   1      46.763  24.472  37.766  1.00  0.00    -0.744 OA
ENDBRANCH  89  92
ENDBRANCH  62  85
ENDBRANCH  36  37
ENDBRANCH  28  31
ENDBRANCH  26  27
ENDBRANCH  25  26
ENDBRANCH   1  25
TORSDOF 19
ENDMDL
MODEL 3
REMARK VINA RESULT:     -10.8      1.324      7.613
REMARK SMILES COc1cc2nc(SCC(=O)NCCCCNC(=O)c3ccc(-c4c5nc(c(-c6cccc(S(=O)(=O)[O-])c6F)c6ccc([nH]6)c(-c6cccc(S(=O)(=O)[O-])c6F)c6nc(c(-c7cccc(S(=O)(=O)[O-])c7F)c7ccc4[nH]7)C=C6)C=C5)cc3)nc(O)c2cc1OC
REMARK SMILES IDX 14 1 13 2 12 3 10 4 11 5 9 7 8 8 7 9 3 10 4 11 88 12 5 13
REMARK SMILES IDX 87 14 6 15 86 16 84 17 83 18 2 19 1 20 89 21 90 22 85 23
REMARK SMILES IDX 15 25 16 26 17 27 18 28 19 30 20 31 21 32 82 33 22 34 81 35
REMARK SMILES IDX 23 36 24 37 25 38 75 39 26 40 80 41 74 42 76 43 27 44 79 45
REMARK SMILES IDX 73 46 72 47 28 49 60 50 40 51 59 52 41 53 44 54 58 55 77 56
REMARK SMILES IDX 42 57 43 58 57 60 78 61 45 62 29 63 30 64 38 65 31 66 33 67
REMARK SMILES IDX 39 68 32 69 34 70 35 71 36 72 37 73 61 74 62 75 70 76 63 77
REMARK SMILES IDX 65 78 71 79 64 80 66 81 67 82 68 83 69 84 46 85 47 86 55 87
REMARK SMILES IDX 48 88 50 89 56 90 49 91 51 92 52 93 53 94 54 95
REMARK H PARENT 12 6 85 24 17 29 76 48 44 59
REMARK Flexibility Score: inf
ROOT
ATOM      1  C   UNL A   1      32.510  27.358  26.267  1.00  0.00     0.023 C 
ENDROOT
BRANCH   1   2
ATOM      2  C   UNL A   1      31.513  26.218  26.492  1.00  0.00     0.116 C 
BRANCH   2   3
ATOM      3  N   UNL A   1      32.183  24.954  26.740  1.00  0.00    -0.355 N 
ATOM      4  C   UNL A   1      32.123  23.782  26.043  1.00  0.00     0.230 C 
ATOM      5  O   UNL A   1      32.807  22.837  26.446  1.00  0.00    -0.274 OA
ATOM      6  H   UNL A   1      32.769  24.940  27.531  1.00  0.00     0.163 HD
BRANCH   4   7
ATOM      7  C   UNL A   1      31.324  23.681  24.753  1.00  0.00     0.178 C 
BRANCH   7   8
ATOM      8  S   UNL A   1      32.238  24.153  23.255  1.00  0.00    -0.076 SA
BRANCH   8   9
ATOM      9  C   UNL A   1      31.700  25.826  23.016  1.00  0.00     0.192 A 
ATOM     10  C   UNL A   1      28.096  28.892  23.071  1.00  0.00     0.162 A 
ATOM     11  C   UNL A   1      28.611  27.604  23.265  1.00  0.00     0.079 A 
ATOM     12  C   UNL A   1      28.935  29.945  22.681  1.00  0.00     0.161 A 
ATOM     13  C   UNL A   1      29.950  27.313  23.048  1.00  0.00     0.083 A 
ATOM     14  C   UNL A   1      30.283  29.665  22.460  1.00  0.00     0.066 A 
ATOM     15  N   UNL A   1      30.396  26.062  23.227  1.00  0.00    -0.222 NA
ATOM     16  C   UNL A   1      30.784  28.352  22.645  1.00  0.00     0.066 A 
ATOM     17  C   UNL A   1      32.104  27.971  22.461  1.00  0.00     0.223 A 
ATOM     18  N   UNL A   1      32.594  26.746  22.655  1.00  0.00    -0.187 NA
BRANCH  10  19
ATOM     19  O   UNL A   1      26.762  29.032  23.363  1.00  0.00    -0.493 OA
ATOM     20  C   UNL A   1      26.174  27.839  23.880  1.00  0.00     0.278 C 
ENDBRANCH  10  19
BRANCH  12  21
ATOM     21  O   UNL A   1      28.376  31.189  22.583  1.00  0.00    -0.493 OA
ATOM     22  C   UNL A   1      28.434  31.841  21.321  1.00  0.00     0.278 C 
ENDBRANCH  12  21
BRANCH  17  23
ATOM     23  O   UNL A   1      33.045  28.853  22.028  1.00  0.00    -0.493 OA
ATOM     24  H   UNL A   1      33.952  28.693  22.201  1.00  0.00     0.295 HD
ENDBRANCH  17  23
ENDBRANCH   8   9
ENDBRANCH   7   8
ENDBRANCH   4   7
ENDBRANCH   2   3
ENDBRANCH   1   2
BRANCH   1  25
ATOM     25  C   UNL A   1      31.880  28.740  26.070  1.00  0.00     0.023 C 
BRANCH  25  26
ATOM     26  C   UNL A   1      32.846  29.855  25.686  1.00  0.00     0.116 C 
BRANCH  26  27
ATOM     27  N   UNL A   1      32.544  31.133  26.312  1.00  0.00    -0.352 N 
ATOM     28  C   UNL A   1      33.276  31.821  27.257  1.00  0.00     0.251 C 
ATOM     29  H   UNL A   1      31.706  31.563  26.024  1.00  0.00     0.163 HD
ATOM     30  O   UNL A   1      32.824  32.849  27.753  1.00  0.00    -0.269 OA
BRANCH  28  31
ATOM     31  C   UNL A   1      34.581  31.282  27.704  1.00  0.00     0.039 A 
ATOM     32  C   UNL A   1      34.728  29.925  28.001  1.00  0.00     0.014 A 
ATOM     33  C   UNL A   1      35.656  32.157  27.886  1.00  0.00     0.014 A 
ATOM     34  C   UNL A   1      35.877  29.483  28.651  1.00  0.00     0.010 A 
ATOM     35  C   UNL A   1      36.842  31.693  28.467  1.00  0.00     0.010 A 
ATOM     36  C   UNL A   1      36.939  30.366  28.915  1.00  0.00    -0.014 A 
BRANCH  36  37
ATOM     37  C   UNL A   1      38.112  29.878  29.688  1.00  0.00     0.031 A 
ATOM     38  C   UNL A   1      39.084  28.894  29.085  1.00  0.00     0.074 A 
ATOM     39  C   UNL A   1      38.343  30.370  30.922  1.00  0.00     0.049 A 
ATOM     40  N   UNL A   1      40.199  28.430  29.592  1.00  0.00    -0.248 NA
ATOM     41  C   UNL A   1      38.772  28.358  27.750  1.00  0.00     0.031 C 
ATOM     42  C   UNL A   1      37.462  31.294  31.638  1.00  0.00     0.029 A 
ATOM     43  N   UNL A   1      39.392  30.175  31.786  1.00  0.00    -0.354 N 
ATOM     44  C   UNL A   1      40.695  27.523  28.663  1.00  0.00     0.074 A 
ATOM     45  C   UNL A   1      39.763  27.496  27.559  1.00  0.00     0.031 C 
ATOM     46  C   UNL A   1      38.022  31.614  32.815  1.00  0.00     0.029 A 
ATOM     47  C   UNL A   1      39.284  30.891  32.954  1.00  0.00     0.049 A 
ATOM     48  H   UNL A   1      40.149  29.577  31.588  1.00  0.00     0.167 HD
ATOM     49  C   UNL A   1      41.837  26.800  28.711  1.00  0.00     0.034 A 
ATOM     50  C   UNL A   1      40.104  30.965  34.022  1.00  0.00     0.034 A 
ATOM     51  C   UNL A   1      42.808  26.880  29.767  1.00  0.00     0.049 A 
ATOM     52  C   UNL A   1      41.388  30.189  34.025  1.00  0.00     0.074 A 
ATOM     53  C   UNL A   1      44.033  26.239  29.852  1.00  0.00     0.029 A 
ATOM     54  N   UNL A   1      42.674  27.644  30.913  1.00  0.00    -0.354 N 
ATOM     55  N   UNL A   1      41.892  29.434  33.080  1.00  0.00    -0.248 NA
ATOM     56  C   UNL A   1      42.228  30.286  35.229  1.00  0.00     0.031 C 
ATOM     57  C   UNL A   1      44.640  26.617  31.051  1.00  0.00     0.029 A 
ATOM     58  C   UNL A   1      43.792  27.489  31.712  1.00  0.00     0.049 A 
ATOM     59  H   UNL A   1      41.899  28.213  31.126  1.00  0.00     0.167 HD
ATOM     60  C   UNL A   1      43.104  28.966  33.574  1.00  0.00     0.074 A 
ATOM     61  C   UNL A   1      43.277  29.548  34.889  1.00  0.00     0.031 C 
ATOM     62  C   UNL A   1      43.977  28.108  32.997  1.00  0.00     0.034 A 
BRANCH  49  63
ATOM     63  C   UNL A   1      42.164  25.897  27.555  1.00  0.00     0.023 A 
ATOM     64  C   UNL A   1      43.004  26.377  26.531  1.00  0.00     0.012 A 
ATOM     65  C   UNL A   1      41.768  24.545  27.557  1.00  0.00     0.148 A 
ATOM     66  C   UNL A   1      43.449  25.523  25.524  1.00  0.00     0.002 A 
ATOM     67  C   UNL A   1      42.235  23.694  26.563  1.00  0.00     0.091 A 
ATOM     68  F   UNL A   1      40.968  24.117  28.544  1.00  0.00    -0.205 F 
ATOM     69  C   UNL A   1      43.074  24.182  25.545  1.00  0.00     0.022 A 
BRANCH  67  70
ATOM     70  S   UNL A   1      41.858  21.939  26.521  1.00  0.00     0.127 S 
ATOM     71  O   UNL A   1      42.639  21.496  25.366  1.00  0.00    -0.237 OA
ATOM     72  O   UNL A   1      42.371  21.487  27.814  1.00  0.00    -0.237 OA
ATOM     73  O   UNL A   1      40.415  21.838  26.358  1.00  0.00    -0.744 OA
ENDBRANCH  67  70
ENDBRANCH  49  63
BRANCH  50  74
ATOM     74  C   UNL A   1      39.736  31.849  35.160  1.00  0.00     0.023 A 
ATOM     75  C   UNL A   1      40.145  33.196  35.153  1.00  0.00     0.012 A 
ATOM     76  C   UNL A   1      38.928  31.377  36.212  1.00  0.00     0.148 A 
ATOM     77  C   UNL A   1      39.759  34.057  36.180  1.00  0.00     0.002 A 
ATOM     78  C   UNL A   1      38.508  32.251  37.206  1.00  0.00     0.091 A 
ATOM     79  F   UNL A   1      38.567  30.085  36.204  1.00  0.00    -0.205 F 
ATOM     80  C   UNL A   1      38.930  33.589  37.198  1.00  0.00     0.022 A 
BRANCH  78  81
ATOM     81  S   UNL A   1      37.343  31.763  38.483  1.00  0.00     0.127 S 
ATOM     82  O   UNL A   1      36.243  32.698  38.256  1.00  0.00    -0.237 OA
ATOM     83  O   UNL A   1      37.058  30.376  38.119  1.00  0.00    -0.237 OA
ATOM     84  O   UNL A   1      38.057  31.918  39.743  1.00  0.00    -0.744 OA
ENDBRANCH  78  81
ENDBRANCH  50  74
BRANCH  62  85
ATOM     85  C   UNL A   1      45.204  27.715  33.770  1.00  0.00     0.023 A 
ATOM     86  C   UNL A   1      46.341  28.543  33.703  1.00  0.00     0.012 A 
ATOM     87  C   UNL A   1      45.182  26.629  34.665  1.00  0.00     0.148 A 
ATOM     88  C   UNL A   1      47.444  28.294  34.517  1.00  0.00     0.002 A 
ATOM     89  C   UNL A   1      46.274  26.404  35.495  1.00  0.00     0.091 A 
ATOM     90  F   UNL A   1      44.087  25.857  34.704  1.00  0.00    -0.205 F 
ATOM     91  C   UNL A   1      47.406  27.233  35.420  1.00  0.00     0.022 A 
BRANCH  89  92
ATOM     92  S   UNL A   1      46.295  25.112  36.742  1.00  0.00     0.127 S 
ATOM     93  O   UNL A   1      46.054  23.916  35.936  1.00  0.00    -0.237 OA
ATOM     94  O   UNL A   1      47.651  25.223  37.279  1.00  0.00    -0.237 OA
ATOM     95  O   UNL A   1      45.236  25.443  37.686  1.00  0.00    -0.744 OA
ENDBRANCH  89  92
ENDBRANCH  62  85
ENDBRANCH  36  37
ENDBRANCH  28  31
ENDBRANCH  26  27
ENDBRANCH  25  26
ENDBRANCH   1  25
TORSDOF 19
ENDMDL
