MODEL 1
REMARK VINA RESULT:     -11.6      0.000      0.000
REMARK SMILES C[C@@](NC(=O)c1cc(Br)c[nH]1)(C(=O)NCCCCNC(=O)c1ccc(-c2c3nc(c(-c4cccc(S(=O)(=O)[O-])c4F)c4ccc([nH]4)c(-c4cccc(S(=O)(=O)[O-])c4F)c4nc(c(-c5cccc(S(=O)(=O)[O-])c5F)c5ccc2[nH]5)C=C4)C=C3)cc1)C(F)(F)F
REMARK SMILES IDX 17 1 16 2 15 3 14 4 12 5 13 6 2 8 1 9 3 10 4 11 5 13 6 14
REMARK SMILES IDX 7 15 11 16 8 17 10 18 9 20 85 21 86 22 87 23 88 24 18 25
REMARK SMILES IDX 19 26 20 27 21 29 22 30 23 31 84 32 24 33 83 34 25 35 26 36
REMARK SMILES IDX 27 37 77 38 28 39 82 40 76 41 78 42 29 43 81 44 75 45 74 46
REMARK SMILES IDX 30 48 62 49 42 50 61 51 43 52 46 53 60 54 79 55 44 56 45 57
REMARK SMILES IDX 59 59 80 60 47 61 31 62 32 63 40 64 33 65 35 66 41 67 34 68
REMARK SMILES IDX 36 69 37 70 38 71 39 72 63 73 64 74 72 75 65 76 67 77 73 78
REMARK SMILES IDX 66 79 68 80 69 81 70 82 71 83 48 84 49 85 57 86 50 87 52 88
REMARK SMILES IDX 58 89 51 90 53 91 54 92 55 93 56 94
REMARK H PARENT 14 7 3 12 11 19 19 28 78 47 46 58
REMARK Flexibility Score: inf
ROOT
ATOM      1  C   UNL A   1      32.807  29.616  25.474  1.00  0.00     0.023 C 
ENDROOT
BRANCH   1   2
ATOM      2  C   UNL A   1      33.870  28.518  25.568  1.00  0.00     0.023 C 
BRANCH   2   3
ATOM      3  C   UNL A   1      33.318  27.113  25.790  1.00  0.00     0.116 C 
BRANCH   3   4
ATOM      4  N   UNL A   1      33.565  26.257  24.643  1.00  0.00    -0.354 N 
ATOM      5  C   UNL A   1      32.722  25.469  23.915  1.00  0.00     0.254 C 
ATOM      6  O   UNL A   1      33.224  24.849  22.973  1.00  0.00    -0.272 OA
ATOM      7  H   UNL A   1      34.501  26.243  24.338  1.00  0.00     0.163 HD
BRANCH   5   8
ATOM      8  C   UNL A   1      31.253  25.252  24.316  1.00  0.00     0.212 C 
ATOM      9  C   UNL A   1      30.651  24.241  23.313  1.00  0.00     0.056 C 
BRANCH   8  10
ATOM     10  N   UNL A   1      31.061  24.704  25.694  1.00  0.00    -0.329 N 
ATOM     11  C   UNL A   1      31.750  23.744  26.391  1.00  0.00     0.268 C 
ATOM     12  H   UNL A   1      30.308  25.102  26.187  1.00  0.00     0.165 HD
ATOM     13  O   UNL A   1      31.617  23.760  27.616  1.00  0.00    -0.268 OA
BRANCH  11  14
ATOM     14  C   UNL A   1      32.427  22.678  25.697  1.00  0.00     0.105 A 
ATOM     15  C   UNL A   1      31.881  21.441  25.373  1.00  0.00     0.049 A 
ATOM     16  N   UNL A   1      33.739  22.642  25.272  1.00  0.00    -0.356 N 
ATOM     17  C   UNL A   1      32.832  20.739  24.616  1.00  0.00     0.036 A 
ATOM     18  C   UNL A   1      33.972  21.495  24.555  1.00  0.00     0.098 A 
ATOM     19  H   UNL A   1      34.410  23.337  25.456  1.00  0.00     0.166 HD
ATOM     20  Br  UNL A   1      32.531  19.072  23.824  1.00  0.00    -0.049 Br
ENDBRANCH  11  14
ENDBRANCH   8  10
BRANCH   8  21
ATOM     21  C   UNL A   1      30.489  26.581  24.121  1.00  0.00     0.420 C 
ATOM     22  F   UNL A   1      31.063  27.409  23.223  1.00  0.00    -0.168 F 
ATOM     23  F   UNL A   1      29.238  26.320  23.648  1.00  0.00    -0.168 F 
ATOM     24  F   UNL A   1      30.318  27.261  25.279  1.00  0.00    -0.168 F 
ENDBRANCH   8  21
ENDBRANCH   5   8
ENDBRANCH   3   4
ENDBRANCH   2   3
ENDBRANCH   1   2
BRANCH   1  25
ATOM     25  C   UNL A   1      32.296  30.146  26.812  1.00  0.00     0.116 C 
BRANCH  25  26
ATOM     26  N   UNL A   1      32.346  31.600  26.893  1.00  0.00    -0.352 N 
ATOM     27  C   UNL A   1      33.283  32.398  27.503  1.00  0.00     0.251 C 
ATOM     28  H   UNL A   1      31.606  32.075  26.451  1.00  0.00     0.163 HD
ATOM     29  O   UNL A   1      33.085  33.605  27.610  1.00  0.00    -0.269 OA
BRANCH  27  30
ATOM     30  C   UNL A   1      34.517  31.794  28.048  1.00  0.00     0.039 A 
ATOM     31  C   UNL A   1      35.676  32.572  28.124  1.00  0.00     0.014 A 
ATOM     32  C   UNL A   1      34.522  30.472  28.501  1.00  0.00     0.014 A 
ATOM     33  C   UNL A   1      36.824  32.043  28.718  1.00  0.00     0.010 A 
ATOM     34  C   UNL A   1      35.647  29.969  29.148  1.00  0.00     0.010 A 
ATOM     35  C   UNL A   1      36.808  30.748  29.264  1.00  0.00    -0.014 A 
BRANCH  35  36
ATOM     36  C   UNL A   1      37.987  30.200  29.979  1.00  0.00     0.031 A 
ATOM     37  C   UNL A   1      38.301  30.649  31.380  1.00  0.00     0.074 A 
ATOM     38  C   UNL A   1      38.830  29.370  29.333  1.00  0.00     0.049 A 
ATOM     39  N   UNL A   1      39.310  30.319  32.143  1.00  0.00    -0.248 NA
ATOM     40  C   UNL A   1      37.374  31.615  31.994  1.00  0.00     0.031 C 
ATOM     41  C   UNL A   1      38.681  28.928  27.944  1.00  0.00     0.029 A 
ATOM     42  N   UNL A   1      39.993  28.772  29.747  1.00  0.00    -0.354 N 
ATOM     43  C   UNL A   1      39.163  31.062  33.308  1.00  0.00     0.074 A 
ATOM     44  C   UNL A   1      37.981  31.880  33.143  1.00  0.00     0.031 C 
ATOM     45  C   UNL A   1      39.712  28.129  27.625  1.00  0.00     0.029 A 
ATOM     46  C   UNL A   1      40.605  28.016  28.774  1.00  0.00     0.049 A 
ATOM     47  H   UNL A   1      40.357  28.875  30.657  1.00  0.00     0.167 HD
ATOM     48  C   UNL A   1      39.924  31.042  34.428  1.00  0.00     0.034 A 
ATOM     49  C   UNL A   1      41.752  27.311  28.806  1.00  0.00     0.034 A 
ATOM     50  C   UNL A   1      41.062  30.184  34.615  1.00  0.00     0.049 A 
ATOM     51  C   UNL A   1      42.544  27.258  30.084  1.00  0.00     0.074 A 
ATOM     52  C   UNL A   1      41.833  30.011  35.751  1.00  0.00     0.029 A 
ATOM     53  N   UNL A   1      41.595  29.353  33.640  1.00  0.00    -0.354 N 
ATOM     54  N   UNL A   1      42.288  27.827  31.237  1.00  0.00    -0.248 NA
ATOM     55  C   UNL A   1      43.764  26.436  30.079  1.00  0.00     0.031 C 
ATOM     56  C   UNL A   1      42.838  29.082  35.461  1.00  0.00     0.029 A 
ATOM     57  C   UNL A   1      42.687  28.671  34.145  1.00  0.00     0.049 A 
ATOM     58  H   UNL A   1      41.247  29.264  32.723  1.00  0.00     0.167 HD
ATOM     59  C   UNL A   1      43.291  27.407  32.101  1.00  0.00     0.074 A 
ATOM     60  C   UNL A   1      44.149  26.517  31.346  1.00  0.00     0.031 C 
ATOM     61  C   UNL A   1      43.494  27.740  33.400  1.00  0.00     0.034 A 
BRANCH  48  62
ATOM     62  C   UNL A   1      39.507  31.927  35.572  1.00  0.00     0.023 A 
ATOM     63  C   UNL A   1      39.954  33.263  35.607  1.00  0.00     0.012 A 
ATOM     64  C   UNL A   1      38.634  31.463  36.574  1.00  0.00     0.148 A 
ATOM     65  C   UNL A   1      39.561  34.117  36.636  1.00  0.00     0.002 A 
ATOM     66  C   UNL A   1      38.215  32.331  37.577  1.00  0.00     0.091 A 
ATOM     67  F   UNL A   1      38.239  30.181  36.538  1.00  0.00    -0.205 F 
ATOM     68  C   UNL A   1      38.684  33.655  37.613  1.00  0.00     0.022 A 
BRANCH  66  69
ATOM     69  S   UNL A   1      37.031  31.849  38.838  1.00  0.00     0.127 S 
ATOM     70  O   UNL A   1      35.891  32.706  38.517  1.00  0.00    -0.237 OA
ATOM     71  O   UNL A   1      36.825  30.429  38.545  1.00  0.00    -0.237 OA
ATOM     72  O   UNL A   1      37.678  32.113  40.115  1.00  0.00    -0.744 OA
ENDBRANCH  66  69
ENDBRANCH  48  62
BRANCH  49  73
ATOM     73  C   UNL A   1      42.170  26.519  27.615  1.00  0.00     0.023 A 
ATOM     74  C   UNL A   1      42.923  27.149  26.605  1.00  0.00     0.012 A 
ATOM     75  C   UNL A   1      41.863  25.150  27.490  1.00  0.00     0.148 A 
ATOM     76  C   UNL A   1      43.339  26.439  25.478  1.00  0.00     0.002 A 
ATOM     77  C   UNL A   1      42.325  24.436  26.389  1.00  0.00     0.091 A 
ATOM     78  F   UNL A   1      41.132  24.571  28.452  1.00  0.00    -0.205 F 
ATOM     79  C   UNL A   1      43.050  25.081  25.375  1.00  0.00     0.022 A 
BRANCH  77  80
ATOM     80  S   UNL A   1      42.109  22.658  26.245  1.00  0.00     0.127 S 
ATOM     81  O   UNL A   1      42.807  22.371  24.995  1.00  0.00    -0.237 OA
ATOM     82  O   UNL A   1      42.779  22.168  27.450  1.00  0.00    -0.237 OA
ATOM     83  O   UNL A   1      40.668  22.444  26.237  1.00  0.00    -0.744 OA
ENDBRANCH  77  80
ENDBRANCH  49  73
BRANCH  61  84
ATOM     84  C   UNL A   1      44.674  27.125  34.104  1.00  0.00     0.023 A 
ATOM     85  C   UNL A   1      45.933  27.753  34.024  1.00  0.00     0.012 A 
ATOM     86  C   UNL A   1      44.521  25.980  34.908  1.00  0.00     0.148 A 
ATOM     87  C   UNL A   1      47.028  27.235  34.715  1.00  0.00     0.002 A 
ATOM     88  C   UNL A   1      45.607  25.494  35.629  1.00  0.00     0.091 A 
ATOM     89  F   UNL A   1      43.320  25.384  34.954  1.00  0.00    -0.205 F 
ATOM     90  C   UNL A   1      46.862  26.115  35.527  1.00  0.00     0.022 A 
BRANCH  88  91
ATOM     91  S   UNL A   1      45.456  24.112  36.766  1.00  0.00     0.127 S 
ATOM     92  O   UNL A   1      44.976  23.050  35.884  1.00  0.00    -0.237 OA
ATOM     93  O   UNL A   1      46.831  23.939  37.236  1.00  0.00    -0.237 OA
ATOM     94  O   UNL A   1      44.521  24.546  37.796  1.00  0.00    -0.744 OA
ENDBRANCH  88  91
ENDBRANCH  61  84
ENDBRANCH  35  36
ENDBRANCH  27  30
ENDBRANCH  25  26
ENDBRANCH   1  25
TORSDOF 17
ENDMDL
MODEL 2
REMARK VINA RESULT:     -11.5      5.360     10.474
REMARK SMILES C[C@@](NC(=O)c1cc(Br)c[nH]1)(C(=O)NCCCCNC(=O)c1ccc(-c2c3nc(c(-c4cccc(S(=O)(=O)[O-])c4F)c4ccc([nH]4)c(-c4cccc(S(=O)(=O)[O-])c4F)c4nc(c(-c5cccc(S(=O)(=O)[O-])c5F)c5ccc2[nH]5)C=C4)C=C3)cc1)C(F)(F)F
REMARK SMILES IDX 17 1 16 2 15 3 14 4 12 5 13 6 2 8 1 9 3 10 4 11 5 13 6 14
REMARK SMILES IDX 7 15 11 16 8 17 10 18 9 20 85 21 86 22 87 23 88 24 18 25
REMARK SMILES IDX 19 26 20 27 21 29 22 30 23 31 84 32 24 33 83 34 25 35 26 36
REMARK SMILES IDX 27 37 77 38 28 39 82 40 76 41 78 42 29 43 81 44 75 45 74 46
REMARK SMILES IDX 30 48 62 49 42 50 61 51 43 52 46 53 60 54 79 55 44 56 45 57
REMARK SMILES IDX 59 59 80 60 47 61 31 62 32 63 40 64 33 65 35 66 41 67 34 68
REMARK SMILES IDX 36 69 37 70 38 71 39 72 63 73 64 74 72 75 65 76 67 77 73 78
REMARK SMILES IDX 66 79 68 80 69 81 70 82 71 83 48 84 49 85 57 86 50 87 52 88
REMARK SMILES IDX 58 89 51 90 53 91 54 92 55 93 56 94
REMARK H PARENT 14 7 3 12 11 19 19 28 78 47 46 58
REMARK Flexibility Score: inf
ROOT
ATOM      1  C   UNL A   1      35.850  21.924  25.896  1.00  0.00     0.023 C 
ENDROOT
BRANCH   1   2
ATOM      2  C   UNL A   1      35.605  23.368  26.344  1.00  0.00     0.023 C 
BRANCH   2   3
ATOM      3  C   UNL A   1      34.869  24.236  25.328  1.00  0.00     0.116 C 
BRANCH   3   4
ATOM      4  N   UNL A   1      33.530  24.569  25.784  1.00  0.00    -0.354 N 
ATOM      5  C   UNL A   1      32.310  24.356  25.212  1.00  0.00     0.254 C 
ATOM      6  O   UNL A   1      31.328  24.750  25.847  1.00  0.00    -0.272 OA
ATOM      7  H   UNL A   1      33.497  25.025  26.655  1.00  0.00     0.163 HD
BRANCH   5   8
ATOM      8  C   UNL A   1      32.160  23.781  23.793  1.00  0.00     0.212 C 
ATOM      9  C   UNL A   1      30.654  23.810  23.446  1.00  0.00     0.056 C 
BRANCH   8  10
ATOM     10  N   UNL A   1      32.892  24.542  22.735  1.00  0.00    -0.329 N 
ATOM     11  C   UNL A   1      33.086  25.888  22.557  1.00  0.00     0.268 C 
ATOM     12  H   UNL A   1      33.307  23.978  22.043  1.00  0.00     0.165 HD
ATOM     13  O   UNL A   1      34.026  26.212  21.830  1.00  0.00    -0.268 OA
BRANCH  11  14
ATOM     14  C   UNL A   1      32.121  26.839  23.047  1.00  0.00     0.105 A 
ATOM     15  C   UNL A   1      31.039  27.343  22.334  1.00  0.00     0.049 A 
ATOM     16  N   UNL A   1      32.102  27.473  24.272  1.00  0.00    -0.356 N 
ATOM     17  C   UNL A   1      30.296  28.157  23.204  1.00  0.00     0.036 A 
ATOM     18  C   UNL A   1      30.960  28.223  24.400  1.00  0.00     0.098 A 
ATOM     19  H   UNL A   1      32.806  27.399  24.957  1.00  0.00     0.166 HD
ATOM     20  Br  UNL A   1      28.669  28.965  22.763  1.00  0.00    -0.049 Br
ENDBRANCH  11  14
ENDBRANCH   8  10
BRANCH   8  21
ATOM     21  C   UNL A   1      32.582  22.294  23.818  1.00  0.00     0.420 C 
ATOM     22  F   UNL A   1      31.776  21.491  23.092  1.00  0.00    -0.168 F 
ATOM     23  F   UNL A   1      33.827  22.166  23.280  1.00  0.00    -0.168 F 
ATOM     24  F   UNL A   1      32.661  21.794  25.074  1.00  0.00    -0.168 F 
ENDBRANCH   8  21
ENDBRANCH   5   8
ENDBRANCH   3   4
ENDBRANCH   2   3
ENDBRANCH   1   2
BRANCH   1  25
ATOM     25  C   UNL A   1      37.020  21.729  24.934  1.00  0.00     0.116 C 
BRANCH  25  26
ATOM     26  N   UNL A   1      37.934  20.683  25.372  1.00  0.00    -0.352 N 
ATOM     27  C   UNL A   1      39.161  20.807  25.979  1.00  0.00     0.251 C 
ATOM     28  H   UNL A   1      37.632  19.760  25.209  1.00  0.00     0.163 HD
ATOM     29  O   UNL A   1      39.871  19.818  26.137  1.00  0.00    -0.269 OA
BRANCH  27  30
ATOM     30  C   UNL A   1      39.630  22.138  26.417  1.00  0.00     0.039 A 
ATOM     31  C   UNL A   1      40.613  22.218  27.407  1.00  0.00     0.014 A 
ATOM     32  C   UNL A   1      39.114  23.301  25.837  1.00  0.00     0.014 A 
ATOM     33  C   UNL A   1      41.129  23.465  27.768  1.00  0.00     0.010 A 
ATOM     34  C   UNL A   1      39.674  24.535  26.153  1.00  0.00     0.010 A 
ATOM     35  C   UNL A   1      40.686  24.630  27.121  1.00  0.00    -0.014 A 
BRANCH  35  36
ATOM     36  C   UNL A   1      41.284  25.954  27.424  1.00  0.00     0.031 A 
ATOM     37  C   UNL A   1      42.689  26.270  26.988  1.00  0.00     0.074 A 
ATOM     38  C   UNL A   1      40.598  26.837  28.176  1.00  0.00     0.049 A 
ATOM     39  N   UNL A   1      43.394  27.349  27.203  1.00  0.00    -0.248 NA
ATOM     40  C   UNL A   1      43.403  25.227  26.233  1.00  0.00     0.031 C 
ATOM     41  C   UNL A   1      39.261  26.614  28.732  1.00  0.00     0.029 A 
ATOM     42  N   UNL A   1      40.939  28.088  28.626  1.00  0.00    -0.354 N 
ATOM     43  C   UNL A   1      44.644  27.103  26.647  1.00  0.00     0.074 A 
ATOM     44  C   UNL A   1      44.610  25.761  26.107  1.00  0.00     0.031 C 
ATOM     45  C   UNL A   1      38.897  27.691  29.446  1.00  0.00     0.029 A 
ATOM     46  C   UNL A   1      39.977  28.673  29.417  1.00  0.00     0.049 A 
ATOM     47  H   UNL A   1      41.793  28.525  28.405  1.00  0.00     0.167 HD
ATOM     48  C   UNL A   1      45.713  27.930  26.565  1.00  0.00     0.034 A 
ATOM     49  C   UNL A   1      39.966  29.865  30.044  1.00  0.00     0.034 A 
ATOM     50  C   UNL A   1      45.724  29.284  27.048  1.00  0.00     0.049 A 
ATOM     51  C   UNL A   1      41.144  30.788  29.883  1.00  0.00     0.074 A 
ATOM     52  C   UNL A   1      46.720  30.236  26.916  1.00  0.00     0.029 A 
ATOM     53  N   UNL A   1      44.692  29.880  27.756  1.00  0.00    -0.354 N 
ATOM     54  N   UNL A   1      42.247  30.605  29.199  1.00  0.00    -0.248 NA
ATOM     55  C   UNL A   1      41.062  32.096  30.550  1.00  0.00     0.031 C 
ATOM     56  C   UNL A   1      46.292  31.407  27.553  1.00  0.00     0.029 A 
ATOM     57  C   UNL A   1      45.028  31.184  28.075  1.00  0.00     0.049 A 
ATOM     58  H   UNL A   1      43.845  29.439  27.998  1.00  0.00     0.167 HD
ATOM     59  C   UNL A   1      42.972  31.784  29.323  1.00  0.00     0.074 A 
ATOM     60  C   UNL A   1      42.175  32.683  30.131  1.00  0.00     0.031 C 
ATOM     61  C   UNL A   1      44.197  32.089  28.826  1.00  0.00     0.034 A 
BRANCH  48  62
ATOM     62  C   UNL A   1      46.941  27.417  25.862  1.00  0.00     0.023 A 
ATOM     63  C   UNL A   1      47.816  26.552  26.549  1.00  0.00     0.012 A 
ATOM     64  C   UNL A   1      47.199  27.735  24.515  1.00  0.00     0.148 A 
ATOM     65  C   UNL A   1      48.945  26.035  25.917  1.00  0.00     0.002 A 
ATOM     66  C   UNL A   1      48.307  27.185  23.879  1.00  0.00     0.091 A 
ATOM     67  F   UNL A   1      46.368  28.579  23.885  1.00  0.00    -0.205 F 
ATOM     68  C   UNL A   1      49.185  26.342  24.581  1.00  0.00     0.022 A 
BRANCH  66  69
ATOM     69  S   UNL A   1      48.657  27.464  22.139  1.00  0.00     0.127 S 
ATOM     70  O   UNL A   1      48.845  26.099  21.653  1.00  0.00    -0.237 OA
ATOM     71  O   UNL A   1      47.430  28.112  21.675  1.00  0.00    -0.237 OA
ATOM     72  O   UNL A   1      49.838  28.315  22.103  1.00  0.00    -0.744 OA
ENDBRANCH  66  69
ENDBRANCH  48  62
BRANCH  49  73
ATOM     73  C   UNL A   1      38.758  30.293  30.804  1.00  0.00     0.023 A 
ATOM     74  C   UNL A   1      38.664  29.978  32.174  1.00  0.00     0.012 A 
ATOM     75  C   UNL A   1      37.726  31.036  30.198  1.00  0.00     0.148 A 
ATOM     76  C   UNL A   1      37.552  30.368  32.920  1.00  0.00     0.002 A 
ATOM     77  C   UNL A   1      36.645  31.466  30.960  1.00  0.00     0.091 A 
ATOM     78  F   UNL A   1      37.824  31.313  28.891  1.00  0.00    -0.205 F 
ATOM     79  C   UNL A   1      36.548  31.121  32.317  1.00  0.00     0.022 A 
BRANCH  77  80
ATOM     80  S   UNL A   1      35.377  32.550  30.293  1.00  0.00     0.127 S 
ATOM     81  O   UNL A   1      36.149  33.742  29.952  1.00  0.00    -0.237 OA
ATOM     82  O   UNL A   1      34.889  31.784  29.146  1.00  0.00    -0.237 OA
ATOM     83  O   UNL A   1      34.400  32.705  31.363  1.00  0.00    -0.744 OA
ENDBRANCH  77  80
ENDBRANCH  49  73
BRANCH  61  84
ATOM     84  C   UNL A   1      44.748  33.459  29.116  1.00  0.00     0.023 A 
ATOM     85  C   UNL A   1      45.456  33.682  30.314  1.00  0.00     0.012 A 
ATOM     86  C   UNL A   1      44.640  34.498  28.172  1.00  0.00     0.148 A 
ATOM     87  C   UNL A   1      46.026  34.927  30.578  1.00  0.00     0.002 A 
ATOM     88  C   UNL A   1      45.248  35.723  28.423  1.00  0.00     0.091 A 
ATOM     89  F   UNL A   1      43.944  34.272  27.048  1.00  0.00    -0.205 F 
ATOM     90  C   UNL A   1      45.933  35.941  29.628  1.00  0.00     0.022 A 
BRANCH  88  91
ATOM     91  S   UNL A   1      45.253  37.051  27.213  1.00  0.00     0.127 S 
ATOM     92  O   UNL A   1      46.021  36.457  26.120  1.00  0.00    -0.237 OA
ATOM     93  O   UNL A   1      43.828  37.227  26.931  1.00  0.00    -0.237 OA
ATOM     94  O   UNL A   1      45.877  38.188  27.877  1.00  0.00    -0.744 OA
ENDBRANCH  88  91
ENDBRANCH  61  84
ENDBRANCH  35  36
ENDBRANCH  27  30
ENDBRANCH  25  26
ENDBRANCH   1  25
TORSDOF 17
ENDMDL
MODEL 3
REMARK VINA RESULT:     -11.4      5.320     10.184
REMARK SMILES C[C@@](NC(=O)c1cc(Br)c[nH]1)(C(=O)NCCCCNC(=O)c1ccc(-c2c3nc(c(-c4cccc(S(=O)(=O)[O-])c4F)c4ccc([nH]4)c(-c4cccc(S(=O)(=O)[O-])c4F)c4nc(c(-c5cccc(S(=O)(=O)[O-])c5F)c5ccc2[nH]5)C=C4)C=C3)cc1)C(F)(F)F
REMARK SMILES IDX 17 1 16 2 15 3 14 4 12 5 13 6 2 8 1 9 3 10 4 11 5 13 6 14
REMARK SMILES IDX 7 15 11 16 8 17 10 18 9 20 85 21 86 22 87 23 88 24 18 25
REMARK SMILES IDX 19 26 20 27 21 29 22 30 23 31 84 32 24 33 83 34 25 35 26 36
REMARK SMILES IDX 27 37 77 38 28 39 82 40 76 41 78 42 29 43 81 44 75 45 74 46
REMARK SMILES IDX 30 48 62 49 42 50 61 51 43 52 46 53 60 54 79 55 44 56 45 57
REMARK SMILES IDX 59 59 80 60 47 61 31 62 32 63 40 64 33 65 35 66 41 67 34 68
REMARK SMILES IDX 36 69 37 70 38 71 39 72 63 73 64 74 72 75 65 76 67 77 73 78
REMARK SMILES IDX 66 79 68 80 69 81 70 82 71 83 48 84 49 85 57 86 50 87 52 88
REMARK SMILES IDX 58 89 51 90 53 91 54 92 55 93 56 94
REMARK H PARENT 14 7 3 12 11 19 19 28 78 47 46 58
REMARK Flexibility Score: inf
ROOT
ATOM      1  C   UNL A   1      35.997  21.065  25.149  1.00  0.00     0.023 C 
ENDROOT
BRANCH   1   2
ATOM      2  C   UNL A   1      35.151  21.643  26.287  1.00  0.00     0.023 C 
BRANCH   2   3
ATOM      3  C   UNL A   1      33.728  21.098  26.365  1.00  0.00     0.116 C 
BRANCH   3   4
ATOM      4  N   UNL A   1      33.229  20.723  25.053  1.00  0.00    -0.354 N 
ATOM      5  C   UNL A   1      32.545  21.441  24.116  1.00  0.00     0.254 C 
ATOM      6  O   UNL A   1      32.254  20.849  23.073  1.00  0.00    -0.272 OA
ATOM      7  H   UNL A   1      33.418  19.792  24.795  1.00  0.00     0.163 HD
BRANCH   5   8
ATOM      8  C   UNL A   1      32.040  22.869  24.387  1.00  0.00     0.212 C 
ATOM      9  C   UNL A   1      30.944  23.171  23.338  1.00  0.00     0.056 C 
BRANCH   8  10
ATOM     10  N   UNL A   1      31.446  23.069  25.744  1.00  0.00    -0.329 N 
ATOM     11  C   UNL A   1      30.554  23.999  26.215  1.00  0.00     0.268 C 
ATOM     12  H   UNL A   1      31.749  22.420  26.419  1.00  0.00     0.165 HD
ATOM     13  O   UNL A   1      29.959  23.707  27.253  1.00  0.00    -0.268 OA
BRANCH  11  14
ATOM     14  C   UNL A   1      30.477  25.309  25.618  1.00  0.00     0.105 A 
ATOM     15  C   UNL A   1      31.233  26.417  25.984  1.00  0.00     0.049 A 
ATOM     16  N   UNL A   1      29.620  25.739  24.626  1.00  0.00    -0.356 N 
ATOM     17  C   UNL A   1      30.924  27.457  25.093  1.00  0.00     0.036 A 
ATOM     18  C   UNL A   1      29.933  27.023  24.255  1.00  0.00     0.098 A 
ATOM     19  H   UNL A   1      28.891  25.203  24.239  1.00  0.00     0.166 HD
ATOM     20  Br  UNL A   1      31.775  29.122  25.079  1.00  0.00    -0.049 Br
ENDBRANCH  11  14
ENDBRANCH   8  10
BRANCH   8  21
ATOM     21  C   UNL A   1      33.196  23.859  24.119  1.00  0.00     0.420 C 
ATOM     22  F   UNL A   1      33.790  24.313  25.243  1.00  0.00    -0.168 F 
ATOM     23  F   UNL A   1      34.172  23.234  23.403  1.00  0.00    -0.168 F 
ATOM     24  F   UNL A   1      32.811  24.925  23.381  1.00  0.00    -0.168 F 
ENDBRANCH   8  21
ENDBRANCH   5   8
ENDBRANCH   3   4
ENDBRANCH   2   3
ENDBRANCH   1   2
BRANCH   1  25
ATOM     25  C   UNL A   1      37.449  21.535  25.111  1.00  0.00     0.116 C 
BRANCH  25  26
ATOM     26  N   UNL A   1      38.379  20.517  25.580  1.00  0.00    -0.352 N 
ATOM     27  C   UNL A   1      39.589  20.677  26.212  1.00  0.00     0.251 C 
ATOM     28  H   UNL A   1      38.102  19.585  25.422  1.00  0.00     0.163 HD
ATOM     29  O   UNL A   1      40.319  19.707  26.396  1.00  0.00    -0.269 OA
BRANCH  27  30
ATOM     30  C   UNL A   1      40.016  22.024  26.644  1.00  0.00     0.039 A 
ATOM     31  C   UNL A   1      41.002  22.139  27.627  1.00  0.00     0.014 A 
ATOM     32  C   UNL A   1      39.458  23.168  26.065  1.00  0.00     0.014 A 
ATOM     33  C   UNL A   1      41.479  23.403  27.983  1.00  0.00     0.010 A 
ATOM     34  C   UNL A   1      39.978  24.421  26.376  1.00  0.00     0.010 A 
ATOM     35  C   UNL A   1      40.993  24.552  27.336  1.00  0.00    -0.014 A 
BRANCH  35  36
ATOM     36  C   UNL A   1      41.549  25.895  27.633  1.00  0.00     0.031 A 
ATOM     37  C   UNL A   1      42.973  26.224  27.274  1.00  0.00     0.074 A 
ATOM     38  C   UNL A   1      40.802  26.788  28.311  1.00  0.00     0.049 A 
ATOM     39  N   UNL A   1      43.645  27.322  27.497  1.00  0.00    -0.248 NA
ATOM     40  C   UNL A   1      43.751  25.171  26.600  1.00  0.00     0.031 C 
ATOM     41  C   UNL A   1      39.437  26.558  28.790  1.00  0.00     0.029 A 
ATOM     42  N   UNL A   1      41.093  28.059  28.741  1.00  0.00    -0.354 N 
ATOM     43  C   UNL A   1      44.931  27.082  27.029  1.00  0.00     0.074 A 
ATOM     44  C   UNL A   1      44.953  25.724  26.531  1.00  0.00     0.031 C 
ATOM     45  C   UNL A   1      39.011  27.651  29.445  1.00  0.00     0.029 A 
ATOM     46  C   UNL A   1      40.074  28.651  29.451  1.00  0.00     0.049 A 
ATOM     47  H   UNL A   1      41.953  28.505  28.559  1.00  0.00     0.167 HD
ATOM     48  C   UNL A   1      45.990  27.926  26.987  1.00  0.00     0.034 A 
ATOM     49  C   UNL A   1      40.005  29.862  30.036  1.00  0.00     0.034 A 
ATOM     50  C   UNL A   1      45.948  29.294  27.425  1.00  0.00     0.049 A 
ATOM     51  C   UNL A   1      41.174  30.800  29.920  1.00  0.00     0.074 A 
ATOM     52  C   UNL A   1      46.934  30.261  27.324  1.00  0.00     0.029 A 
ATOM     53  N   UNL A   1      44.864  29.893  28.048  1.00  0.00    -0.354 N 
ATOM     54  N   UNL A   1      42.321  30.617  29.311  1.00  0.00    -0.248 NA
ATOM     55  C   UNL A   1      41.028  32.127  30.537  1.00  0.00     0.031 C 
ATOM     56  C   UNL A   1      46.448  31.442  27.895  1.00  0.00     0.029 A 
ATOM     57  C   UNL A   1      45.157  31.212  28.344  1.00  0.00     0.049 A 
ATOM     58  H   UNL A   1      44.011  29.444  28.251  1.00  0.00     0.167 HD
ATOM     59  C   UNL A   1      43.017  31.813  29.442  1.00  0.00     0.074 A 
ATOM     60  C   UNL A   1      42.156  32.722  30.170  1.00  0.00     0.031 C 
ATOM     61  C   UNL A   1      44.265  32.125  29.012  1.00  0.00     0.034 A 
BRANCH  48  62
ATOM     62  C   UNL A   1      47.267  27.414  26.378  1.00  0.00     0.023 A 
ATOM     63  C   UNL A   1      47.595  27.777  25.056  1.00  0.00     0.012 A 
ATOM     64  C   UNL A   1      48.169  26.630  27.124  1.00  0.00     0.148 A 
ATOM     65  C   UNL A   1      48.785  27.345  24.475  1.00  0.00     0.002 A 
ATOM     66  C   UNL A   1      49.372  26.233  26.550  1.00  0.00     0.091 A 
ATOM     67  F   UNL A   1      47.829  26.274  28.371  1.00  0.00    -0.205 F 
ATOM     68  C   UNL A   1      49.677  26.583  25.223  1.00  0.00     0.022 A 
BRANCH  66  69
ATOM     69  S   UNL A   1      50.617  25.312  27.460  1.00  0.00     0.127 S 
ATOM     70  O   UNL A   1      50.943  26.243  28.538  1.00  0.00    -0.237 OA
ATOM     71  O   UNL A   1      49.876  24.124  27.885  1.00  0.00    -0.237 OA
ATOM     72  O   UNL A   1      51.689  25.047  26.511  1.00  0.00    -0.744 OA
ENDBRANCH  66  69
ENDBRANCH  48  62
BRANCH  49  73
ATOM     73  C   UNL A   1      38.744  30.291  30.706  1.00  0.00     0.023 A 
ATOM     74  C   UNL A   1      38.586  30.052  32.085  1.00  0.00     0.012 A 
ATOM     75  C   UNL A   1      37.724  30.961  30.004  1.00  0.00     0.148 A 
ATOM     76  C   UNL A   1      37.423  30.446  32.748  1.00  0.00     0.002 A 
ATOM     77  C   UNL A   1      36.590  31.397  30.681  1.00  0.00     0.091 A 
ATOM     78  F   UNL A   1      37.883  31.165  28.689  1.00  0.00    -0.205 F 
ATOM     79  C   UNL A   1      36.430  31.128  32.049  1.00  0.00     0.022 A 
BRANCH  77  80
ATOM     80  S   UNL A   1      35.326  32.395  29.885  1.00  0.00     0.127 S 
ATOM     81  O   UNL A   1      34.405  32.650  30.989  1.00  0.00    -0.237 OA
ATOM     82  O   UNL A   1      36.089  33.561  29.439  1.00  0.00    -0.237 OA
ATOM     83  O   UNL A   1      34.811  31.571  28.799  1.00  0.00    -0.744 OA
ENDBRANCH  77  80
ENDBRANCH  49  73
BRANCH  61  84
ATOM     84  C   UNL A   1      44.774  33.513  29.292  1.00  0.00     0.023 A 
ATOM     85  C   UNL A   1      45.451  33.774  30.500  1.00  0.00     0.012 A 
ATOM     86  C   UNL A   1      44.659  34.534  28.329  1.00  0.00     0.148 A 
ATOM     87  C   UNL A   1      45.983  35.037  30.755  1.00  0.00     0.002 A 
ATOM     88  C   UNL A   1      45.229  35.778  28.572  1.00  0.00     0.091 A 
ATOM     89  F   UNL A   1      43.992  34.272  27.194  1.00  0.00    -0.205 F 
ATOM     90  C   UNL A   1      45.883  36.034  29.787  1.00  0.00     0.022 A 
BRANCH  88  91
ATOM     91  S   UNL A   1      45.225  37.088  27.341  1.00  0.00     0.127 S 
ATOM     92  O   UNL A   1      45.861  38.184  28.069  1.00  0.00    -0.237 OA
ATOM     93  O   UNL A   1      46.039  36.515  26.269  1.00  0.00    -0.237 OA
ATOM     94  O   UNL A   1      43.827  37.293  26.987  1.00  0.00    -0.744 OA
ENDBRANCH  88  91
ENDBRANCH  61  84
ENDBRANCH  35  36
ENDBRANCH  27  30
ENDBRANCH  25  26
ENDBRANCH   1  25
TORSDOF 17
ENDMDL
