MODEL 1
REMARK VINA RESULT:     -12.0      0.000      0.000
REMARK SMILES CC(C)[C@@H](CNC(=O)[C@@H]1CC[C@@H]2CCCC[C@@H]2[NH2+]1)C(=O)NCCCCNC(=O)c1ccc(-c2c3nc(c(-c4cccc(S(=O)(=O)[O-])c4F)c4ccc([nH]4)c(-c4cccc(S(=O)(=O)[O-])c4F)c4nc(c(-c5cccc(S(=O)(=O)[O-])c5F)c5ccc2[nH]5)C=C4)C=C3)cc1
REMARK SMILES IDX 23 1 22 2 21 3 19 4 20 5 4 7 2 8 1 9 3 10 5 11 6 12 7 13
REMARK SMILES IDX 8 15 9 16 10 17 18 18 11 19 17 20 12 23 16 24 13 25 15 26
REMARK SMILES IDX 14 27 24 28 25 29 26 30 27 31 28 33 29 34 30 35 91 36 31 37
REMARK SMILES IDX 90 38 32 39 33 40 34 41 84 42 35 43 89 44 83 45 85 46 36 47
REMARK SMILES IDX 88 48 82 49 81 50 37 52 69 53 49 54 68 55 50 56 53 57 67 58
REMARK SMILES IDX 86 59 51 60 52 61 66 63 87 64 54 65 38 66 39 67 47 68 40 69
REMARK SMILES IDX 42 70 48 71 41 72 43 73 44 74 45 75 46 76 70 77 71 78 79 79
REMARK SMILES IDX 72 80 74 81 80 82 73 83 75 84 76 85 77 86 78 87 55 88 56 89
REMARK SMILES IDX 64 90 57 91 59 92 65 93 58 94 60 95 61 96 62 97 63 98
REMARK H PARENT 21 6 6 14 18 21 18 22 26 32 85 51 53 62
REMARK Flexibility Score: inf
ROOT
ATOM      1  C   UNL A   1      33.627  28.606  24.412  1.00  0.00     0.023 C 
ENDROOT
BRANCH   1   2
ATOM      2  C   UNL A   1      33.022  28.913  23.045  1.00  0.00     0.116 C 
BRANCH   2   3
ATOM      3  N   UNL A   1      32.478  27.742  22.379  1.00  0.00    -0.356 N 
ATOM      4  C   UNL A   1      31.222  27.213  22.358  1.00  0.00     0.225 C 
ATOM      5  O   UNL A   1      30.991  26.342  21.513  1.00  0.00    -0.275 OA
ATOM      6  H   UNL A   1      33.136  27.238  21.848  1.00  0.00     0.163 HD
BRANCH   4   7
ATOM      7  C   UNL A   1      30.109  27.624  23.326  1.00  0.00     0.100 C 
BRANCH   7   8
ATOM      8  C   UNL A   1      29.222  28.776  22.777  1.00  0.00    -0.003 C 
ATOM      9  C   UNL A   1      27.729  28.572  23.051  1.00  0.00     0.008 C 
ATOM     10  C   UNL A   1      29.653  30.116  23.404  1.00  0.00     0.008 C 
ENDBRANCH   7   8
BRANCH   7  11
ATOM     11  C   UNL A   1      29.421  26.427  24.013  1.00  0.00     0.129 C 
BRANCH  11  12
ATOM     12  N   UNL A   1      29.994  25.973  25.259  1.00  0.00    -0.350 N 
ATOM     13  C   UNL A   1      30.688  24.851  25.585  1.00  0.00     0.278 C 
ATOM     14  H   UNL A   1      29.856  26.592  26.013  1.00  0.00     0.163 HD
ATOM     15  O   UNL A   1      31.315  24.936  26.652  1.00  0.00    -0.268 OA
BRANCH  13  16
ATOM     16  C   UNL A   1      30.843  23.594  24.666  1.00  0.00     0.272 C 
ATOM     17  C   UNL A   1      31.164  22.233  25.280  1.00  0.00     0.076 C 
ATOM     18  N   UNL A   1      31.790  23.884  23.545  1.00  0.00    -0.333 N 
ATOM     19  C   UNL A   1      32.607  22.137  25.726  1.00  0.00     0.016 C 
ATOM     20  C   UNL A   1      33.230  23.654  23.811  1.00  0.00     0.186 C 
ATOM     21  H   UNL A   1      31.675  24.865  23.291  1.00  0.00     0.347 HD
ATOM     22  H   UNL A   1      31.545  23.221  22.810  1.00  0.00     0.347 HD
ATOM     23  C   UNL A   1      33.524  22.328  24.524  1.00  0.00     0.048 C 
ATOM     24  C   UNL A   1      33.929  24.897  24.389  1.00  0.00     0.065 C 
ATOM     25  C   UNL A   1      34.996  22.220  24.918  1.00  0.00     0.010 C 
ATOM     26  C   UNL A   1      35.111  24.712  25.334  1.00  0.00     0.006 C 
ATOM     27  C   UNL A   1      35.390  23.319  25.881  1.00  0.00     0.001 C 
ENDBRANCH  13  16
ENDBRANCH  11  12
ENDBRANCH   7  11
ENDBRANCH   4   7
ENDBRANCH   2   3
ENDBRANCH   1   2
BRANCH   1  28
ATOM     28  C   UNL A   1      32.694  28.754  25.621  1.00  0.00     0.023 C 
BRANCH  28  29
ATOM     29  C   UNL A   1      33.340  29.162  26.947  1.00  0.00     0.116 C 
BRANCH  29  30
ATOM     30  N   UNL A   1      33.520  30.594  27.115  1.00  0.00    -0.352 N 
ATOM     31  C   UNL A   1      34.561  31.289  27.692  1.00  0.00     0.251 C 
ATOM     32  H   UNL A   1      32.788  31.152  26.765  1.00  0.00     0.163 HD
ATOM     33  O   UNL A   1      34.466  32.510  27.807  1.00  0.00    -0.269 OA
BRANCH  31  34
ATOM     34  C   UNL A   1      35.779  30.601  28.185  1.00  0.00     0.039 A 
ATOM     35  C   UNL A   1      36.959  30.692  27.442  1.00  0.00     0.014 A 
ATOM     36  C   UNL A   1      35.764  29.819  29.341  1.00  0.00     0.014 A 
ATOM     37  C   UNL A   1      38.119  30.049  27.891  1.00  0.00     0.010 A 
ATOM     38  C   UNL A   1      36.919  29.194  29.805  1.00  0.00     0.010 A 
ATOM     39  C   UNL A   1      38.111  29.313  29.088  1.00  0.00    -0.014 A 
BRANCH  39  40
ATOM     40  C   UNL A   1      39.372  28.796  29.672  1.00  0.00     0.031 A 
ATOM     41  C   UNL A   1      40.009  29.424  30.876  1.00  0.00     0.074 A 
ATOM     42  C   UNL A   1      39.995  27.796  29.021  1.00  0.00     0.049 A 
ATOM     43  N   UNL A   1      41.052  29.019  31.554  1.00  0.00    -0.248 NA
ATOM     44  C   UNL A   1      39.423  30.680  31.370  1.00  0.00     0.031 C 
ATOM     45  C   UNL A   1      39.547  27.214  27.754  1.00  0.00     0.029 A 
ATOM     46  N   UNL A   1      41.142  27.107  29.317  1.00  0.00    -0.354 N 
ATOM     47  C   UNL A   1      41.256  29.967  32.550  1.00  0.00     0.074 A 
ATOM     48  C   UNL A   1      40.250  30.991  32.363  1.00  0.00     0.031 C 
ATOM     49  C   UNL A   1      40.400  26.245  27.388  1.00  0.00     0.029 A 
ATOM     50  C   UNL A   1      41.453  26.140  28.392  1.00  0.00     0.049 A 
ATOM     51  H   UNL A   1      41.690  27.288  30.115  1.00  0.00     0.167 HD
ATOM     52  C   UNL A   1      42.182  29.967  33.540  1.00  0.00     0.034 A 
ATOM     53  C   UNL A   1      42.464  25.252  28.366  1.00  0.00     0.034 A 
ATOM     54  C   UNL A   1      43.176  28.936  33.708  1.00  0.00     0.049 A 
ATOM     55  C   UNL A   1      43.416  25.210  29.526  1.00  0.00     0.074 A 
ATOM     56  C   UNL A   1      44.092  28.777  34.734  1.00  0.00     0.029 A 
ATOM     57  N   UNL A   1      43.400  27.899  32.813  1.00  0.00    -0.354 N 
ATOM     58  N   UNL A   1      43.458  25.981  30.586  1.00  0.00    -0.248 NA
ATOM     59  C   UNL A   1      44.422  24.141  29.518  1.00  0.00     0.031 C 
ATOM     60  C   UNL A   1      44.890  27.664  34.441  1.00  0.00     0.029 A 
ATOM     61  C   UNL A   1      44.445  27.103  33.255  1.00  0.00     0.049 A 
ATOM     62  H   UNL A   1      42.889  27.751  31.984  1.00  0.00     0.167 HD
ATOM     63  C   UNL A   1      44.472  25.471  31.387  1.00  0.00     0.074 A 
ATOM     64  C   UNL A   1      44.994  24.306  30.702  1.00  0.00     0.031 C 
ATOM     65  C   UNL A   1      44.935  25.930  32.578  1.00  0.00     0.034 A 
BRANCH  52  66
ATOM     66  C   UNL A   1      42.134  31.082  34.558  1.00  0.00     0.023 A 
ATOM     67  C   UNL A   1      43.125  32.086  34.534  1.00  0.00     0.012 A 
ATOM     68  C   UNL A   1      41.074  31.188  35.481  1.00  0.00     0.148 A 
ATOM     69  C   UNL A   1      43.083  33.154  35.431  1.00  0.00     0.002 A 
ATOM     70  C   UNL A   1      41.014  32.279  36.342  1.00  0.00     0.091 A 
ATOM     71  F   UNL A   1      40.147  30.219  35.504  1.00  0.00    -0.205 F 
ATOM     72  C   UNL A   1      42.023  33.255  36.326  1.00  0.00     0.022 A 
BRANCH  70  73
ATOM     73  S   UNL A   1      39.646  32.549  37.476  1.00  0.00     0.127 S 
ATOM     74  O   UNL A   1      39.135  33.843  37.019  1.00  0.00    -0.237 OA
ATOM     75  O   UNL A   1      38.771  31.412  37.178  1.00  0.00    -0.237 OA
ATOM     76  O   UNL A   1      40.220  32.542  38.811  1.00  0.00    -0.744 OA
ENDBRANCH  70  73
ENDBRANCH  52  66
BRANCH  53  77
ATOM     77  C   UNL A   1      42.548  24.266  27.254  1.00  0.00     0.023 A 
ATOM     78  C   UNL A   1      43.316  24.570  26.113  1.00  0.00     0.012 A 
ATOM     79  C   UNL A   1      41.919  23.011  27.345  1.00  0.00     0.148 A 
ATOM     80  C   UNL A   1      43.427  23.654  25.066  1.00  0.00     0.002 A 
ATOM     81  C   UNL A   1      42.081  22.080  26.325  1.00  0.00     0.091 A 
ATOM     82  F   UNL A   1      41.192  22.743  28.439  1.00  0.00    -0.205 F 
ATOM     83  C   UNL A   1      42.818  22.407  25.177  1.00  0.00     0.022 A 
BRANCH  81  84
ATOM     84  S   UNL A   1      41.456  20.402  26.449  1.00  0.00     0.127 S 
ATOM     85  O   UNL A   1      40.028  20.596  26.212  1.00  0.00    -0.237 OA
ATOM     86  O   UNL A   1      42.175  19.731  25.365  1.00  0.00    -0.237 OA
ATOM     87  O   UNL A   1      41.821  19.943  27.783  1.00  0.00    -0.744 OA
ENDBRANCH  81  84
ENDBRANCH  53  77
BRANCH  65  88
ATOM     88  C   UNL A   1      46.049  25.148  33.227  1.00  0.00     0.023 A 
ATOM     89  C   UNL A   1      47.388  25.561  33.066  1.00  0.00     0.012 A 
ATOM     90  C   UNL A   1      45.766  24.017  34.016  1.00  0.00     0.148 A 
ATOM     91  C   UNL A   1      48.429  24.826  33.634  1.00  0.00     0.002 A 
ATOM     92  C   UNL A   1      46.805  23.323  34.625  1.00  0.00     0.091 A 
ATOM     93  F   UNL A   1      44.489  23.625  34.143  1.00  0.00    -0.205 F 
ATOM     94  C   UNL A   1      48.137  23.715  34.420  1.00  0.00     0.022 A 
BRANCH  92  95
ATOM     95  S   UNL A   1      46.511  21.941  35.733  1.00  0.00     0.127 S 
ATOM     96  O   UNL A   1      47.826  21.769  36.350  1.00  0.00    -0.237 OA
ATOM     97  O   UNL A   1      45.483  22.472  36.628  1.00  0.00    -0.237 OA
ATOM     98  O   UNL A   1      46.064  20.842  34.889  1.00  0.00    -0.744 OA
ENDBRANCH  92  95
ENDBRANCH  65  88
ENDBRANCH  39  40
ENDBRANCH  31  34
ENDBRANCH  29  30
ENDBRANCH  28  29
ENDBRANCH   1  28
TORSDOF 18
ENDMDL
MODEL 2
REMARK VINA RESULT:     -11.6      1.790      2.462
REMARK SMILES CC(C)[C@@H](CNC(=O)[C@@H]1CC[C@@H]2CCCC[C@@H]2[NH2+]1)C(=O)NCCCCNC(=O)c1ccc(-c2c3nc(c(-c4cccc(S(=O)(=O)[O-])c4F)c4ccc([nH]4)c(-c4cccc(S(=O)(=O)[O-])c4F)c4nc(c(-c5cccc(S(=O)(=O)[O-])c5F)c5ccc2[nH]5)C=C4)C=C3)cc1
REMARK SMILES IDX 23 1 22 2 21 3 19 4 20 5 4 7 2 8 1 9 3 10 5 11 6 12 7 13
REMARK SMILES IDX 8 15 9 16 10 17 18 18 11 19 17 20 12 23 16 24 13 25 15 26
REMARK SMILES IDX 14 27 24 28 25 29 26 30 27 31 28 33 29 34 30 35 91 36 31 37
REMARK SMILES IDX 90 38 32 39 33 40 34 41 84 42 35 43 89 44 83 45 85 46 36 47
REMARK SMILES IDX 88 48 82 49 81 50 37 52 69 53 49 54 68 55 50 56 53 57 67 58
REMARK SMILES IDX 86 59 51 60 52 61 66 63 87 64 54 65 38 66 39 67 47 68 40 69
REMARK SMILES IDX 42 70 48 71 41 72 43 73 44 74 45 75 46 76 70 77 71 78 79 79
REMARK SMILES IDX 72 80 74 81 80 82 73 83 75 84 76 85 77 86 78 87 55 88 56 89
REMARK SMILES IDX 64 90 57 91 59 92 65 93 58 94 60 95 61 96 62 97 63 98
REMARK H PARENT 21 6 6 14 18 21 18 22 26 32 85 51 53 62
REMARK Flexibility Score: inf
ROOT
ATOM      1  C   UNL A   1      31.462  28.823  25.954  1.00  0.00     0.023 C 
ENDROOT
BRANCH   1   2
ATOM      2  C   UNL A   1      32.679  27.941  25.685  1.00  0.00     0.116 C 
BRANCH   2   3
ATOM      3  N   UNL A   1      33.379  28.282  24.458  1.00  0.00    -0.356 N 
ATOM      4  C   UNL A   1      33.140  27.954  23.157  1.00  0.00     0.225 C 
ATOM      5  O   UNL A   1      33.762  28.581  22.294  1.00  0.00    -0.275 OA
ATOM      6  H   UNL A   1      34.169  28.853  24.591  1.00  0.00     0.163 HD
BRANCH   4   7
ATOM      7  C   UNL A   1      32.172  26.851  22.722  1.00  0.00     0.100 C 
BRANCH   7   8
ATOM      8  C   UNL A   1      30.733  27.376  22.457  1.00  0.00    -0.003 C 
ATOM      9  C   UNL A   1      29.722  26.932  23.518  1.00  0.00     0.008 C 
ATOM     10  C   UNL A   1      30.737  28.916  22.402  1.00  0.00     0.008 C 
ENDBRANCH   7   8
BRANCH   7  11
ATOM     11  C   UNL A   1      32.788  25.853  21.720  1.00  0.00     0.129 C 
BRANCH  11  12
ATOM     12  N   UNL A   1      32.539  24.451  21.959  1.00  0.00    -0.350 N 
ATOM     13  C   UNL A   1      33.198  23.524  22.703  1.00  0.00     0.278 C 
ATOM     14  H   UNL A   1      31.742  24.101  21.497  1.00  0.00     0.163 HD
ATOM     15  O   UNL A   1      32.530  22.510  22.955  1.00  0.00    -0.268 OA
BRANCH  13  16
ATOM     16  C   UNL A   1      34.613  23.726  23.338  1.00  0.00     0.272 C 
ATOM     17  C   UNL A   1      35.404  22.521  23.842  1.00  0.00     0.076 C 
ATOM     18  N   UNL A   1      34.561  24.781  24.398  1.00  0.00    -0.333 N 
ATOM     19  C   UNL A   1      34.851  21.982  25.143  1.00  0.00     0.016 C 
ATOM     20  C   UNL A   1      34.199  24.336  25.765  1.00  0.00     0.186 C 
ATOM     21  H   UNL A   1      33.873  25.476  24.107  1.00  0.00     0.347 HD
ATOM     22  H   UNL A   1      35.516  25.130  24.474  1.00  0.00     0.347 HD
ATOM     23  C   UNL A   1      34.927  23.062  26.215  1.00  0.00     0.048 C 
ATOM     24  C   UNL A   1      32.681  24.366  26.013  1.00  0.00     0.065 C 
ATOM     25  C   UNL A   1      34.397  22.560  27.556  1.00  0.00     0.010 C 
ATOM     26  C   UNL A   1      32.069  23.364  26.985  1.00  0.00     0.006 C 
ATOM     27  C   UNL A   1      32.929  22.206  27.471  1.00  0.00     0.001 C 
ENDBRANCH  13  16
ENDBRANCH  11  12
ENDBRANCH   7  11
ENDBRANCH   4   7
ENDBRANCH   2   3
ENDBRANCH   1   2
BRANCH   1  28
ATOM     28  C   UNL A   1      31.728  30.328  26.093  1.00  0.00     0.023 C 
BRANCH  28  29
ATOM     29  C   UNL A   1      32.949  30.741  26.919  1.00  0.00     0.116 C 
BRANCH  29  30
ATOM     30  N   UNL A   1      32.995  32.153  27.263  1.00  0.00    -0.352 N 
ATOM     31  C   UNL A   1      33.929  32.849  27.998  1.00  0.00     0.251 C 
ATOM     32  H   UNL A   1      32.248  32.692  26.918  1.00  0.00     0.163 HD
ATOM     33  O   UNL A   1      33.724  34.037  28.242  1.00  0.00    -0.269 OA
BRANCH  31  34
ATOM     34  C   UNL A   1      35.161  32.200  28.510  1.00  0.00     0.039 A 
ATOM     35  C   UNL A   1      36.391  32.839  28.330  1.00  0.00     0.014 A 
ATOM     36  C   UNL A   1      35.132  30.943  29.115  1.00  0.00     0.014 A 
ATOM     37  C   UNL A   1      37.564  32.242  28.805  1.00  0.00     0.010 A 
ATOM     38  C   UNL A   1      36.292  30.352  29.609  1.00  0.00     0.010 A 
ATOM     39  C   UNL A   1      37.519  31.003  29.468  1.00  0.00    -0.014 A 
BRANCH  39  40
ATOM     40  C   UNL A   1      38.720  30.459  30.145  1.00  0.00     0.031 A 
ATOM     41  C   UNL A   1      39.149  30.925  31.505  1.00  0.00     0.074 A 
ATOM     42  C   UNL A   1      39.487  29.594  29.454  1.00  0.00     0.049 A 
ATOM     43  N   UNL A   1      40.114  30.468  32.260  1.00  0.00    -0.248 NA
ATOM     44  C   UNL A   1      38.423  32.067  32.085  1.00  0.00     0.031 C 
ATOM     45  C   UNL A   1      39.251  29.191  28.066  1.00  0.00     0.029 A 
ATOM     46  N   UNL A   1      40.624  28.918  29.809  1.00  0.00    -0.354 N 
ATOM     47  C   UNL A   1      40.122  31.263  33.400  1.00  0.00     0.074 A 
ATOM     48  C   UNL A   1      39.088  32.261  33.219  1.00  0.00     0.031 C 
ATOM     49  C   UNL A   1      40.204  28.324  27.691  1.00  0.00     0.029 A 
ATOM     50  C   UNL A   1      41.117  28.115  28.810  1.00  0.00     0.049 A 
ATOM     51  H   UNL A   1      41.047  29.001  30.694  1.00  0.00     0.167 HD
ATOM     52  C   UNL A   1      40.905  31.154  34.501  1.00  0.00     0.034 A 
ATOM     53  C   UNL A   1      42.176  27.284  28.801  1.00  0.00     0.034 A 
ATOM     54  C   UNL A   1      41.930  30.152  34.660  1.00  0.00     0.049 A 
ATOM     55  C   UNL A   1      42.964  27.109  30.067  1.00  0.00     0.074 A 
ATOM     56  C   UNL A   1      42.708  29.880  35.773  1.00  0.00     0.029 A 
ATOM     57  N   UNL A   1      42.337  29.272  33.668  1.00  0.00    -0.354 N 
ATOM     58  N   UNL A   1      42.815  27.714  31.221  1.00  0.00    -0.248 NA
ATOM     59  C   UNL A   1      44.027  26.096  30.050  1.00  0.00     0.031 C 
ATOM     60  C   UNL A   1      43.606  28.858  35.441  1.00  0.00     0.029 A 
ATOM     61  C   UNL A   1      43.361  28.463  34.135  1.00  0.00     0.049 A 
ATOM     62  H   UNL A   1      41.953  29.228  32.762  1.00  0.00     0.167 HD
ATOM     63  C   UNL A   1      43.741  27.132  32.077  1.00  0.00     0.074 A 
ATOM     64  C   UNL A   1      44.424  26.106  31.315  1.00  0.00     0.031 C 
ATOM     65  C   UNL A   1      44.011  27.427  33.374  1.00  0.00     0.034 A 
BRANCH  52  66
ATOM     66  C   UNL A   1      40.650  32.101  35.651  1.00  0.00     0.023 A 
ATOM     67  C   UNL A   1      41.509  33.204  35.843  1.00  0.00     0.012 A 
ATOM     68  C   UNL A   1      39.526  31.953  36.487  1.00  0.00     0.148 A 
ATOM     69  C   UNL A   1      41.274  34.122  36.867  1.00  0.00     0.002 A 
ATOM     70  C   UNL A   1      39.274  32.897  37.477  1.00  0.00     0.091 A 
ATOM     71  F   UNL A   1      38.727  30.892  36.304  1.00  0.00    -0.205 F 
ATOM     72  C   UNL A   1      40.152  33.974  37.676  1.00  0.00     0.022 A 
BRANCH  70  73
ATOM     73  S   UNL A   1      37.809  32.846  38.519  1.00  0.00     0.127 S 
ATOM     74  O   UNL A   1      36.752  33.163  37.555  1.00  0.00    -0.237 OA
ATOM     75  O   UNL A   1      37.810  31.456  38.983  1.00  0.00    -0.237 OA
ATOM     76  O   UNL A   1      38.019  33.836  39.561  1.00  0.00    -0.744 OA
ENDBRANCH  70  73
ENDBRANCH  52  66
BRANCH  53  77
ATOM     77  C   UNL A   1      42.471  26.481  27.583  1.00  0.00     0.023 A 
ATOM     78  C   UNL A   1      43.223  27.052  26.538  1.00  0.00     0.012 A 
ATOM     79  C   UNL A   1      42.058  25.139  27.479  1.00  0.00     0.148 A 
ATOM     80  C   UNL A   1      43.529  26.314  25.396  1.00  0.00     0.002 A 
ATOM     81  C   UNL A   1      42.417  24.390  26.364  1.00  0.00     0.091 A 
ATOM     82  F   UNL A   1      41.342  24.616  28.483  1.00  0.00    -0.205 F 
ATOM     83  C   UNL A   1      43.136  24.981  25.313  1.00  0.00     0.022 A 
BRANCH  81  84
ATOM     84  S   UNL A   1      42.079  22.632  26.240  1.00  0.00     0.127 S 
ATOM     85  O   UNL A   1      42.695  22.121  27.463  1.00  0.00    -0.237 OA
ATOM     86  O   UNL A   1      40.616  22.606  26.230  1.00  0.00    -0.237 OA
ATOM     87  O   UNL A   1      42.694  22.200  24.992  1.00  0.00    -0.744 OA
ENDBRANCH  81  84
ENDBRANCH  53  77
BRANCH  65  88
ATOM     88  C   UNL A   1      45.074  26.604  34.057  1.00  0.00     0.023 A 
ATOM     89  C   UNL A   1      46.425  27.005  33.997  1.00  0.00     0.012 A 
ATOM     90  C   UNL A   1      44.730  25.445  34.780  1.00  0.00     0.148 A 
ATOM     91  C   UNL A   1      47.421  26.234  34.596  1.00  0.00     0.002 A 
ATOM     92  C   UNL A   1      45.722  24.713  35.422  1.00  0.00     0.091 A 
ATOM     93  F   UNL A   1      43.444  25.066  34.812  1.00  0.00    -0.205 F 
ATOM     94  C   UNL A   1      47.069  25.095  35.316  1.00  0.00     0.022 A 
BRANCH  92  95
ATOM     95  S   UNL A   1      45.346  23.290  36.451  1.00  0.00     0.127 S 
ATOM     96  O   UNL A   1      44.654  23.914  37.579  1.00  0.00    -0.237 OA
ATOM     97  O   UNL A   1      44.488  22.491  35.576  1.00  0.00    -0.237 OA
ATOM     98  O   UNL A   1      46.628  22.675  36.763  1.00  0.00    -0.744 OA
ENDBRANCH  92  95
ENDBRANCH  65  88
ENDBRANCH  39  40
ENDBRANCH  31  34
ENDBRANCH  29  30
ENDBRANCH  28  29
ENDBRANCH   1  28
TORSDOF 18
ENDMDL
MODEL 3
REMARK VINA RESULT:     -11.6      3.150      8.430
REMARK SMILES CC(C)[C@@H](CNC(=O)[C@@H]1CC[C@@H]2CCCC[C@@H]2[NH2+]1)C(=O)NCCCCNC(=O)c1ccc(-c2c3nc(c(-c4cccc(S(=O)(=O)[O-])c4F)c4ccc([nH]4)c(-c4cccc(S(=O)(=O)[O-])c4F)c4nc(c(-c5cccc(S(=O)(=O)[O-])c5F)c5ccc2[nH]5)C=C4)C=C3)cc1
REMARK SMILES IDX 23 1 22 2 21 3 19 4 20 5 4 7 2 8 1 9 3 10 5 11 6 12 7 13
REMARK SMILES IDX 8 15 9 16 10 17 18 18 11 19 17 20 12 23 16 24 13 25 15 26
REMARK SMILES IDX 14 27 24 28 25 29 26 30 27 31 28 33 29 34 30 35 91 36 31 37
REMARK SMILES IDX 90 38 32 39 33 40 34 41 84 42 35 43 89 44 83 45 85 46 36 47
REMARK SMILES IDX 88 48 82 49 81 50 37 52 69 53 49 54 68 55 50 56 53 57 67 58
REMARK SMILES IDX 86 59 51 60 52 61 66 63 87 64 54 65 38 66 39 67 47 68 40 69
REMARK SMILES IDX 42 70 48 71 41 72 43 73 44 74 45 75 46 76 70 77 71 78 79 79
REMARK SMILES IDX 72 80 74 81 80 82 73 83 75 84 76 85 77 86 78 87 55 88 56 89
REMARK SMILES IDX 64 90 57 91 59 92 65 93 58 94 60 95 61 96 62 97 63 98
REMARK H PARENT 21 6 6 14 18 21 18 22 26 32 85 51 53 62
REMARK Flexibility Score: inf
ROOT
ATOM      1  C   UNL A   1      31.546  30.795  25.767  1.00  0.00     0.023 C 
ENDROOT
BRANCH   1   2
ATOM      2  C   UNL A   1      32.873  30.046  25.860  1.00  0.00     0.116 C 
BRANCH   2   3
ATOM      3  N   UNL A   1      33.280  29.436  24.605  1.00  0.00    -0.356 N 
ATOM      4  C   UNL A   1      32.636  28.578  23.765  1.00  0.00     0.225 C 
ATOM      5  O   UNL A   1      33.130  28.408  22.645  1.00  0.00    -0.275 OA
ATOM      6  H   UNL A   1      34.184  29.686  24.310  1.00  0.00     0.163 HD
BRANCH   4   7
ATOM      7  C   UNL A   1      31.365  27.812  24.140  1.00  0.00     0.100 C 
BRANCH   7   8
ATOM      8  C   UNL A   1      30.260  27.899  23.051  1.00  0.00    -0.003 C 
ATOM      9  C   UNL A   1      28.921  27.306  23.500  1.00  0.00     0.008 C 
ATOM     10  C   UNL A   1      30.031  29.369  22.650  1.00  0.00     0.008 C 
ENDBRANCH   7   8
BRANCH   7  11
ATOM     11  C   UNL A   1      31.644  26.445  24.799  1.00  0.00     0.129 C 
BRANCH  11  12
ATOM     12  N   UNL A   1      32.984  26.218  25.288  1.00  0.00    -0.350 N 
ATOM     13  C   UNL A   1      33.641  25.083  25.647  1.00  0.00     0.278 C 
ATOM     14  H   UNL A   1      33.522  27.038  25.378  1.00  0.00     0.163 HD
ATOM     15  O   UNL A   1      34.874  25.208  25.699  1.00  0.00    -0.268 OA
BRANCH  13  16
ATOM     16  C   UNL A   1      32.972  23.683  25.839  1.00  0.00     0.272 C 
ATOM     17  C   UNL A   1      33.451  22.754  26.953  1.00  0.00     0.076 C 
ATOM     18  N   UNL A   1      32.931  22.943  24.540  1.00  0.00    -0.333 N 
ATOM     19  C   UNL A   1      34.785  22.118  26.627  1.00  0.00     0.016 C 
ATOM     20  C   UNL A   1      34.124  22.135  24.195  1.00  0.00     0.186 C 
ATOM     21  H   UNL A   1      32.798  23.630  23.798  1.00  0.00     0.347 HD
ATOM     22  H   UNL A   1      32.172  22.270  24.640  1.00  0.00     0.347 HD
ATOM     23  C   UNL A   1      34.655  21.286  25.357  1.00  0.00     0.048 C 
ATOM     24  C   UNL A   1      35.178  22.940  23.415  1.00  0.00     0.065 C 
ATOM     25  C   UNL A   1      35.974  20.605  24.995  1.00  0.00     0.010 C 
ATOM     26  C   UNL A   1      36.651  22.580  23.569  1.00  0.00     0.006 C 
ATOM     27  C   UNL A   1      37.050  21.621  24.681  1.00  0.00     0.001 C 
ENDBRANCH  13  16
ENDBRANCH  11  12
ENDBRANCH   7  11
ENDBRANCH   4   7
ENDBRANCH   2   3
ENDBRANCH   1   2
BRANCH   1  28
ATOM     28  C   UNL A   1      31.385  32.015  26.683  1.00  0.00     0.023 C 
BRANCH  28  29
ATOM     29  C   UNL A   1      32.667  32.621  27.259  1.00  0.00     0.116 C 
BRANCH  29  30
ATOM     30  N   UNL A   1      32.568  34.031  27.600  1.00  0.00    -0.352 N 
ATOM     31  C   UNL A   1      33.268  34.761  28.535  1.00  0.00     0.251 C 
ATOM     32  H   UNL A   1      31.901  34.539  27.085  1.00  0.00     0.163 HD
ATOM     33  O   UNL A   1      32.958  35.937  28.720  1.00  0.00    -0.269 OA
BRANCH  31  34
ATOM     34  C   UNL A   1      34.370  34.162  29.327  1.00  0.00     0.039 A 
ATOM     35  C   UNL A   1      34.060  33.427  30.475  1.00  0.00     0.014 A 
ATOM     36  C   UNL A   1      35.709  34.360  28.990  1.00  0.00     0.014 A 
ATOM     37  C   UNL A   1      35.085  32.854  31.236  1.00  0.00     0.010 A 
ATOM     38  C   UNL A   1      36.734  33.776  29.731  1.00  0.00     0.010 A 
ATOM     39  C   UNL A   1      36.430  33.007  30.855  1.00  0.00    -0.014 A 
BRANCH  39  40
ATOM     40  C   UNL A   1      37.504  32.246  31.536  1.00  0.00     0.031 A 
ATOM     41  C   UNL A   1      38.202  31.092  30.880  1.00  0.00     0.074 A 
ATOM     42  C   UNL A   1      37.772  32.558  32.818  1.00  0.00     0.049 A 
ATOM     43  N   UNL A   1      39.226  30.402  31.313  1.00  0.00    -0.248 NA
ATOM     44  C   UNL A   1      37.672  30.632  29.587  1.00  0.00     0.031 C 
ATOM     45  C   UNL A   1      37.047  33.559  33.606  1.00  0.00     0.029 A 
ATOM     46  N   UNL A   1      38.703  32.059  33.690  1.00  0.00    -0.354 N 
ATOM     47  C   UNL A   1      39.463  29.422  30.356  1.00  0.00     0.074 A 
ATOM     48  C   UNL A   1      38.448  29.583  29.335  1.00  0.00     0.031 C 
ATOM     49  C   UNL A   1      37.571  33.611  34.840  1.00  0.00     0.029 A 
ATOM     50  C   UNL A   1      38.663  32.648  34.930  1.00  0.00     0.049 A 
ATOM     51  H   UNL A   1      39.339  31.346  33.451  1.00  0.00     0.167 HD
ATOM     52  C   UNL A   1      40.450  28.493  30.324  1.00  0.00     0.034 A 
ATOM     53  C   UNL A   1      39.435  32.452  36.014  1.00  0.00     0.034 A 
ATOM     54  C   UNL A   1      41.450  28.351  31.352  1.00  0.00     0.049 A 
ATOM     55  C   UNL A   1      40.583  31.488  35.916  1.00  0.00     0.074 A 
ATOM     56  C   UNL A   1      42.557  27.519  31.372  1.00  0.00     0.029 A 
ATOM     57  N   UNL A   1      41.453  29.042  32.555  1.00  0.00    -0.354 N 
ATOM     58  N   UNL A   1      40.933  30.723  34.910  1.00  0.00    -0.248 NA
ATOM     59  C   UNL A   1      41.477  31.403  37.078  1.00  0.00     0.031 C 
ATOM     60  C   UNL A   1      43.208  27.685  32.601  1.00  0.00     0.029 A 
ATOM     61  C   UNL A   1      42.533  28.650  33.330  1.00  0.00     0.049 A 
ATOM     62  H   UNL A   1      40.783  29.714  32.820  1.00  0.00     0.167 HD
ATOM     63  C   UNL A   1      42.106  30.092  35.303  1.00  0.00     0.074 A 
ATOM     64  C   UNL A   1      42.421  30.589  36.627  1.00  0.00     0.031 C 
ATOM     65  C   UNL A   1      42.850  29.175  34.634  1.00  0.00     0.034 A 
BRANCH  52  66
ATOM     66  C   UNL A   1      40.538  27.593  29.114  1.00  0.00     0.023 A 
ATOM     67  C   UNL A   1      39.640  26.511  28.988  1.00  0.00     0.012 A 
ATOM     68  C   UNL A   1      41.445  27.856  28.068  1.00  0.00     0.148 A 
ATOM     69  C   UNL A   1      39.667  25.688  27.861  1.00  0.00     0.002 A 
ATOM     70  C   UNL A   1      41.434  27.059  26.928  1.00  0.00     0.091 A 
ATOM     71  F   UNL A   1      42.303  28.878  28.207  1.00  0.00    -0.205 F 
ATOM     72  C   UNL A   1      40.555  25.969  26.829  1.00  0.00     0.022 A 
BRANCH  70  73
ATOM     73  S   UNL A   1      42.480  27.387  25.503  1.00  0.00     0.127 S 
ATOM     74  O   UNL A   1      41.904  28.635  24.996  1.00  0.00    -0.237 OA
ATOM     75  O   UNL A   1      43.801  27.534  26.119  1.00  0.00    -0.237 OA
ATOM     76  O   UNL A   1      42.342  26.236  24.627  1.00  0.00    -0.744 OA
ENDBRANCH  70  73
ENDBRANCH  52  66
BRANCH  53  77
ATOM     77  C   UNL A   1      39.207  33.268  37.238  1.00  0.00     0.023 A 
ATOM     78  C   UNL A   1      39.748  34.565  37.320  1.00  0.00     0.012 A 
ATOM     79  C   UNL A   1      38.413  32.786  38.296  1.00  0.00     0.148 A 
ATOM     80  C   UNL A   1      39.532  35.356  38.449  1.00  0.00     0.002 A 
ATOM     81  C   UNL A   1      38.152  33.601  39.391  1.00  0.00     0.091 A 
ATOM     82  F   UNL A   1      37.909  31.548  38.198  1.00  0.00    -0.205 F 
ATOM     83  C   UNL A   1      38.726  34.879  39.478  1.00  0.00     0.022 A 
BRANCH  81  84
ATOM     84  S   UNL A   1      37.010  33.124  40.692  1.00  0.00     0.127 S 
ATOM     85  O   UNL A   1      35.817  32.767  39.927  1.00  0.00    -0.237 OA
ATOM     86  O   UNL A   1      37.708  31.995  41.307  1.00  0.00    -0.237 OA
ATOM     87  O   UNL A   1      36.885  34.292  41.553  1.00  0.00    -0.744 OA
ENDBRANCH  81  84
ENDBRANCH  53  77
BRANCH  65  88
ATOM     88  C   UNL A   1      44.096  28.672  35.319  1.00  0.00     0.023 A 
ATOM     89  C   UNL A   1      45.354  29.212  34.980  1.00  0.00     0.012 A 
ATOM     90  C   UNL A   1      44.016  27.681  36.315  1.00  0.00     0.148 A 
ATOM     91  C   UNL A   1      46.517  28.731  35.582  1.00  0.00     0.002 A 
ATOM     92  C   UNL A   1      45.174  27.247  36.951  1.00  0.00     0.091 A 
ATOM     93  F   UNL A   1      42.815  27.163  36.612  1.00  0.00    -0.205 F 
ATOM     94  C   UNL A   1      46.426  27.757  36.573  1.00  0.00     0.022 A 
BRANCH  92  95
ATOM     95  S   UNL A   1      45.137  26.068  38.305  1.00  0.00     0.127 S 
ATOM     96  O   UNL A   1      46.487  26.199  38.850  1.00  0.00    -0.237 OA
ATOM     97  O   UNL A   1      44.079  26.609  39.160  1.00  0.00    -0.237 OA
ATOM     98  O   UNL A   1      44.823  24.780  37.703  1.00  0.00    -0.744 OA
ENDBRANCH  92  95
ENDBRANCH  65  88
ENDBRANCH  39  40
ENDBRANCH  31  34
ENDBRANCH  29  30
ENDBRANCH  28  29
ENDBRANCH   1  28
TORSDOF 18
ENDMDL
