MODEL 1
REMARK VINA RESULT:     -12.6      0.000      0.000
REMARK SMILES COc1c[nH]c(C[N@H+]2CCC[C@@H](c3ccc(C(=O)NCCCCNC(=O)c4ccc(-c5c6nc(c(-c7cccc(S(=O)(=O)[O-])c7F)c7ccc([nH]7)c(-c7cccc(S(=O)(=O)[O-])c7F)c7nc(c(-c8cccc(S(=O)(=O)[O-])c8F)c8ccc5[nH]8)C=C7)C=C6)cc4)cc3)C2)cc1=O
REMARK SMILES IDX 21 1 20 2 19 3 17 4 18 5 16 7 13 8 14 9 91 10 15 11 90 12
REMARK SMILES IDX 12 13 8 14 9 15 92 16 10 18 11 19 7 20 6 21 3 22 4 23 94 24
REMARK SMILES IDX 5 25 93 26 95 27 2 29 1 30 22 31 23 32 24 33 25 34 26 36
REMARK SMILES IDX 27 37 28 38 89 39 29 40 88 41 30 42 31 43 32 44 82 45 33 46
REMARK SMILES IDX 87 47 81 48 83 49 34 50 86 51 80 52 79 53 35 55 67 56 47 57
REMARK SMILES IDX 66 58 48 59 51 60 65 61 84 62 49 63 50 64 64 66 85 67 52 68
REMARK SMILES IDX 36 69 37 70 45 71 38 72 40 73 46 74 39 75 41 76 42 77 43 78
REMARK SMILES IDX 44 79 68 80 69 81 77 82 70 83 72 84 78 85 71 86 73 87 74 88
REMARK SMILES IDX 75 89 76 90 53 91 54 92 62 93 55 94 57 95 63 96 56 97 58 98
REMARK SMILES IDX 59 99 60 100 61 101
REMARK H PARENT 19 6 8 17 5 28 24 35 83 54 51 65
REMARK Flexibility Score: inf
ROOT
ATOM      1  C   UNL A   1      37.032  20.848  24.664  1.00  0.00     0.023 C 
ENDROOT
BRANCH   1   2
ATOM      2  C   UNL A   1      35.977  21.104  25.742  1.00  0.00     0.116 C 
BRANCH   2   3
ATOM      3  N   UNL A   1      34.784  20.323  25.488  1.00  0.00    -0.352 N 
ATOM      4  C   UNL A   1      33.588  20.653  24.907  1.00  0.00     0.251 C 
ATOM      5  O   UNL A   1      32.750  19.762  24.767  1.00  0.00    -0.269 OA
ATOM      6  H   UNL A   1      34.843  19.387  25.787  1.00  0.00     0.163 HD
BRANCH   4   7
ATOM      7  C   UNL A   1      33.278  22.017  24.387  1.00  0.00     0.039 A 
ATOM      8  C   UNL A   1      32.850  24.579  23.256  1.00  0.00    -0.039 A 
ATOM      9  C   UNL A   1      33.625  23.617  22.590  1.00  0.00     0.005 A 
ATOM     10  C   UNL A   1      32.237  24.216  24.458  1.00  0.00     0.005 A 
ATOM     11  C   UNL A   1      33.848  22.360  23.155  1.00  0.00     0.014 A 
ATOM     12  C   UNL A   1      32.433  22.942  25.003  1.00  0.00     0.014 A 
BRANCH   8  13
ATOM     13  C   UNL A   1      32.648  25.980  22.703  1.00  0.00     0.074 C 
ATOM     14  N   UNL A   1      31.596  28.222  23.197  1.00  0.00    -0.329 N 
ATOM     15  C   UNL A   1      32.901  28.875  23.023  1.00  0.00     0.262 C 
ATOM     16  C   UNL A   1      31.755  26.828  23.632  1.00  0.00     0.270 C 
ATOM     17  H   UNL A   1      31.140  28.203  22.285  1.00  0.00     0.348 HD
ATOM     18  C   UNL A   1      33.778  28.117  22.025  1.00  0.00     0.062 C 
ATOM     19  C   UNL A   1      33.995  26.672  22.463  1.00  0.00     0.020 C 
BRANCH  14  20
ATOM     20  C   UNL A   1      30.699  28.993  24.086  1.00  0.00     0.317 C 
BRANCH  20  21
ATOM     21  C   UNL A   1      29.740  29.969  23.408  1.00  0.00     0.074 A 
ATOM     22  C   UNL A   1      28.228  32.059  22.177  1.00  0.00     0.182 A 
ATOM     23  C   UNL A   1      28.859  32.212  23.349  1.00  0.00     0.133 A 
ATOM     24  C   UNL A   1      28.278  30.680  21.571  1.00  0.00     0.223 A 
ATOM     25  N   UNL A   1      29.530  31.207  23.990  1.00  0.00    -0.357 N 
ATOM     26  C   UNL A   1      29.119  29.654  22.256  1.00  0.00     0.083 A 
ATOM     27  O   UNL A   1      27.686  30.377  20.539  1.00  0.00    -0.286 OA
ATOM     28  H   UNL A   1      29.874  31.370  24.898  1.00  0.00     0.166 HD
BRANCH  22  29
ATOM     29  O   UNL A   1      27.653  33.141  21.541  1.00  0.00    -0.491 OA
ATOM     30  C   UNL A   1      27.659  33.023  20.124  1.00  0.00     0.278 C 
ENDBRANCH  22  29
ENDBRANCH  20  21
ENDBRANCH  14  20
ENDBRANCH   8  13
ENDBRANCH   4   7
ENDBRANCH   2   3
ENDBRANCH   1   2
BRANCH   1  31
ATOM     31  C   UNL A   1      38.009  19.717  24.990  1.00  0.00     0.023 C 
BRANCH  31  32
ATOM     32  C   UNL A   1      38.954  20.002  26.150  1.00  0.00     0.116 C 
BRANCH  32  33
ATOM     33  N   UNL A   1      40.163  19.192  26.118  1.00  0.00    -0.352 N 
ATOM     34  C   UNL A   1      41.465  19.603  26.297  1.00  0.00     0.251 C 
ATOM     35  H   UNL A   1      40.035  18.230  25.950  1.00  0.00     0.163 HD
ATOM     36  O   UNL A   1      42.390  18.823  26.144  1.00  0.00    -0.269 OA
BRANCH  34  37
ATOM     37  C   UNL A   1      41.719  21.020  26.633  1.00  0.00     0.039 A 
ATOM     38  C   UNL A   1      42.246  21.329  27.889  1.00  0.00     0.014 A 
ATOM     39  C   UNL A   1      41.493  22.024  25.689  1.00  0.00     0.014 A 
ATOM     40  C   UNL A   1      42.609  22.645  28.175  1.00  0.00     0.010 A 
ATOM     41  C   UNL A   1      41.919  23.321  25.952  1.00  0.00     0.010 A 
ATOM     42  C   UNL A   1      42.481  23.644  27.196  1.00  0.00    -0.014 A 
BRANCH  42  43
ATOM     43  C   UNL A   1      42.943  25.032  27.443  1.00  0.00     0.031 A 
ATOM     44  C   UNL A   1      42.029  26.022  28.109  1.00  0.00     0.074 A 
ATOM     45  C   UNL A   1      44.145  25.423  26.978  1.00  0.00     0.049 A 
ATOM     46  N   UNL A   1      42.228  27.291  28.352  1.00  0.00    -0.248 NA
ATOM     47  C   UNL A   1      40.706  25.530  28.530  1.00  0.00     0.031 C 
ATOM     48  C   UNL A   1      45.083  24.577  26.236  1.00  0.00     0.029 A 
ATOM     49  N   UNL A   1      44.772  26.643  27.031  1.00  0.00    -0.354 N 
ATOM     50  C   UNL A   1      41.047  27.757  28.916  1.00  0.00     0.074 A 
ATOM     51  C   UNL A   1      40.125  26.644  28.951  1.00  0.00     0.031 C 
ATOM     52  C   UNL A   1      46.163  25.301  25.906  1.00  0.00     0.029 A 
ATOM     53  C   UNL A   1      45.989  26.667  26.392  1.00  0.00     0.049 A 
ATOM     54  H   UNL A   1      44.386  27.426  27.485  1.00  0.00     0.167 HD
ATOM     55  C   UNL A   1      40.768  28.993  29.395  1.00  0.00     0.034 A 
ATOM     56  C   UNL A   1      46.865  27.676  26.216  1.00  0.00     0.034 A 
ATOM     57  C   UNL A   1      41.707  30.080  29.411  1.00  0.00     0.049 A 
ATOM     58  C   UNL A   1      46.554  29.022  26.812  1.00  0.00     0.074 A 
ATOM     59  C   UNL A   1      41.556  31.340  29.962  1.00  0.00     0.029 A 
ATOM     60  N   UNL A   1      42.974  30.038  28.848  1.00  0.00    -0.354 N 
ATOM     61  N   UNL A   1      45.501  29.397  27.498  1.00  0.00    -0.248 NA
ATOM     62  C   UNL A   1      47.568  30.074  26.646  1.00  0.00     0.031 C 
ATOM     63  C   UNL A   1      42.731  32.063  29.724  1.00  0.00     0.029 A 
ATOM     64  C   UNL A   1      43.616  31.249  29.035  1.00  0.00     0.049 A 
ATOM     65  H   UNL A   1      43.360  29.260  28.384  1.00  0.00     0.167 HD
ATOM     66  C   UNL A   1      45.739  30.714  27.873  1.00  0.00     0.074 A 
ATOM     67  C   UNL A   1      47.047  31.065  27.357  1.00  0.00     0.031 C 
ATOM     68  C   UNL A   1      44.941  31.562  28.568  1.00  0.00     0.034 A 
BRANCH  55  69
ATOM     69  C   UNL A   1      39.410  29.212  30.007  1.00  0.00     0.023 A 
ATOM     70  C   UNL A   1      39.135  28.684  31.284  1.00  0.00     0.012 A 
ATOM     71  C   UNL A   1      38.428  29.979  29.350  1.00  0.00     0.148 A 
ATOM     72  C   UNL A   1      37.894  28.885  31.886  1.00  0.00     0.002 A 
ATOM     73  C   UNL A   1      37.206  30.210  29.975  1.00  0.00     0.091 A 
ATOM     74  F   UNL A   1      38.697  30.454  28.125  1.00  0.00    -0.205 F 
ATOM     75  C   UNL A   1      36.936  29.657  31.236  1.00  0.00     0.022 A 
BRANCH  73  76
ATOM     76  S   UNL A   1      35.934  31.252  29.251  1.00  0.00     0.127 S 
ATOM     77  O   UNL A   1      36.733  32.327  28.665  1.00  0.00    -0.237 OA
ATOM     78  O   UNL A   1      35.315  30.352  28.277  1.00  0.00    -0.237 OA
ATOM     79  O   UNL A   1      35.064  31.642  30.352  1.00  0.00    -0.744 OA
ENDBRANCH  73  76
ENDBRANCH  55  69
BRANCH  56  80
ATOM     80  C   UNL A   1      48.155  27.426  25.516  1.00  0.00     0.023 A 
ATOM     81  C   UNL A   1      49.269  26.995  26.262  1.00  0.00     0.012 A 
ATOM     82  C   UNL A   1      48.279  27.573  24.120  1.00  0.00     0.148 A 
ATOM     83  C   UNL A   1      50.491  26.746  25.639  1.00  0.00     0.002 A 
ATOM     84  C   UNL A   1      49.486  27.272  23.498  1.00  0.00     0.091 A 
ATOM     85  F   UNL A   1      47.212  27.997  23.428  1.00  0.00    -0.205 F 
ATOM     86  C   UNL A   1      50.597  26.872  24.257  1.00  0.00     0.022 A 
BRANCH  84  87
ATOM     87  S   UNL A   1      49.672  27.282  21.711  1.00  0.00     0.127 S 
ATOM     88  O   UNL A   1      51.054  26.839  21.551  1.00  0.00    -0.237 OA
ATOM     89  O   UNL A   1      48.659  26.311  21.293  1.00  0.00    -0.237 OA
ATOM     90  O   UNL A   1      49.391  28.651  21.300  1.00  0.00    -0.744 OA
ENDBRANCH  84  87
ENDBRANCH  56  80
BRANCH  68  91
ATOM     91  C   UNL A   1      45.463  32.947  28.839  1.00  0.00     0.023 A 
ATOM     92  C   UNL A   1      46.350  33.158  29.913  1.00  0.00     0.012 A 
ATOM     93  C   UNL A   1      45.144  34.019  27.983  1.00  0.00     0.148 A 
ATOM     94  C   UNL A   1      46.892  34.422  30.146  1.00  0.00     0.002 A 
ATOM     95  C   UNL A   1      45.722  35.265  28.195  1.00  0.00     0.091 A 
ATOM     96  F   UNL A   1      44.281  33.802  26.979  1.00  0.00    -0.205 F 
ATOM     97  C   UNL A   1      46.589  35.471  29.280  1.00  0.00     0.022 A 
BRANCH  95  98
ATOM     98  S   UNL A   1      45.460  36.646  27.075  1.00  0.00     0.127 S 
ATOM     99  O   UNL A   1      45.845  37.783  27.909  1.00  0.00    -0.237 OA
ATOM    100  O   UNL A   1      46.390  36.346  25.985  1.00  0.00    -0.237 OA
ATOM    101  O   UNL A   1      44.054  36.591  26.698  1.00  0.00    -0.744 OA
ENDBRANCH  95  98
ENDBRANCH  68  91
ENDBRANCH  42  43
ENDBRANCH  34  37
ENDBRANCH  32  33
ENDBRANCH  31  32
ENDBRANCH   1  31
TORSDOF 18
ENDMDL
MODEL 2
REMARK VINA RESULT:     -12.5      5.263      9.889
REMARK SMILES COc1c[nH]c(C[N@H+]2CCC[C@@H](c3ccc(C(=O)NCCCCNC(=O)c4ccc(-c5c6nc(c(-c7cccc(S(=O)(=O)[O-])c7F)c7ccc([nH]7)c(-c7cccc(S(=O)(=O)[O-])c7F)c7nc(c(-c8cccc(S(=O)(=O)[O-])c8F)c8ccc5[nH]8)C=C7)C=C6)cc4)cc3)C2)cc1=O
REMARK SMILES IDX 21 1 20 2 19 3 17 4 18 5 16 7 13 8 14 9 91 10 15 11 90 12
REMARK SMILES IDX 12 13 8 14 9 15 92 16 10 18 11 19 7 20 6 21 3 22 4 23 94 24
REMARK SMILES IDX 5 25 93 26 95 27 2 29 1 30 22 31 23 32 24 33 25 34 26 36
REMARK SMILES IDX 27 37 28 38 89 39 29 40 88 41 30 42 31 43 32 44 82 45 33 46
REMARK SMILES IDX 87 47 81 48 83 49 34 50 86 51 80 52 79 53 35 55 67 56 47 57
REMARK SMILES IDX 66 58 48 59 51 60 65 61 84 62 49 63 50 64 64 66 85 67 52 68
REMARK SMILES IDX 36 69 37 70 45 71 38 72 40 73 46 74 39 75 41 76 42 77 43 78
REMARK SMILES IDX 44 79 68 80 69 81 77 82 70 83 72 84 78 85 71 86 73 87 74 88
REMARK SMILES IDX 75 89 76 90 53 91 54 92 62 93 55 94 57 95 63 96 56 97 58 98
REMARK SMILES IDX 59 99 60 100 61 101
REMARK H PARENT 19 6 8 17 5 28 24 35 83 54 51 65
REMARK Flexibility Score: inf
ROOT
ATOM      1  C   UNL A   1      31.010  31.443  25.332  1.00  0.00     0.023 C 
ENDROOT
BRANCH   1   2
ATOM      2  C   UNL A   1      29.627  31.132  24.754  1.00  0.00     0.116 C 
BRANCH   2   3
ATOM      3  N   UNL A   1      29.714  30.862  23.334  1.00  0.00    -0.352 N 
ATOM      4  C   UNL A   1      30.082  29.737  22.642  1.00  0.00     0.251 C 
ATOM      5  O   UNL A   1      30.012  29.768  21.413  1.00  0.00    -0.269 OA
ATOM      6  H   UNL A   1      29.464  31.624  22.762  1.00  0.00     0.163 HD
BRANCH   4   7
ATOM      7  C   UNL A   1      30.503  28.469  23.305  1.00  0.00     0.039 A 
ATOM      8  C   UNL A   1      31.508  26.112  24.514  1.00  0.00    -0.039 A 
ATOM      9  C   UNL A   1      32.362  27.179  24.193  1.00  0.00     0.005 A 
ATOM     10  C   UNL A   1      30.139  26.271  24.286  1.00  0.00     0.005 A 
ATOM     11  C   UNL A   1      31.869  28.333  23.583  1.00  0.00     0.014 A 
ATOM     12  C   UNL A   1      29.643  27.445  23.708  1.00  0.00     0.014 A 
BRANCH   8  13
ATOM     13  C   UNL A   1      32.025  24.813  25.111  1.00  0.00     0.074 C 
ATOM     14  N   UNL A   1      32.322  22.348  24.650  1.00  0.00    -0.329 N 
ATOM     15  C   UNL A   1      33.762  22.469  24.921  1.00  0.00     0.262 C 
ATOM     16  C   UNL A   1      31.765  23.619  24.169  1.00  0.00     0.270 C 
ATOM     17  H   UNL A   1      31.862  22.133  25.535  1.00  0.00     0.348 HD
ATOM     18  C   UNL A   1      34.049  23.579  25.935  1.00  0.00     0.062 C 
ATOM     19  C   UNL A   1      33.516  24.923  25.452  1.00  0.00     0.020 C 
BRANCH  14  20
ATOM     20  C   UNL A   1      32.017  21.218  23.745  1.00  0.00     0.317 C 
BRANCH  20  21
ATOM     21  C   UNL A   1      32.547  19.848  24.161  1.00  0.00     0.074 A 
ATOM     22  C   UNL A   1      33.223  17.258  25.162  1.00  0.00     0.182 A 
ATOM     23  C   UNL A   1      32.869  18.275  25.959  1.00  0.00     0.133 A 
ATOM     24  C   UNL A   1      33.339  17.574  23.694  1.00  0.00     0.223 A 
ATOM     25  N   UNL A   1      32.609  19.541  25.509  1.00  0.00    -0.357 N 
ATOM     26  C   UNL A   1      32.933  18.939  23.246  1.00  0.00     0.083 A 
ATOM     27  O   UNL A   1      33.723  16.759  22.859  1.00  0.00    -0.286 OA
ATOM     28  H   UNL A   1      32.461  20.258  26.167  1.00  0.00     0.166 HD
BRANCH  22  29
ATOM     29  O   UNL A   1      33.377  15.985  25.674  1.00  0.00    -0.491 OA
ATOM     30  C   UNL A   1      32.175  15.225  25.649  1.00  0.00     0.278 C 
ENDBRANCH  22  29
ENDBRANCH  20  21
ENDBRANCH  14  20
ENDBRANCH   8  13
ENDBRANCH   4   7
ENDBRANCH   2   3
ENDBRANCH   1   2
BRANCH   1  31
ATOM     31  C   UNL A   1      31.538  30.394  26.311  1.00  0.00     0.023 C 
BRANCH  31  32
ATOM     32  C   UNL A   1      32.689  30.863  27.191  1.00  0.00     0.116 C 
BRANCH  32  33
ATOM     33  N   UNL A   1      32.819  32.312  27.244  1.00  0.00    -0.352 N 
ATOM     34  C   UNL A   1      33.875  33.052  27.726  1.00  0.00     0.251 C 
ATOM     35  H   UNL A   1      32.058  32.827  26.890  1.00  0.00     0.163 HD
ATOM     36  O   UNL A   1      33.801  34.268  27.797  1.00  0.00    -0.269 OA
BRANCH  34  37
ATOM     37  C   UNL A   1      35.081  32.339  28.197  1.00  0.00     0.039 A 
ATOM     38  C   UNL A   1      36.288  33.038  28.275  1.00  0.00     0.014 A 
ATOM     39  C   UNL A   1      35.001  31.009  28.614  1.00  0.00     0.014 A 
ATOM     40  C   UNL A   1      37.404  32.418  28.836  1.00  0.00     0.010 A 
ATOM     41  C   UNL A   1      36.095  30.417  29.234  1.00  0.00     0.010 A 
ATOM     42  C   UNL A   1      37.307  31.115  29.351  1.00  0.00    -0.014 A 
BRANCH  42  43
ATOM     43  C   UNL A   1      38.453  30.466  30.033  1.00  0.00     0.031 A 
ATOM     44  C   UNL A   1      38.849  30.900  31.416  1.00  0.00     0.074 A 
ATOM     45  C   UNL A   1      39.194  29.559  29.366  1.00  0.00     0.049 A 
ATOM     46  N   UNL A   1      39.856  30.499  32.147  1.00  0.00    -0.248 NA
ATOM     47  C   UNL A   1      38.025  31.943  32.049  1.00  0.00     0.031 C 
ATOM     48  C   UNL A   1      38.962  29.124  27.987  1.00  0.00     0.029 A 
ATOM     49  N   UNL A   1      40.314  28.864  29.749  1.00  0.00    -0.354 N 
ATOM     50  C   UNL A   1      39.810  31.264  33.306  1.00  0.00     0.074 A 
ATOM     51  C   UNL A   1      38.696  32.176  33.169  1.00  0.00     0.031 C 
ATOM     52  C   UNL A   1      39.907  28.236  27.641  1.00  0.00     0.029 A 
ATOM     53  C   UNL A   1      40.824  28.054  28.762  1.00  0.00     0.049 A 
ATOM     54  H   UNL A   1      40.713  28.938  30.645  1.00  0.00     0.167 HD
ATOM     55  C   UNL A   1      40.603  31.191  34.401  1.00  0.00     0.034 A 
ATOM     56  C   UNL A   1      41.910  27.255  28.760  1.00  0.00     0.034 A 
ATOM     57  C   UNL A   1      41.673  30.244  34.557  1.00  0.00     0.049 A 
ATOM     58  C   UNL A   1      42.736  27.148  30.012  1.00  0.00     0.074 A 
ATOM     59  C   UNL A   1      42.471  30.021  35.665  1.00  0.00     0.029 A 
ATOM     60  N   UNL A   1      42.096  29.362  33.574  1.00  0.00    -0.354 N 
ATOM     61  N   UNL A   1      42.572  27.754  31.164  1.00  0.00    -0.248 NA
ATOM     62  C   UNL A   1      43.874  26.218  29.982  1.00  0.00     0.031 C 
ATOM     63  C   UNL A   1      43.384  29.009  35.347  1.00  0.00     0.029 A 
ATOM     64  C   UNL A   1      43.146  28.595  34.046  1.00  0.00     0.049 A 
ATOM     65  H   UNL A   1      41.707  29.293  32.672  1.00  0.00     0.167 HD
ATOM     66  C   UNL A   1      43.562  27.255  32.002  1.00  0.00     0.074 A 
ATOM     67  C   UNL A   1      44.309  26.280  31.233  1.00  0.00     0.031 C 
ATOM     68  C   UNL A   1      43.839  27.586  33.288  1.00  0.00     0.034 A 
BRANCH  55  69
ATOM     69  C   UNL A   1      40.295  32.116  35.548  1.00  0.00     0.023 A 
ATOM     70  C   UNL A   1      41.078  33.274  35.729  1.00  0.00     0.012 A 
ATOM     71  C   UNL A   1      39.208  31.875  36.411  1.00  0.00     0.148 A 
ATOM     72  C   UNL A   1      40.807  34.161  36.770  1.00  0.00     0.002 A 
ATOM     73  C   UNL A   1      38.919  32.785  37.422  1.00  0.00     0.091 A 
ATOM     74  F   UNL A   1      38.489  30.755  36.239  1.00  0.00    -0.205 F 
ATOM     75  C   UNL A   1      39.722  33.922  37.608  1.00  0.00     0.022 A 
BRANCH  73  76
ATOM     76  S   UNL A   1      37.499  32.603  38.508  1.00  0.00     0.127 S 
ATOM     77  O   UNL A   1      36.395  32.916  37.603  1.00  0.00    -0.237 OA
ATOM     78  O   UNL A   1      37.587  31.195  38.899  1.00  0.00    -0.237 OA
ATOM     79  O   UNL A   1      37.707  33.547  39.597  1.00  0.00    -0.744 OA
ENDBRANCH  73  76
ENDBRANCH  55  69
BRANCH  56  80
ATOM     80  C   UNL A   1      42.224  26.432  27.560  1.00  0.00     0.023 A 
ATOM     81  C   UNL A   1      42.932  27.017  26.492  1.00  0.00     0.012 A 
ATOM     82  C   UNL A   1      41.862  25.073  27.480  1.00  0.00     0.148 A 
ATOM     83  C   UNL A   1      43.249  26.274  25.355  1.00  0.00     0.002 A 
ATOM     84  C   UNL A   1      42.227  24.324  26.367  1.00  0.00     0.091 A 
ATOM     85  F   UNL A   1      41.176  24.537  28.500  1.00  0.00    -0.205 F 
ATOM     86  C   UNL A   1      42.907  24.926  25.297  1.00  0.00     0.022 A 
BRANCH  84  87
ATOM     87  S   UNL A   1      41.942  22.553  26.267  1.00  0.00     0.127 S 
ATOM     88  O   UNL A   1      40.484  22.486  26.223  1.00  0.00    -0.237 OA
ATOM     89  O   UNL A   1      42.614  22.206  25.014  1.00  0.00    -0.237 OA
ATOM     90  O   UNL A   1      42.569  21.992  27.456  1.00  0.00    -0.744 OA
ENDBRANCH  84  87
ENDBRANCH  56  80
BRANCH  68  91
ATOM     91  C   UNL A   1      44.980  26.873  33.962  1.00  0.00     0.023 A 
ATOM     92  C   UNL A   1      46.293  27.363  33.812  1.00  0.00     0.012 A 
ATOM     93  C   UNL A   1      44.743  25.773  34.810  1.00  0.00     0.148 A 
ATOM     94  C   UNL A   1      47.356  26.751  34.476  1.00  0.00     0.002 A 
ATOM     95  C   UNL A   1      45.801  25.197  35.503  1.00  0.00     0.091 A 
ATOM     96  F   UNL A   1      43.489  25.311  34.923  1.00  0.00    -0.205 F 
ATOM     97  C   UNL A   1      47.109  25.679  35.330  1.00  0.00     0.022 A 
BRANCH  95  98
ATOM     98  S   UNL A   1      45.559  23.874  36.694  1.00  0.00     0.127 S 
ATOM     99  O   UNL A   1      46.904  23.719  37.244  1.00  0.00    -0.237 OA
ATOM    100  O   UNL A   1      44.586  24.459  37.618  1.00  0.00    -0.237 OA
ATOM    101  O   UNL A   1      45.058  22.739  35.932  1.00  0.00    -0.744 OA
ENDBRANCH  95  98
ENDBRANCH  68  91
ENDBRANCH  42  43
ENDBRANCH  34  37
ENDBRANCH  32  33
ENDBRANCH  31  32
ENDBRANCH   1  31
TORSDOF 18
ENDMDL
MODEL 3
REMARK VINA RESULT:     -12.4      6.264     11.001
REMARK SMILES COc1c[nH]c(C[N@H+]2CCC[C@@H](c3ccc(C(=O)NCCCCNC(=O)c4ccc(-c5c6nc(c(-c7cccc(S(=O)(=O)[O-])c7F)c7ccc([nH]7)c(-c7cccc(S(=O)(=O)[O-])c7F)c7nc(c(-c8cccc(S(=O)(=O)[O-])c8F)c8ccc5[nH]8)C=C7)C=C6)cc4)cc3)C2)cc1=O
REMARK SMILES IDX 21 1 20 2 19 3 17 4 18 5 16 7 13 8 14 9 91 10 15 11 90 12
REMARK SMILES IDX 12 13 8 14 9 15 92 16 10 18 11 19 7 20 6 21 3 22 4 23 94 24
REMARK SMILES IDX 5 25 93 26 95 27 2 29 1 30 22 31 23 32 24 33 25 34 26 36
REMARK SMILES IDX 27 37 28 38 89 39 29 40 88 41 30 42 31 43 32 44 82 45 33 46
REMARK SMILES IDX 87 47 81 48 83 49 34 50 86 51 80 52 79 53 35 55 67 56 47 57
REMARK SMILES IDX 66 58 48 59 51 60 65 61 84 62 49 63 50 64 64 66 85 67 52 68
REMARK SMILES IDX 36 69 37 70 45 71 38 72 40 73 46 74 39 75 41 76 42 77 43 78
REMARK SMILES IDX 44 79 68 80 69 81 77 82 70 83 72 84 78 85 71 86 73 87 74 88
REMARK SMILES IDX 75 89 76 90 53 91 54 92 62 93 55 94 57 95 63 96 56 97 58 98
REMARK SMILES IDX 59 99 60 100 61 101
REMARK H PARENT 19 6 8 17 5 28 24 35 83 54 51 65
REMARK Flexibility Score: inf
ROOT
ATOM      1  C   UNL A   1      34.603  32.340  28.429  1.00  0.00     0.023 C 
ENDROOT
BRANCH   1   2
ATOM      2  C   UNL A   1      34.119  31.036  27.791  1.00  0.00     0.116 C 
BRANCH   2   3
ATOM      3  N   UNL A   1      32.897  31.252  27.046  1.00  0.00    -0.352 N 
ATOM      4  C   UNL A   1      32.213  30.452  26.168  1.00  0.00     0.251 C 
ATOM      5  O   UNL A   1      31.151  30.874  25.711  1.00  0.00    -0.269 OA
ATOM      6  H   UNL A   1      32.482  32.132  27.197  1.00  0.00     0.163 HD
BRANCH   4   7
ATOM      7  C   UNL A   1      32.662  29.081  25.789  1.00  0.00     0.039 A 
ATOM      8  C   UNL A   1      33.454  26.411  25.266  1.00  0.00    -0.039 A 
ATOM      9  C   UNL A   1      32.622  26.717  26.354  1.00  0.00     0.005 A 
ATOM     10  C   UNL A   1      33.824  27.449  24.406  1.00  0.00     0.005 A 
ATOM     11  C   UNL A   1      32.246  28.034  26.621  1.00  0.00     0.014 A 
ATOM     12  C   UNL A   1      33.413  28.762  24.655  1.00  0.00     0.014 A 
BRANCH   8  13
ATOM     13  C   UNL A   1      33.941  24.998  24.991  1.00  0.00     0.074 C 
ATOM     14  N   UNL A   1      33.214  22.581  24.925  1.00  0.00    -0.329 N 
ATOM     15  C   UNL A   1      33.671  22.479  23.532  1.00  0.00     0.262 C 
ATOM     16  C   UNL A   1      32.832  23.959  25.258  1.00  0.00     0.270 C 
ATOM     17  H   UNL A   1      34.002  22.333  25.524  1.00  0.00     0.348 HD
ATOM     18  C   UNL A   1      34.843  23.423  23.257  1.00  0.00     0.062 C 
ATOM     19  C   UNL A   1      34.472  24.872  23.558  1.00  0.00     0.020 C 
BRANCH  14  20
ATOM     20  C   UNL A   1      32.143  21.606  25.234  1.00  0.00     0.317 C 
BRANCH  20  21
ATOM     21  C   UNL A   1      32.443  20.142  24.923  1.00  0.00     0.074 A 
ATOM     22  C   UNL A   1      32.752  17.316  24.623  1.00  0.00     0.182 A 
ATOM     23  C   UNL A   1      32.836  17.935  25.809  1.00  0.00     0.133 A 
ATOM     24  C   UNL A   1      32.574  18.207  23.421  1.00  0.00     0.223 A 
ATOM     25  N   UNL A   1      32.761  19.292  25.968  1.00  0.00    -0.357 N 
ATOM     26  C   UNL A   1      32.383  19.667  23.665  1.00  0.00     0.083 A 
ATOM     27  O   UNL A   1      32.552  17.784  22.268  1.00  0.00    -0.286 OA
ATOM     28  H   UNL A   1      32.940  19.677  26.856  1.00  0.00     0.166 HD
BRANCH  22  29
ATOM     29  O   UNL A   1      32.740  15.938  24.550  1.00  0.00    -0.491 OA
ATOM     30  C   UNL A   1      33.592  15.322  25.507  1.00  0.00     0.278 C 
ENDBRANCH  22  29
ENDBRANCH  20  21
ENDBRANCH  14  20
ENDBRANCH   8  13
ENDBRANCH   4   7
ENDBRANCH   2   3
ENDBRANCH   1   2
BRANCH   1  31
ATOM     31  C   UNL A   1      33.809  33.580  28.016  1.00  0.00     0.023 C 
BRANCH  31  32
ATOM     32  C   UNL A   1      34.230  34.870  28.708  1.00  0.00     0.116 C 
BRANCH  32  33
ATOM     33  N   UNL A   1      33.271  35.328  29.702  1.00  0.00    -0.352 N 
ATOM     34  C   UNL A   1      33.295  35.122  31.063  1.00  0.00     0.251 C 
ATOM     35  H   UNL A   1      32.510  35.852  29.360  1.00  0.00     0.163 HD
ATOM     36  O   UNL A   1      32.364  35.485  31.764  1.00  0.00    -0.269 OA
BRANCH  34  37
ATOM     37  C   UNL A   1      34.452  34.412  31.650  1.00  0.00     0.039 A 
ATOM     38  C   UNL A   1      34.276  33.105  32.109  1.00  0.00     0.014 A 
ATOM     39  C   UNL A   1      35.710  35.017  31.687  1.00  0.00     0.014 A 
ATOM     40  C   UNL A   1      35.383  32.378  32.547  1.00  0.00     0.010 A 
ATOM     41  C   UNL A   1      36.820  34.268  32.059  1.00  0.00     0.010 A 
ATOM     42  C   UNL A   1      36.668  32.942  32.493  1.00  0.00    -0.014 A 
BRANCH  42  43
ATOM     43  C   UNL A   1      37.871  32.161  32.868  1.00  0.00     0.031 A 
ATOM     44  C   UNL A   1      38.612  32.482  34.135  1.00  0.00     0.074 A 
ATOM     45  C   UNL A   1      38.351  31.233  32.016  1.00  0.00     0.049 A 
ATOM     46  N   UNL A   1      39.716  31.956  34.599  1.00  0.00    -0.248 NA
ATOM     47  C   UNL A   1      38.058  33.555  34.978  1.00  0.00     0.031 C 
ATOM     48  C   UNL A   1      37.770  30.896  30.714  1.00  0.00     0.029 A 
ATOM     49  N   UNL A   1      39.456  30.424  32.104  1.00  0.00    -0.354 N 
ATOM     50  C   UNL A   1      40.009  32.657  35.762  1.00  0.00     0.074 A 
ATOM     51  C   UNL A   1      38.985  33.666  35.919  1.00  0.00     0.031 C 
ATOM     52  C   UNL A   1      38.521  29.952  30.128  1.00  0.00     0.029 A 
ATOM     53  C   UNL A   1      39.649  29.630  30.998  1.00  0.00     0.049 A 
ATOM     54  H   UNL A   1      40.054  30.413  32.886  1.00  0.00     0.167 HD
ATOM     55  C   UNL A   1      41.019  32.454  36.641  1.00  0.00     0.034 A 
ATOM     56  C   UNL A   1      40.623  28.743  30.718  1.00  0.00     0.034 A 
ATOM     57  C   UNL A   1      42.001  31.413  36.511  1.00  0.00     0.049 A 
ATOM     58  C   UNL A   1      41.699  28.495  31.739  1.00  0.00     0.074 A 
ATOM     59  C   UNL A   1      43.004  31.061  37.395  1.00  0.00     0.029 A 
ATOM     60  N   UNL A   1      42.102  30.554  35.427  1.00  0.00    -0.354 N 
ATOM     61  N   UNL A   1      41.860  29.048  32.918  1.00  0.00    -0.248 NA
ATOM     62  C   UNL A   1      42.706  27.475  31.413  1.00  0.00     0.031 C 
ATOM     63  C   UNL A   1      43.720  29.994  36.840  1.00  0.00     0.029 A 
ATOM     64  C   UNL A   1      43.154  29.675  35.616  1.00  0.00     0.049 A 
ATOM     65  H   UNL A   1      41.513  30.568  34.638  1.00  0.00     0.167 HD
ATOM     66  C   UNL A   1      42.963  28.421  33.486  1.00  0.00     0.074 A 
ATOM     67  C   UNL A   1      43.417  27.430  32.531  1.00  0.00     0.031 C 
ATOM     68  C   UNL A   1      43.556  28.655  34.683  1.00  0.00     0.034 A 
BRANCH  55  69
ATOM     69  C   UNL A   1      41.070  33.337  37.859  1.00  0.00     0.023 A 
ATOM     70  C   UNL A   1      40.260  33.028  38.970  1.00  0.00     0.012 A 
ATOM     71  C   UNL A   1      41.950  34.435  37.929  1.00  0.00     0.148 A 
ATOM     72  C   UNL A   1      40.298  33.815  40.120  1.00  0.00     0.002 A 
ATOM     73  C   UNL A   1      42.012  35.191  39.095  1.00  0.00     0.091 A 
ATOM     74  F   UNL A   1      42.695  34.730  36.854  1.00  0.00    -0.205 F 
ATOM     75  C   UNL A   1      41.181  34.888  40.186  1.00  0.00     0.022 A 
BRANCH  73  76
ATOM     76  S   UNL A   1      43.170  36.549  39.305  1.00  0.00     0.127 S 
ATOM     77  O   UNL A   1      44.452  35.876  39.104  1.00  0.00    -0.237 OA
ATOM     78  O   UNL A   1      42.781  37.456  38.223  1.00  0.00    -0.237 OA
ATOM     79  O   UNL A   1      42.935  37.070  40.644  1.00  0.00    -0.744 OA
ENDBRANCH  73  76
ENDBRANCH  55  69
BRANCH  56  80
ATOM     80  C   UNL A   1      40.575  27.964  29.449  1.00  0.00     0.023 A 
ATOM     81  C   UNL A   1      39.590  26.969  29.291  1.00  0.00     0.012 A 
ATOM     82  C   UNL A   1      41.468  28.221  28.390  1.00  0.00     0.148 A 
ATOM     83  C   UNL A   1      39.512  26.225  28.114  1.00  0.00     0.002 A 
ATOM     84  C   UNL A   1      41.351  27.512  27.199  1.00  0.00     0.091 A 
ATOM     85  F   UNL A   1      42.407  29.161  28.564  1.00  0.00    -0.205 F 
ATOM     86  C   UNL A   1      40.384  26.503  27.065  1.00  0.00     0.022 A 
BRANCH  84  87
ATOM     87  S   UNL A   1      42.345  27.894  25.753  1.00  0.00     0.127 S 
ATOM     88  O   UNL A   1      41.852  29.221  25.393  1.00  0.00    -0.237 OA
ATOM     89  O   UNL A   1      43.702  27.867  26.300  1.00  0.00    -0.237 OA
ATOM     90  O   UNL A   1      42.064  26.831  24.798  1.00  0.00    -0.744 OA
ENDBRANCH  84  87
ENDBRANCH  56  80
BRANCH  68  91
ATOM     91  C   UNL A   1      44.747  27.810  35.049  1.00  0.00     0.023 A 
ATOM     92  C   UNL A   1      46.046  28.312  34.840  1.00  0.00     0.012 A 
ATOM     93  C   UNL A   1      44.578  26.560  35.676  1.00  0.00     0.148 A 
ATOM     94  C   UNL A   1      47.162  27.570  35.228  1.00  0.00     0.002 A 
ATOM     95  C   UNL A   1      45.693  25.846  36.099  1.00  0.00     0.091 A 
ATOM     96  F   UNL A   1      43.333  26.092  35.847  1.00  0.00    -0.205 F 
ATOM     97  C   UNL A   1      46.985  26.345  35.868  1.00  0.00     0.022 A 
BRANCH  95  98
ATOM     98  S   UNL A   1      45.556  24.306  37.014  1.00  0.00     0.127 S 
ATOM     99  O   UNL A   1      44.733  24.709  38.153  1.00  0.00    -0.237 OA
ATOM    100  O   UNL A   1      44.882  23.431  36.054  1.00  0.00    -0.237 OA
ATOM    101  O   UNL A   1      46.921  23.910  37.334  1.00  0.00    -0.744 OA
ENDBRANCH  95  98
ENDBRANCH  68  91
ENDBRANCH  42  43
ENDBRANCH  34  37
ENDBRANCH  32  33
ENDBRANCH  31  32
ENDBRANCH   1  31
TORSDOF 18
ENDMDL
