MODEL 1
REMARK VINA RESULT:     -12.3      0.000      0.000
REMARK SMILES CCCc1cc2c(cc1Cl)C=C(C(=O)NCCCCNC(=O)c1ccc(-c3c4nc(c(-c5cccc(S(=O)(=O)[O-])c5F)c5ccc([nH]5)c(-c5cccc(S(=O)(=O)[O-])c5F)c5nc(c(-c6cccc(S(=O)(=O)[O-])c6F)c6ccc3[nH]6)C=C5)C=C4)cc1)[C@@H](C(F)(F)F)O2
REMARK SMILES IDX 18 1 17 2 16 3 15 4 13 5 14 6 12 8 4 9 5 10 9 11 6 12 8 13
REMARK SMILES IDX 10 14 7 15 91 16 11 17 86 18 3 19 2 20 1 21 87 22 88 23
REMARK SMILES IDX 89 24 90 25 19 26 20 27 21 28 22 30 23 31 24 32 85 33 25 34
REMARK SMILES IDX 84 35 26 36 27 37 28 38 78 39 29 40 83 41 77 42 79 43 30 44
REMARK SMILES IDX 82 45 76 46 75 47 31 49 63 50 43 51 62 52 44 53 47 54 61 55
REMARK SMILES IDX 80 56 45 57 46 58 60 60 81 61 48 62 32 63 33 64 41 65 34 66
REMARK SMILES IDX 36 67 42 68 35 69 37 70 38 71 39 72 40 73 64 74 65 75 73 76
REMARK SMILES IDX 66 77 68 78 74 79 67 80 69 81 70 82 71 83 72 84 49 85 50 86
REMARK SMILES IDX 58 87 51 88 53 89 59 90 52 91 54 92 55 93 56 94 57 95
REMARK H PARENT 15 7 20 29 79 48 47 59
REMARK Flexibility Score: inf
ROOT
ATOM      1  C   UNL A   1      31.561  30.250  26.881  1.00  0.00     0.023 C 
ENDROOT
BRANCH   1   2
ATOM      2  C   UNL A   1      31.876  28.889  27.506  1.00  0.00     0.023 C 
BRANCH   2   3
ATOM      3  C   UNL A   1      31.673  27.703  26.567  1.00  0.00     0.116 C 
BRANCH   3   4
ATOM      4  N   UNL A   1      32.671  27.662  25.513  1.00  0.00    -0.352 N 
ATOM      5  C   UNL A   1      33.227  26.723  24.713  1.00  0.00     0.251 C 
ATOM      6  O   UNL A   1      34.072  27.142  23.916  1.00  0.00    -0.270 OA
ATOM      7  H   UNL A   1      33.042  28.557  25.332  1.00  0.00     0.163 HD
BRANCH   5   8
ATOM      8  C   UNL A   1      32.900  25.265  24.735  1.00  0.00     0.067 C 
ATOM      9  C   UNL A   1      33.211  20.230  25.100  1.00  0.00    -0.026 A 
ATOM     10  C   UNL A   1      32.164  21.164  25.162  1.00  0.00     0.052 A 
ATOM     11  C   UNL A   1      34.517  20.706  24.904  1.00  0.00     0.045 A 
ATOM     12  C   UNL A   1      32.419  22.528  25.046  1.00  0.00     0.128 A 
ATOM     13  C   UNL A   1      34.770  22.080  24.800  1.00  0.00     0.032 A 
ATOM     14  Cl  UNL A   1      35.870  19.636  24.793  1.00  0.00    -0.084 Cl
ATOM     15  C   UNL A   1      33.720  22.997  24.880  1.00  0.00     0.019 A 
ATOM     16  O   UNL A   1      31.345  23.362  25.161  1.00  0.00    -0.475 OA
ATOM     17  C   UNL A   1      33.955  24.435  24.851  1.00  0.00     0.025 C 
ATOM     18  C   UNL A   1      31.515  24.699  24.605  1.00  0.00     0.314 C 
BRANCH   9  19
ATOM     19  C   UNL A   1      32.879  18.769  25.297  1.00  0.00     0.037 C 
BRANCH  19  20
ATOM     20  C   UNL A   1      32.571  18.024  23.992  1.00  0.00     0.001 C 
ATOM     21  C   UNL A   1      33.697  17.108  23.530  1.00  0.00     0.004 C 
ENDBRANCH  19  20
ENDBRANCH   9  19
BRANCH  18  22
ATOM     22  C   UNL A   1      31.007  24.710  23.151  1.00  0.00     0.429 C 
ATOM     23  F   UNL A   1      31.982  24.292  22.305  1.00  0.00    -0.167 F 
ATOM     24  F   UNL A   1      29.951  23.885  22.962  1.00  0.00    -0.167 F 
ATOM     25  F   UNL A   1      30.623  25.942  22.744  1.00  0.00    -0.167 F 
ENDBRANCH  18  22
ENDBRANCH   5   8
ENDBRANCH   3   4
ENDBRANCH   2   3
ENDBRANCH   1   2
BRANCH   1  26
ATOM     26  C   UNL A   1      32.767  31.146  26.607  1.00  0.00     0.116 C 
BRANCH  26  27
ATOM     27  N   UNL A   1      32.672  32.477  27.190  1.00  0.00    -0.352 N 
ATOM     28  C   UNL A   1      33.618  33.130  27.951  1.00  0.00     0.251 C 
ATOM     29  H   UNL A   1      31.835  32.967  27.021  1.00  0.00     0.163 HD
ATOM     30  O   UNL A   1      33.383  34.233  28.431  1.00  0.00    -0.269 OA
BRANCH  28  31
ATOM     31  C   UNL A   1      34.894  32.438  28.221  1.00  0.00     0.039 A 
ATOM     32  C   UNL A   1      34.889  31.102  28.627  1.00  0.00     0.014 A 
ATOM     33  C   UNL A   1      36.082  33.173  28.192  1.00  0.00     0.014 A 
ATOM     34  C   UNL A   1      36.044  30.556  29.176  1.00  0.00     0.010 A 
ATOM     35  C   UNL A   1      37.256  32.594  28.678  1.00  0.00     0.010 A 
ATOM     36  C   UNL A   1      37.232  31.305  29.233  1.00  0.00    -0.014 A 
BRANCH  36  37
ATOM     37  C   UNL A   1      38.420  30.733  29.912  1.00  0.00     0.031 A 
ATOM     38  C   UNL A   1      38.746  31.102  31.337  1.00  0.00     0.074 A 
ATOM     39  C   UNL A   1      39.180  29.833  29.260  1.00  0.00     0.049 A 
ATOM     40  N   UNL A   1      39.727  30.677  32.089  1.00  0.00    -0.248 NA
ATOM     41  C   UNL A   1      37.860  32.071  32.005  1.00  0.00     0.031 C 
ATOM     42  C   UNL A   1      38.972  29.403  27.876  1.00  0.00     0.029 A 
ATOM     43  N   UNL A   1      40.265  29.104  29.676  1.00  0.00    -0.354 N 
ATOM     44  C   UNL A   1      39.608  31.356  33.295  1.00  0.00     0.074 A 
ATOM     45  C   UNL A   1      38.454  32.221  33.182  1.00  0.00     0.031 C 
ATOM     46  C   UNL A   1      39.871  28.455  27.571  1.00  0.00     0.029 A 
ATOM     47  C   UNL A   1      40.746  28.242  28.720  1.00  0.00     0.049 A 
ATOM     48  H   UNL A   1      40.661  29.191  30.573  1.00  0.00     0.167 HD
ATOM     49  C   UNL A   1      40.376  31.253  34.405  1.00  0.00     0.034 A 
ATOM     50  C   UNL A   1      41.776  27.376  28.760  1.00  0.00     0.034 A 
ATOM     51  C   UNL A   1      41.481  30.344  34.544  1.00  0.00     0.049 A 
ATOM     52  C   UNL A   1      42.589  27.256  30.015  1.00  0.00     0.074 A 
ATOM     53  C   UNL A   1      42.291  30.144  35.649  1.00  0.00     0.029 A 
ATOM     54  N   UNL A   1      41.921  29.475  33.560  1.00  0.00    -0.354 N 
ATOM     55  N   UNL A   1      42.416  27.861  31.165  1.00  0.00    -0.248 NA
ATOM     56  C   UNL A   1      43.731  26.330  29.985  1.00  0.00     0.031 C 
ATOM     57  C   UNL A   1      43.218  29.146  35.335  1.00  0.00     0.029 A 
ATOM     58  C   UNL A   1      42.987  28.731  34.033  1.00  0.00     0.049 A 
ATOM     59  H   UNL A   1      41.532  29.398  32.659  1.00  0.00     0.167 HD
ATOM     60  C   UNL A   1      43.423  27.388  31.996  1.00  0.00     0.074 A 
ATOM     61  C   UNL A   1      44.186  26.424  31.229  1.00  0.00     0.031 C 
ATOM     62  C   UNL A   1      43.703  27.742  33.273  1.00  0.00     0.034 A 
BRANCH  49  63
ATOM     63  C   UNL A   1      40.024  32.100  35.596  1.00  0.00     0.023 A 
ATOM     64  C   UNL A   1      40.653  33.348  35.757  1.00  0.00     0.012 A 
ATOM     65  C   UNL A   1      38.996  31.717  36.479  1.00  0.00     0.148 A 
ATOM     66  C   UNL A   1      40.268  34.207  36.784  1.00  0.00     0.002 A 
ATOM     67  C   UNL A   1      38.601  32.588  37.488  1.00  0.00     0.091 A 
ATOM     68  F   UNL A   1      38.421  30.519  36.308  1.00  0.00    -0.205 F 
ATOM     69  C   UNL A   1      39.236  33.833  37.642  1.00  0.00     0.022 A 
BRANCH  67  70
ATOM     70  S   UNL A   1      37.251  32.227  38.618  1.00  0.00     0.127 S 
ATOM     71  O   UNL A   1      37.738  32.832  39.858  1.00  0.00    -0.237 OA
ATOM     72  O   UNL A   1      36.132  32.933  37.994  1.00  0.00    -0.237 OA
ATOM     73  O   UNL A   1      37.124  30.777  38.646  1.00  0.00    -0.744 OA
ENDBRANCH  67  70
ENDBRANCH  49  63
BRANCH  50  74
ATOM     74  C   UNL A   1      42.046  26.515  27.577  1.00  0.00     0.023 A 
ATOM     75  C   UNL A   1      42.829  27.023  26.523  1.00  0.00     0.012 A 
ATOM     76  C   UNL A   1      41.608  25.179  27.532  1.00  0.00     0.148 A 
ATOM     77  C   UNL A   1      43.170  26.211  25.441  1.00  0.00     0.002 A 
ATOM     78  C   UNL A   1      41.991  24.362  26.476  1.00  0.00     0.091 A 
ATOM     79  F   UNL A   1      40.849  24.726  28.541  1.00  0.00    -0.205 F 
ATOM     80  C   UNL A   1      42.764  24.879  25.424  1.00  0.00     0.022 A 
BRANCH  78  81
ATOM     81  S   UNL A   1      41.621  22.604  26.441  1.00  0.00     0.127 S 
ATOM     82  O   UNL A   1      40.164  22.607  26.371  1.00  0.00    -0.237 OA
ATOM     83  O   UNL A   1      42.299  22.175  25.216  1.00  0.00    -0.237 OA
ATOM     84  O   UNL A   1      42.198  22.062  27.664  1.00  0.00    -0.744 OA
ENDBRANCH  78  81
ENDBRANCH  50  74
BRANCH  62  85
ATOM     85  C   UNL A   1      44.890  27.100  33.933  1.00  0.00     0.023 A 
ATOM     86  C   UNL A   1      46.136  27.753  33.879  1.00  0.00     0.012 A 
ATOM     87  C   UNL A   1      44.748  25.927  34.698  1.00  0.00     0.148 A 
ATOM     88  C   UNL A   1      47.230  27.243  34.574  1.00  0.00     0.002 A 
ATOM     89  C   UNL A   1      45.837  25.440  35.412  1.00  0.00     0.091 A 
ATOM     90  F   UNL A   1      43.553  25.320  34.722  1.00  0.00    -0.205 F 
ATOM     91  C   UNL A   1      47.078  26.095  35.349  1.00  0.00     0.022 A 
BRANCH  89  92
ATOM     92  S   UNL A   1      45.723  24.008  36.490  1.00  0.00     0.127 S 
ATOM     93  O   UNL A   1      47.087  23.918  37.010  1.00  0.00    -0.237 OA
ATOM     94  O   UNL A   1      44.723  24.435  37.469  1.00  0.00    -0.237 OA
ATOM     95  O   UNL A   1      45.306  22.899  35.643  1.00  0.00    -0.744 OA
ENDBRANCH  89  92
ENDBRANCH  62  85
ENDBRANCH  36  37
ENDBRANCH  28  31
ENDBRANCH  26  27
ENDBRANCH   1  26
TORSDOF 17
ENDMDL
MODEL 2
REMARK VINA RESULT:     -12.3      5.227     10.371
REMARK SMILES CCCc1cc2c(cc1Cl)C=C(C(=O)NCCCCNC(=O)c1ccc(-c3c4nc(c(-c5cccc(S(=O)(=O)[O-])c5F)c5ccc([nH]5)c(-c5cccc(S(=O)(=O)[O-])c5F)c5nc(c(-c6cccc(S(=O)(=O)[O-])c6F)c6ccc3[nH]6)C=C5)C=C4)cc1)[C@@H](C(F)(F)F)O2
REMARK SMILES IDX 18 1 17 2 16 3 15 4 13 5 14 6 12 8 4 9 5 10 9 11 6 12 8 13
REMARK SMILES IDX 10 14 7 15 91 16 11 17 86 18 3 19 2 20 1 21 87 22 88 23
REMARK SMILES IDX 89 24 90 25 19 26 20 27 21 28 22 30 23 31 24 32 85 33 25 34
REMARK SMILES IDX 84 35 26 36 27 37 28 38 78 39 29 40 83 41 77 42 79 43 30 44
REMARK SMILES IDX 82 45 76 46 75 47 31 49 63 50 43 51 62 52 44 53 47 54 61 55
REMARK SMILES IDX 80 56 45 57 46 58 60 60 81 61 48 62 32 63 33 64 41 65 34 66
REMARK SMILES IDX 36 67 42 68 35 69 37 70 38 71 39 72 40 73 64 74 65 75 73 76
REMARK SMILES IDX 66 77 68 78 74 79 67 80 69 81 70 82 71 83 72 84 49 85 50 86
REMARK SMILES IDX 58 87 51 88 53 89 59 90 52 91 54 92 55 93 56 94 57 95
REMARK H PARENT 15 7 20 29 79 48 47 59
REMARK Flexibility Score: inf
ROOT
ATOM      1  C   UNL A   1      36.148  20.330  24.971  1.00  0.00     0.023 C 
ENDROOT
BRANCH   1   2
ATOM      2  C   UNL A   1      34.971  21.308  25.028  1.00  0.00     0.023 C 
BRANCH   2   3
ATOM      3  C   UNL A   1      33.600  20.639  25.078  1.00  0.00     0.116 C 
BRANCH   3   4
ATOM      4  N   UNL A   1      32.967  20.588  23.772  1.00  0.00    -0.352 N 
ATOM      5  C   UNL A   1      32.282  21.437  22.972  1.00  0.00     0.251 C 
ATOM      6  O   UNL A   1      31.913  20.963  21.893  1.00  0.00    -0.270 OA
ATOM      7  H   UNL A   1      33.063  19.699  23.359  1.00  0.00     0.163 HD
BRANCH   5   8
ATOM      8  C   UNL A   1      31.950  22.856  23.299  1.00  0.00     0.067 C 
ATOM      9  C   UNL A   1      31.953  27.909  23.529  1.00  0.00    -0.026 A 
ATOM     10  C   UNL A   1      31.012  26.906  23.814  1.00  0.00     0.052 A 
ATOM     11  C   UNL A   1      33.216  27.522  23.052  1.00  0.00     0.045 A 
ATOM     12  C   UNL A   1      31.321  25.563  23.615  1.00  0.00     0.128 A 
ATOM     13  C   UNL A   1      33.518  26.170  22.842  1.00  0.00     0.032 A 
ATOM     14  Cl  UNL A   1      34.448  28.679  22.693  1.00  0.00    -0.084 Cl
ATOM     15  C   UNL A   1      32.565  25.186  23.115  1.00  0.00     0.019 A 
ATOM     16  O   UNL A   1      30.330  24.662  23.879  1.00  0.00    -0.475 OA
ATOM     17  C   UNL A   1      32.819  23.777  22.838  1.00  0.00     0.025 C 
ATOM     18  C   UNL A   1      30.762  23.290  24.110  1.00  0.00     0.314 C 
BRANCH   9  19
ATOM     19  C   UNL A   1      31.536  29.351  23.704  1.00  0.00     0.037 C 
BRANCH  19  20
ATOM     20  C   UNL A   1      31.404  29.782  25.170  1.00  0.00     0.001 C 
ATOM     21  C   UNL A   1      32.720  30.222  25.800  1.00  0.00     0.004 C 
ENDBRANCH  19  20
ENDBRANCH   9  19
BRANCH  18  22
ATOM     22  C   UNL A   1      30.971  23.073  25.621  1.00  0.00     0.429 C 
ATOM     23  F   UNL A   1      30.142  23.876  26.334  1.00  0.00    -0.167 F 
ATOM     24  F   UNL A   1      30.704  21.804  26.006  1.00  0.00    -0.167 F 
ATOM     25  F   UNL A   1      32.236  23.347  26.016  1.00  0.00    -0.167 F 
ENDBRANCH  18  22
ENDBRANCH   5   8
ENDBRANCH   3   4
ENDBRANCH   2   3
ENDBRANCH   1   2
BRANCH   1  26
ATOM     26  C   UNL A   1      37.531  20.952  25.153  1.00  0.00     0.116 C 
BRANCH  26  27
ATOM     27  N   UNL A   1      38.608  19.984  25.316  1.00  0.00    -0.352 N 
ATOM     28  C   UNL A   1      39.809  20.166  25.965  1.00  0.00     0.251 C 
ATOM     29  H   UNL A   1      38.460  19.097  24.915  1.00  0.00     0.163 HD
ATOM     30  O   UNL A   1      40.656  19.279  25.978  1.00  0.00    -0.269 OA
BRANCH  28  31
ATOM     31  C   UNL A   1      40.071  21.477  26.592  1.00  0.00     0.039 A 
ATOM     32  C   UNL A   1      39.505  22.633  26.050  1.00  0.00     0.014 A 
ATOM     33  C   UNL A   1      40.991  21.555  27.640  1.00  0.00     0.014 A 
ATOM     34  C   UNL A   1      39.995  23.875  26.437  1.00  0.00     0.010 A 
ATOM     35  C   UNL A   1      41.427  22.808  28.076  1.00  0.00     0.010 A 
ATOM     36  C   UNL A   1      40.981  23.974  27.434  1.00  0.00    -0.014 A 
BRANCH  36  37
ATOM     37  C   UNL A   1      41.555  25.304  27.758  1.00  0.00     0.031 A 
ATOM     38  C   UNL A   1      42.939  25.678  27.293  1.00  0.00     0.074 A 
ATOM     39  C   UNL A   1      40.805  26.199  28.428  1.00  0.00     0.049 A 
ATOM     40  N   UNL A   1      43.584  26.803  27.465  1.00  0.00    -0.248 NA
ATOM     41  C   UNL A   1      43.699  24.665  26.541  1.00  0.00     0.031 C 
ATOM     42  C   UNL A   1      39.456  25.949  28.939  1.00  0.00     0.029 A 
ATOM     43  N   UNL A   1      41.059  27.500  28.777  1.00  0.00    -0.354 N 
ATOM     44  C   UNL A   1      44.834  26.620  26.888  1.00  0.00     0.074 A 
ATOM     45  C   UNL A   1      44.862  25.276  26.353  1.00  0.00     0.031 C 
ATOM     46  C   UNL A   1      38.983  27.074  29.498  1.00  0.00     0.029 A 
ATOM     47  C   UNL A   1      40.010  28.108  29.425  1.00  0.00     0.049 A 
ATOM     48  H   UNL A   1      41.910  27.955  28.584  1.00  0.00     0.167 HD
ATOM     49  C   UNL A   1      45.859  27.499  26.792  1.00  0.00     0.034 A 
ATOM     50  C   UNL A   1      39.886  29.359  29.908  1.00  0.00     0.034 A 
ATOM     51  C   UNL A   1      45.810  28.857  27.260  1.00  0.00     0.049 A 
ATOM     52  C   UNL A   1      41.025  30.324  29.757  1.00  0.00     0.074 A 
ATOM     53  C   UNL A   1      46.789  29.831  27.168  1.00  0.00     0.029 A 
ATOM     54  N   UNL A   1      44.723  29.438  27.891  1.00  0.00    -0.354 N 
ATOM     55  N   UNL A   1      42.172  30.148  29.149  1.00  0.00    -0.248 NA
ATOM     56  C   UNL A   1      40.852  31.659  30.345  1.00  0.00     0.031 C 
ATOM     57  C   UNL A   1      46.290  31.006  27.737  1.00  0.00     0.029 A 
ATOM     58  C   UNL A   1      45.003  30.759  28.188  1.00  0.00     0.049 A 
ATOM     59  H   UNL A   1      43.877  28.979  28.096  1.00  0.00     0.167 HD
ATOM     60  C   UNL A   1      42.857  31.349  29.278  1.00  0.00     0.074 A 
ATOM     61  C   UNL A   1      41.985  32.256  29.997  1.00  0.00     0.031 C 
ATOM     62  C   UNL A   1      44.106  31.662  28.860  1.00  0.00     0.034 A 
BRANCH  49  63
ATOM     63  C   UNL A   1      47.117  27.053  26.100  1.00  0.00     0.023 A 
ATOM     64  C   UNL A   1      47.296  27.364  24.739  1.00  0.00     0.012 A 
ATOM     65  C   UNL A   1      48.161  26.438  26.819  1.00  0.00     0.148 A 
ATOM     66  C   UNL A   1      48.497  27.068  24.098  1.00  0.00     0.002 A 
ATOM     67  C   UNL A   1      49.365  26.166  26.179  1.00  0.00     0.091 A 
ATOM     68  F   UNL A   1      47.960  26.145  28.111  1.00  0.00    -0.205 F 
ATOM     69  C   UNL A   1      49.534  26.479  24.819  1.00  0.00     0.022 A 
BRANCH  67  70
ATOM     70  S   UNL A   1      50.782  25.455  27.024  1.00  0.00     0.127 S 
ATOM     71  O   UNL A   1      50.186  24.278  27.656  1.00  0.00    -0.237 OA
ATOM     72  O   UNL A   1      51.685  25.159  25.912  1.00  0.00    -0.237 OA
ATOM     73  O   UNL A   1      51.257  26.477  27.946  1.00  0.00    -0.744 OA
ENDBRANCH  67  70
ENDBRANCH  49  63
BRANCH  50  74
ATOM     74  C   UNL A   1      38.598  29.772  30.528  1.00  0.00     0.023 A 
ATOM     75  C   UNL A   1      38.363  29.474  31.884  1.00  0.00     0.012 A 
ATOM     76  C   UNL A   1      37.653  30.529  29.812  1.00  0.00     0.148 A 
ATOM     77  C   UNL A   1      37.203  29.923  32.515  1.00  0.00     0.002 A 
ATOM     78  C   UNL A   1      36.523  31.013  30.458  1.00  0.00     0.091 A 
ATOM     79  F   UNL A   1      37.894  30.782  28.517  1.00  0.00    -0.205 F 
ATOM     80  C   UNL A   1      36.291  30.703  31.808  1.00  0.00     0.022 A 
BRANCH  78  81
ATOM     81  S   UNL A   1      35.367  32.131  29.658  1.00  0.00     0.127 S 
ATOM     82  O   UNL A   1      34.841  31.297  28.582  1.00  0.00    -0.237 OA
ATOM     83  O   UNL A   1      34.421  32.415  30.739  1.00  0.00    -0.237 OA
ATOM     84  O   UNL A   1      36.161  33.279  29.243  1.00  0.00    -0.744 OA
ENDBRANCH  78  81
ENDBRANCH  50  74
BRANCH  62  85
ATOM     85  C   UNL A   1      44.626  33.036  29.172  1.00  0.00     0.023 A 
ATOM     86  C   UNL A   1      45.381  33.229  30.344  1.00  0.00     0.012 A 
ATOM     87  C   UNL A   1      44.471  34.094  28.257  1.00  0.00     0.148 A 
ATOM     88  C   UNL A   1      45.972  34.463  30.607  1.00  0.00     0.002 A 
ATOM     89  C   UNL A   1      45.087  35.314  28.512  1.00  0.00     0.091 A 
ATOM     90  F   UNL A   1      43.738  33.885  27.155  1.00  0.00    -0.205 F 
ATOM     91  C   UNL A   1      45.835  35.500  29.687  1.00  0.00     0.022 A 
BRANCH  89  92
ATOM     92  S   UNL A   1      45.026  36.688  27.357  1.00  0.00     0.127 S 
ATOM     93  O   UNL A   1      45.427  37.809  28.206  1.00  0.00    -0.237 OA
ATOM     94  O   UNL A   1      46.016  36.295  26.355  1.00  0.00    -0.237 OA
ATOM     95  O   UNL A   1      43.655  36.739  26.866  1.00  0.00    -0.744 OA
ENDBRANCH  89  92
ENDBRANCH  62  85
ENDBRANCH  36  37
ENDBRANCH  28  31
ENDBRANCH  26  27
ENDBRANCH   1  26
TORSDOF 17
ENDMDL
MODEL 3
REMARK VINA RESULT:     -12.2      5.204      8.199
REMARK SMILES CCCc1cc2c(cc1Cl)C=C(C(=O)NCCCCNC(=O)c1ccc(-c3c4nc(c(-c5cccc(S(=O)(=O)[O-])c5F)c5ccc([nH]5)c(-c5cccc(S(=O)(=O)[O-])c5F)c5nc(c(-c6cccc(S(=O)(=O)[O-])c6F)c6ccc3[nH]6)C=C5)C=C4)cc1)[C@@H](C(F)(F)F)O2
REMARK SMILES IDX 18 1 17 2 16 3 15 4 13 5 14 6 12 8 4 9 5 10 9 11 6 12 8 13
REMARK SMILES IDX 10 14 7 15 91 16 11 17 86 18 3 19 2 20 1 21 87 22 88 23
REMARK SMILES IDX 89 24 90 25 19 26 20 27 21 28 22 30 23 31 24 32 85 33 25 34
REMARK SMILES IDX 84 35 26 36 27 37 28 38 78 39 29 40 83 41 77 42 79 43 30 44
REMARK SMILES IDX 82 45 76 46 75 47 31 49 63 50 43 51 62 52 44 53 47 54 61 55
REMARK SMILES IDX 80 56 45 57 46 58 60 60 81 61 48 62 32 63 33 64 41 65 34 66
REMARK SMILES IDX 36 67 42 68 35 69 37 70 38 71 39 72 40 73 64 74 65 75 73 76
REMARK SMILES IDX 66 77 68 78 74 79 67 80 69 81 70 82 71 83 72 84 49 85 50 86
REMARK SMILES IDX 58 87 51 88 53 89 59 90 52 91 54 92 55 93 56 94 57 95
REMARK H PARENT 15 7 20 29 79 48 47 59
REMARK Flexibility Score: inf
ROOT
ATOM      1  C   UNL A   1      35.219  21.863  24.505  1.00  0.00     0.023 C 
ENDROOT
BRANCH   1   2
ATOM      2  C   UNL A   1      34.711  23.038  23.665  1.00  0.00     0.023 C 
BRANCH   2   3
ATOM      3  C   UNL A   1      33.446  22.739  22.865  1.00  0.00     0.116 C 
BRANCH   3   4
ATOM      4  N   UNL A   1      33.307  23.611  21.712  1.00  0.00    -0.352 N 
ATOM      5  C   UNL A   1      32.938  24.892  21.481  1.00  0.00     0.251 C 
ATOM      6  O   UNL A   1      32.971  25.245  20.297  1.00  0.00    -0.270 OA
ATOM      7  H   UNL A   1      33.546  23.147  20.877  1.00  0.00     0.163 HD
BRANCH   5   8
ATOM      8  C   UNL A   1      32.505  25.870  22.524  1.00  0.00     0.067 C 
ATOM      9  C   UNL A   1      32.467  29.407  26.139  1.00  0.00    -0.026 A 
ATOM     10  C   UNL A   1      31.510  28.891  25.249  1.00  0.00     0.052 A 
ATOM     11  C   UNL A   1      33.773  28.894  26.084  1.00  0.00     0.045 A 
ATOM     12  C   UNL A   1      31.854  27.906  24.328  1.00  0.00     0.128 A 
ATOM     13  C   UNL A   1      34.117  27.911  25.146  1.00  0.00     0.032 A 
ATOM     14  Cl  UNL A   1      35.015  29.449  27.150  1.00  0.00    -0.084 Cl
ATOM     15  C   UNL A   1      33.158  27.420  24.258  1.00  0.00     0.019 A 
ATOM     16  O   UNL A   1      30.870  27.495  23.476  1.00  0.00    -0.475 OA
ATOM     17  C   UNL A   1      33.499  26.454  23.221  1.00  0.00     0.025 C 
ATOM     18  C   UNL A   1      31.075  26.198  22.844  1.00  0.00     0.314 C 
BRANCH   9  19
ATOM     19  C   UNL A   1      32.049  30.520  27.072  1.00  0.00     0.037 C 
BRANCH  19  20
ATOM     20  C   UNL A   1      31.337  31.681  26.367  1.00  0.00     0.001 C 
ATOM     21  C   UNL A   1      31.810  33.056  26.823  1.00  0.00     0.004 C 
ENDBRANCH  19  20
ENDBRANCH   9  19
BRANCH  18  22
ATOM     22  C   UNL A   1      30.397  25.108  23.697  1.00  0.00     0.429 C 
ATOM     23  F   UNL A   1      29.286  25.600  24.299  1.00  0.00    -0.167 F 
ATOM     24  F   UNL A   1      29.999  24.045  22.960  1.00  0.00    -0.167 F 
ATOM     25  F   UNL A   1      31.207  24.632  24.671  1.00  0.00    -0.167 F 
ENDBRANCH  18  22
ENDBRANCH   5   8
ENDBRANCH   3   4
ENDBRANCH   2   3
ENDBRANCH   1   2
BRANCH   1  26
ATOM     26  C   UNL A   1      36.418  22.163  25.402  1.00  0.00     0.116 C 
BRANCH  26  27
ATOM     27  N   UNL A   1      37.449  21.134  25.390  1.00  0.00    -0.352 N 
ATOM     28  C   UNL A   1      38.736  21.229  25.873  1.00  0.00     0.251 C 
ATOM     29  H   UNL A   1      37.198  20.270  24.989  1.00  0.00     0.163 HD
ATOM     30  O   UNL A   1      39.524  20.299  25.746  1.00  0.00    -0.269 OA
BRANCH  28  31
ATOM     31  C   UNL A   1      39.154  22.502  26.494  1.00  0.00     0.039 A 
ATOM     32  C   UNL A   1      38.521  23.693  26.134  1.00  0.00     0.014 A 
ATOM     33  C   UNL A   1      40.270  22.511  27.335  1.00  0.00     0.014 A 
ATOM     34  C   UNL A   1      39.113  24.905  26.471  1.00  0.00     0.010 A 
ATOM     35  C   UNL A   1      40.819  23.733  27.731  1.00  0.00     0.010 A 
ATOM     36  C   UNL A   1      40.283  24.937  27.249  1.00  0.00    -0.014 A 
BRANCH  36  37
ATOM     37  C   UNL A   1      40.947  26.238  27.510  1.00  0.00     0.031 A 
ATOM     38  C   UNL A   1      40.292  27.273  28.388  1.00  0.00     0.074 A 
ATOM     39  C   UNL A   1      42.171  26.467  26.998  1.00  0.00     0.049 A 
ATOM     40  N   UNL A   1      40.741  28.450  28.742  1.00  0.00    -0.248 NA
ATOM     41  C   UNL A   1      38.965  26.953  28.942  1.00  0.00     0.031 C 
ATOM     42  C   UNL A   1      42.902  25.546  26.126  1.00  0.00     0.029 A 
ATOM     43  N   UNL A   1      43.023  27.530  27.150  1.00  0.00    -0.354 N 
ATOM     44  C   UNL A   1      39.742  29.026  29.515  1.00  0.00     0.074 A 
ATOM     45  C   UNL A   1      38.658  28.071  29.587  1.00  0.00     0.031 C 
ATOM     46  C   UNL A   1      44.110  26.064  25.855  1.00  0.00     0.029 A 
ATOM     47  C   UNL A   1      44.221  27.370  26.496  1.00  0.00     0.049 A 
ATOM     48  H   UNL A   1      42.798  28.331  27.677  1.00  0.00     0.167 HD
ATOM     49  C   UNL A   1      39.734  30.233  30.127  1.00  0.00     0.034 A 
ATOM     50  C   UNL A   1      45.292  28.183  26.418  1.00  0.00     0.034 A 
ATOM     51  C   UNL A   1      40.837  31.155  30.115  1.00  0.00     0.049 A 
ATOM     52  C   UNL A   1      45.271  29.500  27.136  1.00  0.00     0.074 A 
ATOM     53  C   UNL A   1      40.931  32.386  30.744  1.00  0.00     0.029 A 
ATOM     54  N   UNL A   1      42.038  30.946  29.458  1.00  0.00    -0.354 N 
ATOM     55  N   UNL A   1      44.340  29.994  27.915  1.00  0.00    -0.248 NA
ATOM     56  C   UNL A   1      46.447  30.367  26.977  1.00  0.00     0.031 C 
ATOM     57  C   UNL A   1      42.195  32.917  30.473  1.00  0.00     0.029 A 
ATOM     58  C   UNL A   1      42.882  32.019  29.671  1.00  0.00     0.049 A 
ATOM     59  H   UNL A   1      42.256  30.151  28.921  1.00  0.00     0.167 HD
ATOM     60  C   UNL A   1      44.817  31.227  28.340  1.00  0.00     0.074 A 
ATOM     61  C   UNL A   1      46.133  31.393  27.758  1.00  0.00     0.031 C 
ATOM     62  C   UNL A   1      44.207  32.147  29.124  1.00  0.00     0.034 A 
BRANCH  49  63
ATOM     63  C   UNL A   1      38.519  30.620  30.924  1.00  0.00     0.023 A 
ATOM     64  C   UNL A   1      38.489  30.341  32.303  1.00  0.00     0.012 A 
ATOM     65  C   UNL A   1      37.472  31.358  30.338  1.00  0.00     0.148 A 
ATOM     66  C   UNL A   1      37.431  30.788  33.092  1.00  0.00     0.002 A 
ATOM     67  C   UNL A   1      36.432  31.820  31.135  1.00  0.00     0.091 A 
ATOM     68  F   UNL A   1      37.522  31.601  29.021  1.00  0.00    -0.205 F 
ATOM     69  C   UNL A   1      36.409  31.535  32.511  1.00  0.00     0.022 A 
BRANCH  67  70
ATOM     70  S   UNL A   1      35.090  32.832  30.499  1.00  0.00     0.127 S 
ATOM     71  O   UNL A   1      34.229  32.949  31.676  1.00  0.00    -0.237 OA
ATOM     72  O   UNL A   1      35.784  34.064  30.127  1.00  0.00    -0.237 OA
ATOM     73  O   UNL A   1      34.516  32.090  29.386  1.00  0.00    -0.744 OA
ENDBRANCH  67  70
ENDBRANCH  49  63
BRANCH  50  74
ATOM     74  C   UNL A   1      46.494  27.728  25.669  1.00  0.00     0.023 A 
ATOM     75  C   UNL A   1      46.561  27.946  24.280  1.00  0.00     0.012 A 
ATOM     76  C   UNL A   1      47.599  27.166  26.336  1.00  0.00     0.148 A 
ATOM     77  C   UNL A   1      47.711  27.608  23.567  1.00  0.00     0.002 A 
ATOM     78  C   UNL A   1      48.758  26.875  25.627  1.00  0.00     0.091 A 
ATOM     79  F   UNL A   1      47.502  26.952  27.656  1.00  0.00    -0.205 F 
ATOM     80  C   UNL A   1      48.813  27.087  24.240  1.00  0.00     0.022 A 
BRANCH  78  81
ATOM     81  S   UNL A   1      50.263  26.325  26.437  1.00  0.00     0.127 S 
ATOM     82  O   UNL A   1      49.873  25.008  26.930  1.00  0.00    -0.237 OA
ATOM     83  O   UNL A   1      51.219  26.312  25.328  1.00  0.00    -0.237 OA
ATOM     84  O   UNL A   1      50.545  27.328  27.456  1.00  0.00    -0.744 OA
ENDBRANCH  78  81
ENDBRANCH  50  74
BRANCH  62  85
ATOM     85  C   UNL A   1      44.939  33.430  29.397  1.00  0.00     0.023 A 
ATOM     86  C   UNL A   1      45.806  33.497  30.504  1.00  0.00     0.012 A 
ATOM     87  C   UNL A   1      44.861  34.514  28.503  1.00  0.00     0.148 A 
ATOM     88  C   UNL A   1      46.584  34.631  30.723  1.00  0.00     0.002 A 
ATOM     89  C   UNL A   1      45.661  35.632  28.712  1.00  0.00     0.091 A 
ATOM     90  F   UNL A   1      44.018  34.427  27.465  1.00  0.00    -0.205 F 
ATOM     91  C   UNL A   1      46.520  35.693  29.822  1.00  0.00     0.022 A 
BRANCH  89  92
ATOM     92  S   UNL A   1      45.700  37.019  27.572  1.00  0.00     0.127 S 
ATOM     93  O   UNL A   1      46.668  37.906  28.215  1.00  0.00    -0.237 OA
ATOM     94  O   UNL A   1      46.172  36.392  26.337  1.00  0.00    -0.237 OA
ATOM     95  O   UNL A   1      44.336  37.527  27.510  1.00  0.00    -0.744 OA
ENDBRANCH  89  92
ENDBRANCH  62  85
ENDBRANCH  36  37
ENDBRANCH  28  31
ENDBRANCH  26  27
ENDBRANCH   1  26
TORSDOF 17
ENDMDL
