MODEL 1
REMARK VINA RESULT:     -13.6      0.000      0.000
REMARK SMILES O=C(NCCCCNC(=O)c1nnn(-c2ccc(C(F)(F)F)cc2)c1-c1cccc(Cl)c1)c1ccc(-c2c3nc(c(-c4cccc(S(=O)(=O)[O-])c4F)c4ccc([nH]4)c(-c4cccc(S(=O)(=O)[O-])c4F)c4nc(c(-c5cccc(S(=O)(=O)[O-])c5F)c5ccc2[nH]5)C=C4)C=C3)cc1
REMARK SMILES IDX 5 1 4 2 3 3 1 4 2 5 33 7 34 8 95 9 35 10 94 11 36 12 37 13
REMARK SMILES IDX 38 14 88 15 39 16 93 17 87 18 89 19 40 20 92 21 86 22 85 23
REMARK SMILES IDX 41 25 73 26 53 27 72 28 54 29 57 30 71 31 90 32 55 33 56 34
REMARK SMILES IDX 70 36 91 37 58 38 42 39 43 40 51 41 44 42 46 43 52 44 45 45
REMARK SMILES IDX 47 46 48 47 49 48 50 49 74 50 75 51 83 52 76 53 78 54 84 55
REMARK SMILES IDX 77 56 79 57 80 58 81 59 82 60 59 61 60 62 68 63 61 64 63 65
REMARK SMILES IDX 69 66 62 67 64 68 65 69 66 70 67 71 6 72 7 73 8 74 9 75
REMARK SMILES IDX 10 77 11 78 12 79 25 80 13 81 14 82 26 83 27 84 32 85 28 86
REMARK SMILES IDX 30 87 29 88 31 89 15 90 16 91 24 92 17 93 23 94 18 95 19 96
REMARK SMILES IDX 20 97 21 98 22 99
REMARK H PARENT 3 6 89 24 57 35 8 76
REMARK Flexibility Score: inf
ROOT
ATOM      1  C   UNL A   1      36.937  22.014  24.670  1.00  0.00     0.023 C 
ENDROOT
BRANCH   1   2
ATOM      2  C   UNL A   1      37.800  22.792  25.670  1.00  0.00     0.116 C 
BRANCH   2   3
ATOM      3  N   UNL A   1      39.191  22.392  25.747  1.00  0.00    -0.352 N 
ATOM      4  O   UNL A   1      41.272  22.102  26.428  1.00  0.00    -0.269 OA
ATOM      5  C   UNL A   1      40.269  22.820  26.476  1.00  0.00     0.251 C 
ATOM      6  H   UNL A   1      39.408  21.646  25.144  1.00  0.00     0.163 HD
BRANCH   5   7
ATOM      7  C   UNL A   1      40.326  24.103  27.230  1.00  0.00     0.039 A 
ATOM      8  C   UNL A   1      39.394  25.135  27.125  1.00  0.00     0.014 A 
ATOM      9  C   UNL A   1      41.437  24.287  28.074  1.00  0.00     0.014 A 
ATOM     10  C   UNL A   1      39.629  26.369  27.718  1.00  0.00     0.010 A 
ATOM     11  C   UNL A   1      41.652  25.504  28.713  1.00  0.00     0.010 A 
ATOM     12  C   UNL A   1      40.772  26.561  28.489  1.00  0.00    -0.014 A 
BRANCH  12  13
ATOM     13  C   UNL A   1      40.941  27.862  29.133  1.00  0.00     0.031 A 
ATOM     14  C   UNL A   1      41.984  28.752  28.538  1.00  0.00     0.074 A 
ATOM     15  C   UNL A   1      40.101  28.297  30.094  1.00  0.00     0.049 A 
ATOM     16  N   UNL A   1      42.951  29.384  29.128  1.00  0.00    -0.248 NA
ATOM     17  C   UNL A   1      41.987  28.892  27.073  1.00  0.00     0.031 C 
ATOM     18  C   UNL A   1      38.865  27.649  30.543  1.00  0.00     0.029 A 
ATOM     19  N   UNL A   1      40.083  29.497  30.745  1.00  0.00    -0.354 N 
ATOM     20  C   UNL A   1      43.551  30.165  28.136  1.00  0.00     0.074 A 
ATOM     21  C   UNL A   1      43.014  29.717  26.880  1.00  0.00     0.031 C 
ATOM     22  C   UNL A   1      38.091  28.566  31.160  1.00  0.00     0.029 A 
ATOM     23  C   UNL A   1      38.828  29.814  31.253  1.00  0.00     0.049 A 
ATOM     24  H   UNL A   1      40.873  30.076  30.844  1.00  0.00     0.167 HD
ATOM     25  C   UNL A   1      44.288  31.272  28.423  1.00  0.00     0.034 A 
ATOM     26  C   UNL A   1      38.383  31.041  31.613  1.00  0.00     0.034 A 
ATOM     27  C   UNL A   1      44.769  31.274  29.776  1.00  0.00     0.049 A 
ATOM     28  C   UNL A   1      39.558  31.915  31.818  1.00  0.00     0.074 A 
ATOM     29  C   UNL A   1      45.574  30.454  30.540  1.00  0.00     0.029 A 
ATOM     30  N   UNL A   1      44.171  32.137  30.659  1.00  0.00    -0.354 N 
ATOM     31  N   UNL A   1      40.418  31.771  32.785  1.00  0.00    -0.248 NA
ATOM     32  C   UNL A   1      39.987  32.762  30.717  1.00  0.00     0.031 C 
ATOM     33  C   UNL A   1      45.058  30.560  31.864  1.00  0.00     0.029 A 
ATOM     34  C   UNL A   1      43.982  31.448  31.824  1.00  0.00     0.049 A 
ATOM     35  H   UNL A   1      43.925  33.074  30.486  1.00  0.00     0.167 HD
ATOM     36  C   UNL A   1      41.633  32.146  32.230  1.00  0.00     0.074 A 
ATOM     37  C   UNL A   1      41.285  32.868  31.011  1.00  0.00     0.031 C 
ATOM     38  C   UNL A   1      42.806  31.587  32.654  1.00  0.00     0.034 A 
BRANCH  25  39
ATOM     39  C   UNL A   1      44.297  32.537  27.585  1.00  0.00     0.023 A 
ATOM     40  C   UNL A   1      45.347  32.691  26.647  1.00  0.00     0.012 A 
ATOM     41  C   UNL A   1      43.527  33.687  27.870  1.00  0.00     0.148 A 
ATOM     42  C   UNL A   1      45.656  33.936  26.084  1.00  0.00     0.002 A 
ATOM     43  C   UNL A   1      43.789  34.903  27.247  1.00  0.00     0.091 A 
ATOM     44  F   UNL A   1      42.614  33.662  28.846  1.00  0.00    -0.205 F 
ATOM     45  C   UNL A   1      44.873  35.043  26.380  1.00  0.00     0.022 A 
BRANCH  43  46
ATOM     46  S   UNL A   1      42.760  36.342  27.561  1.00  0.00     0.127 S 
ATOM     47  O   UNL A   1      41.423  35.798  27.348  1.00  0.00    -0.237 OA
ATOM     48  O   UNL A   1      43.088  36.656  28.953  1.00  0.00    -0.237 OA
ATOM     49  O   UNL A   1      43.215  37.346  26.605  1.00  0.00    -0.744 OA
ENDBRANCH  43  46
ENDBRANCH  25  39
BRANCH  26  50
ATOM     50  C   UNL A   1      37.007  31.576  31.531  1.00  0.00     0.023 A 
ATOM     51  C   UNL A   1      36.346  31.993  32.702  1.00  0.00     0.012 A 
ATOM     52  C   UNL A   1      36.425  31.902  30.284  1.00  0.00     0.148 A 
ATOM     53  C   UNL A   1      35.150  32.718  32.633  1.00  0.00     0.002 A 
ATOM     54  C   UNL A   1      35.226  32.604  30.220  1.00  0.00     0.091 A 
ATOM     55  F   UNL A   1      37.093  31.604  29.161  1.00  0.00    -0.205 F 
ATOM     56  C   UNL A   1      34.592  33.024  31.394  1.00  0.00     0.022 A 
BRANCH  54  57
ATOM     57  S   UNL A   1      34.449  33.020  28.654  1.00  0.00     0.127 S 
ATOM     58  O   UNL A   1      33.979  31.714  28.191  1.00  0.00    -0.237 OA
ATOM     59  O   UNL A   1      33.392  33.937  29.074  1.00  0.00    -0.237 OA
ATOM     60  O   UNL A   1      35.504  33.599  27.830  1.00  0.00    -0.744 OA
ENDBRANCH  54  57
ENDBRANCH  26  50
BRANCH  38  61
ATOM     61  C   UNL A   1      42.791  30.764  33.919  1.00  0.00     0.023 A 
ATOM     62  C   UNL A   1      42.915  31.365  35.190  1.00  0.00     0.012 A 
ATOM     63  C   UNL A   1      42.451  29.402  33.840  1.00  0.00     0.148 A 
ATOM     64  C   UNL A   1      42.729  30.619  36.355  1.00  0.00     0.002 A 
ATOM     65  C   UNL A   1      42.220  28.676  35.004  1.00  0.00     0.091 A 
ATOM     66  F   UNL A   1      42.323  28.848  32.626  1.00  0.00    -0.205 F 
ATOM     67  C   UNL A   1      42.369  29.279  36.263  1.00  0.00     0.022 A 
BRANCH  65  68
ATOM     68  S   UNL A   1      41.615  26.987  34.955  1.00  0.00     0.127 S 
ATOM     69  O   UNL A   1      40.486  27.093  34.032  1.00  0.00    -0.237 OA
ATOM     70  O   UNL A   1      42.768  26.253  34.428  1.00  0.00    -0.237 OA
ATOM     71  O   UNL A   1      41.274  26.645  36.331  1.00  0.00    -0.744 OA
ENDBRANCH  65  68
ENDBRANCH  38  61
ENDBRANCH  12  13
ENDBRANCH   5   7
ENDBRANCH   2   3
ENDBRANCH   1   2
BRANCH   1  72
ATOM     72  C   UNL A   1      36.289  22.835  23.556  1.00  0.00     0.023 C 
BRANCH  72  73
ATOM     73  C   UNL A   1      34.804  23.098  23.727  1.00  0.00     0.116 C 
BRANCH  73  74
ATOM     74  N   UNL A   1      34.341  22.988  25.095  1.00  0.00    -0.351 N 
ATOM     75  C   UNL A   1      33.161  23.462  25.636  1.00  0.00     0.274 C 
ATOM     76  H   UNL A   1      34.941  22.518  25.717  1.00  0.00     0.163 HD
ATOM     77  O   UNL A   1      32.947  23.298  26.828  1.00  0.00    -0.267 OA
BRANCH  75  78
ATOM     78  C   UNL A   1      32.210  24.139  24.765  1.00  0.00     0.178 A 
ATOM     79  N   UNL A   1      31.501  23.459  23.803  1.00  0.00    -0.124 NA
ATOM     80  C   UNL A   1      31.817  25.471  24.767  1.00  0.00     0.108 A 
ATOM     81  N   UNL A   1      30.624  24.294  23.263  1.00  0.00    -0.061 NA
ATOM     82  N   UNL A   1      30.877  25.529  23.744  1.00  0.00    -0.212 N 
BRANCH  80  83
ATOM     83  C   UNL A   1      32.099  26.562  25.701  1.00  0.00     0.004 A 
ATOM     84  C   UNL A   1      31.101  26.976  26.606  1.00  0.00     0.010 A 
ATOM     85  C   UNL A   1      33.353  27.174  25.745  1.00  0.00     0.031 A 
ATOM     86  C   UNL A   1      31.351  27.986  27.533  1.00  0.00     0.002 A 
ATOM     87  C   UNL A   1      33.593  28.191  26.671  1.00  0.00     0.041 A 
ATOM     88  C   UNL A   1      32.600  28.597  27.563  1.00  0.00     0.020 A 
ATOM     89  Cl  UNL A   1      35.134  28.955  26.714  1.00  0.00    -0.084 Cl
ENDBRANCH  80  83
BRANCH  82  90
ATOM     90  C   UNL A   1      30.165  26.666  23.298  1.00  0.00     0.067 A 
ATOM     91  C   UNL A   1      28.810  26.797  23.612  1.00  0.00     0.029 A 
ATOM     92  C   UNL A   1      30.854  27.709  22.666  1.00  0.00     0.029 A 
ATOM     93  C   UNL A   1      28.181  28.026  23.399  1.00  0.00     0.015 A 
ATOM     94  C   UNL A   1      30.212  28.922  22.429  1.00  0.00     0.015 A 
ATOM     95  C   UNL A   1      28.881  29.106  22.828  1.00  0.00     0.056 A 
BRANCH  95  96
ATOM     96  C   UNL A   1      28.220  30.456  22.691  1.00  0.00     0.416 C 
ATOM     97  F   UNL A   1      27.313  30.699  23.675  1.00  0.00    -0.166 F 
ATOM     98  F   UNL A   1      29.117  31.479  22.742  1.00  0.00    -0.166 F 
ATOM     99  F   UNL A   1      27.545  30.613  21.516  1.00  0.00    -0.166 F 
ENDBRANCH  95  96
ENDBRANCH  82  90
ENDBRANCH  75  78
ENDBRANCH  73  74
ENDBRANCH  72  73
ENDBRANCH   1  72
TORSDOF 17
ENDMDL
MODEL 2
REMARK VINA RESULT:     -13.6      4.071      9.085
REMARK SMILES O=C(NCCCCNC(=O)c1nnn(-c2ccc(C(F)(F)F)cc2)c1-c1cccc(Cl)c1)c1ccc(-c2c3nc(c(-c4cccc(S(=O)(=O)[O-])c4F)c4ccc([nH]4)c(-c4cccc(S(=O)(=O)[O-])c4F)c4nc(c(-c5cccc(S(=O)(=O)[O-])c5F)c5ccc2[nH]5)C=C4)C=C3)cc1
REMARK SMILES IDX 5 1 4 2 3 3 1 4 2 5 33 7 34 8 95 9 35 10 94 11 36 12 37 13
REMARK SMILES IDX 38 14 88 15 39 16 93 17 87 18 89 19 40 20 92 21 86 22 85 23
REMARK SMILES IDX 41 25 73 26 53 27 72 28 54 29 57 30 71 31 90 32 55 33 56 34
REMARK SMILES IDX 70 36 91 37 58 38 42 39 43 40 51 41 44 42 46 43 52 44 45 45
REMARK SMILES IDX 47 46 48 47 49 48 50 49 74 50 75 51 83 52 76 53 78 54 84 55
REMARK SMILES IDX 77 56 79 57 80 58 81 59 82 60 59 61 60 62 68 63 61 64 63 65
REMARK SMILES IDX 69 66 62 67 64 68 65 69 66 70 67 71 6 72 7 73 8 74 9 75
REMARK SMILES IDX 10 77 11 78 12 79 25 80 13 81 14 82 26 83 27 84 32 85 28 86
REMARK SMILES IDX 30 87 29 88 31 89 15 90 16 91 24 92 17 93 23 94 18 95 19 96
REMARK SMILES IDX 20 97 21 98 22 99
REMARK H PARENT 3 6 89 24 57 35 8 76
REMARK Flexibility Score: inf
ROOT
ATOM      1  C   UNL A   1      32.969  28.736  27.594  1.00  0.00     0.023 C 
ENDROOT
BRANCH   1   2
ATOM      2  C   UNL A   1      33.722  29.918  26.970  1.00  0.00     0.116 C 
BRANCH   2   3
ATOM      3  N   UNL A   1      33.937  31.057  27.840  1.00  0.00    -0.352 N 
ATOM      4  O   UNL A   1      34.871  32.723  28.948  1.00  0.00    -0.269 OA
ATOM      5  C   UNL A   1      35.042  31.621  28.421  1.00  0.00     0.251 C 
ATOM      6  H   UNL A   1      33.104  31.532  28.061  1.00  0.00     0.163 HD
BRANCH   5   7
ATOM      7  C   UNL A   1      36.375  30.963  28.521  1.00  0.00     0.039 A 
ATOM      8  C   UNL A   1      36.636  29.632  28.195  1.00  0.00     0.014 A 
ATOM      9  C   UNL A   1      37.426  31.747  29.029  1.00  0.00     0.014 A 
ATOM     10  C   UNL A   1      37.860  29.052  28.501  1.00  0.00     0.010 A 
ATOM     11  C   UNL A   1      38.672  31.186  29.290  1.00  0.00     0.010 A 
ATOM     12  C   UNL A   1      38.869  29.823  29.074  1.00  0.00    -0.014 A 
BRANCH  12  13
ATOM     13  C   UNL A   1      40.154  29.175  29.325  1.00  0.00     0.031 A 
ATOM     14  C   UNL A   1      40.473  28.895  30.759  1.00  0.00     0.074 A 
ATOM     15  C   UNL A   1      40.927  28.709  28.322  1.00  0.00     0.049 A 
ATOM     16  N   UNL A   1      41.548  29.179  31.425  1.00  0.00    -0.248 NA
ATOM     17  C   UNL A   1      39.411  28.280  31.572  1.00  0.00     0.031 C 
ATOM     18  C   UNL A   1      40.580  28.647  26.900  1.00  0.00     0.029 A 
ATOM     19  N   UNL A   1      42.110  28.032  28.389  1.00  0.00    -0.354 N 
ATOM     20  C   UNL A   1      41.378  28.591  32.682  1.00  0.00     0.074 A 
ATOM     21  C   UNL A   1      40.002  28.181  32.761  1.00  0.00     0.031 C 
ATOM     22  C   UNL A   1      41.376  27.740  26.296  1.00  0.00     0.029 A 
ATOM     23  C   UNL A   1      42.352  27.261  27.258  1.00  0.00     0.049 A 
ATOM     24  H   UNL A   1      42.726  28.083  29.155  1.00  0.00     0.167 HD
ATOM     25  C   UNL A   1      42.426  28.284  33.494  1.00  0.00     0.034 A 
ATOM     26  C   UNL A   1      43.211  26.220  27.152  1.00  0.00     0.034 A 
ATOM     27  C   UNL A   1      43.610  29.028  33.165  1.00  0.00     0.049 A 
ATOM     28  C   UNL A   1      44.179  26.306  28.266  1.00  0.00     0.074 A 
ATOM     29  C   UNL A   1      43.952  30.364  33.108  1.00  0.00     0.029 A 
ATOM     30  N   UNL A   1      44.628  28.354  32.541  1.00  0.00    -0.354 N 
ATOM     31  N   UNL A   1      45.080  27.241  28.383  1.00  0.00    -0.248 NA
ATOM     32  C   UNL A   1      43.916  25.534  29.470  1.00  0.00     0.031 C 
ATOM     33  C   UNL A   1      44.908  30.455  32.054  1.00  0.00     0.029 A 
ATOM     34  C   UNL A   1      45.094  29.167  31.547  1.00  0.00     0.049 A 
ATOM     35  H   UNL A   1      44.961  27.456  32.767  1.00  0.00     0.167 HD
ATOM     36  C   UNL A   1      45.183  27.457  29.750  1.00  0.00     0.074 A 
ATOM     37  C   UNL A   1      44.551  26.294  30.365  1.00  0.00     0.031 C 
ATOM     38  C   UNL A   1      45.507  28.687  30.247  1.00  0.00     0.034 A 
BRANCH  25  39
ATOM     39  C   UNL A   1      42.494  27.053  34.379  1.00  0.00     0.023 A 
ATOM     40  C   UNL A   1      42.059  27.189  35.719  1.00  0.00     0.012 A 
ATOM     41  C   UNL A   1      43.222  25.884  34.063  1.00  0.00     0.148 A 
ATOM     42  C   UNL A   1      42.394  26.249  36.702  1.00  0.00     0.002 A 
ATOM     43  C   UNL A   1      43.484  24.916  35.028  1.00  0.00     0.091 A 
ATOM     44  F   UNL A   1      43.791  25.748  32.861  1.00  0.00    -0.205 F 
ATOM     45  C   UNL A   1      43.103  25.109  36.356  1.00  0.00     0.022 A 
BRANCH  43  46
ATOM     46  S   UNL A   1      44.348  23.399  34.602  1.00  0.00     0.127 S 
ATOM     47  O   UNL A   1      44.510  22.777  35.912  1.00  0.00    -0.237 OA
ATOM     48  O   UNL A   1      43.389  22.737  33.715  1.00  0.00    -0.237 OA
ATOM     49  O   UNL A   1      45.568  23.836  33.932  1.00  0.00    -0.744 OA
ENDBRANCH  43  46
ENDBRANCH  25  39
BRANCH  26  50
ATOM     50  C   UNL A   1      43.085  25.011  26.309  1.00  0.00     0.023 A 
ATOM     51  C   UNL A   1      43.979  24.805  25.242  1.00  0.00     0.012 A 
ATOM     52  C   UNL A   1      42.244  23.941  26.692  1.00  0.00     0.148 A 
ATOM     53  C   UNL A   1      44.040  23.570  24.583  1.00  0.00     0.002 A 
ATOM     54  C   UNL A   1      42.291  22.724  26.020  1.00  0.00     0.091 A 
ATOM     55  F   UNL A   1      41.462  24.086  27.770  1.00  0.00    -0.205 F 
ATOM     56  C   UNL A   1      43.197  22.531  24.972  1.00  0.00     0.022 A 
BRANCH  54  57
ATOM     57  S   UNL A   1      41.224  21.348  26.467  1.00  0.00     0.127 S 
ATOM     58  O   UNL A   1      41.741  20.274  25.618  1.00  0.00    -0.237 OA
ATOM     59  O   UNL A   1      41.508  21.193  27.891  1.00  0.00    -0.237 OA
ATOM     60  O   UNL A   1      39.870  21.772  26.130  1.00  0.00    -0.744 OA
ENDBRANCH  54  57
ENDBRANCH  26  50
BRANCH  38  61
ATOM     61  C   UNL A   1      46.022  29.734  29.290  1.00  0.00     0.023 A 
ATOM     62  C   UNL A   1      47.393  29.828  28.969  1.00  0.00     0.012 A 
ATOM     63  C   UNL A   1      45.097  30.498  28.557  1.00  0.00     0.148 A 
ATOM     64  C   UNL A   1      47.834  30.683  27.957  1.00  0.00     0.002 A 
ATOM     65  C   UNL A   1      45.538  31.312  27.519  1.00  0.00     0.091 A 
ATOM     66  F   UNL A   1      43.796  30.388  28.864  1.00  0.00    -0.205 F 
ATOM     67  C   UNL A   1      46.906  31.415  27.224  1.00  0.00     0.022 A 
BRANCH  65  68
ATOM     68  S   UNL A   1      44.386  32.171  26.442  1.00  0.00     0.127 S 
ATOM     69  O   UNL A   1      45.255  32.610  25.353  1.00  0.00    -0.237 OA
ATOM     70  O   UNL A   1      43.441  31.112  26.082  1.00  0.00    -0.237 OA
ATOM     71  O   UNL A   1      43.802  33.235  27.250  1.00  0.00    -0.744 OA
ENDBRANCH  65  68
ENDBRANCH  38  61
ENDBRANCH  12  13
ENDBRANCH   5   7
ENDBRANCH   2   3
ENDBRANCH   1   2
BRANCH   1  72
ATOM     72  C   UNL A   1      31.794  28.185  26.787  1.00  0.00     0.023 C 
BRANCH  72  73
ATOM     73  C   UNL A   1      32.103  26.957  25.951  1.00  0.00     0.116 C 
BRANCH  73  74
ATOM     74  N   UNL A   1      32.687  27.257  24.659  1.00  0.00    -0.351 N 
ATOM     75  C   UNL A   1      32.835  26.415  23.574  1.00  0.00     0.274 C 
ATOM     76  H   UNL A   1      33.020  28.176  24.539  1.00  0.00     0.163 HD
ATOM     77  O   UNL A   1      33.379  26.837  22.564  1.00  0.00    -0.267 OA
BRANCH  75  78
ATOM     78  C   UNL A   1      32.334  25.049  23.671  1.00  0.00     0.178 A 
ATOM     79  N   UNL A   1      31.015  24.746  23.432  1.00  0.00    -0.124 NA
ATOM     80  C   UNL A   1      33.032  23.879  23.939  1.00  0.00     0.108 A 
ATOM     81  N   UNL A   1      30.878  23.428  23.458  1.00  0.00    -0.061 NA
ATOM     82  N   UNL A   1      32.049  22.898  23.873  1.00  0.00    -0.212 N 
BRANCH  80  83
ATOM     83  C   UNL A   1      34.466  23.613  24.058  1.00  0.00     0.004 A 
ATOM     84  C   UNL A   1      35.148  22.993  22.993  1.00  0.00     0.010 A 
ATOM     85  C   UNL A   1      35.184  24.001  25.191  1.00  0.00     0.031 A 
ATOM     86  C   UNL A   1      36.520  22.759  23.061  1.00  0.00     0.002 A 
ATOM     87  C   UNL A   1      36.557  23.757  25.255  1.00  0.00     0.041 A 
ATOM     88  C   UNL A   1      37.226  23.140  24.197  1.00  0.00     0.020 A 
ATOM     89  Cl  UNL A   1      37.438  24.222  26.658  1.00  0.00    -0.084 Cl
ENDBRANCH  80  83
BRANCH  82  90
ATOM     90  C   UNL A   1      32.207  21.510  24.088  1.00  0.00     0.067 A 
ATOM     91  C   UNL A   1      32.122  20.631  23.005  1.00  0.00     0.029 A 
ATOM     92  C   UNL A   1      32.582  21.045  25.355  1.00  0.00     0.029 A 
ATOM     93  C   UNL A   1      32.532  19.307  23.173  1.00  0.00     0.015 A 
ATOM     94  C   UNL A   1      32.962  19.716  25.522  1.00  0.00     0.015 A 
ATOM     95  C   UNL A   1      32.978  18.842  24.425  1.00  0.00     0.056 A 
BRANCH  95  96
ATOM     96  C   UNL A   1      33.509  17.437  24.573  1.00  0.00     0.416 C 
ATOM     97  F   UNL A   1      33.083  16.609  23.581  1.00  0.00    -0.166 F 
ATOM     98  F   UNL A   1      34.869  17.393  24.546  1.00  0.00    -0.166 F 
ATOM     99  F   UNL A   1      33.141  16.839  25.742  1.00  0.00    -0.166 F 
ENDBRANCH  95  96
ENDBRANCH  82  90
ENDBRANCH  75  78
ENDBRANCH  73  74
ENDBRANCH  72  73
ENDBRANCH   1  72
TORSDOF 17
ENDMDL
MODEL 3
REMARK VINA RESULT:     -13.1      4.168      8.971
REMARK SMILES O=C(NCCCCNC(=O)c1nnn(-c2ccc(C(F)(F)F)cc2)c1-c1cccc(Cl)c1)c1ccc(-c2c3nc(c(-c4cccc(S(=O)(=O)[O-])c4F)c4ccc([nH]4)c(-c4cccc(S(=O)(=O)[O-])c4F)c4nc(c(-c5cccc(S(=O)(=O)[O-])c5F)c5ccc2[nH]5)C=C4)C=C3)cc1
REMARK SMILES IDX 5 1 4 2 3 3 1 4 2 5 33 7 34 8 95 9 35 10 94 11 36 12 37 13
REMARK SMILES IDX 38 14 88 15 39 16 93 17 87 18 89 19 40 20 92 21 86 22 85 23
REMARK SMILES IDX 41 25 73 26 53 27 72 28 54 29 57 30 71 31 90 32 55 33 56 34
REMARK SMILES IDX 70 36 91 37 58 38 42 39 43 40 51 41 44 42 46 43 52 44 45 45
REMARK SMILES IDX 47 46 48 47 49 48 50 49 74 50 75 51 83 52 76 53 78 54 84 55
REMARK SMILES IDX 77 56 79 57 80 58 81 59 82 60 59 61 60 62 68 63 61 64 63 65
REMARK SMILES IDX 69 66 62 67 64 68 65 69 66 70 67 71 6 72 7 73 8 74 9 75
REMARK SMILES IDX 10 77 11 78 12 79 25 80 13 81 14 82 26 83 27 84 32 85 28 86
REMARK SMILES IDX 30 87 29 88 31 89 15 90 16 91 24 92 17 93 23 94 18 95 19 96
REMARK SMILES IDX 20 97 21 98 22 99
REMARK H PARENT 3 6 89 24 57 35 8 76
REMARK Flexibility Score: inf
ROOT
ATOM      1  C   UNL A   1      31.886  29.271  27.046  1.00  0.00     0.023 C 
ENDROOT
BRANCH   1   2
ATOM      2  C   UNL A   1      33.122  30.128  26.744  1.00  0.00     0.116 C 
BRANCH   2   3
ATOM      3  N   UNL A   1      33.252  31.342  27.525  1.00  0.00    -0.352 N 
ATOM      4  O   UNL A   1      34.068  33.134  28.524  1.00  0.00    -0.269 OA
ATOM      5  C   UNL A   1      34.308  32.003  28.094  1.00  0.00     0.251 C 
ATOM      6  H   UNL A   1      32.391  31.792  27.679  1.00  0.00     0.163 HD
BRANCH   5   7
ATOM      7  C   UNL A   1      35.665  31.420  28.291  1.00  0.00     0.039 A 
ATOM      8  C   UNL A   1      35.975  30.064  28.196  1.00  0.00     0.014 A 
ATOM      9  C   UNL A   1      36.688  32.317  28.646  1.00  0.00     0.014 A 
ATOM     10  C   UNL A   1      37.221  29.589  28.583  1.00  0.00     0.010 A 
ATOM     11  C   UNL A   1      37.956  31.855  28.986  1.00  0.00     0.010 A 
ATOM     12  C   UNL A   1      38.202  30.483  29.005  1.00  0.00    -0.014 A 
BRANCH  12  13
ATOM     13  C   UNL A   1      39.511  29.934  29.350  1.00  0.00     0.031 A 
ATOM     14  C   UNL A   1      39.963  30.161  30.757  1.00  0.00     0.074 A 
ATOM     15  C   UNL A   1      40.195  29.135  28.506  1.00  0.00     0.049 A 
ATOM     16  N   UNL A   1      41.091  30.635  31.186  1.00  0.00    -0.248 NA
ATOM     17  C   UNL A   1      38.986  29.888  31.824  1.00  0.00     0.031 C 
ATOM     18  C   UNL A   1      39.722  28.592  27.230  1.00  0.00     0.029 A 
ATOM     19  N   UNL A   1      41.387  28.497  28.698  1.00  0.00    -0.354 N 
ATOM     20  C   UNL A   1      41.042  30.521  32.579  1.00  0.00     0.074 A 
ATOM     21  C   UNL A   1      39.683  30.193  32.916  1.00  0.00     0.031 C 
ATOM     22  C   UNL A   1      40.469  27.515  26.909  1.00  0.00     0.029 A 
ATOM     23  C   UNL A   1      41.534  27.378  27.886  1.00  0.00     0.049 A 
ATOM     24  H   UNL A   1      42.070  28.797  29.341  1.00  0.00     0.167 HD
ATOM     25  C   UNL A   1      42.162  30.492  33.350  1.00  0.00     0.034 A 
ATOM     26  C   UNL A   1      42.391  26.346  28.072  1.00  0.00     0.034 A 
ATOM     27  C   UNL A   1      43.303  31.051  32.680  1.00  0.00     0.049 A 
ATOM     28  C   UNL A   1      43.455  26.792  28.996  1.00  0.00     0.074 A 
ATOM     29  C   UNL A   1      43.624  32.277  32.134  1.00  0.00     0.029 A 
ATOM     30  N   UNL A   1      44.268  30.182  32.240  1.00  0.00    -0.354 N 
ATOM     31  N   UNL A   1      44.353  27.690  28.702  1.00  0.00    -0.248 NA
ATOM     32  C   UNL A   1      43.311  26.489  30.411  1.00  0.00     0.031 C 
ATOM     33  C   UNL A   1      44.479  31.978  31.033  1.00  0.00     0.029 A 
ATOM     34  C   UNL A   1      44.633  30.591  30.989  1.00  0.00     0.049 A 
ATOM     35  H   UNL A   1      44.629  29.410  32.733  1.00  0.00     0.167 HD
ATOM     36  C   UNL A   1      44.577  28.362  29.895  1.00  0.00     0.074 A 
ATOM     37  C   UNL A   1      44.016  27.498  30.927  1.00  0.00     0.031 C 
ATOM     38  C   UNL A   1      44.932  29.682  29.904  1.00  0.00     0.034 A 
BRANCH  25  39
ATOM     39  C   UNL A   1      42.323  29.642  34.597  1.00  0.00     0.023 A 
ATOM     40  C   UNL A   1      43.007  30.218  35.695  1.00  0.00     0.012 A 
ATOM     41  C   UNL A   1      42.113  28.245  34.641  1.00  0.00     0.148 A 
ATOM     42  C   UNL A   1      43.515  29.435  36.739  1.00  0.00     0.002 A 
ATOM     43  C   UNL A   1      42.551  27.485  35.721  1.00  0.00     0.091 A 
ATOM     44  F   UNL A   1      41.606  27.605  33.583  1.00  0.00    -0.205 F 
ATOM     45  C   UNL A   1      43.283  28.068  36.755  1.00  0.00     0.022 A 
BRANCH  43  46
ATOM     46  S   UNL A   1      42.217  25.721  35.804  1.00  0.00     0.127 S 
ATOM     47  O   UNL A   1      42.653  25.404  37.160  1.00  0.00    -0.237 OA
ATOM     48  O   UNL A   1      40.769  25.672  35.590  1.00  0.00    -0.237 OA
ATOM     49  O   UNL A   1      42.995  25.139  34.716  1.00  0.00    -0.744 OA
ENDBRANCH  43  46
ENDBRANCH  25  39
BRANCH  26  50
ATOM     50  C   UNL A   1      42.203  24.923  27.715  1.00  0.00     0.023 A 
ATOM     51  C   UNL A   1      41.004  24.268  28.054  1.00  0.00     0.012 A 
ATOM     52  C   UNL A   1      43.094  24.270  26.833  1.00  0.00     0.148 A 
ATOM     53  C   UNL A   1      40.699  23.008  27.525  1.00  0.00     0.002 A 
ATOM     54  C   UNL A   1      42.798  23.008  26.328  1.00  0.00     0.091 A 
ATOM     55  F   UNL A   1      44.189  24.922  26.419  1.00  0.00    -0.205 F 
ATOM     56  C   UNL A   1      41.594  22.379  26.663  1.00  0.00     0.022 A 
BRANCH  54  57
ATOM     57  S   UNL A   1      43.915  22.139  25.220  1.00  0.00     0.127 S 
ATOM     58  O   UNL A   1      43.816  22.940  23.999  1.00  0.00    -0.237 OA
ATOM     59  O   UNL A   1      45.190  22.252  25.924  1.00  0.00    -0.237 OA
ATOM     60  O   UNL A   1      43.375  20.791  25.091  1.00  0.00    -0.744 OA
ENDBRANCH  54  57
ENDBRANCH  26  50
BRANCH  38  61
ATOM     61  C   UNL A   1      45.346  30.322  28.602  1.00  0.00     0.023 A 
ATOM     62  C   UNL A   1      44.392  30.809  27.684  1.00  0.00     0.012 A 
ATOM     63  C   UNL A   1      46.704  30.618  28.392  1.00  0.00     0.148 A 
ATOM     64  C   UNL A   1      44.784  31.550  26.568  1.00  0.00     0.002 A 
ATOM     65  C   UNL A   1      47.085  31.396  27.305  1.00  0.00     0.091 A 
ATOM     66  F   UNL A   1      47.599  30.161  29.281  1.00  0.00    -0.205 F 
ATOM     67  C   UNL A   1      46.129  31.855  26.385  1.00  0.00     0.022 A 
BRANCH  65  68
ATOM     68  S   UNL A   1      48.781  31.947  27.088  1.00  0.00     0.127 S 
ATOM     69  O   UNL A   1      49.092  32.501  28.404  1.00  0.00    -0.237 OA
ATOM     70  O   UNL A   1      49.479  30.700  26.769  1.00  0.00    -0.237 OA
ATOM     71  O   UNL A   1      48.751  32.907  25.991  1.00  0.00    -0.744 OA
ENDBRANCH  65  68
ENDBRANCH  38  61
ENDBRANCH  12  13
ENDBRANCH   5   7
ENDBRANCH   2   3
ENDBRANCH   1   2
BRANCH   1  72
ATOM     72  C   UNL A   1      32.127  27.769  27.189  1.00  0.00     0.023 C 
BRANCH  72  73
ATOM     73  C   UNL A   1      31.707  26.930  25.996  1.00  0.00     0.116 C 
BRANCH  73  74
ATOM     74  N   UNL A   1      32.432  27.233  24.779  1.00  0.00    -0.351 N 
ATOM     75  C   UNL A   1      32.736  26.383  23.733  1.00  0.00     0.274 C 
ATOM     76  H   UNL A   1      32.750  28.160  24.686  1.00  0.00     0.163 HD
ATOM     77  O   UNL A   1      33.384  26.810  22.789  1.00  0.00    -0.267 OA
BRANCH  75  78
ATOM     78  C   UNL A   1      32.268  25.003  23.790  1.00  0.00     0.178 A 
ATOM     79  N   UNL A   1      30.956  24.676  23.545  1.00  0.00    -0.124 NA
ATOM     80  C   UNL A   1      32.995  23.843  24.021  1.00  0.00     0.108 A 
ATOM     81  N   UNL A   1      30.851  23.354  23.533  1.00  0.00    -0.061 NA
ATOM     82  N   UNL A   1      32.035  22.841  23.929  1.00  0.00    -0.212 N 
BRANCH  80  83
ATOM     83  C   UNL A   1      34.436  23.608  24.129  1.00  0.00     0.004 A 
ATOM     84  C   UNL A   1      35.121  22.998  23.060  1.00  0.00     0.010 A 
ATOM     85  C   UNL A   1      35.155  24.017  25.254  1.00  0.00     0.031 A 
ATOM     86  C   UNL A   1      36.499  22.794  23.117  1.00  0.00     0.002 A 
ATOM     87  C   UNL A   1      36.533  23.802  25.307  1.00  0.00     0.041 A 
ATOM     88  C   UNL A   1      37.206  23.195  24.245  1.00  0.00     0.020 A 
ATOM     89  Cl  UNL A   1      37.417  24.292  26.700  1.00  0.00    -0.084 Cl
ENDBRANCH  80  83
BRANCH  82  90
ATOM     90  C   UNL A   1      32.228  21.451  24.102  1.00  0.00     0.067 A 
ATOM     91  C   UNL A   1      32.119  20.598  23.000  1.00  0.00     0.029 A 
ATOM     92  C   UNL A   1      32.659  20.962  25.341  1.00  0.00     0.029 A 
ATOM     93  C   UNL A   1      32.560  19.278  23.119  1.00  0.00     0.015 A 
ATOM     94  C   UNL A   1      33.070  19.637  25.460  1.00  0.00     0.015 A 
ATOM     95  C   UNL A   1      33.061  18.791  24.341  1.00  0.00     0.056 A 
BRANCH  95  96
ATOM     96  C   UNL A   1      33.624  17.394  24.432  1.00  0.00     0.416 C 
ATOM     97  F   UNL A   1      33.313  16.779  25.606  1.00  0.00    -0.166 F 
ATOM     98  F   UNL A   1      33.157  16.583  23.444  1.00  0.00    -0.166 F 
ATOM     99  F   UNL A   1      34.983  17.349  24.338  1.00  0.00    -0.166 F 
ENDBRANCH  95  96
ENDBRANCH  82  90
ENDBRANCH  75  78
ENDBRANCH  73  74
ENDBRANCH  72  73
ENDBRANCH   1  72
TORSDOF 17
ENDMDL
