MODEL 1
REMARK VINA RESULT:     -11.6      0.000      0.000
REMARK SMILES O=C(/C=C/c1ccccc1Oc1cccc(Cl)c1)NCCCCNC(=O)c1ccc(-c2c3nc(c(-c4cccc(S(=O)(=O)[O-])c4F)c4ccc([nH]4)c(-c4cccc(S(=O)(=O)[O-])c4F)c4nc(c(-c5cccc(S(=O)(=O)[O-])c5F)c5ccc2[nH]5)C=C4)C=C3)cc1
REMARK SMILES IDX 21 1 20 2 19 3 1 4 2 5 3 7 4 8 5 9 6 10 10 11 7 12 9 13 8 14
REMARK SMILES IDX 11 15 12 16 13 17 18 18 14 19 16 20 15 21 17 22 22 23 23 24
REMARK SMILES IDX 24 25 25 26 26 28 27 29 28 30 89 31 29 32 88 33 30 34 31 35
REMARK SMILES IDX 32 36 82 37 33 38 87 39 81 40 83 41 34 42 86 43 80 44 79 45
REMARK SMILES IDX 35 47 67 48 47 49 66 50 48 51 51 52 65 53 84 54 49 55 50 56
REMARK SMILES IDX 64 58 85 59 52 60 36 61 37 62 45 63 38 64 40 65 46 66 39 67
REMARK SMILES IDX 41 68 42 69 43 70 44 71 68 72 69 73 77 74 70 75 72 76 78 77
REMARK SMILES IDX 71 78 73 79 74 80 75 81 76 82 53 83 54 84 62 85 55 86 57 87
REMARK SMILES IDX 63 88 56 89 58 90 59 91 60 92 61 93
REMARK H PARENT 19 6 24 27 83 46 51 57
REMARK Flexibility Score: inf
ROOT
ATOM      1  C   UNL A   1      36.338  20.406  24.975  1.00  0.00     0.023 C 
ENDROOT
BRANCH   1   2
ATOM      2  C   UNL A   1      36.203  21.418  26.109  1.00  0.00     0.116 C 
BRANCH   2   3
ATOM      3  N   UNL A   1      35.265  22.476  25.804  1.00  0.00    -0.353 N 
ATOM      4  O   UNL A   1      36.831  24.006  25.121  1.00  0.00    -0.270 OA
ATOM      5  C   UNL A   1      35.661  23.694  25.312  1.00  0.00     0.244 C 
ATOM      6  H   UNL A   1      34.304  22.315  25.954  1.00  0.00     0.163 HD
BRANCH   5   7
ATOM      7  C   UNL A   1      34.574  24.615  24.887  1.00  0.00     0.072 C 
ATOM      8  C   UNL A   1      33.675  25.194  25.697  1.00  0.00     0.017 C 
BRANCH   8   9
ATOM      9  C   UNL A   1      32.511  25.943  25.202  1.00  0.00     0.017 A 
ATOM     10  C   UNL A   1      32.763  27.286  24.861  1.00  0.00     0.012 A 
ATOM     11  C   UNL A   1      31.193  25.453  25.090  1.00  0.00     0.134 A 
ATOM     12  C   UNL A   1      31.746  28.119  24.390  1.00  0.00     0.001 A 
ATOM     13  C   UNL A   1      30.184  26.304  24.603  1.00  0.00     0.048 A 
ATOM     14  C   UNL A   1      30.456  27.627  24.258  1.00  0.00     0.004 A 
BRANCH  11  15
ATOM     15  O   UNL A   1      30.713  24.179  25.328  1.00  0.00    -0.457 OA
BRANCH  15  16
ATOM     16  C   UNL A   1      31.281  23.075  24.752  1.00  0.00     0.128 A 
ATOM     17  C   UNL A   1      31.441  23.118  23.363  1.00  0.00     0.047 A 
ATOM     18  C   UNL A   1      31.648  21.937  25.469  1.00  0.00     0.067 A 
ATOM     19  C   UNL A   1      32.053  22.059  22.694  1.00  0.00     0.005 A 
ATOM     20  C   UNL A   1      32.271  20.887  24.794  1.00  0.00     0.044 A 
ATOM     21  C   UNL A   1      32.480  20.945  23.414  1.00  0.00     0.021 A 
ATOM     22  Cl  UNL A   1      32.856  19.532  25.679  1.00  0.00    -0.084 Cl
ENDBRANCH  15  16
ENDBRANCH  11  15
ENDBRANCH   8   9
ENDBRANCH   5   7
ENDBRANCH   2   3
ENDBRANCH   1   2
BRANCH   1  23
ATOM     23  C   UNL A   1      37.776  19.974  24.677  1.00  0.00     0.023 C 
BRANCH  23  24
ATOM     24  C   UNL A   1      38.808  20.361  25.733  1.00  0.00     0.116 C 
BRANCH  24  25
ATOM     25  N   UNL A   1      39.823  19.335  25.927  1.00  0.00    -0.352 N 
ATOM     26  C   UNL A   1      41.166  19.470  26.181  1.00  0.00     0.251 C 
ATOM     27  H   UNL A   1      39.498  18.408  25.868  1.00  0.00     0.163 HD
ATOM     28  O   UNL A   1      41.896  18.480  26.143  1.00  0.00    -0.269 OA
BRANCH  26  29
ATOM     29  C   UNL A   1      41.743  20.801  26.476  1.00  0.00     0.039 A 
ATOM     30  C   UNL A   1      42.032  21.663  25.414  1.00  0.00     0.014 A 
ATOM     31  C   UNL A   1      42.009  21.199  27.789  1.00  0.00     0.014 A 
ATOM     32  C   UNL A   1      42.521  22.947  25.676  1.00  0.00     0.010 A 
ATOM     33  C   UNL A   1      42.421  22.504  28.050  1.00  0.00     0.010 A 
ATOM     34  C   UNL A   1      42.683  23.394  26.998  1.00  0.00    -0.014 A 
BRANCH  34  35
ATOM     35  C   UNL A   1      43.107  24.789  27.294  1.00  0.00     0.031 A 
ATOM     36  C   UNL A   1      42.150  25.761  27.930  1.00  0.00     0.074 A 
ATOM     37  C   UNL A   1      44.332  25.208  26.916  1.00  0.00     0.049 A 
ATOM     38  N   UNL A   1      42.325  27.027  28.210  1.00  0.00    -0.248 NA
ATOM     39  C   UNL A   1      40.811  25.253  28.272  1.00  0.00     0.031 C 
ATOM     40  C   UNL A   1      45.329  24.389  26.222  1.00  0.00     0.029 A 
ATOM     41  N   UNL A   1      44.937  26.435  27.035  1.00  0.00    -0.354 N 
ATOM     42  C   UNL A   1      41.115  27.475  28.730  1.00  0.00     0.074 A 
ATOM     43  C   UNL A   1      40.202  26.352  28.691  1.00  0.00     0.031 C 
ATOM     44  C   UNL A   1      46.419  25.133  25.980  1.00  0.00     0.029 A 
ATOM     45  C   UNL A   1      46.189  26.490  26.467  1.00  0.00     0.049 A 
ATOM     46  H   UNL A   1      44.515  27.202  27.483  1.00  0.00     0.167 HD
ATOM     47  C   UNL A   1      40.798  28.697  29.220  1.00  0.00     0.034 A 
ATOM     48  C   UNL A   1      47.051  27.518  26.337  1.00  0.00     0.034 A 
ATOM     49  C   UNL A   1      41.716  29.803  29.285  1.00  0.00     0.049 A 
ATOM     50  C   UNL A   1      46.685  28.860  26.910  1.00  0.00     0.074 A 
ATOM     51  C   UNL A   1      41.514  31.057  29.838  1.00  0.00     0.029 A 
ATOM     52  N   UNL A   1      43.002  29.798  28.769  1.00  0.00    -0.354 N 
ATOM     53  N   UNL A   1      45.592  29.219  27.535  1.00  0.00    -0.248 NA
ATOM     54  C   UNL A   1      47.688  29.928  26.793  1.00  0.00     0.031 C 
ATOM     55  C   UNL A   1      42.667  31.820  29.624  1.00  0.00     0.029 A 
ATOM     56  C   UNL A   1      43.602  31.029  28.977  1.00  0.00     0.049 A 
ATOM     57  H   UNL A   1      43.428  29.032  28.320  1.00  0.00     0.167 HD
ATOM     58  C   UNL A   1      45.787  30.542  27.918  1.00  0.00     0.074 A 
ATOM     59  C   UNL A   1      47.115  30.913  27.471  1.00  0.00     0.031 C 
ATOM     60  C   UNL A   1      44.940  31.375  28.569  1.00  0.00     0.034 A 
BRANCH  47  61
ATOM     61  C   UNL A   1      39.408  28.892  29.769  1.00  0.00     0.023 A 
ATOM     62  C   UNL A   1      39.119  28.505  31.094  1.00  0.00     0.012 A 
ATOM     63  C   UNL A   1      38.402  29.507  28.997  1.00  0.00     0.148 A 
ATOM     64  C   UNL A   1      37.844  28.687  31.627  1.00  0.00     0.002 A 
ATOM     65  C   UNL A   1      37.147  29.730  29.551  1.00  0.00     0.091 A 
ATOM     66  F   UNL A   1      38.688  29.852  27.733  1.00  0.00    -0.205 F 
ATOM     67  C   UNL A   1      36.862  29.309  30.860  1.00  0.00     0.022 A 
BRANCH  65  68
ATOM     68  S   UNL A   1      35.839  30.597  28.676  1.00  0.00     0.127 S 
ATOM     69  O   UNL A   1      36.608  31.464  27.783  1.00  0.00    -0.237 OA
ATOM     70  O   UNL A   1      35.140  29.500  28.006  1.00  0.00    -0.237 OA
ATOM     71  O   UNL A   1      35.060  31.284  29.695  1.00  0.00    -0.744 OA
ENDBRANCH  65  68
ENDBRANCH  47  61
BRANCH  48  72
ATOM     72  C   UNL A   1      48.369  27.304  25.673  1.00  0.00     0.023 A 
ATOM     73  C   UNL A   1      49.472  26.876  26.436  1.00  0.00     0.012 A 
ATOM     74  C   UNL A   1      48.527  27.498  24.287  1.00  0.00     0.148 A 
ATOM     75  C   UNL A   1      50.717  26.677  25.837  1.00  0.00     0.002 A 
ATOM     76  C   UNL A   1      49.754  27.242  23.687  1.00  0.00     0.091 A 
ATOM     77  F   UNL A   1      47.466  27.915  23.580  1.00  0.00    -0.205 F 
ATOM     78  C   UNL A   1      50.856  26.850  24.464  1.00  0.00     0.022 A 
BRANCH  76  79
ATOM     79  S   UNL A   1      49.991  27.312  21.909  1.00  0.00     0.127 S 
ATOM     80  O   UNL A   1      51.368  26.846  21.771  1.00  0.00    -0.237 OA
ATOM     81  O   UNL A   1      48.972  26.376  21.434  1.00  0.00    -0.237 OA
ATOM     82  O   UNL A   1      49.755  28.700  21.533  1.00  0.00    -0.744 OA
ENDBRANCH  76  79
ENDBRANCH  48  72
BRANCH  60  83
ATOM     83  C   UNL A   1      45.429  32.767  28.884  1.00  0.00     0.023 A 
ATOM     84  C   UNL A   1      46.167  33.009  30.060  1.00  0.00     0.012 A 
ATOM     85  C   UNL A   1      45.215  33.822  27.975  1.00  0.00     0.148 A 
ATOM     86  C   UNL A   1      46.651  34.285  30.343  1.00  0.00     0.002 A 
ATOM     87  C   UNL A   1      45.747  35.079  28.238  1.00  0.00     0.091 A 
ATOM     88  F   UNL A   1      44.496  33.577  26.869  1.00  0.00    -0.205 F 
ATOM     89  C   UNL A   1      46.453  35.315  29.427  1.00  0.00     0.022 A 
BRANCH  87  90
ATOM     90  S   UNL A   1      45.627  36.441  27.071  1.00  0.00     0.127 S 
ATOM     91  O   UNL A   1      46.265  35.872  25.885  1.00  0.00    -0.237 OA
ATOM     92  O   UNL A   1      44.179  36.622  26.958  1.00  0.00    -0.237 OA
ATOM     93  O   UNL A   1      46.332  37.559  27.683  1.00  0.00    -0.744 OA
ENDBRANCH  87  90
ENDBRANCH  60  83
ENDBRANCH  34  35
ENDBRANCH  26  29
ENDBRANCH  24  25
ENDBRANCH  23  24
ENDBRANCH   1  23
TORSDOF 17
ENDMDL
MODEL 2
REMARK VINA RESULT:     -11.5      6.357     11.415
REMARK SMILES O=C(/C=C/c1ccccc1Oc1cccc(Cl)c1)NCCCCNC(=O)c1ccc(-c2c3nc(c(-c4cccc(S(=O)(=O)[O-])c4F)c4ccc([nH]4)c(-c4cccc(S(=O)(=O)[O-])c4F)c4nc(c(-c5cccc(S(=O)(=O)[O-])c5F)c5ccc2[nH]5)C=C4)C=C3)cc1
REMARK SMILES IDX 21 1 20 2 19 3 1 4 2 5 3 7 4 8 5 9 6 10 10 11 7 12 9 13 8 14
REMARK SMILES IDX 11 15 12 16 13 17 18 18 14 19 16 20 15 21 17 22 22 23 23 24
REMARK SMILES IDX 24 25 25 26 26 28 27 29 28 30 89 31 29 32 88 33 30 34 31 35
REMARK SMILES IDX 32 36 82 37 33 38 87 39 81 40 83 41 34 42 86 43 80 44 79 45
REMARK SMILES IDX 35 47 67 48 47 49 66 50 48 51 51 52 65 53 84 54 49 55 50 56
REMARK SMILES IDX 64 58 85 59 52 60 36 61 37 62 45 63 38 64 40 65 46 66 39 67
REMARK SMILES IDX 41 68 42 69 43 70 44 71 68 72 69 73 77 74 70 75 72 76 78 77
REMARK SMILES IDX 71 78 73 79 74 80 75 81 76 82 53 83 54 84 62 85 55 86 57 87
REMARK SMILES IDX 63 88 56 89 58 90 59 91 60 92 61 93
REMARK H PARENT 19 6 24 27 83 46 51 57
REMARK Flexibility Score: inf
ROOT
ATOM      1  C   UNL A   1      31.382  30.576  25.855  1.00  0.00     0.023 C 
ENDROOT
BRANCH   1   2
ATOM      2  C   UNL A   1      32.795  30.086  25.552  1.00  0.00     0.116 C 
BRANCH   2   3
ATOM      3  N   UNL A   1      32.846  28.665  25.287  1.00  0.00    -0.353 N 
ATOM      4  O   UNL A   1      34.424  28.173  26.878  1.00  0.00    -0.270 OA
ATOM      5  C   UNL A   1      33.656  27.812  25.993  1.00  0.00     0.244 C 
ATOM      6  H   UNL A   1      32.278  28.295  24.572  1.00  0.00     0.163 HD
BRANCH   5   7
ATOM      7  C   UNL A   1      33.475  26.361  25.723  1.00  0.00     0.072 C 
ATOM      8  C   UNL A   1      34.142  25.645  24.805  1.00  0.00     0.017 C 
BRANCH   8   9
ATOM      9  C   UNL A   1      33.790  24.262  24.453  1.00  0.00     0.017 A 
ATOM     10  C   UNL A   1      34.306  23.275  25.315  1.00  0.00     0.012 A 
ATOM     11  C   UNL A   1      33.040  23.854  23.329  1.00  0.00     0.134 A 
ATOM     12  C   UNL A   1      34.063  21.918  25.093  1.00  0.00     0.001 A 
ATOM     13  C   UNL A   1      32.796  22.484  23.128  1.00  0.00     0.048 A 
ATOM     14  C   UNL A   1      33.304  21.522  24.000  1.00  0.00     0.004 A 
BRANCH  11  15
ATOM     15  O   UNL A   1      32.410  24.629  22.374  1.00  0.00    -0.457 OA
BRANCH  15  16
ATOM     16  C   UNL A   1      31.482  25.577  22.711  1.00  0.00     0.128 A 
ATOM     17  C   UNL A   1      30.455  25.157  23.564  1.00  0.00     0.047 A 
ATOM     18  C   UNL A   1      31.500  26.880  22.217  1.00  0.00     0.067 A 
ATOM     19  C   UNL A   1      29.490  26.064  23.999  1.00  0.00     0.005 A 
ATOM     20  C   UNL A   1      30.538  27.785  22.667  1.00  0.00     0.044 A 
ATOM     21  C   UNL A   1      29.540  27.386  23.558  1.00  0.00     0.021 A 
ATOM     22  Cl  UNL A   1      30.623  29.433  22.178  1.00  0.00    -0.084 Cl
ENDBRANCH  15  16
ENDBRANCH  11  15
ENDBRANCH   8   9
ENDBRANCH   5   7
ENDBRANCH   2   3
ENDBRANCH   1   2
BRANCH   1  23
ATOM     23  C   UNL A   1      31.318  31.944  26.541  1.00  0.00     0.023 C 
BRANCH  23  24
ATOM     24  C   UNL A   1      32.662  32.521  26.978  1.00  0.00     0.116 C 
BRANCH  24  25
ATOM     25  N   UNL A   1      32.540  33.856  27.546  1.00  0.00    -0.352 N 
ATOM     26  C   UNL A   1      33.232  34.432  28.583  1.00  0.00     0.251 C 
ATOM     27  H   UNL A   1      31.862  34.431  27.124  1.00  0.00     0.163 HD
ATOM     28  O   UNL A   1      32.866  35.518  29.032  1.00  0.00    -0.269 OA
BRANCH  26  29
ATOM     29  C   UNL A   1      34.400  33.744  29.179  1.00  0.00     0.039 A 
ATOM     30  C   UNL A   1      35.685  34.181  28.844  1.00  0.00     0.014 A 
ATOM     31  C   UNL A   1      34.236  32.669  30.057  1.00  0.00     0.014 A 
ATOM     32  C   UNL A   1      36.799  33.585  29.442  1.00  0.00     0.010 A 
ATOM     33  C   UNL A   1      35.342  32.130  30.710  1.00  0.00     0.010 A 
ATOM     34  C   UNL A   1      36.637  32.580  30.411  1.00  0.00    -0.014 A 
BRANCH  34  35
ATOM     35  C   UNL A   1      37.806  32.005  31.129  1.00  0.00     0.031 A 
ATOM     36  C   UNL A   1      38.598  30.876  30.525  1.00  0.00     0.074 A 
ATOM     37  C   UNL A   1      38.109  32.444  32.368  1.00  0.00     0.049 A 
ATOM     38  N   UNL A   1      39.609  30.216  31.028  1.00  0.00    -0.248 NA
ATOM     39  C   UNL A   1      38.184  30.410  29.191  1.00  0.00     0.031 C 
ATOM     40  C   UNL A   1      37.375  33.479  33.100  1.00  0.00     0.029 A 
ATOM     41  N   UNL A   1      39.095  32.056  33.242  1.00  0.00    -0.354 N 
ATOM     42  C   UNL A   1      39.932  29.239  30.092  1.00  0.00     0.074 A 
ATOM     43  C   UNL A   1      38.983  29.370  29.007  1.00  0.00     0.031 C 
ATOM     44  C   UNL A   1      37.936  33.645  34.308  1.00  0.00     0.029 A 
ATOM     45  C   UNL A   1      39.045  32.707  34.453  1.00  0.00     0.049 A 
ATOM     46  H   UNL A   1      39.771  31.377  33.023  1.00  0.00     0.167 HD
ATOM     47  C   UNL A   1      40.939  28.334  30.117  1.00  0.00     0.034 A 
ATOM     48  C   UNL A   1      39.796  32.558  35.563  1.00  0.00     0.034 A 
ATOM     49  C   UNL A   1      41.899  28.225  31.183  1.00  0.00     0.049 A 
ATOM     50  C   UNL A   1      40.923  31.563  35.558  1.00  0.00     0.074 A 
ATOM     51  C   UNL A   1      43.004  27.395  31.264  1.00  0.00     0.029 A 
ATOM     52  N   UNL A   1      41.862  28.955  32.361  1.00  0.00    -0.354 N 
ATOM     53  N   UNL A   1      41.306  30.754  34.601  1.00  0.00    -0.248 NA
ATOM     54  C   UNL A   1      41.747  31.485  36.773  1.00  0.00     0.031 C 
ATOM     55  C   UNL A   1      43.615  27.598  32.506  1.00  0.00     0.029 A 
ATOM     56  C   UNL A   1      42.916  28.586  33.181  1.00  0.00     0.049 A 
ATOM     57  H   UNL A   1      41.187  29.636  32.583  1.00  0.00     0.167 HD
ATOM     58  C   UNL A   1      42.434  30.097  35.082  1.00  0.00     0.074 A 
ATOM     59  C   UNL A   1      42.685  30.620  36.410  1.00  0.00     0.031 C 
ATOM     60  C   UNL A   1      43.186  29.143  34.483  1.00  0.00     0.034 A 
BRANCH  47  61
ATOM     61  C   UNL A   1      41.084  27.414  28.932  1.00  0.00     0.023 A 
ATOM     62  C   UNL A   1      40.235  26.294  28.809  1.00  0.00     0.012 A 
ATOM     63  C   UNL A   1      42.019  27.683  27.913  1.00  0.00     0.148 A 
ATOM     64  C   UNL A   1      40.342  25.436  27.716  1.00  0.00     0.002 A 
ATOM     65  C   UNL A   1      42.087  26.851  26.802  1.00  0.00     0.091 A 
ATOM     66  F   UNL A   1      42.831  28.741  28.054  1.00  0.00    -0.205 F 
ATOM     67  C   UNL A   1      41.260  25.720  26.708  1.00  0.00     0.022 A 
BRANCH  65  68
ATOM     68  S   UNL A   1      43.176  27.176  25.411  1.00  0.00     0.127 S 
ATOM     69  O   UNL A   1      43.262  25.854  24.789  1.00  0.00    -0.237 OA
ATOM     70  O   UNL A   1      42.411  28.161  24.646  1.00  0.00    -0.237 OA
ATOM     71  O   UNL A   1      44.418  27.679  25.981  1.00  0.00    -0.744 OA
ENDBRANCH  65  68
ENDBRANCH  47  61
BRANCH  48  72
ATOM     72  C   UNL A   1      39.533  33.409  36.759  1.00  0.00     0.023 A 
ATOM     73  C   UNL A   1      39.946  34.755  36.760  1.00  0.00     0.012 A 
ATOM     74  C   UNL A   1      38.853  32.898  37.882  1.00  0.00     0.148 A 
ATOM     75  C   UNL A   1      39.718  35.567  37.871  1.00  0.00     0.002 A 
ATOM     76  C   UNL A   1      38.579  33.728  38.962  1.00  0.00     0.091 A 
ATOM     77  F   UNL A   1      38.477  31.611  37.864  1.00  0.00    -0.205 F 
ATOM     78  C   UNL A   1      39.026  35.058  38.966  1.00  0.00     0.022 A 
BRANCH  76  79
ATOM     79  S   UNL A   1      37.581  33.196  40.357  1.00  0.00     0.127 S 
ATOM     80  O   UNL A   1      38.260  31.966  40.758  1.00  0.00    -0.237 OA
ATOM     81  O   UNL A   1      37.738  34.318  41.283  1.00  0.00    -0.237 OA
ATOM     82  O   UNL A   1      36.231  33.029  39.836  1.00  0.00    -0.744 OA
ENDBRANCH  76  79
ENDBRANCH  48  72
BRANCH  60  83
ATOM     83  C   UNL A   1      44.385  28.620  35.233  1.00  0.00     0.023 A 
ATOM     84  C   UNL A   1      45.658  29.181  35.012  1.00  0.00     0.012 A 
ATOM     85  C   UNL A   1      44.233  27.616  36.211  1.00  0.00     0.148 A 
ATOM     86  C   UNL A   1      46.767  28.727  35.725  1.00  0.00     0.002 A 
ATOM     87  C   UNL A   1      45.332  27.207  36.956  1.00  0.00     0.091 A 
ATOM     88  F   UNL A   1      43.017  27.082  36.395  1.00  0.00    -0.205 F 
ATOM     89  C   UNL A   1      46.602  27.751  36.705  1.00  0.00     0.022 A 
BRANCH  87  90
ATOM     90  S   UNL A   1      45.199  26.027  38.304  1.00  0.00     0.127 S 
ATOM     91  O   UNL A   1      44.301  26.726  39.222  1.00  0.00    -0.237 OA
ATOM     92  O   UNL A   1      44.608  24.864  37.639  1.00  0.00    -0.237 OA
ATOM     93  O   UNL A   1      46.555  25.820  38.794  1.00  0.00    -0.744 OA
ENDBRANCH  87  90
ENDBRANCH  60  83
ENDBRANCH  34  35
ENDBRANCH  26  29
ENDBRANCH  24  25
ENDBRANCH  23  24
ENDBRANCH   1  23
TORSDOF 17
ENDMDL
MODEL 3
REMARK VINA RESULT:     -11.4      3.286      8.707
REMARK SMILES O=C(/C=C/c1ccccc1Oc1cccc(Cl)c1)NCCCCNC(=O)c1ccc(-c2c3nc(c(-c4cccc(S(=O)(=O)[O-])c4F)c4ccc([nH]4)c(-c4cccc(S(=O)(=O)[O-])c4F)c4nc(c(-c5cccc(S(=O)(=O)[O-])c5F)c5ccc2[nH]5)C=C4)C=C3)cc1
REMARK SMILES IDX 21 1 20 2 19 3 1 4 2 5 3 7 4 8 5 9 6 10 10 11 7 12 9 13 8 14
REMARK SMILES IDX 11 15 12 16 13 17 18 18 14 19 16 20 15 21 17 22 22 23 23 24
REMARK SMILES IDX 24 25 25 26 26 28 27 29 28 30 89 31 29 32 88 33 30 34 31 35
REMARK SMILES IDX 32 36 82 37 33 38 87 39 81 40 83 41 34 42 86 43 80 44 79 45
REMARK SMILES IDX 35 47 67 48 47 49 66 50 48 51 51 52 65 53 84 54 49 55 50 56
REMARK SMILES IDX 64 58 85 59 52 60 36 61 37 62 45 63 38 64 40 65 46 66 39 67
REMARK SMILES IDX 41 68 42 69 43 70 44 71 68 72 69 73 77 74 70 75 72 76 78 77
REMARK SMILES IDX 71 78 73 79 74 80 75 81 76 82 53 83 54 84 62 85 55 86 57 87
REMARK SMILES IDX 63 88 56 89 58 90 59 91 60 92 61 93
REMARK H PARENT 19 6 24 27 83 46 51 57
REMARK Flexibility Score: inf
ROOT
ATOM      1  C   UNL A   1      35.058  22.078  26.308  1.00  0.00     0.023 C 
ENDROOT
BRANCH   1   2
ATOM      2  C   UNL A   1      33.558  22.240  26.535  1.00  0.00     0.116 C 
BRANCH   2   3
ATOM      3  N   UNL A   1      33.095  23.584  26.266  1.00  0.00    -0.353 N 
ATOM      4  O   UNL A   1      31.051  23.349  27.281  1.00  0.00    -0.270 OA
ATOM      5  C   UNL A   1      31.869  24.038  26.681  1.00  0.00     0.244 C 
ATOM      6  H   UNL A   1      33.682  24.196  25.765  1.00  0.00     0.163 HD
BRANCH   5   7
ATOM      7  C   UNL A   1      31.604  25.488  26.481  1.00  0.00     0.072 C 
ATOM      8  C   UNL A   1      32.464  26.378  25.963  1.00  0.00     0.017 C 
BRANCH   8   9
ATOM      9  C   UNL A   1      32.219  27.827  25.963  1.00  0.00     0.017 A 
ATOM     10  C   UNL A   1      32.669  28.511  27.109  1.00  0.00     0.012 A 
ATOM     11  C   UNL A   1      31.547  28.557  24.959  1.00  0.00     0.134 A 
ATOM     12  C   UNL A   1      32.490  29.889  27.249  1.00  0.00     0.001 A 
ATOM     13  C   UNL A   1      31.386  29.946  25.114  1.00  0.00     0.048 A 
ATOM     14  C   UNL A   1      31.850  30.608  26.249  1.00  0.00     0.004 A 
BRANCH  11  15
ATOM     15  O   UNL A   1      31.052  28.120  23.746  1.00  0.00    -0.457 OA
BRANCH  15  16
ATOM     16  C   UNL A   1      29.875  28.595  23.233  1.00  0.00     0.128 A 
ATOM     17  C   UNL A   1      28.723  27.873  23.563  1.00  0.00     0.047 A 
ATOM     18  C   UNL A   1      29.796  29.703  22.390  1.00  0.00     0.067 A 
ATOM     19  C   UNL A   1      27.473  28.308  23.126  1.00  0.00     0.005 A 
ATOM     20  C   UNL A   1      28.540  30.139  21.967  1.00  0.00     0.044 A 
ATOM     21  C   UNL A   1      27.381  29.452  22.335  1.00  0.00     0.021 A 
ATOM     22  Cl  UNL A   1      28.407  31.583  21.040  1.00  0.00    -0.084 Cl
ENDBRANCH  15  16
ENDBRANCH  11  15
ENDBRANCH   8   9
ENDBRANCH   5   7
ENDBRANCH   2   3
ENDBRANCH   1   2
BRANCH   1  23
ATOM     23  C   UNL A   1      35.818  23.395  26.124  1.00  0.00     0.023 C 
BRANCH  23  24
ATOM     24  C   UNL A   1      37.064  23.312  25.246  1.00  0.00     0.116 C 
BRANCH  24  25
ATOM     25  N   UNL A   1      38.062  22.393  25.775  1.00  0.00    -0.352 N 
ATOM     26  C   UNL A   1      39.218  22.660  26.467  1.00  0.00     0.251 C 
ATOM     27  H   UNL A   1      37.880  21.439  25.615  1.00  0.00     0.163 HD
ATOM     28  O   UNL A   1      40.023  21.754  26.682  1.00  0.00    -0.269 OA
BRANCH  26  29
ATOM     29  C   UNL A   1      39.513  24.034  26.934  1.00  0.00     0.039 A 
ATOM     30  C   UNL A   1      39.238  24.370  28.263  1.00  0.00     0.014 A 
ATOM     31  C   UNL A   1      40.048  24.992  26.069  1.00  0.00     0.014 A 
ATOM     32  C   UNL A   1      39.566  25.643  28.739  1.00  0.00     0.010 A 
ATOM     33  C   UNL A   1      40.445  26.232  26.565  1.00  0.00     0.010 A 
ATOM     34  C   UNL A   1      40.207  26.574  27.905  1.00  0.00    -0.014 A 
BRANCH  34  35
ATOM     35  C   UNL A   1      40.652  27.896  28.423  1.00  0.00     0.031 A 
ATOM     36  C   UNL A   1      42.117  28.201  28.588  1.00  0.00     0.074 A 
ATOM     37  C   UNL A   1      39.732  28.798  28.825  1.00  0.00     0.049 A 
ATOM     38  N   UNL A   1      42.686  29.274  29.073  1.00  0.00    -0.248 NA
ATOM     39  C   UNL A   1      43.067  27.155  28.176  1.00  0.00     0.031 C 
ATOM     40  C   UNL A   1      38.282  28.598  28.792  1.00  0.00     0.029 A 
ATOM     41  N   UNL A   1      39.881  30.051  29.368  1.00  0.00    -0.354 N 
ATOM     42  C   UNL A   1      44.054  29.022  29.057  1.00  0.00     0.074 A 
ATOM     43  C   UNL A   1      44.226  27.678  28.548  1.00  0.00     0.031 C 
ATOM     44  C   UNL A   1      37.676  29.687  29.289  1.00  0.00     0.029 A 
ATOM     45  C   UNL A   1      38.691  30.649  29.709  1.00  0.00     0.049 A 
ATOM     46  H   UNL A   1      40.757  30.479  29.501  1.00  0.00     0.167 HD
ATOM     47  C   UNL A   1      45.075  29.840  29.407  1.00  0.00     0.034 A 
ATOM     48  C   UNL A   1      38.440  31.831  30.306  1.00  0.00     0.034 A 
ATOM     49  C   UNL A   1      44.904  31.186  29.886  1.00  0.00     0.049 A 
ATOM     50  C   UNL A   1      39.590  32.731  30.664  1.00  0.00     0.074 A 
ATOM     51  C   UNL A   1      45.879  32.121  30.190  1.00  0.00     0.029 A 
ATOM     52  N   UNL A   1      43.682  31.785  30.147  1.00  0.00    -0.354 N 
ATOM     53  N   UNL A   1      40.875  32.533  30.498  1.00  0.00    -0.248 NA
ATOM     54  C   UNL A   1      39.255  34.033  31.258  1.00  0.00     0.031 C 
ATOM     55  C   UNL A   1      45.245  33.274  30.668  1.00  0.00     0.029 A 
ATOM     56  C   UNL A   1      43.876  33.072  30.620  1.00  0.00     0.049 A 
ATOM     57  H   UNL A   1      42.804  31.360  30.014  1.00  0.00     0.167 HD
ATOM     58  C   UNL A   1      41.500  33.698  30.933  1.00  0.00     0.074 A 
ATOM     59  C   UNL A   1      40.449  34.604  31.349  1.00  0.00     0.031 C 
ATOM     60  C   UNL A   1      42.823  33.984  30.990  1.00  0.00     0.034 A 
BRANCH  47  61
ATOM     61  C   UNL A   1      46.479  29.316  29.243  1.00  0.00     0.023 A 
ATOM     62  C   UNL A   1      47.139  28.728  30.343  1.00  0.00     0.012 A 
ATOM     63  C   UNL A   1      47.127  29.354  27.993  1.00  0.00     0.148 A 
ATOM     64  C   UNL A   1      48.432  28.226  30.213  1.00  0.00     0.002 A 
ATOM     65  C   UNL A   1      48.398  28.807  27.858  1.00  0.00     0.091 A 
ATOM     66  F   UNL A   1      46.494  29.933  26.962  1.00  0.00    -0.205 F 
ATOM     67  C   UNL A   1      49.057  28.256  28.969  1.00  0.00     0.022 A 
BRANCH  65  68
ATOM     68  S   UNL A   1      49.256  28.721  26.281  1.00  0.00     0.127 S 
ATOM     69  O   UNL A   1      50.128  27.565  26.484  1.00  0.00    -0.237 OA
ATOM     70  O   UNL A   1      48.154  28.497  25.345  1.00  0.00    -0.237 OA
ATOM     71  O   UNL A   1      49.938  29.998  26.124  1.00  0.00    -0.744 OA
ENDBRANCH  65  68
ENDBRANCH  47  61
BRANCH  48  72
ATOM     72  C   UNL A   1      37.032  32.251  30.561  1.00  0.00     0.023 A 
ATOM     73  C   UNL A   1      36.470  32.067  31.838  1.00  0.00     0.012 A 
ATOM     74  C   UNL A   1      36.258  32.856  29.551  1.00  0.00     0.148 A 
ATOM     75  C   UNL A   1      35.152  32.445  32.097  1.00  0.00     0.002 A 
ATOM     76  C   UNL A   1      34.966  33.283  29.831  1.00  0.00     0.091 A 
ATOM     77  F   UNL A   1      36.809  33.013  28.338  1.00  0.00    -0.205 F 
ATOM     78  C   UNL A   1      34.404  33.062  31.098  1.00  0.00     0.022 A 
BRANCH  76  79
ATOM     79  S   UNL A   1      33.977  34.202  28.647  1.00  0.00     0.127 S 
ATOM     80  O   UNL A   1      34.865  35.312  28.313  1.00  0.00    -0.237 OA
ATOM     81  O   UNL A   1      33.793  33.216  27.580  1.00  0.00    -0.237 OA
ATOM     82  O   UNL A   1      32.753  34.563  29.350  1.00  0.00    -0.744 OA
ENDBRANCH  76  79
ENDBRANCH  48  72
BRANCH  60  83
ATOM     83  C   UNL A   1      43.224  35.352  31.484  1.00  0.00     0.023 A 
ATOM     84  C   UNL A   1      43.444  35.571  32.858  1.00  0.00     0.012 A 
ATOM     85  C   UNL A   1      43.449  36.402  30.572  1.00  0.00     0.148 A 
ATOM     86  C   UNL A   1      43.848  36.824  33.320  1.00  0.00     0.002 A 
ATOM     87  C   UNL A   1      43.903  37.632  31.034  1.00  0.00     0.091 A 
ATOM     88  F   UNL A   1      43.217  36.180  29.270  1.00  0.00    -0.205 F 
ATOM     89  C   UNL A   1      44.089  37.848  32.409  1.00  0.00     0.022 A 
BRANCH  87  90
ATOM     90  S   UNL A   1      44.334  38.980  29.926  1.00  0.00     0.127 S 
ATOM     91  O   UNL A   1      43.044  39.277  29.305  1.00  0.00    -0.237 OA
ATOM     92  O   UNL A   1      44.812  40.003  30.858  1.00  0.00    -0.237 OA
ATOM     93  O   UNL A   1      45.353  38.453  29.028  1.00  0.00    -0.744 OA
ENDBRANCH  87  90
ENDBRANCH  60  83
ENDBRANCH  34  35
ENDBRANCH  26  29
ENDBRANCH  24  25
ENDBRANCH  23  24
ENDBRANCH   1  23
TORSDOF 17
ENDMDL
