MODEL 1
REMARK VINA RESULT:     -11.2      0.000      0.000
REMARK SMILES Cc1ccncc1[C@H](F)C(=O)NCCCCNC(=O)c1ccc(-c2c3nc(c(-c4cccc(S(=O)(=O)[O-])c4F)c4ccc([nH]4)c(-c4cccc(S(=O)(=O)[O-])c4F)c4nc(c(-c5cccc(S(=O)(=O)[O-])c5F)c5ccc2[nH]5)C=C4)C=C3)cc1
REMARK SMILES IDX 15 1 14 2 13 3 12 4 10 5 11 6 8 8 9 9 7 10 1 11 2 12 3 13
REMARK SMILES IDX 4 14 6 15 5 16 16 17 17 18 18 19 19 21 20 22 21 23 82 24
REMARK SMILES IDX 22 25 81 26 23 27 24 28 25 29 75 30 26 31 80 32 74 33 76 34
REMARK SMILES IDX 27 35 79 36 73 37 72 38 28 40 60 41 40 42 59 43 41 44 44 45
REMARK SMILES IDX 58 46 77 47 42 48 43 49 57 51 78 52 45 53 29 54 30 55 38 56
REMARK SMILES IDX 31 57 33 58 39 59 32 60 34 61 35 62 36 63 37 64 61 65 62 66
REMARK SMILES IDX 70 67 63 68 65 69 71 70 64 71 66 72 67 73 68 74 69 75 46 76
REMARK SMILES IDX 47 77 55 78 48 79 50 80 56 81 49 82 51 83 52 84 53 85 54 86
REMARK H PARENT 12 7 17 20 76 39 44 50
REMARK Flexibility Score: inf
ROOT
ATOM      1  C   UNL A   1      31.938  28.537  24.942  1.00  0.00     0.023 C 
ENDROOT
BRANCH   1   2
ATOM      2  C   UNL A   1      31.747  27.442  25.991  1.00  0.00     0.023 C 
BRANCH   2   3
ATOM      3  C   UNL A   1      30.904  26.256  25.540  1.00  0.00     0.116 C 
BRANCH   3   4
ATOM      4  N   UNL A   1      30.831  25.205  26.538  1.00  0.00    -0.353 N 
ATOM      5  C   UNL A   1      31.702  24.164  26.723  1.00  0.00     0.259 C 
ATOM      6  O   UNL A   1      31.539  23.420  27.694  1.00  0.00    -0.271 OA
ATOM      7  H   UNL A   1      30.064  25.246  27.154  1.00  0.00     0.163 HD
BRANCH   5   8
ATOM      8  C   UNL A   1      32.880  23.971  25.751  1.00  0.00     0.287 C 
ATOM      9  F   UNL A   1      34.039  24.332  26.381  1.00  0.00    -0.232 F 
BRANCH   8  10
ATOM     10  C   UNL A   1      32.902  22.578  25.137  1.00  0.00     0.017 A 
ATOM     11  C   UNL A   1      31.270  23.072  23.193  1.00  0.00     0.045 C 
ATOM     12  C   UNL A   1      32.197  22.188  23.982  1.00  0.00    -0.041 A 
ATOM     13  C   UNL A   1      32.406  20.894  23.477  1.00  0.00     0.024 A 
ATOM     14  C   UNL A   1      33.249  20.028  24.149  1.00  0.00     0.111 A 
ATOM     15  C   UNL A   1      33.696  21.603  25.755  1.00  0.00     0.118 A 
ATOM     16  N   UNL A   1      33.883  20.348  25.290  1.00  0.00    -0.264 NA
ENDBRANCH   8  10
ENDBRANCH   5   8
ENDBRANCH   3   4
ENDBRANCH   2   3
ENDBRANCH   1   2
BRANCH   1  17
ATOM     17  C   UNL A   1      33.055  29.536  25.228  1.00  0.00     0.116 C 
BRANCH  17  18
ATOM     18  N   UNL A   1      32.580  30.754  25.866  1.00  0.00    -0.352 N 
ATOM     19  C   UNL A   1      33.082  31.426  26.952  1.00  0.00     0.251 C 
ATOM     20  H   UNL A   1      31.779  31.157  25.458  1.00  0.00     0.163 HD
ATOM     21  O   UNL A   1      32.448  32.371  27.422  1.00  0.00    -0.269 OA
BRANCH  19  22
ATOM     22  C   UNL A   1      34.357  31.006  27.580  1.00  0.00     0.039 A 
ATOM     23  C   UNL A   1      35.346  31.969  27.791  1.00  0.00     0.014 A 
ATOM     24  C   UNL A   1      34.590  29.678  27.950  1.00  0.00     0.014 A 
ATOM     25  C   UNL A   1      36.541  31.611  28.421  1.00  0.00     0.010 A 
ATOM     26  C   UNL A   1      35.745  29.341  28.653  1.00  0.00     0.010 A 
ATOM     27  C   UNL A   1      36.741  30.300  28.889  1.00  0.00    -0.014 A 
BRANCH  27  28
ATOM     28  C   UNL A   1      37.976  29.947  29.639  1.00  0.00     0.031 A 
ATOM     29  C   UNL A   1      38.207  30.453  31.040  1.00  0.00     0.074 A 
ATOM     30  C   UNL A   1      38.920  29.194  29.038  1.00  0.00     0.049 A 
ATOM     31  N   UNL A   1      39.192  30.184  31.859  1.00  0.00    -0.248 NA
ATOM     32  C   UNL A   1      37.220  31.400  31.587  1.00  0.00     0.031 C 
ATOM     33  C   UNL A   1      38.868  28.721  27.652  1.00  0.00     0.029 A 
ATOM     34  N   UNL A   1      40.112  28.700  29.509  1.00  0.00    -0.354 N 
ATOM     35  C   UNL A   1      38.965  30.950  32.997  1.00  0.00     0.074 A 
ATOM     36  C   UNL A   1      37.765  31.719  32.753  1.00  0.00     0.031 C 
ATOM     37  C   UNL A   1      39.958  27.979  27.397  1.00  0.00     0.029 A 
ATOM     38  C   UNL A   1      40.800  27.944  28.588  1.00  0.00     0.049 A 
ATOM     39  H   UNL A   1      40.442  28.871  30.420  1.00  0.00     0.167 HD
ATOM     40  C   UNL A   1      39.673  30.988  34.152  1.00  0.00     0.034 A 
ATOM     41  C   UNL A   1      41.972  27.288  28.692  1.00  0.00     0.034 A 
ATOM     42  C   UNL A   1      40.842  30.190  34.409  1.00  0.00     0.049 A 
ATOM     43  C   UNL A   1      42.702  27.302  30.009  1.00  0.00     0.074 A 
ATOM     44  C   UNL A   1      41.565  30.078  35.585  1.00  0.00     0.029 A 
ATOM     45  N   UNL A   1      41.471  29.382  33.477  1.00  0.00    -0.354 N 
ATOM     46  N   UNL A   1      42.364  27.876  31.137  1.00  0.00    -0.248 NA
ATOM     47  C   UNL A   1      43.957  26.539  30.076  1.00  0.00     0.031 C 
ATOM     48  C   UNL A   1      42.651  29.228  35.352  1.00  0.00     0.029 A 
ATOM     49  C   UNL A   1      42.584  28.781  34.043  1.00  0.00     0.049 A 
ATOM     50  H   UNL A   1      41.172  29.252  32.548  1.00  0.00     0.167 HD
ATOM     51  C   UNL A   1      43.341  27.514  32.056  1.00  0.00     0.074 A 
ATOM     52  C   UNL A   1      44.266  26.643  31.360  1.00  0.00     0.031 C 
ATOM     53  C   UNL A   1      43.473  27.881  33.356  1.00  0.00     0.034 A 
BRANCH  40  54
ATOM     54  C   UNL A   1      39.180  31.893  35.253  1.00  0.00     0.023 A 
ATOM     55  C   UNL A   1      38.251  31.406  36.196  1.00  0.00     0.012 A 
ATOM     56  C   UNL A   1      39.695  33.196  35.403  1.00  0.00     0.148 A 
ATOM     57  C   UNL A   1      37.821  32.210  37.251  1.00  0.00     0.002 A 
ATOM     58  C   UNL A   1      39.298  33.974  36.485  1.00  0.00     0.091 A 
ATOM     59  F   UNL A   1      40.562  33.649  34.486  1.00  0.00    -0.205 F 
ATOM     60  C   UNL A   1      38.352  33.487  37.402  1.00  0.00     0.022 A 
BRANCH  58  61
ATOM     61  S   UNL A   1      39.986  35.600  36.816  1.00  0.00     0.127 S 
ATOM     62  O   UNL A   1      39.344  35.938  38.085  1.00  0.00    -0.237 OA
ATOM     63  O   UNL A   1      41.417  35.311  36.916  1.00  0.00    -0.237 OA
ATOM     64  O   UNL A   1      39.610  36.435  35.685  1.00  0.00    -0.744 OA
ENDBRANCH  58  61
ENDBRANCH  40  54
BRANCH  41  65
ATOM     65  C   UNL A   1      42.495  26.492  27.544  1.00  0.00     0.023 A 
ATOM     66  C   UNL A   1      43.341  27.110  26.602  1.00  0.00     0.012 A 
ATOM     67  C   UNL A   1      42.159  25.136  27.378  1.00  0.00     0.148 A 
ATOM     68  C   UNL A   1      43.805  26.405  25.491  1.00  0.00     0.002 A 
ATOM     69  C   UNL A   1      42.673  24.422  26.302  1.00  0.00     0.091 A 
ATOM     70  F   UNL A   1      41.343  24.568  28.278  1.00  0.00    -0.205 F 
ATOM     71  C   UNL A   1      43.480  25.059  25.346  1.00  0.00     0.022 A 
BRANCH  69  72
ATOM     72  S   UNL A   1      42.413  22.656  26.109  1.00  0.00     0.127 S 
ATOM     73  O   UNL A   1      40.957  22.559  26.178  1.00  0.00    -0.237 OA
ATOM     74  O   UNL A   1      42.986  22.410  24.784  1.00  0.00    -0.237 OA
ATOM     75  O   UNL A   1      43.144  22.032  27.202  1.00  0.00    -0.744 OA
ENDBRANCH  69  72
ENDBRANCH  41  65
BRANCH  53  76
ATOM     76  C   UNL A   1      44.641  27.313  34.121  1.00  0.00     0.023 A 
ATOM     77  C   UNL A   1      45.883  27.979  34.108  1.00  0.00     0.012 A 
ATOM     78  C   UNL A   1      44.500  26.134  34.880  1.00  0.00     0.148 A 
ATOM     79  C   UNL A   1      46.979  27.453  34.793  1.00  0.00     0.002 A 
ATOM     80  C   UNL A   1      45.581  25.647  35.605  1.00  0.00     0.091 A 
ATOM     81  F   UNL A   1      43.317  25.502  34.868  1.00  0.00    -0.205 F 
ATOM     82  C   UNL A   1      46.825  26.294  35.548  1.00  0.00     0.022 A 
BRANCH  80  83
ATOM     83  S   UNL A   1      45.442  24.217  36.685  1.00  0.00     0.127 S 
ATOM     84  O   UNL A   1      46.809  24.091  37.187  1.00  0.00    -0.237 OA
ATOM     85  O   UNL A   1      44.467  24.669  37.677  1.00  0.00    -0.237 OA
ATOM     86  O   UNL A   1      44.978  23.124  35.841  1.00  0.00    -0.744 OA
ENDBRANCH  80  83
ENDBRANCH  53  76
ENDBRANCH  27  28
ENDBRANCH  19  22
ENDBRANCH  17  18
ENDBRANCH   1  17
TORSDOF 15
ENDMDL
MODEL 2
REMARK VINA RESULT:     -11.1      4.773     10.138
REMARK SMILES Cc1ccncc1[C@H](F)C(=O)NCCCCNC(=O)c1ccc(-c2c3nc(c(-c4cccc(S(=O)(=O)[O-])c4F)c4ccc([nH]4)c(-c4cccc(S(=O)(=O)[O-])c4F)c4nc(c(-c5cccc(S(=O)(=O)[O-])c5F)c5ccc2[nH]5)C=C4)C=C3)cc1
REMARK SMILES IDX 15 1 14 2 13 3 12 4 10 5 11 6 8 8 9 9 7 10 1 11 2 12 3 13
REMARK SMILES IDX 4 14 6 15 5 16 16 17 17 18 18 19 19 21 20 22 21 23 82 24
REMARK SMILES IDX 22 25 81 26 23 27 24 28 25 29 75 30 26 31 80 32 74 33 76 34
REMARK SMILES IDX 27 35 79 36 73 37 72 38 28 40 60 41 40 42 59 43 41 44 44 45
REMARK SMILES IDX 58 46 77 47 42 48 43 49 57 51 78 52 45 53 29 54 30 55 38 56
REMARK SMILES IDX 31 57 33 58 39 59 32 60 34 61 35 62 36 63 37 64 61 65 62 66
REMARK SMILES IDX 70 67 63 68 65 69 71 70 64 71 66 72 67 73 68 74 69 75 46 76
REMARK SMILES IDX 47 77 55 78 48 79 50 80 56 81 49 82 51 83 52 84 53 85 54 86
REMARK H PARENT 12 7 17 20 76 39 44 50
REMARK Flexibility Score: inf
ROOT
ATOM      1  C   UNL A   1      34.762  21.370  25.962  1.00  0.00     0.023 C 
ENDROOT
BRANCH   1   2
ATOM      2  C   UNL A   1      33.811  21.138  24.789  1.00  0.00     0.023 C 
BRANCH   2   3
ATOM      3  C   UNL A   1      32.693  22.165  24.652  1.00  0.00     0.116 C 
BRANCH   3   4
ATOM      4  N   UNL A   1      32.031  22.447  25.912  1.00  0.00    -0.353 N 
ATOM      5  C   UNL A   1      31.362  23.588  26.271  1.00  0.00     0.259 C 
ATOM      6  O   UNL A   1      30.767  23.611  27.352  1.00  0.00    -0.271 OA
ATOM      7  H   UNL A   1      32.069  21.734  26.591  1.00  0.00     0.163 HD
BRANCH   5   8
ATOM      8  C   UNL A   1      31.329  24.788  25.308  1.00  0.00     0.287 C 
ATOM      9  F   UNL A   1      30.038  25.001  24.909  1.00  0.00    -0.232 F 
BRANCH   8  10
ATOM     10  C   UNL A   1      32.021  26.013  25.886  1.00  0.00     0.017 A 
ATOM     11  C   UNL A   1      34.432  25.344  25.230  1.00  0.00     0.045 C 
ATOM     12  C   UNL A   1      33.406  26.266  25.830  1.00  0.00    -0.041 A 
ATOM     13  C   UNL A   1      33.880  27.497  26.315  1.00  0.00     0.024 A 
ATOM     14  C   UNL A   1      32.993  28.396  26.877  1.00  0.00     0.111 A 
ATOM     15  C   UNL A   1      31.225  26.981  26.515  1.00  0.00     0.118 A 
ATOM     16  N   UNL A   1      31.677  28.155  27.006  1.00  0.00    -0.264 NA
ENDBRANCH   8  10
ENDBRANCH   5   8
ENDBRANCH   3   4
ENDBRANCH   2   3
ENDBRANCH   1   2
BRANCH   1  17
ATOM     17  C   UNL A   1      36.141  21.909  25.595  1.00  0.00     0.116 C 
BRANCH  17  18
ATOM     18  N   UNL A   1      37.166  20.877  25.559  1.00  0.00    -0.352 N 
ATOM     19  C   UNL A   1      38.513  20.974  25.801  1.00  0.00     0.251 C 
ATOM     20  H   UNL A   1      36.845  19.975  25.328  1.00  0.00     0.163 HD
ATOM     21  O   UNL A   1      39.235  20.000  25.583  1.00  0.00    -0.269 OA
BRANCH  19  22
ATOM     22  C   UNL A   1      39.108  22.240  26.288  1.00  0.00     0.039 A 
ATOM     23  C   UNL A   1      40.158  22.176  27.205  1.00  0.00     0.014 A 
ATOM     24  C   UNL A   1      38.634  23.484  25.859  1.00  0.00     0.014 A 
ATOM     25  C   UNL A   1      40.767  23.353  27.649  1.00  0.00     0.010 A 
ATOM     26  C   UNL A   1      39.298  24.651  26.237  1.00  0.00     0.010 A 
ATOM     27  C   UNL A   1      40.366  24.602  27.144  1.00  0.00    -0.014 A 
BRANCH  27  28
ATOM     28  C   UNL A   1      41.077  25.844  27.550  1.00  0.00     0.031 A 
ATOM     29  C   UNL A   1      42.509  26.087  27.147  1.00  0.00     0.074 A 
ATOM     30  C   UNL A   1      40.440  26.746  28.325  1.00  0.00     0.049 A 
ATOM     31  N   UNL A   1      43.254  27.143  27.357  1.00  0.00    -0.248 NA
ATOM     32  C   UNL A   1      43.206  24.999  26.440  1.00  0.00     0.031 C 
ATOM     33  C   UNL A   1      39.087  26.589  28.866  1.00  0.00     0.029 A 
ATOM     34  N   UNL A   1      40.844  27.969  28.799  1.00  0.00    -0.354 N 
ATOM     35  C   UNL A   1      44.508  26.836  26.842  1.00  0.00     0.074 A 
ATOM     36  C   UNL A   1      44.435  25.483  26.337  1.00  0.00     0.031 C 
ATOM     37  C   UNL A   1      38.762  27.687  29.568  1.00  0.00     0.029 A 
ATOM     38  C   UNL A   1      39.889  28.615  29.550  1.00  0.00     0.049 A 
ATOM     39  H   UNL A   1      41.733  28.350  28.617  1.00  0.00     0.167 HD
ATOM     40  C   UNL A   1      45.612  27.618  26.768  1.00  0.00     0.034 A 
ATOM     41  C   UNL A   1      39.912  29.821  30.151  1.00  0.00     0.034 A 
ATOM     42  C   UNL A   1      45.670  28.979  27.231  1.00  0.00     0.049 A 
ATOM     43  C   UNL A   1      41.132  30.689  29.997  1.00  0.00     0.074 A 
ATOM     44  C   UNL A   1      46.707  29.888  27.103  1.00  0.00     0.029 A 
ATOM     45  N   UNL A   1      44.659  29.624  27.926  1.00  0.00    -0.354 N 
ATOM     46  N   UNL A   1      42.238  30.454  29.333  1.00  0.00    -0.248 NA
ATOM     47  C   UNL A   1      41.087  32.009  30.641  1.00  0.00     0.031 C 
ATOM     48  C   UNL A   1      46.336  31.071  27.751  1.00  0.00     0.029 A 
ATOM     49  C   UNL A   1      45.053  30.912  28.250  1.00  0.00     0.049 A 
ATOM     50  H   UNL A   1      43.789  29.226  28.155  1.00  0.00     0.167 HD
ATOM     51  C   UNL A   1      43.003  31.608  29.449  1.00  0.00     0.074 A 
ATOM     52  C   UNL A   1      42.219  32.554  30.218  1.00  0.00     0.031 C 
ATOM     53  C   UNL A   1      44.250  31.861  28.976  1.00  0.00     0.034 A 
BRANCH  40  54
ATOM     54  C   UNL A   1      46.846  27.041  26.120  1.00  0.00     0.023 A 
ATOM     55  C   UNL A   1      47.030  27.168  24.727  1.00  0.00     0.012 A 
ATOM     56  C   UNL A   1      47.859  26.445  26.897  1.00  0.00     0.148 A 
ATOM     57  C   UNL A   1      48.187  26.686  24.116  1.00  0.00     0.002 A 
ATOM     58  C   UNL A   1      49.030  26.011  26.287  1.00  0.00     0.091 A 
ATOM     59  F   UNL A   1      47.658  26.316  28.217  1.00  0.00    -0.205 F 
ATOM     60  C   UNL A   1      49.190  26.119  24.896  1.00  0.00     0.022 A 
BRANCH  58  61
ATOM     61  S   UNL A   1      50.418  25.344  27.213  1.00  0.00     0.127 S 
ATOM     62  O   UNL A   1      49.811  24.179  27.855  1.00  0.00    -0.237 OA
ATOM     63  O   UNL A   1      51.370  25.026  26.148  1.00  0.00    -0.237 OA
ATOM     64  O   UNL A   1      50.845  26.402  28.117  1.00  0.00    -0.744 OA
ENDBRANCH  58  61
ENDBRANCH  40  54
BRANCH  41  65
ATOM     65  C   UNL A   1      38.714  30.320  30.885  1.00  0.00     0.023 A 
ATOM     66  C   UNL A   1      38.603  30.083  32.270  1.00  0.00     0.012 A 
ATOM     67  C   UNL A   1      37.688  31.021  30.225  1.00  0.00     0.148 A 
ATOM     68  C   UNL A   1      37.470  30.494  32.974  1.00  0.00     0.002 A 
ATOM     69  C   UNL A   1      36.591  31.482  30.944  1.00  0.00     0.091 A 
ATOM     70  F   UNL A   1      37.805  31.228  28.906  1.00  0.00    -0.205 F 
ATOM     71  C   UNL A   1      36.470  31.201  32.314  1.00  0.00     0.022 A 
BRANCH  69  72
ATOM     72  S   UNL A   1      35.321  32.512  30.203  1.00  0.00     0.127 S 
ATOM     73  O   UNL A   1      36.085  33.695  29.814  1.00  0.00    -0.237 OA
ATOM     74  O   UNL A   1      34.867  31.677  29.089  1.00  0.00    -0.237 OA
ATOM     75  O   UNL A   1      34.324  32.714  31.244  1.00  0.00    -0.744 OA
ENDBRANCH  69  72
ENDBRANCH  41  65
BRANCH  53  76
ATOM     76  C   UNL A   1      44.831  33.225  29.246  1.00  0.00     0.023 A 
ATOM     77  C   UNL A   1      45.565  33.458  30.427  1.00  0.00     0.012 A 
ATOM     78  C   UNL A   1      44.675  34.271  28.314  1.00  0.00     0.148 A 
ATOM     79  C   UNL A   1      46.089  34.722  30.700  1.00  0.00     0.002 A 
ATOM     80  C   UNL A   1      45.248  35.511  28.568  1.00  0.00     0.091 A 
ATOM     81  F   UNL A   1      43.959  34.040  27.205  1.00  0.00    -0.205 F 
ATOM     82  C   UNL A   1      45.938  35.744  29.768  1.00  0.00     0.022 A 
BRANCH  80  83
ATOM     83  S   UNL A   1      45.190  36.854  27.376  1.00  0.00     0.127 S 
ATOM     84  O   UNL A   1      46.105  36.374  26.342  1.00  0.00    -0.237 OA
ATOM     85  O   UNL A   1      43.780  36.863  26.984  1.00  0.00    -0.237 OA
ATOM     86  O   UNL A   1      45.622  38.045  28.095  1.00  0.00    -0.744 OA
ENDBRANCH  80  83
ENDBRANCH  53  76
ENDBRANCH  27  28
ENDBRANCH  19  22
ENDBRANCH  17  18
ENDBRANCH   1  17
TORSDOF 15
ENDMDL
MODEL 3
REMARK VINA RESULT:     -11.1      1.756      2.594
REMARK SMILES Cc1ccncc1[C@H](F)C(=O)NCCCCNC(=O)c1ccc(-c2c3nc(c(-c4cccc(S(=O)(=O)[O-])c4F)c4ccc([nH]4)c(-c4cccc(S(=O)(=O)[O-])c4F)c4nc(c(-c5cccc(S(=O)(=O)[O-])c5F)c5ccc2[nH]5)C=C4)C=C3)cc1
REMARK SMILES IDX 15 1 14 2 13 3 12 4 10 5 11 6 8 8 9 9 7 10 1 11 2 12 3 13
REMARK SMILES IDX 4 14 6 15 5 16 16 17 17 18 18 19 19 21 20 22 21 23 82 24
REMARK SMILES IDX 22 25 81 26 23 27 24 28 25 29 75 30 26 31 80 32 74 33 76 34
REMARK SMILES IDX 27 35 79 36 73 37 72 38 28 40 60 41 40 42 59 43 41 44 44 45
REMARK SMILES IDX 58 46 77 47 42 48 43 49 57 51 78 52 45 53 29 54 30 55 38 56
REMARK SMILES IDX 31 57 33 58 39 59 32 60 34 61 35 62 36 63 37 64 61 65 62 66
REMARK SMILES IDX 70 67 63 68 65 69 71 70 64 71 66 72 67 73 68 74 69 75 46 76
REMARK SMILES IDX 47 77 55 78 48 79 50 80 56 81 49 82 51 83 52 84 53 85 54 86
REMARK H PARENT 12 7 17 20 76 39 44 50
REMARK Flexibility Score: inf
ROOT
ATOM      1  C   UNL A   1      32.786  29.398  24.976  1.00  0.00     0.023 C 
ENDROOT
BRANCH   1   2
ATOM      2  C   UNL A   1      33.893  28.346  24.923  1.00  0.00     0.023 C 
BRANCH   2   3
ATOM      3  C   UNL A   1      33.411  26.911  24.749  1.00  0.00     0.116 C 
BRANCH   3   4
ATOM      4  N   UNL A   1      32.279  26.591  25.600  1.00  0.00    -0.353 N 
ATOM      5  C   UNL A   1      31.041  26.145  25.216  1.00  0.00     0.259 C 
ATOM      6  O   UNL A   1      30.231  25.822  26.088  1.00  0.00    -0.271 OA
ATOM      7  H   UNL A   1      32.417  26.710  26.568  1.00  0.00     0.163 HD
BRANCH   5   8
ATOM      8  C   UNL A   1      30.707  26.017  23.718  1.00  0.00     0.287 C 
ATOM      9  F   UNL A   1      30.084  24.817  23.505  1.00  0.00    -0.232 F 
BRANCH   8  10
ATOM     10  C   UNL A   1      29.949  27.225  23.189  1.00  0.00     0.017 A 
ATOM     11  C   UNL A   1      27.636  26.586  24.153  1.00  0.00     0.045 C 
ATOM     12  C   UNL A   1      28.582  27.485  23.404  1.00  0.00    -0.041 A 
ATOM     13  C   UNL A   1      28.052  28.701  22.941  1.00  0.00     0.024 A 
ATOM     14  C   UNL A   1      28.865  29.579  22.247  1.00  0.00     0.111 A 
ATOM     15  C   UNL A   1      30.664  28.169  22.438  1.00  0.00     0.118 A 
ATOM     16  N   UNL A   1      30.156  29.329  21.968  1.00  0.00    -0.264 NA
ENDBRANCH   8  10
ENDBRANCH   5   8
ENDBRANCH   3   4
ENDBRANCH   2   3
ENDBRANCH   1   2
BRANCH   1  17
ATOM     17  C   UNL A   1      32.329  29.803  26.375  1.00  0.00     0.116 C 
BRANCH  17  18
ATOM     18  N   UNL A   1      32.237  31.244  26.550  1.00  0.00    -0.352 N 
ATOM     19  C   UNL A   1      33.064  32.096  27.237  1.00  0.00     0.251 C 
ATOM     20  H   UNL A   1      31.467  31.672  26.109  1.00  0.00     0.163 HD
ATOM     21  O   UNL A   1      32.732  33.274  27.379  1.00  0.00    -0.269 OA
BRANCH  19  22
ATOM     22  C   UNL A   1      34.329  31.608  27.834  1.00  0.00     0.039 A 
ATOM     23  C   UNL A   1      35.372  32.516  28.026  1.00  0.00     0.014 A 
ATOM     24  C   UNL A   1      34.500  30.267  28.195  1.00  0.00     0.014 A 
ATOM     25  C   UNL A   1      36.560  32.094  28.627  1.00  0.00     0.010 A 
ATOM     26  C   UNL A   1      35.652  29.868  28.871  1.00  0.00     0.010 A 
ATOM     27  C   UNL A   1      36.701  30.772  29.087  1.00  0.00    -0.014 A 
BRANCH  27  28
ATOM     28  C   UNL A   1      37.933  30.351  29.807  1.00  0.00     0.031 A 
ATOM     29  C   UNL A   1      38.218  30.832  31.207  1.00  0.00     0.074 A 
ATOM     30  C   UNL A   1      38.826  29.559  29.180  1.00  0.00     0.049 A 
ATOM     31  N   UNL A   1      39.206  30.508  32.002  1.00  0.00    -0.248 NA
ATOM     32  C   UNL A   1      37.291  31.821  31.783  1.00  0.00     0.031 C 
ATOM     33  C   UNL A   1      38.722  29.102  27.791  1.00  0.00     0.029 A 
ATOM     34  N   UNL A   1      40.001  29.003  29.621  1.00  0.00    -0.354 N 
ATOM     35  C   UNL A   1      39.040  31.273  33.151  1.00  0.00     0.074 A 
ATOM     36  C   UNL A   1      37.875  32.102  32.940  1.00  0.00     0.031 C 
ATOM     37  C   UNL A   1      39.768  28.310  27.507  1.00  0.00     0.029 A 
ATOM     38  C   UNL A   1      40.632  28.222  28.679  1.00  0.00     0.049 A 
ATOM     39  H   UNL A   1      40.359  29.148  30.526  1.00  0.00     0.167 HD
ATOM     40  C   UNL A   1      39.773  31.265  34.291  1.00  0.00     0.034 A 
ATOM     41  C   UNL A   1      41.773  27.508  28.753  1.00  0.00     0.034 A 
ATOM     42  C   UNL A   1      40.906  30.408  34.517  1.00  0.00     0.049 A 
ATOM     43  C   UNL A   1      42.529  27.474  30.053  1.00  0.00     0.074 A 
ATOM     44  C   UNL A   1      41.647  30.249  35.676  1.00  0.00     0.029 A 
ATOM     45  N   UNL A   1      41.476  29.578  33.564  1.00  0.00    -0.354 N 
ATOM     46  N   UNL A   1      42.243  28.053  31.193  1.00  0.00    -0.248 NA
ATOM     47  C   UNL A   1      43.746  26.650  30.087  1.00  0.00     0.031 C 
ATOM     48  C   UNL A   1      42.685  29.350  35.413  1.00  0.00     0.029 A 
ATOM     49  C   UNL A   1      42.569  28.919  34.101  1.00  0.00     0.049 A 
ATOM     50  H   UNL A   1      41.151  29.473  32.641  1.00  0.00     0.167 HD
ATOM     51  C   UNL A   1      43.221  27.635  32.089  1.00  0.00     0.074 A 
ATOM     52  C   UNL A   1      44.087  26.726  31.366  1.00  0.00     0.031 C 
ATOM     53  C   UNL A   1      43.398  27.983  33.388  1.00  0.00     0.034 A 
BRANCH  40  54
ATOM     54  C   UNL A   1      39.349  32.183  35.411  1.00  0.00     0.023 A 
ATOM     55  C   UNL A   1      38.535  31.688  36.451  1.00  0.00     0.012 A 
ATOM     56  C   UNL A   1      39.820  33.509  35.475  1.00  0.00     0.148 A 
ATOM     57  C   UNL A   1      38.174  32.505  37.521  1.00  0.00     0.002 A 
ATOM     58  C   UNL A   1      39.494  34.303  36.569  1.00  0.00     0.091 A 
ATOM     59  F   UNL A   1      40.576  33.968  34.468  1.00  0.00    -0.205 F 
ATOM     60  C   UNL A   1      38.661  33.807  37.586  1.00  0.00     0.022 A 
BRANCH  58  61
ATOM     61  S   UNL A   1      40.140  35.965  36.790  1.00  0.00     0.127 S 
ATOM     62  O   UNL A   1      39.414  36.408  37.979  1.00  0.00    -0.237 OA
ATOM     63  O   UNL A   1      41.565  35.712  37.005  1.00  0.00    -0.237 OA
ATOM     64  O   UNL A   1      39.827  36.685  35.564  1.00  0.00    -0.744 OA
ENDBRANCH  58  61
ENDBRANCH  40  54
BRANCH  41  65
ATOM     65  C   UNL A   1      42.231  26.699  27.587  1.00  0.00     0.023 A 
ATOM     66  C   UNL A   1      42.980  27.317  26.567  1.00  0.00     0.012 A 
ATOM     67  C   UNL A   1      41.929  25.328  27.482  1.00  0.00     0.148 A 
ATOM     68  C   UNL A   1      43.381  26.597  25.440  1.00  0.00     0.002 A 
ATOM     69  C   UNL A   1      42.382  24.603  26.386  1.00  0.00     0.091 A 
ATOM     70  F   UNL A   1      41.205  24.759  28.456  1.00  0.00    -0.205 F 
ATOM     71  C   UNL A   1      43.090  25.239  25.354  1.00  0.00     0.022 A 
BRANCH  69  72
ATOM     72  S   UNL A   1      42.168  22.824  26.257  1.00  0.00     0.127 S 
ATOM     73  O   UNL A   1      40.713  22.697  26.277  1.00  0.00    -0.237 OA
ATOM     74  O   UNL A   1      42.794  22.538  24.965  1.00  0.00    -0.237 OA
ATOM     75  O   UNL A   1      42.871  22.262  27.401  1.00  0.00    -0.744 OA
ENDBRANCH  69  72
ENDBRANCH  41  65
BRANCH  53  76
ATOM     76  C   UNL A   1      44.552  27.351  34.124  1.00  0.00     0.023 A 
ATOM     77  C   UNL A   1      45.827  27.951  34.084  1.00  0.00     0.012 A 
ATOM     78  C   UNL A   1      44.367  26.177  34.881  1.00  0.00     0.148 A 
ATOM     79  C   UNL A   1      46.909  27.365  34.741  1.00  0.00     0.002 A 
ATOM     80  C   UNL A   1      45.438  25.630  35.578  1.00  0.00     0.091 A 
ATOM     81  F   UNL A   1      43.153  25.607  34.895  1.00  0.00    -0.205 F 
ATOM     82  C   UNL A   1      46.712  26.211  35.495  1.00  0.00     0.022 A 
BRANCH  80  83
ATOM     83  S   UNL A   1      45.250  24.204  36.656  1.00  0.00     0.127 S 
ATOM     84  O   UNL A   1      46.623  23.992  37.110  1.00  0.00    -0.237 OA
ATOM     85  O   UNL A   1      44.339  24.708  37.684  1.00  0.00    -0.237 OA
ATOM     86  O   UNL A   1      44.692  23.147  35.823  1.00  0.00    -0.744 OA
ENDBRANCH  80  83
ENDBRANCH  53  76
ENDBRANCH  27  28
ENDBRANCH  19  22
ENDBRANCH  17  18
ENDBRANCH   1  17
TORSDOF 15
ENDMDL
