MODEL 1
REMARK VINA RESULT:      -9.5      0.000      0.000
REMARK SMILES CCCCN(c1ccccc1C(=O)NCCCCNC(=O)c1ccc(-c2c3nc(c(-c4cccc(S(=O)(=O)[O-])c4F)c4ccc([nH]4)c(-c4cccc(S(=O)(=O)[O-])c4F)c4nc(c(-c5cccc(S(=O)(=O)[O-])c5F)c5ccc2[nH]5)C=C4)C=C3)cc1)S(=O)(=O)c1ccc2c(c1)oc(=O)n2C
REMARK SMILES IDX 16 1 15 2 14 3 12 4 13 5 11 7 6 8 7 9 8 10 10 11 9 12 5 13
REMARK SMILES IDX 4 14 3 15 2 16 1 17 85 18 86 19 87 20 88 21 89 22 93 23
REMARK SMILES IDX 90 24 92 25 91 26 94 27 97 28 95 29 98 30 96 31 17 32 18 33
REMARK SMILES IDX 19 34 20 35 21 37 22 38 23 39 84 40 24 41 83 42 25 43 26 44
REMARK SMILES IDX 27 45 77 46 28 47 82 48 76 49 78 50 29 51 81 52 75 53 74 54
REMARK SMILES IDX 30 56 62 57 42 58 61 59 43 60 46 61 60 62 79 63 44 64 45 65
REMARK SMILES IDX 59 67 80 68 47 69 31 70 32 71 40 72 33 73 35 74 41 75 34 76
REMARK SMILES IDX 36 77 37 78 38 79 39 80 63 81 64 82 72 83 65 84 67 85 73 86
REMARK SMILES IDX 66 87 68 88 69 89 70 90 71 91 48 92 49 93 57 94 50 95 52 96
REMARK SMILES IDX 58 97 51 98 53 99 54 100 55 101 56 102
REMARK H PARENT 14 6 19 36 78 55 46 66
REMARK Flexibility Score: inf
ROOT
ATOM      1  C   UNL A   1      43.490  30.944  31.427  1.00  0.00     0.023 C 
ENDROOT
BRANCH   1   2
ATOM      2  C   UNL A   1      42.024  31.119  31.800  1.00  0.00     0.116 C 
BRANCH   2   3
ATOM      3  N   UNL A   1      41.379  29.963  32.372  1.00  0.00    -0.352 N 
ATOM      4  C   UNL A   1      40.309  29.225  31.926  1.00  0.00     0.253 C 
ATOM      5  O   UNL A   1      39.993  28.236  32.595  1.00  0.00    -0.269 OA
ATOM      6  H   UNL A   1      41.768  29.652  33.220  1.00  0.00     0.163 HD
BRANCH   4   7
ATOM      7  C   UNL A   1      39.462  29.538  30.731  1.00  0.00     0.064 A 
ATOM      8  C   UNL A   1      38.562  30.610  30.559  1.00  0.00     0.065 A 
ATOM      9  C   UNL A   1      38.103  30.911  29.262  1.00  0.00     0.028 A 
ATOM     10  C   UNL A   1      38.390  30.088  28.173  1.00  0.00     0.002 A 
ATOM     11  C   UNL A   1      39.758  28.731  29.608  1.00  0.00     0.016 A 
ATOM     12  C   UNL A   1      39.206  28.982  28.350  1.00  0.00     0.001 A 
BRANCH   8  13
ATOM     13  N   UNL A   1      38.185  31.505  31.626  1.00  0.00    -0.266 N 
BRANCH  13  14
ATOM     14  C   UNL A   1      38.932  32.813  31.659  1.00  0.00     0.136 C 
BRANCH  14  15
ATOM     15  C   UNL A   1      38.382  34.051  30.940  1.00  0.00     0.022 C 
BRANCH  15  16
ATOM     16  C   UNL A   1      38.892  34.455  29.556  1.00  0.00    -0.002 C 
ATOM     17  C   UNL A   1      40.353  34.840  29.484  1.00  0.00     0.004 C 
ENDBRANCH  15  16
ENDBRANCH  14  15
ENDBRANCH  13  14
BRANCH  13  18
ATOM     18  S   UNL A   1      36.646  31.330  32.339  1.00  0.00     0.264 S 
ATOM     19  O   UNL A   1      36.104  30.053  31.923  1.00  0.00    -0.201 OA
ATOM     20  O   UNL A   1      36.765  31.669  33.744  1.00  0.00    -0.201 OA
BRANCH  18  21
ATOM     21  C   UNL A   1      35.524  32.555  31.640  1.00  0.00     0.091 A 
ATOM     22  C   UNL A   1      35.230  32.478  30.255  1.00  0.00     0.025 A 
ATOM     23  C   UNL A   1      35.146  33.683  32.381  1.00  0.00     0.071 A 
ATOM     24  C   UNL A   1      34.500  33.482  29.612  1.00  0.00     0.032 A 
ATOM     25  C   UNL A   1      34.439  34.667  31.714  1.00  0.00     0.157 A 
ATOM     26  C   UNL A   1      34.121  34.563  30.372  1.00  0.00     0.090 A 
ATOM     27  O   UNL A   1      34.005  35.864  32.268  1.00  0.00    -0.408 OA
ATOM     28  N   UNL A   1      33.453  35.718  30.047  1.00  0.00    -0.277 N 
ATOM     29  C   UNL A   1      33.389  36.507  31.180  1.00  0.00     0.419 A 
ATOM     30  C   UNL A   1      32.903  36.072  28.771  1.00  0.00     0.157 C 
ATOM     31  O   UNL A   1      32.877  37.611  31.252  1.00  0.00    -0.223 OA
ENDBRANCH  18  21
ENDBRANCH  13  18
ENDBRANCH   8  13
ENDBRANCH   4   7
ENDBRANCH   2   3
ENDBRANCH   1   2
BRANCH   1  32
ATOM     32  C   UNL A   1      43.805  29.954  30.303  1.00  0.00     0.023 C 
BRANCH  32  33
ATOM     33  C   UNL A   1      43.023  30.077  28.998  1.00  0.00     0.116 C 
BRANCH  33  34
ATOM     34  N   UNL A   1      43.743  29.678  27.797  1.00  0.00    -0.352 N 
ATOM     35  C   UNL A   1      44.659  30.377  27.037  1.00  0.00     0.251 C 
ATOM     36  H   UNL A   1      43.546  28.769  27.477  1.00  0.00     0.163 HD
ATOM     37  O   UNL A   1      45.259  29.816  26.123  1.00  0.00    -0.269 OA
BRANCH  35  38
ATOM     38  C   UNL A   1      44.853  31.830  27.239  1.00  0.00     0.039 A 
ATOM     39  C   UNL A   1      43.788  32.667  26.894  1.00  0.00     0.014 A 
ATOM     40  C   UNL A   1      45.992  32.358  27.848  1.00  0.00     0.014 A 
ATOM     41  C   UNL A   1      43.792  33.997  27.307  1.00  0.00     0.010 A 
ATOM     42  C   UNL A   1      45.958  33.662  28.339  1.00  0.00     0.010 A 
ATOM     43  C   UNL A   1      44.839  34.476  28.109  1.00  0.00    -0.014 A 
BRANCH  43  44
ATOM     44  C   UNL A   1      44.710  35.789  28.790  1.00  0.00     0.031 A 
ATOM     45  C   UNL A   1      44.283  35.868  30.224  1.00  0.00     0.074 A 
ATOM     46  C   UNL A   1      44.919  36.915  28.075  1.00  0.00     0.049 A 
ATOM     47  N   UNL A   1      44.124  36.926  30.976  1.00  0.00    -0.248 NA
ATOM     48  C   UNL A   1      43.971  34.598  30.899  1.00  0.00     0.031 C 
ATOM     49  C   UNL A   1      45.253  36.960  26.648  1.00  0.00     0.029 A 
ATOM     50  N   UNL A   1      44.868  38.237  28.440  1.00  0.00    -0.354 N 
ATOM     51  C   UNL A   1      43.670  36.455  32.200  1.00  0.00     0.074 A 
ATOM     52  C   UNL A   1      43.544  35.019  32.080  1.00  0.00     0.031 C 
ATOM     53  C   UNL A   1      45.394  38.238  26.265  1.00  0.00     0.029 A 
ATOM     54  C   UNL A   1      45.128  39.107  27.405  1.00  0.00     0.049 A 
ATOM     55  H   UNL A   1      44.665  38.536  29.356  1.00  0.00     0.167 HD
ATOM     56  C   UNL A   1      43.405  37.155  33.329  1.00  0.00     0.034 A 
ATOM     57  C   UNL A   1      45.146  40.454  27.376  1.00  0.00     0.034 A 
ATOM     58  C   UNL A   1      43.555  38.581  33.440  1.00  0.00     0.049 A 
ATOM     59  C   UNL A   1      44.883  41.203  28.653  1.00  0.00     0.074 A 
ATOM     60  C   UNL A   1      43.389  39.379  34.556  1.00  0.00     0.029 A 
ATOM     61  N   UNL A   1      43.889  39.425  32.391  1.00  0.00    -0.354 N 
ATOM     62  N   UNL A   1      44.612  40.729  29.846  1.00  0.00    -0.248 NA
ATOM     63  C   UNL A   1      44.963  42.670  28.594  1.00  0.00     0.031 C 
ATOM     64  C   UNL A   1      43.587  40.710  34.174  1.00  0.00     0.029 A 
ATOM     65  C   UNL A   1      43.919  40.737  32.829  1.00  0.00     0.049 A 
ATOM     66  H   UNL A   1      44.077  39.133  31.469  1.00  0.00     0.167 HD
ATOM     67  C   UNL A   1      44.522  41.833  30.684  1.00  0.00     0.074 A 
ATOM     68  C   UNL A   1      44.791  42.999  29.867  1.00  0.00     0.031 C 
ATOM     69  C   UNL A   1      44.232  41.880  32.008  1.00  0.00     0.034 A 
BRANCH  56  70
ATOM     70  C   UNL A   1      42.958  36.380  34.541  1.00  0.00     0.023 A 
ATOM     71  C   UNL A   1      41.587  36.107  34.730  1.00  0.00     0.012 A 
ATOM     72  C   UNL A   1      43.894  35.888  35.471  1.00  0.00     0.148 A 
ATOM     73  C   UNL A   1      41.151  35.394  35.846  1.00  0.00     0.002 A 
ATOM     74  C   UNL A   1      43.456  35.137  36.556  1.00  0.00     0.091 A 
ATOM     75  F   UNL A   1      45.190  36.174  35.286  1.00  0.00    -0.205 F 
ATOM     76  C   UNL A   1      42.086  34.901  36.753  1.00  0.00     0.022 A 
BRANCH  74  77
ATOM     77  S   UNL A   1      44.585  34.391  37.737  1.00  0.00     0.127 S 
ATOM     78  O   UNL A   1      45.324  35.559  38.216  1.00  0.00    -0.237 OA
ATOM     79  O   UNL A   1      43.664  33.810  38.714  1.00  0.00    -0.237 OA
ATOM     80  O   UNL A   1      45.371  33.421  36.988  1.00  0.00    -0.744 OA
ENDBRANCH  74  77
ENDBRANCH  56  70
BRANCH  57  81
ATOM     81  C   UNL A   1      45.476  41.176  26.113  1.00  0.00     0.023 A 
ATOM     82  C   UNL A   1      46.808  41.209  25.655  1.00  0.00     0.012 A 
ATOM     83  C   UNL A   1      44.475  41.809  25.351  1.00  0.00     0.148 A 
ATOM     84  C   UNL A   1      47.142  41.889  24.482  1.00  0.00     0.002 A 
ATOM     85  C   UNL A   1      44.805  42.436  24.155  1.00  0.00     0.091 A 
ATOM     86  F   UNL A   1      43.215  41.776  25.806  1.00  0.00    -0.205 F 
ATOM     87  C   UNL A   1      46.140  42.493  23.727  1.00  0.00     0.022 A 
BRANCH  85  88
ATOM     88  S   UNL A   1      43.565  43.130  23.054  1.00  0.00     0.127 S 
ATOM     89  O   UNL A   1      42.581  42.053  22.996  1.00  0.00    -0.237 OA
ATOM     90  O   UNL A   1      43.138  44.318  23.793  1.00  0.00    -0.237 OA
ATOM     91  O   UNL A   1      44.263  43.417  21.809  1.00  0.00    -0.744 OA
ENDBRANCH  85  88
ENDBRANCH  57  81
BRANCH  69  92
ATOM     92  C   UNL A   1      44.224  43.232  32.670  1.00  0.00     0.023 A 
ATOM     93  C   UNL A   1      43.128  44.099  32.493  1.00  0.00     0.012 A 
ATOM     94  C   UNL A   1      45.274  43.610  33.532  1.00  0.00     0.148 A 
ATOM     95  C   UNL A   1      43.093  45.336  33.137  1.00  0.00     0.002 A 
ATOM     96  C   UNL A   1      45.206  44.818  34.211  1.00  0.00     0.091 A 
ATOM     97  F   UNL A   1      46.317  42.778  33.671  1.00  0.00    -0.205 F 
ATOM     98  C   UNL A   1      44.124  45.689  34.004  1.00  0.00     0.022 A 
BRANCH  96  99
ATOM     99  S   UNL A   1      46.434  45.310  35.426  1.00  0.00     0.127 S 
ATOM    100  O   UNL A   1      46.254  44.291  36.460  1.00  0.00    -0.237 OA
ATOM    101  O   UNL A   1      47.681  45.198  34.668  1.00  0.00    -0.237 OA
ATOM    102  O   UNL A   1      46.087  46.668  35.823  1.00  0.00    -0.744 OA
ENDBRANCH  96  99
ENDBRANCH  69  92
ENDBRANCH  43  44
ENDBRANCH  35  38
ENDBRANCH  33  34
ENDBRANCH  32  33
ENDBRANCH   1  32
TORSDOF 20
ENDMDL
MODEL 2
REMARK VINA RESULT:      -9.5      5.147     10.629
REMARK SMILES CCCCN(c1ccccc1C(=O)NCCCCNC(=O)c1ccc(-c2c3nc(c(-c4cccc(S(=O)(=O)[O-])c4F)c4ccc([nH]4)c(-c4cccc(S(=O)(=O)[O-])c4F)c4nc(c(-c5cccc(S(=O)(=O)[O-])c5F)c5ccc2[nH]5)C=C4)C=C3)cc1)S(=O)(=O)c1ccc2c(c1)oc(=O)n2C
REMARK SMILES IDX 16 1 15 2 14 3 12 4 13 5 11 7 6 8 7 9 8 10 10 11 9 12 5 13
REMARK SMILES IDX 4 14 3 15 2 16 1 17 85 18 86 19 87 20 88 21 89 22 93 23
REMARK SMILES IDX 90 24 92 25 91 26 94 27 97 28 95 29 98 30 96 31 17 32 18 33
REMARK SMILES IDX 19 34 20 35 21 37 22 38 23 39 84 40 24 41 83 42 25 43 26 44
REMARK SMILES IDX 27 45 77 46 28 47 82 48 76 49 78 50 29 51 81 52 75 53 74 54
REMARK SMILES IDX 30 56 62 57 42 58 61 59 43 60 46 61 60 62 79 63 44 64 45 65
REMARK SMILES IDX 59 67 80 68 47 69 31 70 32 71 40 72 33 73 35 74 41 75 34 76
REMARK SMILES IDX 36 77 37 78 38 79 39 80 63 81 64 82 72 83 65 84 67 85 73 86
REMARK SMILES IDX 66 87 68 88 69 89 70 90 71 91 48 92 49 93 57 94 50 95 52 96
REMARK SMILES IDX 58 97 51 98 53 99 54 100 55 101 56 102
REMARK H PARENT 14 6 19 36 78 55 46 66
REMARK Flexibility Score: inf
ROOT
ATOM      1  C   UNL A   1      37.992  32.723  35.689  1.00  0.00     0.023 C 
ENDROOT
BRANCH   1   2
ATOM      2  C   UNL A   1      37.134  32.659  34.433  1.00  0.00     0.116 C 
BRANCH   2   3
ATOM      3  N   UNL A   1      36.443  33.876  34.081  1.00  0.00    -0.352 N 
ATOM      4  C   UNL A   1      36.443  34.597  32.912  1.00  0.00     0.253 C 
ATOM      5  O   UNL A   1      35.705  35.586  32.864  1.00  0.00    -0.269 OA
ATOM      6  H   UNL A   1      35.879  34.250  34.795  1.00  0.00     0.163 HD
BRANCH   4   7
ATOM      7  C   UNL A   1      37.289  34.320  31.708  1.00  0.00     0.064 A 
ATOM      8  C   UNL A   1      36.868  34.097  30.381  1.00  0.00     0.065 A 
ATOM      9  C   UNL A   1      37.819  34.169  29.344  1.00  0.00     0.028 A 
ATOM     10  C   UNL A   1      39.182  34.301  29.607  1.00  0.00     0.002 A 
ATOM     11  C   UNL A   1      38.675  34.475  31.949  1.00  0.00     0.016 A 
ATOM     12  C   UNL A   1      39.614  34.436  30.917  1.00  0.00     0.001 A 
BRANCH   8  13
ATOM     13  N   UNL A   1      35.484  33.928  30.008  1.00  0.00    -0.266 N 
BRANCH  13  14
ATOM     14  C   UNL A   1      34.945  34.966  29.059  1.00  0.00     0.136 C 
BRANCH  14  15
ATOM     15  C   UNL A   1      33.475  35.397  29.119  1.00  0.00     0.022 C 
BRANCH  15  16
ATOM     16  C   UNL A   1      32.816  35.784  30.445  1.00  0.00    -0.002 C 
ATOM     17  C   UNL A   1      33.247  37.112  31.027  1.00  0.00     0.004 C 
ENDBRANCH  15  16
ENDBRANCH  14  15
ENDBRANCH  13  14
BRANCH  13  18
ATOM     18  S   UNL A   1      34.781  32.380  30.141  1.00  0.00     0.264 S 
ATOM     19  O   UNL A   1      34.288  32.230  31.495  1.00  0.00    -0.201 OA
ATOM     20  O   UNL A   1      33.905  32.189  29.002  1.00  0.00    -0.201 OA
BRANCH  18  21
ATOM     21  C   UNL A   1      36.066  31.127  29.979  1.00  0.00     0.091 A 
ATOM     22  C   UNL A   1      36.678  30.641  31.161  1.00  0.00     0.025 A 
ATOM     23  C   UNL A   1      36.608  30.820  28.724  1.00  0.00     0.071 A 
ATOM     24  C   UNL A   1      37.787  29.791  31.108  1.00  0.00     0.032 A 
ATOM     25  C   UNL A   1      37.715  29.989  28.703  1.00  0.00     0.157 A 
ATOM     26  C   UNL A   1      38.280  29.487  29.861  1.00  0.00     0.090 A 
ATOM     27  O   UNL A   1      38.407  29.597  27.565  1.00  0.00    -0.408 OA
ATOM     28  N   UNL A   1      39.361  28.738  29.465  1.00  0.00    -0.277 N 
ATOM     29  C   UNL A   1      39.448  28.809  28.087  1.00  0.00     0.419 A 
ATOM     30  C   UNL A   1      40.259  28.000  30.304  1.00  0.00     0.157 C 
ATOM     31  O   UNL A   1      40.298  28.274  27.398  1.00  0.00    -0.223 OA
ENDBRANCH  18  21
ENDBRANCH  13  18
ENDBRANCH   8  13
ENDBRANCH   4   7
ENDBRANCH   2   3
ENDBRANCH   1   2
BRANCH   1  32
ATOM     32  C   UNL A   1      37.481  33.606  36.830  1.00  0.00     0.023 C 
BRANCH  32  33
ATOM     33  C   UNL A   1      38.317  33.690  38.104  1.00  0.00     0.116 C 
BRANCH  33  34
ATOM     34  N   UNL A   1      38.740  35.029  38.488  1.00  0.00    -0.352 N 
ATOM     35  C   UNL A   1      39.612  35.898  37.865  1.00  0.00     0.251 C 
ATOM     36  H   UNL A   1      38.343  35.367  39.323  1.00  0.00     0.163 HD
ATOM     37  O   UNL A   1      39.742  37.047  38.283  1.00  0.00    -0.269 OA
BRANCH  35  38
ATOM     38  C   UNL A   1      40.478  35.433  36.760  1.00  0.00     0.039 A 
ATOM     39  C   UNL A   1      41.590  34.660  37.105  1.00  0.00     0.014 A 
ATOM     40  C   UNL A   1      40.161  35.646  35.417  1.00  0.00     0.014 A 
ATOM     41  C   UNL A   1      42.284  33.966  36.117  1.00  0.00     0.010 A 
ATOM     42  C   UNL A   1      40.797  34.883  34.439  1.00  0.00     0.010 A 
ATOM     43  C   UNL A   1      41.833  34.004  34.789  1.00  0.00    -0.014 A 
BRANCH  43  44
ATOM     44  C   UNL A   1      42.380  33.050  33.792  1.00  0.00     0.031 A 
ATOM     45  C   UNL A   1      42.516  31.594  34.121  1.00  0.00     0.074 A 
ATOM     46  C   UNL A   1      42.815  33.527  32.606  1.00  0.00     0.049 A 
ATOM     47  N   UNL A   1      42.966  30.622  33.373  1.00  0.00    -0.248 NA
ATOM     48  C   UNL A   1      42.118  31.177  35.475  1.00  0.00     0.031 C 
ATOM     49  C   UNL A   1      42.813  34.939  32.211  1.00  0.00     0.029 A 
ATOM     50  N   UNL A   1      43.358  32.885  31.521  1.00  0.00    -0.354 N 
ATOM     51  C   UNL A   1      42.932  29.485  34.167  1.00  0.00     0.074 A 
ATOM     52  C   UNL A   1      42.450  29.893  35.469  1.00  0.00     0.031 C 
ATOM     53  C   UNL A   1      43.310  35.054  30.971  1.00  0.00     0.029 A 
ATOM     54  C   UNL A   1      43.700  33.733  30.491  1.00  0.00     0.049 A 
ATOM     55  H   UNL A   1      43.490  31.911  31.482  1.00  0.00     0.167 HD
ATOM     56  C   UNL A   1      43.249  28.211  33.835  1.00  0.00     0.034 A 
ATOM     57  C   UNL A   1      44.267  33.476  29.297  1.00  0.00     0.034 A 
ATOM     58  C   UNL A   1      43.708  27.816  32.530  1.00  0.00     0.049 A 
ATOM     59  C   UNL A   1      44.576  32.048  28.940  1.00  0.00     0.074 A 
ATOM     60  C   UNL A   1      43.983  26.544  32.064  1.00  0.00     0.029 A 
ATOM     61  N   UNL A   1      43.975  28.691  31.487  1.00  0.00    -0.354 N 
ATOM     62  N   UNL A   1      44.384  30.962  29.651  1.00  0.00    -0.248 NA
ATOM     63  C   UNL A   1      45.147  31.802  27.609  1.00  0.00     0.031 C 
ATOM     64  C   UNL A   1      44.453  26.653  30.751  1.00  0.00     0.029 A 
ATOM     65  C   UNL A   1      44.429  27.989  30.384  1.00  0.00     0.049 A 
ATOM     66  H   UNL A   1      43.861  29.668  31.527  1.00  0.00     0.167 HD
ATOM     67  C   UNL A   1      44.776  29.903  28.841  1.00  0.00     0.074 A 
ATOM     68  C   UNL A   1      45.196  30.478  27.579  1.00  0.00     0.031 C 
ATOM     69  C   UNL A   1      44.800  28.576  29.121  1.00  0.00     0.034 A 
BRANCH  56  70
ATOM     70  C   UNL A   1      43.079  27.152  34.891  1.00  0.00     0.023 A 
ATOM     71  C   UNL A   1      41.843  26.486  35.023  1.00  0.00     0.012 A 
ATOM     72  C   UNL A   1      44.152  26.785  35.727  1.00  0.00     0.148 A 
ATOM     73  C   UNL A   1      41.663  25.504  35.996  1.00  0.00     0.002 A 
ATOM     74  C   UNL A   1      43.980  25.772  36.663  1.00  0.00     0.091 A 
ATOM     75  F   UNL A   1      45.313  27.442  35.602  1.00  0.00    -0.205 F 
ATOM     76  C   UNL A   1      42.734  25.141  36.809  1.00  0.00     0.022 A 
BRANCH  74  77
ATOM     77  S   UNL A   1      45.317  25.175  37.704  1.00  0.00     0.127 S 
ATOM     78  O   UNL A   1      45.610  26.359  38.512  1.00  0.00    -0.237 OA
ATOM     79  O   UNL A   1      44.672  24.084  38.434  1.00  0.00    -0.237 OA
ATOM     80  O   UNL A   1      46.379  24.761  36.799  1.00  0.00    -0.744 OA
ENDBRANCH  74  77
ENDBRANCH  56  70
BRANCH  57  81
ATOM     81  C   UNL A   1      44.528  34.585  28.333  1.00  0.00     0.023 A 
ATOM     82  C   UNL A   1      43.486  35.050  27.506  1.00  0.00     0.012 A 
ATOM     83  C   UNL A   1      45.793  35.196  28.247  1.00  0.00     0.148 A 
ATOM     84  C   UNL A   1      43.710  36.078  26.588  1.00  0.00     0.002 A 
ATOM     85  C   UNL A   1      45.995  36.256  27.371  1.00  0.00     0.091 A 
ATOM     86  F   UNL A   1      46.775  34.735  29.034  1.00  0.00    -0.205 F 
ATOM     87  C   UNL A   1      44.959  36.687  26.527  1.00  0.00     0.022 A 
BRANCH  85  88
ATOM     88  S   UNL A   1      47.533  37.184  27.316  1.00  0.00     0.127 S 
ATOM     89  O   UNL A   1      48.474  36.175  26.840  1.00  0.00    -0.237 OA
ATOM     90  O   UNL A   1      47.215  38.236  26.350  1.00  0.00    -0.237 OA
ATOM     91  O   UNL A   1      47.751  37.663  28.674  1.00  0.00    -0.744 OA
ENDBRANCH  85  88
ENDBRANCH  57  81
BRANCH  69  92
ATOM     92  C   UNL A   1      45.260  27.644  28.032  1.00  0.00     0.023 A 
ATOM     93  C   UNL A   1      46.636  27.446  27.806  1.00  0.00     0.012 A 
ATOM     94  C   UNL A   1      44.322  26.907  27.282  1.00  0.00     0.148 A 
ATOM     95  C   UNL A   1      47.072  26.553  26.828  1.00  0.00     0.002 A 
ATOM     96  C   UNL A   1      44.764  25.979  26.348  1.00  0.00     0.091 A 
ATOM     97  F   UNL A   1      43.017  27.124  27.499  1.00  0.00    -0.205 F 
ATOM     98  C   UNL A   1      46.137  25.811  26.110  1.00  0.00     0.022 A 
BRANCH  96  99
ATOM     99  S   UNL A   1      43.638  24.905  25.451  1.00  0.00     0.127 S 
ATOM    100  O   UNL A   1      42.982  24.185  26.541  1.00  0.00    -0.237 OA
ATOM    101  O   UNL A   1      42.783  25.867  24.754  1.00  0.00    -0.237 OA
ATOM    102  O   UNL A   1      44.470  24.090  24.576  1.00  0.00    -0.744 OA
ENDBRANCH  96  99
ENDBRANCH  69  92
ENDBRANCH  43  44
ENDBRANCH  35  38
ENDBRANCH  33  34
ENDBRANCH  32  33
ENDBRANCH   1  32
TORSDOF 20
ENDMDL
MODEL 3
REMARK VINA RESULT:      -9.2      2.024      2.734
REMARK SMILES CCCCN(c1ccccc1C(=O)NCCCCNC(=O)c1ccc(-c2c3nc(c(-c4cccc(S(=O)(=O)[O-])c4F)c4ccc([nH]4)c(-c4cccc(S(=O)(=O)[O-])c4F)c4nc(c(-c5cccc(S(=O)(=O)[O-])c5F)c5ccc2[nH]5)C=C4)C=C3)cc1)S(=O)(=O)c1ccc2c(c1)oc(=O)n2C
REMARK SMILES IDX 16 1 15 2 14 3 12 4 13 5 11 7 6 8 7 9 8 10 10 11 9 12 5 13
REMARK SMILES IDX 4 14 3 15 2 16 1 17 85 18 86 19 87 20 88 21 89 22 93 23
REMARK SMILES IDX 90 24 92 25 91 26 94 27 97 28 95 29 98 30 96 31 17 32 18 33
REMARK SMILES IDX 19 34 20 35 21 37 22 38 23 39 84 40 24 41 83 42 25 43 26 44
REMARK SMILES IDX 27 45 77 46 28 47 82 48 76 49 78 50 29 51 81 52 75 53 74 54
REMARK SMILES IDX 30 56 62 57 42 58 61 59 43 60 46 61 60 62 79 63 44 64 45 65
REMARK SMILES IDX 59 67 80 68 47 69 31 70 32 71 40 72 33 73 35 74 41 75 34 76
REMARK SMILES IDX 36 77 37 78 38 79 39 80 63 81 64 82 72 83 65 84 67 85 73 86
REMARK SMILES IDX 66 87 68 88 69 89 70 90 71 91 48 92 49 93 57 94 50 95 52 96
REMARK SMILES IDX 58 97 51 98 53 99 54 100 55 101 56 102
REMARK H PARENT 14 6 19 36 78 55 46 66
REMARK Flexibility Score: inf
ROOT
ATOM      1  C   UNL A   1      44.111  27.274  30.944  1.00  0.00     0.023 C 
ENDROOT
BRANCH   1   2
ATOM      2  C   UNL A   1      43.103  28.413  30.856  1.00  0.00     0.116 C 
BRANCH   2   3
ATOM      3  N   UNL A   1      41.902  28.251  31.639  1.00  0.00    -0.352 N 
ATOM      4  C   UNL A   1      40.583  28.220  31.255  1.00  0.00     0.253 C 
ATOM      5  O   UNL A   1      39.747  28.010  32.139  1.00  0.00    -0.269 OA
ATOM      6  H   UNL A   1      42.051  28.146  32.605  1.00  0.00     0.163 HD
BRANCH   4   7
ATOM      7  C   UNL A   1      40.065  28.464  29.871  1.00  0.00     0.064 A 
ATOM      8  C   UNL A   1      39.180  29.474  29.440  1.00  0.00     0.065 A 
ATOM      9  C   UNL A   1      39.061  29.730  28.059  1.00  0.00     0.028 A 
ATOM     10  C   UNL A   1      39.673  28.915  27.107  1.00  0.00     0.002 A 
ATOM     11  C   UNL A   1      40.693  27.665  28.887  1.00  0.00     0.016 A 
ATOM     12  C   UNL A   1      40.478  27.867  27.523  1.00  0.00     0.001 A 
BRANCH   8  13
ATOM     13  N   UNL A   1      38.482  30.354  30.345  1.00  0.00    -0.266 N 
BRANCH  13  14
ATOM     14  C   UNL A   1      39.113  31.709  30.534  1.00  0.00     0.136 C 
BRANCH  14  15
ATOM     15  C   UNL A   1      39.219  32.339  31.928  1.00  0.00     0.022 C 
BRANCH  15  16
ATOM     16  C   UNL A   1      40.459  33.131  32.348  1.00  0.00    -0.002 C 
ATOM     17  C   UNL A   1      40.221  34.584  32.693  1.00  0.00     0.004 C 
ENDBRANCH  15  16
ENDBRANCH  14  15
ENDBRANCH  13  14
BRANCH  13  18
ATOM     18  S   UNL A   1      36.824  30.086  30.637  1.00  0.00     0.264 S 
ATOM     19  O   UNL A   1      36.270  29.411  29.482  1.00  0.00    -0.201 OA
ATOM     20  O   UNL A   1      36.691  29.522  31.966  1.00  0.00    -0.201 OA
BRANCH  18  21
ATOM     21  C   UNL A   1      35.967  31.670  30.697  1.00  0.00     0.091 A 
ATOM     22  C   UNL A   1      35.629  32.200  31.968  1.00  0.00     0.025 A 
ATOM     23  C   UNL A   1      35.439  32.241  29.530  1.00  0.00     0.071 A 
ATOM     24  C   UNL A   1      34.826  33.338  32.090  1.00  0.00     0.032 A 
ATOM     25  C   UNL A   1      34.636  33.357  29.683  1.00  0.00     0.157 A 
ATOM     26  C   UNL A   1      34.346  33.890  30.926  1.00  0.00     0.090 A 
ATOM     27  O   UNL A   1      34.001  34.040  28.654  1.00  0.00    -0.408 OA
ATOM     28  N   UNL A   1      33.511  34.957  30.698  1.00  0.00    -0.277 N 
ATOM     29  C   UNL A   1      33.293  35.045  29.335  1.00  0.00     0.419 A 
ATOM     30  C   UNL A   1      32.950  35.843  31.675  1.00  0.00     0.157 C 
ATOM     31  O   UNL A   1      32.589  35.869  28.778  1.00  0.00    -0.223 OA
ENDBRANCH  18  21
ENDBRANCH  13  18
ENDBRANCH   8  13
ENDBRANCH   4   7
ENDBRANCH   2   3
ENDBRANCH   1   2
BRANCH   1  32
ATOM     32  C   UNL A   1      45.422  27.451  30.174  1.00  0.00     0.023 C 
BRANCH  32  33
ATOM     33  C   UNL A   1      45.482  28.530  29.097  1.00  0.00     0.116 C 
BRANCH  33  34
ATOM     34  N   UNL A   1      44.801  28.208  27.850  1.00  0.00    -0.352 N 
ATOM     35  C   UNL A   1      44.202  29.039  26.926  1.00  0.00     0.251 C 
ATOM     36  H   UNL A   1      44.762  27.249  27.633  1.00  0.00     0.163 HD
ATOM     37  O   UNL A   1      43.788  28.581  25.862  1.00  0.00    -0.269 OA
BRANCH  35  38
ATOM     38  C   UNL A   1      43.951  30.461  27.242  1.00  0.00     0.039 A 
ATOM     39  C   UNL A   1      42.815  30.753  28.004  1.00  0.00     0.014 A 
ATOM     40  C   UNL A   1      44.849  31.475  26.906  1.00  0.00     0.014 A 
ATOM     41  C   UNL A   1      42.666  32.018  28.566  1.00  0.00     0.010 A 
ATOM     42  C   UNL A   1      44.747  32.712  27.540  1.00  0.00     0.010 A 
ATOM     43  C   UNL A   1      43.678  32.977  28.410  1.00  0.00    -0.014 A 
BRANCH  43  44
ATOM     44  C   UNL A   1      43.667  34.210  29.236  1.00  0.00     0.031 A 
ATOM     45  C   UNL A   1      43.806  34.133  30.726  1.00  0.00     0.074 A 
ATOM     46  C   UNL A   1      43.461  35.397  28.628  1.00  0.00     0.049 A 
ATOM     47  N   UNL A   1      43.823  35.106  31.600  1.00  0.00    -0.248 NA
ATOM     48  C   UNL A   1      43.918  32.791  31.318  1.00  0.00     0.031 C 
ATOM     49  C   UNL A   1      43.225  35.582  27.192  1.00  0.00     0.029 A 
ATOM     50  N   UNL A   1      43.401  36.672  29.135  1.00  0.00    -0.354 N 
ATOM     51  C   UNL A   1      43.920  34.496  32.842  1.00  0.00     0.074 A 
ATOM     52  C   UNL A   1      43.923  33.068  32.614  1.00  0.00     0.031 C 
ATOM     53  C   UNL A   1      43.065  36.888  26.933  1.00  0.00     0.029 A 
ATOM     54  C   UNL A   1      43.150  37.635  28.183  1.00  0.00     0.049 A 
ATOM     55  H   UNL A   1      43.525  36.878  30.089  1.00  0.00     0.167 HD
ATOM     56  C   UNL A   1      44.023  35.075  34.062  1.00  0.00     0.034 A 
ATOM     57  C   UNL A   1      43.002  38.968  28.304  1.00  0.00     0.034 A 
ATOM     58  C   UNL A   1      44.039  36.498  34.273  1.00  0.00     0.049 A 
ATOM     59  C   UNL A   1      43.157  39.588  29.666  1.00  0.00     0.074 A 
ATOM     60  C   UNL A   1      44.216  37.190  35.457  1.00  0.00     0.029 A 
ATOM     61  N   UNL A   1      43.855  37.447  33.278  1.00  0.00    -0.354 N 
ATOM     62  N   UNL A   1      43.411  39.003  30.813  1.00  0.00    -0.248 NA
ATOM     63  C   UNL A   1      43.040  41.050  29.750  1.00  0.00     0.031 C 
ATOM     64  C   UNL A   1      44.102  38.557  35.183  1.00  0.00     0.029 A 
ATOM     65  C   UNL A   1      43.897  38.719  33.822  1.00  0.00     0.049 A 
ATOM     66  H   UNL A   1      43.713  37.246  32.325  1.00  0.00     0.167 HD
ATOM     67  C   UNL A   1      43.519  40.026  31.746  1.00  0.00     0.074 A 
ATOM     68  C   UNL A   1      43.324  41.269  31.026  1.00  0.00     0.031 C 
ATOM     69  C   UNL A   1      43.745  39.945  33.081  1.00  0.00     0.034 A 
BRANCH  56  70
ATOM     70  C   UNL A   1      44.157  34.167  35.256  1.00  0.00     0.023 A 
ATOM     71  C   UNL A   1      45.438  33.777  35.698  1.00  0.00     0.012 A 
ATOM     72  C   UNL A   1      43.021  33.732  35.966  1.00  0.00     0.148 A 
ATOM     73  C   UNL A   1      45.585  32.935  36.800  1.00  0.00     0.002 A 
ATOM     74  C   UNL A   1      43.177  32.932  37.091  1.00  0.00     0.091 A 
ATOM     75  F   UNL A   1      41.810  34.097  35.519  1.00  0.00    -0.205 F 
ATOM     76  C   UNL A   1      44.456  32.521  37.501  1.00  0.00     0.022 A 
BRANCH  74  77
ATOM     77  S   UNL A   1      41.793  32.410  38.110  1.00  0.00     0.127 S 
ATOM     78  O   UNL A   1      41.031  31.586  37.170  1.00  0.00    -0.237 OA
ATOM     79  O   UNL A   1      42.462  31.660  39.174  1.00  0.00    -0.237 OA
ATOM     80  O   UNL A   1      41.130  33.630  38.547  1.00  0.00    -0.744 OA
ENDBRANCH  74  77
ENDBRANCH  56  70
BRANCH  57  81
ATOM     81  C   UNL A   1      42.747  39.810  27.099  1.00  0.00     0.023 A 
ATOM     82  C   UNL A   1      41.432  39.954  26.614  1.00  0.00     0.012 A 
ATOM     83  C   UNL A   1      43.794  40.488  26.446  1.00  0.00     0.148 A 
ATOM     84  C   UNL A   1      41.171  40.726  25.481  1.00  0.00     0.002 A 
ATOM     85  C   UNL A   1      43.521  41.301  25.352  1.00  0.00     0.091 A 
ATOM     86  F   UNL A   1      45.040  40.332  26.915  1.00  0.00    -0.205 F 
ATOM     87  C   UNL A   1      42.212  41.407  24.857  1.00  0.00     0.022 A 
BRANCH  85  88
ATOM     88  S   UNL A   1      44.777  42.315  24.565  1.00  0.00     0.127 S 
ATOM     89  O   UNL A   1      44.018  42.954  23.494  1.00  0.00    -0.237 OA
ATOM     90  O   UNL A   1      45.174  43.204  25.656  1.00  0.00    -0.237 OA
ATOM     91  O   UNL A   1      45.817  41.389  24.137  1.00  0.00    -0.744 OA
ENDBRANCH  85  88
ENDBRANCH  57  81
BRANCH  69  92
ATOM     92  C   UNL A   1      43.833  41.236  33.850  1.00  0.00     0.023 A 
ATOM     93  C   UNL A   1      42.659  41.919  34.221  1.00  0.00     0.012 A 
ATOM     94  C   UNL A   1      45.084  41.731  34.272  1.00  0.00     0.148 A 
ATOM     95  C   UNL A   1      42.729  43.094  34.970  1.00  0.00     0.002 A 
ATOM     96  C   UNL A   1      45.143  42.869  35.063  1.00  0.00     0.091 A 
ATOM     97  F   UNL A   1      46.191  41.076  33.892  1.00  0.00    -0.205 F 
ATOM     98  C   UNL A   1      43.968  43.560  35.402  1.00  0.00     0.022 A 
BRANCH  96  99
ATOM     99  S   UNL A   1      46.684  43.484  35.752  1.00  0.00     0.127 S 
ATOM    100  O   UNL A   1      47.423  43.851  34.545  1.00  0.00    -0.237 OA
ATOM    101  O   UNL A   1      46.231  44.618  36.559  1.00  0.00    -0.237 OA
ATOM    102  O   UNL A   1      47.250  42.384  36.520  1.00  0.00    -0.744 OA
ENDBRANCH  96  99
ENDBRANCH  69  92
ENDBRANCH  43  44
ENDBRANCH  35  38
ENDBRANCH  33  34
ENDBRANCH  32  33
ENDBRANCH   1  32
TORSDOF 20
ENDMDL
