MODEL 1
REMARK VINA RESULT:     -11.1      0.000      0.000
REMARK SMILES CCc1cc(C(=O)N2CCO[C@@H](CC(=O)NCCCCNC(=O)c3ccc(-c4c5nc(c(-c6cccc(S(=O)(=O)[O-])c6F)c6ccc([nH]6)c(-c6cccc(S(=O)(=O)[O-])c6F)c6nc(c(-c7cccc(S(=O)(=O)[O-])c7F)c7ccc4[nH]7)C=C6)C=C5)cc3)C2)sc1C
REMARK SMILES IDX 18 1 17 2 16 3 14 4 15 5 13 7 12 8 8 9 9 10 87 11 10 12
REMARK SMILES IDX 11 13 6 14 7 15 5 16 3 17 4 18 89 19 88 20 90 21 2 22 1 23
REMARK SMILES IDX 19 24 20 25 21 26 22 27 23 29 24 30 25 31 86 32 26 33 85 34
REMARK SMILES IDX 27 35 28 36 29 37 79 38 30 39 84 40 78 41 80 42 31 43 83 44
REMARK SMILES IDX 77 45 76 46 32 48 64 49 44 50 63 51 45 52 48 53 62 54 81 55
REMARK SMILES IDX 46 56 47 57 61 59 82 60 49 61 33 62 34 63 42 64 35 65 37 66
REMARK SMILES IDX 43 67 36 68 38 69 39 70 40 71 41 72 65 73 66 74 74 75 67 76
REMARK SMILES IDX 69 77 75 78 68 79 70 80 71 81 72 82 73 83 50 84 51 85 59 86
REMARK SMILES IDX 52 87 54 88 60 89 53 90 55 91 56 92 57 93 58 94
REMARK H PARENT 16 6 21 28 80 47 48 58
REMARK Flexibility Score: inf
ROOT
ATOM      1  C   UNL A   1      34.376  30.714  27.992  1.00  0.00     0.023 C 
ENDROOT
BRANCH   1   2
ATOM      2  C   UNL A   1      34.226  29.374  27.266  1.00  0.00     0.116 C 
BRANCH   2   3
ATOM      3  N   UNL A   1      33.093  28.613  27.780  1.00  0.00    -0.356 N 
ATOM      4  C   UNL A   1      31.926  28.229  27.188  1.00  0.00     0.222 C 
ATOM      5  O   UNL A   1      31.081  27.656  27.878  1.00  0.00    -0.275 OA
ATOM      6  H   UNL A   1      33.186  28.327  28.718  1.00  0.00     0.163 HD
BRANCH   4   7
ATOM      7  C   UNL A   1      31.648  28.510  25.724  1.00  0.00     0.133 C 
BRANCH   7   8
ATOM      8  C   UNL A   1      32.556  27.695  24.790  1.00  0.00     0.147 C 
ATOM      9  N   UNL A   1      32.514  25.446  23.598  1.00  0.00    -0.333 N 
ATOM     10  C   UNL A   1      32.619  26.169  22.341  1.00  0.00     0.148 C 
ATOM     11  C   UNL A   1      32.041  26.258  24.703  1.00  0.00     0.152 C 
ATOM     12  C   UNL A   1      33.286  27.530  22.542  1.00  0.00     0.182 C 
ATOM     13  O   UNL A   1      32.545  28.318  23.489  1.00  0.00    -0.374 OA
BRANCH   9  14
ATOM     14  C   UNL A   1      31.899  24.180  23.546  1.00  0.00     0.264 C 
ATOM     15  O   UNL A   1      30.703  24.092  23.264  1.00  0.00    -0.268 OA
BRANCH  14  16
ATOM     16  C   UNL A   1      32.732  23.056  23.933  1.00  0.00     0.093 A 
ATOM     17  C   UNL A   1      33.570  20.911  24.414  1.00  0.00    -0.034 A 
ATOM     18  C   UNL A   1      32.447  21.710  24.003  1.00  0.00     0.029 A 
ATOM     19  C   UNL A   1      34.702  21.694  24.569  1.00  0.00     0.005 A 
ATOM     20  S   UNL A   1      34.366  23.355  24.345  1.00  0.00    -0.135 S 
ATOM     21  C   UNL A   1      36.099  21.292  24.915  1.00  0.00     0.056 C 
BRANCH  17  22
ATOM     22  C   UNL A   1      33.495  19.425  24.618  1.00  0.00     0.033 C 
ATOM     23  C   UNL A   1      32.514  18.758  23.664  1.00  0.00     0.009 C 
ENDBRANCH  17  22
ENDBRANCH  14  16
ENDBRANCH   9  14
ENDBRANCH   7   8
ENDBRANCH   4   7
ENDBRANCH   2   3
ENDBRANCH   1   2
BRANCH   1  24
ATOM     24  C   UNL A   1      33.216  31.684  27.847  1.00  0.00     0.023 C 
BRANCH  24  25
ATOM     25  C   UNL A   1      33.556  32.969  27.118  1.00  0.00     0.116 C 
BRANCH  25  26
ATOM     26  N   UNL A   1      32.906  34.154  27.666  1.00  0.00    -0.352 N 
ATOM     27  C   UNL A   1      33.211  34.870  28.803  1.00  0.00     0.251 C 
ATOM     28  H   UNL A   1      32.139  34.491  27.149  1.00  0.00     0.163 HD
ATOM     29  O   UNL A   1      32.524  35.824  29.141  1.00  0.00    -0.269 OA
BRANCH  27  30
ATOM     30  C   UNL A   1      34.350  34.438  29.643  1.00  0.00     0.039 A 
ATOM     31  C   UNL A   1      34.087  33.763  30.837  1.00  0.00     0.014 A 
ATOM     32  C   UNL A   1      35.665  34.630  29.218  1.00  0.00     0.014 A 
ATOM     33  C   UNL A   1      35.143  33.203  31.558  1.00  0.00     0.010 A 
ATOM     34  C   UNL A   1      36.700  33.977  29.874  1.00  0.00     0.010 A 
ATOM     35  C   UNL A   1      36.454  33.265  31.056  1.00  0.00    -0.014 A 
BRANCH  35  36
ATOM     36  C   UNL A   1      37.579  32.590  31.747  1.00  0.00     0.031 A 
ATOM     37  C   UNL A   1      38.311  31.462  31.070  1.00  0.00     0.074 A 
ATOM     38  C   UNL A   1      37.880  32.925  33.018  1.00  0.00     0.049 A 
ATOM     39  N   UNL A   1      39.293  30.728  31.524  1.00  0.00    -0.248 NA
ATOM     40  C   UNL A   1      37.854  31.077  29.724  1.00  0.00     0.031 C 
ATOM     41  C   UNL A   1      37.165  33.918  33.825  1.00  0.00     0.029 A 
ATOM     42  N   UNL A   1      38.854  32.455  33.861  1.00  0.00    -0.354 N 
ATOM     43  C   UNL A   1      39.534  29.771  30.546  1.00  0.00     0.074 A 
ATOM     44  C   UNL A   1      38.566  29.985  29.495  1.00  0.00     0.031 C 
ATOM     45  C   UNL A   1      37.740  33.998  35.035  1.00  0.00     0.029 A 
ATOM     46  C   UNL A   1      38.855  33.059  35.097  1.00  0.00     0.049 A 
ATOM     47  H   UNL A   1      39.493  31.750  33.606  1.00  0.00     0.167 HD
ATOM     48  C   UNL A   1      40.507  28.829  30.499  1.00  0.00     0.034 A 
ATOM     49  C   UNL A   1      39.676  32.887  36.151  1.00  0.00     0.034 A 
ATOM     50  C   UNL A   1      41.521  28.679  31.505  1.00  0.00     0.049 A 
ATOM     51  C   UNL A   1      40.821  31.920  36.027  1.00  0.00     0.074 A 
ATOM     52  C   UNL A   1      42.619  27.840  31.503  1.00  0.00     0.029 A 
ATOM     53  N   UNL A   1      41.567  29.399  32.688  1.00  0.00    -0.354 N 
ATOM     54  N   UNL A   1      41.146  31.150  35.016  1.00  0.00    -0.248 NA
ATOM     55  C   UNL A   1      41.740  31.828  37.170  1.00  0.00     0.031 C 
ATOM     56  C   UNL A   1      43.333  28.055  32.687  1.00  0.00     0.029 A 
ATOM     57  C   UNL A   1      42.678  29.029  33.425  1.00  0.00     0.049 A 
ATOM     58  H   UNL A   1      40.907  30.075  32.964  1.00  0.00     0.167 HD
ATOM     59  C   UNL A   1      42.318  30.504  35.388  1.00  0.00     0.074 A 
ATOM     60  C   UNL A   1      42.663  30.995  36.708  1.00  0.00     0.031 C 
ATOM     61  C   UNL A   1      43.032  29.571  34.711  1.00  0.00     0.034 A 
BRANCH  48  62
ATOM     62  C   UNL A   1      40.564  27.956  29.274  1.00  0.00     0.023 A 
ATOM     63  C   UNL A   1      39.717  26.832  29.191  1.00  0.00     0.012 A 
ATOM     64  C   UNL A   1      41.428  28.250  28.202  1.00  0.00     0.148 A 
ATOM     65  C   UNL A   1      39.756  25.991  28.081  1.00  0.00     0.002 A 
ATOM     66  C   UNL A   1      41.431  27.429  27.079  1.00  0.00     0.091 A 
ATOM     67  F   UNL A   1      42.248  29.306  28.308  1.00  0.00    -0.205 F 
ATOM     68  C   UNL A   1      40.606  26.295  27.022  1.00  0.00     0.022 A 
BRANCH  66  69
ATOM     69  S   UNL A   1      42.441  27.780  25.634  1.00  0.00     0.127 S 
ATOM     70  O   UNL A   1      41.854  29.033  25.162  1.00  0.00    -0.237 OA
ATOM     71  O   UNL A   1      43.779  27.914  26.213  1.00  0.00    -0.237 OA
ATOM     72  O   UNL A   1      42.278  26.635  24.751  1.00  0.00    -0.744 OA
ENDBRANCH  66  69
ENDBRANCH  48  62
BRANCH  49  73
ATOM     73  C   UNL A   1      39.515  33.740  37.362  1.00  0.00     0.023 A 
ATOM     74  C   UNL A   1      40.041  35.049  37.347  1.00  0.00     0.012 A 
ATOM     75  C   UNL A   1      38.814  33.296  38.498  1.00  0.00     0.148 A 
ATOM     76  C   UNL A   1      39.895  35.888  38.452  1.00  0.00     0.002 A 
ATOM     77  C   UNL A   1      38.630  34.155  39.578  1.00  0.00     0.091 A 
ATOM     78  F   UNL A   1      38.333  32.045  38.501  1.00  0.00    -0.205 F 
ATOM     79  C   UNL A   1      39.181  35.446  39.561  1.00  0.00     0.022 A 
BRANCH  77  80
ATOM     80  S   UNL A   1      37.614  33.711  40.992  1.00  0.00     0.127 S 
ATOM     81  O   UNL A   1      38.485  32.783  41.707  1.00  0.00    -0.237 OA
ATOM     82  O   UNL A   1      37.420  35.005  41.649  1.00  0.00    -0.237 OA
ATOM     83  O   UNL A   1      36.397  33.143  40.430  1.00  0.00    -0.744 OA
ENDBRANCH  77  80
ENDBRANCH  49  73
BRANCH  61  84
ATOM     84  C   UNL A   1      44.263  29.023  35.382  1.00  0.00     0.023 A 
ATOM     85  C   UNL A   1      45.510  29.629  35.136  1.00  0.00     0.012 A 
ATOM     86  C   UNL A   1      44.177  27.961  36.302  1.00  0.00     0.148 A 
ATOM     87  C   UNL A   1      46.660  29.167  35.775  1.00  0.00     0.002 A 
ATOM     88  C   UNL A   1      45.321  27.533  36.966  1.00  0.00     0.091 A 
ATOM     89  F   UNL A   1      42.985  27.380  36.507  1.00  0.00    -0.205 F 
ATOM     90  C   UNL A   1      46.565  28.128  36.697  1.00  0.00     0.022 A 
BRANCH  88  91
ATOM     91  S   UNL A   1      45.256  26.261  38.233  1.00  0.00     0.127 S 
ATOM     92  O   UNL A   1      46.647  26.204  38.675  1.00  0.00    -0.237 OA
ATOM     93  O   UNL A   1      44.329  26.832  39.212  1.00  0.00    -0.237 OA
ATOM     94  O   UNL A   1      44.751  25.070  37.561  1.00  0.00    -0.744 OA
ENDBRANCH  88  91
ENDBRANCH  61  84
ENDBRANCH  35  36
ENDBRANCH  27  30
ENDBRANCH  25  26
ENDBRANCH  24  25
ENDBRANCH   1  24
TORSDOF 18
ENDMDL
MODEL 2
REMARK VINA RESULT:     -11.0      2.393      8.215
REMARK SMILES CCc1cc(C(=O)N2CCO[C@@H](CC(=O)NCCCCNC(=O)c3ccc(-c4c5nc(c(-c6cccc(S(=O)(=O)[O-])c6F)c6ccc([nH]6)c(-c6cccc(S(=O)(=O)[O-])c6F)c6nc(c(-c7cccc(S(=O)(=O)[O-])c7F)c7ccc4[nH]7)C=C6)C=C5)cc3)C2)sc1C
REMARK SMILES IDX 18 1 17 2 16 3 14 4 15 5 13 7 12 8 8 9 9 10 87 11 10 12
REMARK SMILES IDX 11 13 6 14 7 15 5 16 3 17 4 18 89 19 88 20 90 21 2 22 1 23
REMARK SMILES IDX 19 24 20 25 21 26 22 27 23 29 24 30 25 31 86 32 26 33 85 34
REMARK SMILES IDX 27 35 28 36 29 37 79 38 30 39 84 40 78 41 80 42 31 43 83 44
REMARK SMILES IDX 77 45 76 46 32 48 64 49 44 50 63 51 45 52 48 53 62 54 81 55
REMARK SMILES IDX 46 56 47 57 61 59 82 60 49 61 33 62 34 63 42 64 35 65 37 66
REMARK SMILES IDX 43 67 36 68 38 69 39 70 40 71 41 72 65 73 66 74 74 75 67 76
REMARK SMILES IDX 69 77 75 78 68 79 70 80 71 81 72 82 73 83 50 84 51 85 59 86
REMARK SMILES IDX 52 87 54 88 60 89 53 90 55 91 56 92 57 93 58 94
REMARK H PARENT 16 6 21 28 80 47 48 58
REMARK Flexibility Score: inf
ROOT
ATOM      1  C   UNL A   1      31.774  28.715  25.557  1.00  0.00     0.023 C 
ENDROOT
BRANCH   1   2
ATOM      2  C   UNL A   1      31.139  28.604  24.168  1.00  0.00     0.116 C 
BRANCH   2   3
ATOM      3  N   UNL A   1      32.151  28.611  23.117  1.00  0.00    -0.356 N 
ATOM      4  C   UNL A   1      33.258  27.837  22.929  1.00  0.00     0.222 C 
ATOM      5  O   UNL A   1      34.008  28.107  21.990  1.00  0.00    -0.275 OA
ATOM      6  H   UNL A   1      32.009  29.294  22.421  1.00  0.00     0.163 HD
BRANCH   4   7
ATOM      7  C   UNL A   1      33.586  26.683  23.856  1.00  0.00     0.133 C 
BRANCH   7   8
ATOM      8  C   UNL A   1      32.864  25.387  23.455  1.00  0.00     0.147 C 
ATOM      9  N   UNL A   1      32.293  23.136  24.498  1.00  0.00    -0.333 N 
ATOM     10  C   UNL A   1      30.890  23.457  24.295  1.00  0.00     0.148 C 
ATOM     11  C   UNL A   1      33.167  24.294  24.480  1.00  0.00     0.152 C 
ATOM     12  C   UNL A   1      30.711  24.447  23.144  1.00  0.00     0.182 C 
ATOM     13  O   UNL A   1      31.447  25.655  23.402  1.00  0.00    -0.374 OA
BRANCH   9  14
ATOM     14  C   UNL A   1      32.589  22.243  25.546  1.00  0.00     0.264 C 
ATOM     15  O   UNL A   1      32.156  22.463  26.678  1.00  0.00    -0.268 OA
BRANCH  14  16
ATOM     16  C   UNL A   1      33.487  21.152  25.212  1.00  0.00     0.093 A 
ATOM     17  C   UNL A   1      35.362  19.757  24.940  1.00  0.00    -0.034 A 
ATOM     18  C   UNL A   1      34.847  21.023  25.390  1.00  0.00     0.029 A 
ATOM     19  C   UNL A   1      34.336  18.936  24.500  1.00  0.00     0.005 A 
ATOM     20  S   UNL A   1      32.825  19.734  24.520  1.00  0.00    -0.135 S 
ATOM     21  C   UNL A   1      34.389  17.524  24.014  1.00  0.00     0.056 C 
BRANCH  17  22
ATOM     22  C   UNL A   1      36.820  19.400  24.977  1.00  0.00     0.033 C 
ATOM     23  C   UNL A   1      37.719  20.602  24.722  1.00  0.00     0.009 C 
ENDBRANCH  17  22
ENDBRANCH  14  16
ENDBRANCH   9  14
ENDBRANCH   7   8
ENDBRANCH   4   7
ENDBRANCH   2   3
ENDBRANCH   1   2
BRANCH   1  24
ATOM     24  C   UNL A   1      31.708  30.084  26.212  1.00  0.00     0.023 C 
BRANCH  24  25
ATOM     25  C   UNL A   1      33.056  30.666  26.593  1.00  0.00     0.116 C 
BRANCH  25  26
ATOM     26  N   UNL A   1      32.991  32.025  27.117  1.00  0.00    -0.352 N 
ATOM     27  C   UNL A   1      33.907  32.706  27.889  1.00  0.00     0.251 C 
ATOM     28  H   UNL A   1      32.177  32.528  26.886  1.00  0.00     0.163 HD
ATOM     29  O   UNL A   1      33.668  33.840  28.282  1.00  0.00    -0.269 OA
BRANCH  27  30
ATOM     30  C   UNL A   1      35.162  32.030  28.285  1.00  0.00     0.039 A 
ATOM     31  C   UNL A   1      36.347  32.768  28.302  1.00  0.00     0.014 A 
ATOM     32  C   UNL A   1      35.154  30.701  28.708  1.00  0.00     0.014 A 
ATOM     33  C   UNL A   1      37.506  32.196  28.830  1.00  0.00     0.010 A 
ATOM     34  C   UNL A   1      36.275  30.174  29.336  1.00  0.00     0.010 A 
ATOM     35  C   UNL A   1      37.467  30.911  29.395  1.00  0.00    -0.014 A 
BRANCH  35  36
ATOM     36  C   UNL A   1      38.656  30.319  30.056  1.00  0.00     0.031 A 
ATOM     37  C   UNL A   1      39.044  30.759  31.443  1.00  0.00     0.074 A 
ATOM     38  C   UNL A   1      39.441  29.462  29.373  1.00  0.00     0.049 A 
ATOM     39  N   UNL A   1      40.065  30.386  32.169  1.00  0.00    -0.248 NA
ATOM     40  C   UNL A   1      38.200  31.783  32.083  1.00  0.00     0.031 C 
ATOM     41  C   UNL A   1      39.240  29.052  27.980  1.00  0.00     0.029 A 
ATOM     42  N   UNL A   1      40.577  28.794  29.753  1.00  0.00    -0.354 N 
ATOM     43  C   UNL A   1      40.012  31.161  33.321  1.00  0.00     0.074 A 
ATOM     44  C   UNL A   1      38.889  32.058  33.179  1.00  0.00     0.031 C 
ATOM     45  C   UNL A   1      40.205  28.185  27.633  1.00  0.00     0.029 A 
ATOM     46  C   UNL A   1      41.099  27.986  28.769  1.00  0.00     0.049 A 
ATOM     47  H   UNL A   1      40.983  28.884  30.645  1.00  0.00     0.167 HD
ATOM     48  C   UNL A   1      40.797  31.098  34.424  1.00  0.00     0.034 A 
ATOM     49  C   UNL A   1      42.165  27.163  28.790  1.00  0.00     0.034 A 
ATOM     50  C   UNL A   1      41.856  30.144  34.597  1.00  0.00     0.049 A 
ATOM     51  C   UNL A   1      42.946  27.023  30.068  1.00  0.00     0.074 A 
ATOM     52  C   UNL A   1      42.636  29.914  35.715  1.00  0.00     0.029 A 
ATOM     53  N   UNL A   1      42.274  29.249  33.624  1.00  0.00    -0.354 N 
ATOM     54  N   UNL A   1      42.769  27.633  31.215  1.00  0.00    -0.248 NA
ATOM     55  C   UNL A   1      44.049  26.051  30.069  1.00  0.00     0.031 C 
ATOM     56  C   UNL A   1      43.525  28.875  35.418  1.00  0.00     0.029 A 
ATOM     57  C   UNL A   1      43.298  28.460  34.115  1.00  0.00     0.049 A 
ATOM     58  H   UNL A   1      41.898  29.184  32.717  1.00  0.00     0.167 HD
ATOM     59  C   UNL A   1      43.715  27.101  32.082  1.00  0.00     0.074 A 
ATOM     60  C   UNL A   1      44.446  26.097  31.333  1.00  0.00     0.031 C 
ATOM     61  C   UNL A   1      43.974  27.429  33.372  1.00  0.00     0.034 A 
BRANCH  48  62
ATOM     62  C   UNL A   1      40.470  32.032  35.557  1.00  0.00     0.023 A 
ATOM     63  C   UNL A   1      41.284  33.164  35.774  1.00  0.00     0.012 A 
ATOM     64  C   UNL A   1      39.356  31.814  36.392  1.00  0.00     0.148 A 
ATOM     65  C   UNL A   1      41.022  34.040  36.825  1.00  0.00     0.002 A 
ATOM     66  C   UNL A   1      39.078  32.716  37.413  1.00  0.00     0.091 A 
ATOM     67  F   UNL A   1      38.608  30.719  36.192  1.00  0.00    -0.205 F 
ATOM     68  C   UNL A   1      39.914  33.821  37.638  1.00  0.00     0.022 A 
BRANCH  66  69
ATOM     69  S   UNL A   1      37.631  32.557  38.468  1.00  0.00     0.127 S 
ATOM     70  O   UNL A   1      36.554  32.920  37.549  1.00  0.00    -0.237 OA
ATOM     71  O   UNL A   1      37.666  31.140  38.835  1.00  0.00    -0.237 OA
ATOM     72  O   UNL A   1      37.849  33.472  39.579  1.00  0.00    -0.744 OA
ENDBRANCH  66  69
ENDBRANCH  48  62
BRANCH  49  73
ATOM     73  C   UNL A   1      42.472  26.317  27.602  1.00  0.00     0.023 A 
ATOM     74  C   UNL A   1      43.231  26.869  26.551  1.00  0.00     0.012 A 
ATOM     75  C   UNL A   1      42.067  24.971  27.522  1.00  0.00     0.148 A 
ATOM     76  C   UNL A   1      43.558  26.106  25.430  1.00  0.00     0.002 A 
ATOM     77  C   UNL A   1      42.437  24.201  26.424  1.00  0.00     0.091 A 
ATOM     78  F   UNL A   1      41.334  24.466  28.524  1.00  0.00    -0.205 F 
ATOM     79  C   UNL A   1      43.171  24.771  25.371  1.00  0.00     0.022 A 
BRANCH  77  80
ATOM     80  S   UNL A   1      42.092  22.441  26.328  1.00  0.00     0.127 S 
ATOM     81  O   UNL A   1      42.655  21.956  27.584  1.00  0.00    -0.237 OA
ATOM     82  O   UNL A   1      40.630  22.417  26.260  1.00  0.00    -0.237 OA
ATOM     83  O   UNL A   1      42.751  21.983  25.113  1.00  0.00    -0.744 OA
ENDBRANCH  77  80
ENDBRANCH  49  73
BRANCH  61  84
ATOM     84  C   UNL A   1      45.091  26.691  34.061  1.00  0.00     0.023 A 
ATOM     85  C   UNL A   1      46.410  27.167  33.939  1.00  0.00     0.012 A 
ATOM     86  C   UNL A   1      44.828  25.577  34.880  1.00  0.00     0.148 A 
ATOM     87  C   UNL A   1      47.458  26.527  34.599  1.00  0.00     0.002 A 
ATOM     88  C   UNL A   1      45.872  24.969  35.568  1.00  0.00     0.091 A 
ATOM     89  F   UNL A   1      43.568  25.123  34.966  1.00  0.00    -0.205 F 
ATOM     90  C   UNL A   1      47.189  25.436  35.422  1.00  0.00     0.022 A 
BRANCH  88  91
ATOM     91  S   UNL A   1      45.584  23.616  36.715  1.00  0.00     0.127 S 
ATOM     92  O   UNL A   1      44.751  24.255  37.731  1.00  0.00    -0.237 OA
ATOM     93  O   UNL A   1      44.884  22.635  35.882  1.00  0.00    -0.237 OA
ATOM     94  O   UNL A   1      46.907  23.189  37.151  1.00  0.00    -0.744 OA
ENDBRANCH  88  91
ENDBRANCH  61  84
ENDBRANCH  35  36
ENDBRANCH  27  30
ENDBRANCH  25  26
ENDBRANCH  24  25
ENDBRANCH   1  24
TORSDOF 18
ENDMDL
MODEL 3
REMARK VINA RESULT:     -11.0      3.197      8.585
REMARK SMILES CCc1cc(C(=O)N2CCO[C@@H](CC(=O)NCCCCNC(=O)c3ccc(-c4c5nc(c(-c6cccc(S(=O)(=O)[O-])c6F)c6ccc([nH]6)c(-c6cccc(S(=O)(=O)[O-])c6F)c6nc(c(-c7cccc(S(=O)(=O)[O-])c7F)c7ccc4[nH]7)C=C6)C=C5)cc3)C2)sc1C
REMARK SMILES IDX 18 1 17 2 16 3 14 4 15 5 13 7 12 8 8 9 9 10 87 11 10 12
REMARK SMILES IDX 11 13 6 14 7 15 5 16 3 17 4 18 89 19 88 20 90 21 2 22 1 23
REMARK SMILES IDX 19 24 20 25 21 26 22 27 23 29 24 30 25 31 86 32 26 33 85 34
REMARK SMILES IDX 27 35 28 36 29 37 79 38 30 39 84 40 78 41 80 42 31 43 83 44
REMARK SMILES IDX 77 45 76 46 32 48 64 49 44 50 63 51 45 52 48 53 62 54 81 55
REMARK SMILES IDX 46 56 47 57 61 59 82 60 49 61 33 62 34 63 42 64 35 65 37 66
REMARK SMILES IDX 43 67 36 68 38 69 39 70 40 71 41 72 65 73 66 74 74 75 67 76
REMARK SMILES IDX 69 77 75 78 68 79 70 80 71 81 72 82 73 83 50 84 51 85 59 86
REMARK SMILES IDX 52 87 54 88 60 89 53 90 55 91 56 92 57 93 58 94
REMARK H PARENT 16 6 21 28 80 47 48 58
REMARK Flexibility Score: inf
ROOT
ATOM      1  C   UNL A   1      32.911  29.072  24.250  1.00  0.00     0.023 C 
ENDROOT
BRANCH   1   2
ATOM      2  C   UNL A   1      32.965  28.480  22.839  1.00  0.00     0.116 C 
BRANCH   2   3
ATOM      3  N   UNL A   1      33.714  27.229  22.813  1.00  0.00    -0.356 N 
ATOM      4  C   UNL A   1      33.360  25.978  22.401  1.00  0.00     0.222 C 
ATOM      5  O   UNL A   1      34.164  25.059  22.566  1.00  0.00    -0.275 OA
ATOM      6  H   UNL A   1      34.636  27.300  23.153  1.00  0.00     0.163 HD
BRANCH   4   7
ATOM      7  C   UNL A   1      32.009  25.702  21.773  1.00  0.00     0.133 C 
BRANCH   7   8
ATOM      8  C   UNL A   1      30.929  25.395  22.821  1.00  0.00     0.147 C 
ATOM      9  N   UNL A   1      30.803  24.543  25.217  1.00  0.00    -0.333 N 
ATOM     10  C   UNL A   1      30.164  25.799  25.575  1.00  0.00     0.148 C 
ATOM     11  C   UNL A   1      31.545  24.597  23.971  1.00  0.00     0.152 C 
ATOM     12  C   UNL A   1      29.458  26.421  24.370  1.00  0.00     0.182 C 
ATOM     13  O   UNL A   1      30.392  26.646  23.300  1.00  0.00    -0.374 OA
BRANCH   9  14
ATOM     14  C   UNL A   1      31.504  23.880  26.243  1.00  0.00     0.264 C 
ATOM     15  O   UNL A   1      31.543  24.370  27.373  1.00  0.00    -0.268 OA
BRANCH  14  16
ATOM     16  C   UNL A   1      32.223  22.683  25.846  1.00  0.00     0.093 A 
ATOM     17  C   UNL A   1      32.811  20.531  25.098  1.00  0.00    -0.034 A 
ATOM     18  C   UNL A   1      31.758  21.455  25.427  1.00  0.00     0.029 A 
ATOM     19  C   UNL A   1      34.052  21.136  25.213  1.00  0.00     0.005 A 
ATOM     20  S   UNL A   1      33.933  22.729  25.822  1.00  0.00    -0.135 S 
ATOM     21  C   UNL A   1      35.410  20.590  24.911  1.00  0.00     0.056 C 
BRANCH  17  22
ATOM     22  C   UNL A   1      32.560  19.113  24.670  1.00  0.00     0.033 C 
ATOM     23  C   UNL A   1      32.379  18.986  23.163  1.00  0.00     0.009 C 
ENDBRANCH  17  22
ENDBRANCH  14  16
ENDBRANCH   9  14
ENDBRANCH   7   8
ENDBRANCH   4   7
ENDBRANCH   2   3
ENDBRANCH   1   2
BRANCH   1  24
ATOM     24  C   UNL A   1      33.417  28.176  25.368  1.00  0.00     0.023 C 
BRANCH  24  25
ATOM     25  C   UNL A   1      34.322  28.869  26.368  1.00  0.00     0.116 C 
BRANCH  25  26
ATOM     26  N   UNL A   1      33.886  30.211  26.737  1.00  0.00    -0.352 N 
ATOM     27  C   UNL A   1      34.476  31.115  27.591  1.00  0.00     0.251 C 
ATOM     28  H   UNL A   1      33.050  30.513  26.313  1.00  0.00     0.163 HD
ATOM     29  O   UNL A   1      33.944  32.193  27.822  1.00  0.00    -0.269 OA
BRANCH  27  30
ATOM     30  C   UNL A   1      35.737  30.748  28.274  1.00  0.00     0.039 A 
ATOM     31  C   UNL A   1      35.703  29.767  29.267  1.00  0.00     0.014 A 
ATOM     32  C   UNL A   1      36.952  31.312  27.882  1.00  0.00     0.014 A 
ATOM     33  C   UNL A   1      36.900  29.290  29.803  1.00  0.00     0.010 A 
ATOM     34  C   UNL A   1      38.142  30.756  28.331  1.00  0.00     0.010 A 
ATOM     35  C   UNL A   1      38.131  29.747  29.304  1.00  0.00    -0.014 A 
BRANCH  35  36
ATOM     36  C   UNL A   1      39.417  29.182  29.781  1.00  0.00     0.031 A 
ATOM     37  C   UNL A   1      40.128  29.808  30.951  1.00  0.00     0.074 A 
ATOM     38  C   UNL A   1      39.994  28.169  29.103  1.00  0.00     0.049 A 
ATOM     39  N   UNL A   1      41.273  29.482  31.490  1.00  0.00    -0.248 NA
ATOM     40  C   UNL A   1      39.491  30.983  31.572  1.00  0.00     0.031 C 
ATOM     41  C   UNL A   1      39.465  27.557  27.881  1.00  0.00     0.029 A 
ATOM     42  N   UNL A   1      41.161  27.487  29.335  1.00  0.00    -0.354 N 
ATOM     43  C   UNL A   1      41.514  30.434  32.473  1.00  0.00     0.074 A 
ATOM     44  C   UNL A   1      40.422  31.379  32.426  1.00  0.00     0.031 C 
ATOM     45  C   UNL A   1      40.292  26.575  27.487  1.00  0.00     0.029 A 
ATOM     46  C   UNL A   1      41.414  26.495  28.416  1.00  0.00     0.049 A 
ATOM     47  H   UNL A   1      41.763  27.690  30.088  1.00  0.00     0.167 HD
ATOM     48  C   UNL A   1      42.527  30.491  33.371  1.00  0.00     0.034 A 
ATOM     49  C   UNL A   1      42.425  25.608  28.347  1.00  0.00     0.034 A 
ATOM     50  C   UNL A   1      43.561  29.500  33.471  1.00  0.00     0.049 A 
ATOM     51  C   UNL A   1      43.472  25.617  29.427  1.00  0.00     0.074 A 
ATOM     52  C   UNL A   1      44.567  29.395  34.414  1.00  0.00     0.029 A 
ATOM     53  N   UNL A   1      43.713  28.431  32.601  1.00  0.00    -0.354 N 
ATOM     54  N   UNL A   1      43.584  26.415  30.461  1.00  0.00    -0.248 NA
ATOM     55  C   UNL A   1      44.509  24.578  29.356  1.00  0.00     0.031 C 
ATOM     56  C   UNL A   1      45.326  28.258  34.115  1.00  0.00     0.029 A 
ATOM     57  C   UNL A   1      44.792  27.656  32.986  1.00  0.00     0.049 A 
ATOM     58  H   UNL A   1      43.137  28.250  31.824  1.00  0.00     0.167 HD
ATOM     59  C   UNL A   1      44.683  25.961  31.178  1.00  0.00     0.074 A 
ATOM     60  C   UNL A   1      45.186  24.797  30.475  1.00  0.00     0.031 C 
ATOM     61  C   UNL A   1      45.242  26.471  32.303  1.00  0.00     0.034 A 
BRANCH  48  62
ATOM     62  C   UNL A   1      42.502  31.617  34.369  1.00  0.00     0.023 A 
ATOM     63  C   UNL A   1      43.341  32.733  34.168  1.00  0.00     0.012 A 
ATOM     64  C   UNL A   1      41.644  31.591  35.485  1.00  0.00     0.148 A 
ATOM     65  C   UNL A   1      43.358  33.786  35.080  1.00  0.00     0.002 A 
ATOM     66  C   UNL A   1      41.637  32.665  36.369  1.00  0.00     0.091 A 
ATOM     67  F   UNL A   1      40.873  30.511  35.678  1.00  0.00    -0.205 F 
ATOM     68  C   UNL A   1      42.500  33.756  36.176  1.00  0.00     0.022 A 
BRANCH  66  69
ATOM     69  S   UNL A   1      40.514  32.749  37.770  1.00  0.00     0.127 S 
ATOM     70  O   UNL A   1      39.446  31.845  37.348  1.00  0.00    -0.237 OA
ATOM     71  O   UNL A   1      41.343  32.243  38.866  1.00  0.00    -0.237 OA
ATOM     72  O   UNL A   1      40.142  34.151  37.895  1.00  0.00    -0.744 OA
ENDBRANCH  66  69
ENDBRANCH  48  62
BRANCH  49  73
ATOM     73  C   UNL A   1      42.421  24.561  27.286  1.00  0.00     0.023 A 
ATOM     74  C   UNL A   1      43.243  24.735  26.154  1.00  0.00     0.012 A 
ATOM     75  C   UNL A   1      41.658  23.384  27.405  1.00  0.00     0.148 A 
ATOM     76  C   UNL A   1      43.285  23.770  25.148  1.00  0.00     0.002 A 
ATOM     77  C   UNL A   1      41.741  22.404  26.421  1.00  0.00     0.091 A 
ATOM     78  F   UNL A   1      40.872  23.241  28.481  1.00  0.00    -0.205 F 
ATOM     79  C   UNL A   1      42.543  22.601  25.286  1.00  0.00     0.022 A 
BRANCH  77  80
ATOM     80  S   UNL A   1      40.919  20.814  26.583  1.00  0.00     0.127 S 
ATOM     81  O   UNL A   1      39.634  21.074  25.942  1.00  0.00    -0.237 OA
ATOM     82  O   UNL A   1      41.813  19.928  25.834  1.00  0.00    -0.237 OA
ATOM     83  O   UNL A   1      40.878  20.544  28.013  1.00  0.00    -0.744 OA
ENDBRANCH  77  80
ENDBRANCH  49  73
BRANCH  61  84
ATOM     84  C   UNL A   1      46.458  25.772  32.849  1.00  0.00     0.023 A 
ATOM     85  C   UNL A   1      47.739  26.240  32.495  1.00  0.00     0.012 A 
ATOM     86  C   UNL A   1      46.336  24.706  33.760  1.00  0.00     0.148 A 
ATOM     87  C   UNL A   1      48.882  25.637  33.018  1.00  0.00     0.002 A 
ATOM     88  C   UNL A   1      47.480  24.137  34.308  1.00  0.00     0.091 A 
ATOM     89  F   UNL A   1      45.109  24.259  34.067  1.00  0.00    -0.205 F 
ATOM     90  C   UNL A   1      48.753  24.594  33.932  1.00  0.00     0.022 A 
BRANCH  88  91
ATOM     91  S   UNL A   1      47.385  22.850  35.559  1.00  0.00     0.127 S 
ATOM     92  O   UNL A   1      46.820  21.736  34.803  1.00  0.00    -0.237 OA
ATOM     93  O   UNL A   1      48.787  22.676  35.945  1.00  0.00    -0.237 OA
ATOM     94  O   UNL A   1      46.542  23.397  36.614  1.00  0.00    -0.744 OA
ENDBRANCH  88  91
ENDBRANCH  61  84
ENDBRANCH  35  36
ENDBRANCH  27  30
ENDBRANCH  25  26
ENDBRANCH  24  25
ENDBRANCH   1  24
TORSDOF 18
ENDMDL
