MODEL 1
REMARK VINA RESULT:     -12.4      0.000      0.000
REMARK SMILES Cc1cccc(OCC(=O)Nc2cc(C(=O)NCCCCNC(=O)c3ccc(-c4c5nc(c(-c6cccc(S(=O)(=O)[O-])c6F)c6ccc([nH]6)c(-c6cccc(S(=O)(=O)[O-])c6F)c6nc(c(-c7cccc(S(=O)(=O)[O-])c7F)c7ccc4[nH]7)C=C6)C=C5)cc3)c(Cl)cc2Cl)c1
REMARK SMILES IDX 19 1 18 2 17 3 15 4 16 5 14 7 12 8 13 9 91 10 90 11 92 12
REMARK SMILES IDX 88 13 89 14 11 15 9 16 10 17 8 19 7 20 6 21 1 22 2 23 3 24
REMARK SMILES IDX 93 25 4 26 5 27 20 28 21 29 22 30 23 31 24 33 25 34 26 35
REMARK SMILES IDX 87 36 27 37 86 38 28 39 29 40 30 41 80 42 31 43 85 44 79 45
REMARK SMILES IDX 81 46 32 47 84 48 78 49 77 50 33 52 65 53 45 54 64 55 46 56
REMARK SMILES IDX 49 57 63 58 82 59 47 60 48 61 62 63 83 64 50 65 34 66 35 67
REMARK SMILES IDX 43 68 36 69 38 70 44 71 37 72 39 73 40 74 41 75 42 76 66 77
REMARK SMILES IDX 67 78 75 79 68 80 70 81 76 82 69 83 71 84 72 85 73 86 74 87
REMARK SMILES IDX 51 88 52 89 60 90 53 91 55 92 61 93 54 94 56 95 57 96 58 97
REMARK SMILES IDX 59 98
REMARK H PARENT 17 6 11 18 22 32 81 51 49 62
REMARK Flexibility Score: inf
ROOT
ATOM      1  C   UNL A   1      32.042  30.597  25.443  1.00  0.00     0.023 C 
ENDROOT
BRANCH   1   2
ATOM      2  C   UNL A   1      30.642  30.350  24.854  1.00  0.00     0.116 C 
BRANCH   2   3
ATOM      3  N   UNL A   1      30.567  29.755  23.538  1.00  0.00    -0.352 N 
ATOM      4  C   UNL A   1      30.771  28.445  23.152  1.00  0.00     0.252 C 
ATOM      5  O   UNL A   1      30.330  28.081  22.064  1.00  0.00    -0.269 OA
ATOM      6  H   UNL A   1      30.338  30.376  22.808  1.00  0.00     0.163 HD
BRANCH   4   7
ATOM      7  C   UNL A   1      31.555  27.469  23.967  1.00  0.00     0.060 A 
ATOM      8  C   UNL A   1      31.694  25.610  25.560  1.00  0.00     0.061 A 
ATOM      9  C   UNL A   1      30.931  26.473  24.758  1.00  0.00     0.043 A 
ATOM     10  C   UNL A   1      33.101  25.694  25.475  1.00  0.00     0.066 A 
ATOM     11  C   UNL A   1      33.727  26.607  24.634  1.00  0.00     0.044 A 
ATOM     12  Cl  UNL A   1      34.122  24.650  26.416  1.00  0.00    -0.082 Cl
ATOM     13  C   UNL A   1      32.961  27.508  23.896  1.00  0.00     0.055 A 
ATOM     14  Cl  UNL A   1      33.852  28.666  22.966  1.00  0.00    -0.083 Cl
BRANCH   8  15
ATOM     15  N   UNL A   1      31.191  24.692  26.504  1.00  0.00    -0.322 N 
ATOM     16  C   UNL A   1      30.873  23.372  26.547  1.00  0.00     0.262 C 
ATOM     17  O   UNL A   1      30.353  22.965  27.595  1.00  0.00    -0.271 OA
ATOM     18  H   UNL A   1      31.025  25.127  27.372  1.00  0.00     0.170 HD
BRANCH  16  19
ATOM     19  C   UNL A   1      31.214  22.393  25.434  1.00  0.00     0.329 C 
BRANCH  19  20
ATOM     20  O   UNL A   1      32.349  21.575  25.607  1.00  0.00    -0.484 OA
BRANCH  20  21
ATOM     21  C   UNL A   1      33.491  21.854  24.920  1.00  0.00     0.120 A 
ATOM     22  C   UNL A   1      37.277  21.584  24.756  1.00  0.00     0.044 C 
ATOM     23  C   UNL A   1      35.850  21.832  24.368  1.00  0.00    -0.047 A 
ATOM     24  C   UNL A   1      35.601  22.622  23.240  1.00  0.00     0.003 A 
ATOM     25  C   UNL A   1      34.783  21.411  25.185  1.00  0.00     0.049 A 
ATOM     26  C   UNL A   1      34.319  23.071  22.984  1.00  0.00     0.004 A 
ATOM     27  C   UNL A   1      33.296  22.733  23.860  1.00  0.00     0.046 A 
ENDBRANCH  20  21
ENDBRANCH  19  20
ENDBRANCH  16  19
ENDBRANCH   8  15
ENDBRANCH   4   7
ENDBRANCH   2   3
ENDBRANCH   1   2
BRANCH   1  28
ATOM     28  C   UNL A   1      32.333  30.262  26.915  1.00  0.00     0.023 C 
BRANCH  28  29
ATOM     29  C   UNL A   1      33.789  30.190  27.356  1.00  0.00     0.116 C 
BRANCH  29  30
ATOM     30  N   UNL A   1      34.562  31.406  27.518  1.00  0.00    -0.352 N 
ATOM     31  C   UNL A   1      35.891  31.547  27.914  1.00  0.00     0.251 C 
ATOM     32  H   UNL A   1      34.084  32.245  27.321  1.00  0.00     0.163 HD
ATOM     33  O   UNL A   1      36.328  32.699  28.007  1.00  0.00    -0.269 OA
BRANCH  31  34
ATOM     34  C   UNL A   1      36.799  30.379  28.183  1.00  0.00     0.039 A 
ATOM     35  C   UNL A   1      36.767  29.719  29.430  1.00  0.00     0.014 A 
ATOM     36  C   UNL A   1      37.742  29.949  27.256  1.00  0.00     0.014 A 
ATOM     37  C   UNL A   1      37.792  28.830  29.800  1.00  0.00     0.010 A 
ATOM     38  C   UNL A   1      38.727  29.067  27.594  1.00  0.00     0.010 A 
ATOM     39  C   UNL A   1      38.824  28.611  28.902  1.00  0.00    -0.014 A 
BRANCH  39  40
ATOM     40  C   UNL A   1      40.174  28.141  29.166  1.00  0.00     0.031 A 
ATOM     41  C   UNL A   1      40.542  26.734  28.927  1.00  0.00     0.074 A 
ATOM     42  C   UNL A   1      41.090  29.131  29.012  1.00  0.00     0.049 A 
ATOM     43  N   UNL A   1      41.730  26.258  29.070  1.00  0.00    -0.248 NA
ATOM     44  C   UNL A   1      39.571  25.748  28.472  1.00  0.00     0.031 C 
ATOM     45  C   UNL A   1      42.445  29.030  28.480  1.00  0.00     0.029 A 
ATOM     46  N   UNL A   1      40.973  30.502  29.270  1.00  0.00    -0.354 N 
ATOM     47  C   UNL A   1      41.760  25.035  28.431  1.00  0.00     0.074 A 
ATOM     48  C   UNL A   1      40.369  24.703  28.232  1.00  0.00     0.031 C 
ATOM     49  C   UNL A   1      43.093  30.179  28.749  1.00  0.00     0.029 A 
ATOM     50  C   UNL A   1      42.245  30.916  29.670  1.00  0.00     0.049 A 
ATOM     51  H   UNL A   1      40.164  31.057  29.186  1.00  0.00     0.167 HD
ATOM     52  C   UNL A   1      42.962  24.550  27.996  1.00  0.00     0.034 A 
ATOM     53  C   UNL A   1      42.554  31.146  30.987  1.00  0.00     0.034 A 
ATOM     54  C   UNL A   1      44.068  25.428  28.442  1.00  0.00     0.049 A 
ATOM     55  C   UNL A   1      43.654  30.233  31.521  1.00  0.00     0.074 A 
ATOM     56  C   UNL A   1      44.879  26.345  27.790  1.00  0.00     0.029 A 
ATOM     57  N   UNL A   1      44.276  25.639  29.806  1.00  0.00    -0.354 N 
ATOM     58  N   UNL A   1      44.152  29.212  30.877  1.00  0.00    -0.248 NA
ATOM     59  C   UNL A   1      44.272  30.399  32.833  1.00  0.00     0.031 C 
ATOM     60  C   UNL A   1      45.483  27.181  28.776  1.00  0.00     0.029 A 
ATOM     61  C   UNL A   1      45.080  26.751  30.030  1.00  0.00     0.049 A 
ATOM     62  H   UNL A   1      43.902  25.072  30.519  1.00  0.00     0.167 HD
ATOM     63  C   UNL A   1      44.959  28.480  31.706  1.00  0.00     0.074 A 
ATOM     64  C   UNL A   1      45.100  29.339  32.872  1.00  0.00     0.031 C 
ATOM     65  C   UNL A   1      45.357  27.203  31.398  1.00  0.00     0.034 A 
BRANCH  52  66
ATOM     66  C   UNL A   1      43.170  23.444  26.950  1.00  0.00     0.023 A 
ATOM     67  C   UNL A   1      43.804  23.808  25.738  1.00  0.00     0.012 A 
ATOM     68  C   UNL A   1      42.739  22.096  27.017  1.00  0.00     0.148 A 
ATOM     69  C   UNL A   1      43.935  22.927  24.652  1.00  0.00     0.002 A 
ATOM     70  C   UNL A   1      42.850  21.218  25.931  1.00  0.00     0.091 A 
ATOM     71  F   UNL A   1      42.235  21.602  28.142  1.00  0.00    -0.205 F 
ATOM     72  C   UNL A   1      43.441  21.634  24.741  1.00  0.00     0.022 A 
BRANCH  70  73
ATOM     73  S   UNL A   1      42.208  19.529  25.983  1.00  0.00     0.127 S 
ATOM     74  O   UNL A   1      43.065  18.845  25.013  1.00  0.00    -0.237 OA
ATOM     75  O   UNL A   1      42.443  19.148  27.375  1.00  0.00    -0.237 OA
ATOM     76  O   UNL A   1      40.806  19.603  25.592  1.00  0.00    -0.744 OA
ENDBRANCH  70  73
ENDBRANCH  52  66
BRANCH  53  77
ATOM     77  C   UNL A   1      41.387  31.634  31.793  1.00  0.00     0.023 A 
ATOM     78  C   UNL A   1      40.898  32.924  31.486  1.00  0.00     0.012 A 
ATOM     79  C   UNL A   1      40.549  30.747  32.496  1.00  0.00     0.148 A 
ATOM     80  C   UNL A   1      39.567  33.261  31.731  1.00  0.00     0.002 A 
ATOM     81  C   UNL A   1      39.218  31.098  32.739  1.00  0.00     0.091 A 
ATOM     82  F   UNL A   1      41.038  29.555  32.859  1.00  0.00    -0.205 F 
ATOM     83  C   UNL A   1      38.717  32.336  32.316  1.00  0.00     0.022 A 
BRANCH  81  84
ATOM     84  S   UNL A   1      38.041  29.959  33.481  1.00  0.00     0.127 S 
ATOM     85  O   UNL A   1      38.237  30.226  34.904  1.00  0.00    -0.237 OA
ATOM     86  O   UNL A   1      36.763  30.425  32.940  1.00  0.00    -0.237 OA
ATOM     87  O   UNL A   1      38.440  28.643  33.008  1.00  0.00    -0.744 OA
ENDBRANCH  81  84
ENDBRANCH  53  77
BRANCH  65  88
ATOM     88  C   UNL A   1      46.013  26.239  32.382  1.00  0.00     0.023 A 
ATOM     89  C   UNL A   1      47.410  26.153  32.543  1.00  0.00     0.012 A 
ATOM     90  C   UNL A   1      45.234  25.471  33.288  1.00  0.00     0.148 A 
ATOM     91  C   UNL A   1      48.009  25.306  33.483  1.00  0.00     0.002 A 
ATOM     92  C   UNL A   1      45.831  24.728  34.305  1.00  0.00     0.091 A 
ATOM     93  F   UNL A   1      43.900  25.434  33.160  1.00  0.00    -0.205 F 
ATOM     94  C   UNL A   1      47.218  24.610  34.382  1.00  0.00     0.022 A 
BRANCH  92  95
ATOM     95  S   UNL A   1      44.848  24.039  35.645  1.00  0.00     0.127 S 
ATOM     96  O   UNL A   1      45.877  23.507  36.536  1.00  0.00    -0.237 OA
ATOM     97  O   UNL A   1      44.146  25.216  36.162  1.00  0.00    -0.237 OA
ATOM     98  O   UNL A   1      43.977  23.062  35.006  1.00  0.00    -0.744 OA
ENDBRANCH  92  95
ENDBRANCH  65  88
ENDBRANCH  39  40
ENDBRANCH  31  34
ENDBRANCH  29  30
ENDBRANCH  28  29
ENDBRANCH   1  28
TORSDOF 18
ENDMDL
MODEL 2
REMARK VINA RESULT:     -12.2      1.855      2.357
REMARK SMILES Cc1cccc(OCC(=O)Nc2cc(C(=O)NCCCCNC(=O)c3ccc(-c4c5nc(c(-c6cccc(S(=O)(=O)[O-])c6F)c6ccc([nH]6)c(-c6cccc(S(=O)(=O)[O-])c6F)c6nc(c(-c7cccc(S(=O)(=O)[O-])c7F)c7ccc4[nH]7)C=C6)C=C5)cc3)c(Cl)cc2Cl)c1
REMARK SMILES IDX 19 1 18 2 17 3 15 4 16 5 14 7 12 8 13 9 91 10 90 11 92 12
REMARK SMILES IDX 88 13 89 14 11 15 9 16 10 17 8 19 7 20 6 21 1 22 2 23 3 24
REMARK SMILES IDX 93 25 4 26 5 27 20 28 21 29 22 30 23 31 24 33 25 34 26 35
REMARK SMILES IDX 87 36 27 37 86 38 28 39 29 40 30 41 80 42 31 43 85 44 79 45
REMARK SMILES IDX 81 46 32 47 84 48 78 49 77 50 33 52 65 53 45 54 64 55 46 56
REMARK SMILES IDX 49 57 63 58 82 59 47 60 48 61 62 63 83 64 50 65 34 66 35 67
REMARK SMILES IDX 43 68 36 69 38 70 44 71 37 72 39 73 40 74 41 75 42 76 66 77
REMARK SMILES IDX 67 78 75 79 68 80 70 81 76 82 69 83 71 84 72 85 73 86 74 87
REMARK SMILES IDX 51 88 52 89 60 90 53 91 55 92 61 93 54 94 56 95 57 96 58 97
REMARK SMILES IDX 59 98
REMARK H PARENT 17 6 11 18 22 32 81 51 49 62
REMARK Flexibility Score: inf
ROOT
ATOM      1  C   UNL A   1      32.024  30.268  25.418  1.00  0.00     0.023 C 
ENDROOT
BRANCH   1   2
ATOM      2  C   UNL A   1      30.649  30.238  24.726  1.00  0.00     0.116 C 
BRANCH   2   3
ATOM      3  N   UNL A   1      30.588  29.688  23.390  1.00  0.00    -0.352 N 
ATOM      4  C   UNL A   1      30.800  28.393  22.961  1.00  0.00     0.252 C 
ATOM      5  O   UNL A   1      30.369  28.065  21.858  1.00  0.00    -0.269 OA
ATOM      6  H   UNL A   1      30.361  30.333  22.680  1.00  0.00     0.163 HD
BRANCH   4   7
ATOM      7  C   UNL A   1      31.582  27.394  23.749  1.00  0.00     0.060 A 
ATOM      8  C   UNL A   1      31.727  25.582  25.395  1.00  0.00     0.061 A 
ATOM      9  C   UNL A   1      30.961  26.468  24.623  1.00  0.00     0.043 A 
ATOM     10  C   UNL A   1      33.126  25.568  25.198  1.00  0.00     0.066 A 
ATOM     11  C   UNL A   1      33.740  26.408  24.276  1.00  0.00     0.044 A 
ATOM     12  Cl  UNL A   1      34.149  24.488  26.095  1.00  0.00    -0.082 Cl
ATOM     13  C   UNL A   1      32.977  27.335  23.567  1.00  0.00     0.055 A 
ATOM     14  Cl  UNL A   1      33.864  28.399  22.527  1.00  0.00    -0.083 Cl
BRANCH   8  15
ATOM     15  N   UNL A   1      31.243  24.731  26.410  1.00  0.00    -0.322 N 
ATOM     16  C   UNL A   1      30.927  23.417  26.549  1.00  0.00     0.262 C 
ATOM     17  O   UNL A   1      30.428  23.084  27.632  1.00  0.00    -0.271 OA
ATOM     18  H   UNL A   1      31.093  25.225  27.249  1.00  0.00     0.170 HD
BRANCH  16  19
ATOM     19  C   UNL A   1      31.247  22.364  25.500  1.00  0.00     0.329 C 
BRANCH  19  20
ATOM     20  O   UNL A   1      32.354  21.522  25.735  1.00  0.00    -0.484 OA
BRANCH  20  21
ATOM     21  C   UNL A   1      32.485  20.369  25.022  1.00  0.00     0.120 A 
ATOM     22  C   UNL A   1      33.545  16.721  24.999  1.00  0.00     0.044 C 
ATOM     23  C   UNL A   1      32.941  18.029  24.586  1.00  0.00    -0.047 A 
ATOM     24  C   UNL A   1      32.618  18.210  23.236  1.00  0.00     0.003 A 
ATOM     25  C   UNL A   1      32.831  19.105  25.489  1.00  0.00     0.049 A 
ATOM     26  C   UNL A   1      32.286  19.469  22.771  1.00  0.00     0.004 A 
ATOM     27  C   UNL A   1      32.285  20.539  23.656  1.00  0.00     0.046 A 
ENDBRANCH  20  21
ENDBRANCH  19  20
ENDBRANCH  16  19
ENDBRANCH   8  15
ENDBRANCH   4   7
ENDBRANCH   2   3
ENDBRANCH   1   2
BRANCH   1  28
ATOM     28  C   UNL A   1      32.222  29.573  26.775  1.00  0.00     0.023 C 
BRANCH  28  29
ATOM     29  C   UNL A   1      33.557  29.760  27.485  1.00  0.00     0.116 C 
BRANCH  29  30
ATOM     30  N   UNL A   1      34.195  31.062  27.503  1.00  0.00    -0.352 N 
ATOM     31  C   UNL A   1      35.507  31.383  27.849  1.00  0.00     0.251 C 
ATOM     32  H   UNL A   1      33.626  31.820  27.236  1.00  0.00     0.163 HD
ATOM     33  O   UNL A   1      35.818  32.578  27.815  1.00  0.00    -0.269 OA
BRANCH  31  34
ATOM     34  C   UNL A   1      36.540  30.353  28.210  1.00  0.00     0.039 A 
ATOM     35  C   UNL A   1      36.433  29.621  29.413  1.00  0.00     0.014 A 
ATOM     36  C   UNL A   1      37.664  30.127  27.423  1.00  0.00     0.014 A 
ATOM     37  C   UNL A   1      37.521  28.876  29.902  1.00  0.00     0.010 A 
ATOM     38  C   UNL A   1      38.717  29.386  27.875  1.00  0.00     0.010 A 
ATOM     39  C   UNL A   1      38.694  28.872  29.165  1.00  0.00    -0.014 A 
BRANCH  39  40
ATOM     40  C   UNL A   1      40.049  28.597  29.614  1.00  0.00     0.031 A 
ATOM     41  C   UNL A   1      40.758  27.383  29.172  1.00  0.00     0.074 A 
ATOM     42  C   UNL A   1      40.733  29.739  29.879  1.00  0.00     0.049 A 
ATOM     43  N   UNL A   1      41.980  27.104  29.469  1.00  0.00    -0.248 NA
ATOM     44  C   UNL A   1      40.126  26.387  28.317  1.00  0.00     0.031 C 
ATOM     45  C   UNL A   1      42.146  30.016  29.649  1.00  0.00     0.029 A 
ATOM     46  N   UNL A   1      40.269  30.958  30.387  1.00  0.00    -0.354 N 
ATOM     47  C   UNL A   1      42.391  26.106  28.609  1.00  0.00     0.074 A 
ATOM     48  C   UNL A   1      41.166  25.595  28.044  1.00  0.00     0.031 C 
ATOM     49  C   UNL A   1      42.465  31.157  30.290  1.00  0.00     0.029 A 
ATOM     50  C   UNL A   1      41.327  31.477  31.135  1.00  0.00     0.049 A 
ATOM     51  H   UNL A   1      39.384  31.365  30.245  1.00  0.00     0.167 HD
ATOM     52  C   UNL A   1      43.728  25.966  28.358  1.00  0.00     0.034 A 
ATOM     53  C   UNL A   1      41.346  31.419  32.506  1.00  0.00     0.034 A 
ATOM     54  C   UNL A   1      44.516  26.885  29.212  1.00  0.00     0.049 A 
ATOM     55  C   UNL A   1      42.513  30.610  33.064  1.00  0.00     0.074 A 
ATOM     56  C   UNL A   1      45.201  28.065  28.962  1.00  0.00     0.029 A 
ATOM     57  N   UNL A   1      44.433  26.780  30.600  1.00  0.00    -0.354 N 
ATOM     58  N   UNL A   1      43.330  29.889  32.346  1.00  0.00    -0.248 NA
ATOM     59  C   UNL A   1      42.843  30.548  34.485  1.00  0.00     0.031 C 
ATOM     60  C   UNL A   1      45.423  28.720  30.210  1.00  0.00     0.029 A 
ATOM     61  C   UNL A   1      44.917  27.924  31.225  1.00  0.00     0.049 A 
ATOM     62  H   UNL A   1      44.078  25.995  31.078  1.00  0.00     0.167 HD
ATOM     63  C   UNL A   1      44.125  29.127  33.159  1.00  0.00     0.074 A 
ATOM     64  C   UNL A   1      43.867  29.676  34.482  1.00  0.00     0.031 C 
ATOM     65  C   UNL A   1      44.846  28.059  32.685  1.00  0.00     0.034 A 
BRANCH  52  66
ATOM     66  C   UNL A   1      44.355  25.214  27.175  1.00  0.00     0.023 A 
ATOM     67  C   UNL A   1      45.267  25.927  26.361  1.00  0.00     0.012 A 
ATOM     68  C   UNL A   1      44.082  23.891  26.745  1.00  0.00     0.148 A 
ATOM     69  C   UNL A   1      45.807  25.399  25.177  1.00  0.00     0.002 A 
ATOM     70  C   UNL A   1      44.602  23.365  25.556  1.00  0.00     0.091 A 
ATOM     71  F   UNL A   1      43.333  23.082  27.485  1.00  0.00    -0.205 F 
ATOM     72  C   UNL A   1      45.460  24.123  24.762  1.00  0.00     0.022 A 
BRANCH  70  73
ATOM     73  S   UNL A   1      44.171  21.715  24.957  1.00  0.00     0.127 S 
ATOM     74  O   UNL A   1      45.069  20.861  25.735  1.00  0.00    -0.237 OA
ATOM     75  O   UNL A   1      42.760  21.609  25.325  1.00  0.00    -0.237 OA
ATOM     76  O   UNL A   1      44.435  21.709  23.523  1.00  0.00    -0.744 OA
ENDBRANCH  70  73
ENDBRANCH  52  66
BRANCH  53  77
ATOM     77  C   UNL A   1      39.978  31.475  33.120  1.00  0.00     0.023 A 
ATOM     78  C   UNL A   1      39.501  30.287  33.718  1.00  0.00     0.012 A 
ATOM     79  C   UNL A   1      39.376  32.698  33.477  1.00  0.00     0.148 A 
ATOM     80  C   UNL A   1      38.566  30.333  34.752  1.00  0.00     0.002 A 
ATOM     81  C   UNL A   1      38.438  32.729  34.513  1.00  0.00     0.091 A 
ATOM     82  F   UNL A   1      39.770  33.813  32.853  1.00  0.00    -0.205 F 
ATOM     83  C   UNL A   1      38.068  31.554  35.179  1.00  0.00     0.022 A 
BRANCH  81  84
ATOM     84  S   UNL A   1      37.748  34.267  35.140  1.00  0.00     0.127 S 
ATOM     85  O   UNL A   1      36.944  34.709  34.003  1.00  0.00    -0.237 OA
ATOM     86  O   UNL A   1      36.974  33.819  36.299  1.00  0.00    -0.237 OA
ATOM     87  O   UNL A   1      38.900  35.088  35.478  1.00  0.00    -0.744 OA
ENDBRANCH  81  84
ENDBRANCH  53  77
BRANCH  65  88
ATOM     88  C   UNL A   1      45.522  27.011  33.563  1.00  0.00     0.023 A 
ATOM     89  C   UNL A   1      46.816  27.183  34.092  1.00  0.00     0.012 A 
ATOM     90  C   UNL A   1      44.817  25.859  34.005  1.00  0.00     0.148 A 
ATOM     91  C   UNL A   1      47.414  26.244  34.940  1.00  0.00     0.002 A 
ATOM     92  C   UNL A   1      45.367  24.993  34.949  1.00  0.00     0.091 A 
ATOM     93  F   UNL A   1      43.609  25.575  33.497  1.00  0.00    -0.205 F 
ATOM     94  C   UNL A   1      46.680  25.159  35.389  1.00  0.00     0.022 A 
BRANCH  92  95
ATOM     95  S   UNL A   1      44.357  23.742  35.755  1.00  0.00     0.127 S 
ATOM     96  O   UNL A   1      43.236  24.533  36.258  1.00  0.00    -0.237 OA
ATOM     97  O   UNL A   1      44.019  22.844  34.648  1.00  0.00    -0.237 OA
ATOM     98  O   UNL A   1      45.229  23.145  36.757  1.00  0.00    -0.744 OA
ENDBRANCH  92  95
ENDBRANCH  65  88
ENDBRANCH  39  40
ENDBRANCH  31  34
ENDBRANCH  29  30
ENDBRANCH  28  29
ENDBRANCH   1  28
TORSDOF 18
ENDMDL
MODEL 3
REMARK VINA RESULT:     -11.8      2.926      3.861
REMARK SMILES Cc1cccc(OCC(=O)Nc2cc(C(=O)NCCCCNC(=O)c3ccc(-c4c5nc(c(-c6cccc(S(=O)(=O)[O-])c6F)c6ccc([nH]6)c(-c6cccc(S(=O)(=O)[O-])c6F)c6nc(c(-c7cccc(S(=O)(=O)[O-])c7F)c7ccc4[nH]7)C=C6)C=C5)cc3)c(Cl)cc2Cl)c1
REMARK SMILES IDX 19 1 18 2 17 3 15 4 16 5 14 7 12 8 13 9 91 10 90 11 92 12
REMARK SMILES IDX 88 13 89 14 11 15 9 16 10 17 8 19 7 20 6 21 1 22 2 23 3 24
REMARK SMILES IDX 93 25 4 26 5 27 20 28 21 29 22 30 23 31 24 33 25 34 26 35
REMARK SMILES IDX 87 36 27 37 86 38 28 39 29 40 30 41 80 42 31 43 85 44 79 45
REMARK SMILES IDX 81 46 32 47 84 48 78 49 77 50 33 52 65 53 45 54 64 55 46 56
REMARK SMILES IDX 49 57 63 58 82 59 47 60 48 61 62 63 83 64 50 65 34 66 35 67
REMARK SMILES IDX 43 68 36 69 38 70 44 71 37 72 39 73 40 74 41 75 42 76 66 77
REMARK SMILES IDX 67 78 75 79 68 80 70 81 76 82 69 83 71 84 72 85 73 86 74 87
REMARK SMILES IDX 51 88 52 89 60 90 53 91 55 92 61 93 54 94 56 95 57 96 58 97
REMARK SMILES IDX 59 98
REMARK H PARENT 17 6 11 18 22 32 81 51 49 62
REMARK Flexibility Score: inf
ROOT
ATOM      1  C   UNL A   1      32.543  30.463  26.661  1.00  0.00     0.023 C 
ENDROOT
BRANCH   1   2
ATOM      2  C   UNL A   1      32.065  29.270  25.814  1.00  0.00     0.116 C 
BRANCH   2   3
ATOM      3  N   UNL A   1      31.560  29.553  24.488  1.00  0.00    -0.352 N 
ATOM      4  C   UNL A   1      31.168  28.681  23.491  1.00  0.00     0.252 C 
ATOM      5  O   UNL A   1      30.457  29.111  22.586  1.00  0.00    -0.269 OA
ATOM      6  H   UNL A   1      31.485  30.508  24.262  1.00  0.00     0.163 HD
BRANCH   4   7
ATOM      7  C   UNL A   1      31.619  27.258  23.433  1.00  0.00     0.060 A 
ATOM      8  C   UNL A   1      31.333  24.881  23.964  1.00  0.00     0.061 A 
ATOM      9  C   UNL A   1      30.854  26.200  23.982  1.00  0.00     0.043 A 
ATOM     10  C   UNL A   1      32.547  24.625  23.291  1.00  0.00     0.066 A 
ATOM     11  C   UNL A   1      33.263  25.640  22.667  1.00  0.00     0.044 A 
ATOM     12  Cl  UNL A   1      33.203  23.019  23.200  1.00  0.00    -0.082 Cl
ATOM     13  C   UNL A   1      32.815  26.958  22.753  1.00  0.00     0.055 A 
ATOM     14  Cl  UNL A   1      33.843  28.149  22.030  1.00  0.00    -0.083 Cl
BRANCH   8  15
ATOM     15  N   UNL A   1      30.747  23.775  24.613  1.00  0.00    -0.322 N 
ATOM     16  C   UNL A   1      30.877  23.126  25.799  1.00  0.00     0.262 C 
ATOM     17  O   UNL A   1      30.200  22.099  25.941  1.00  0.00    -0.271 OA
ATOM     18  H   UNL A   1      30.052  23.359  24.053  1.00  0.00     0.170 HD
BRANCH  16  19
ATOM     19  C   UNL A   1      31.715  23.654  26.954  1.00  0.00     0.329 C 
BRANCH  19  20
ATOM     20  O   UNL A   1      32.703  22.801  27.488  1.00  0.00    -0.484 OA
BRANCH  20  21
ATOM     21  C   UNL A   1      33.789  22.474  26.734  1.00  0.00     0.120 A 
ATOM     22  C   UNL A   1      36.967  23.650  25.018  1.00  0.00     0.044 C 
ATOM     23  C   UNL A   1      35.906  22.760  25.590  1.00  0.00    -0.047 A 
ATOM     24  C   UNL A   1      35.868  21.424  25.172  1.00  0.00     0.003 A 
ATOM     25  C   UNL A   1      34.882  23.271  26.411  1.00  0.00     0.049 A 
ATOM     26  C   UNL A   1      34.776  20.637  25.484  1.00  0.00     0.004 A 
ATOM     27  C   UNL A   1      33.726  21.189  26.205  1.00  0.00     0.046 A 
ENDBRANCH  20  21
ENDBRANCH  19  20
ENDBRANCH  16  19
ENDBRANCH   8  15
ENDBRANCH   4   7
ENDBRANCH   2   3
ENDBRANCH   1   2
BRANCH   1  28
ATOM     28  C   UNL A   1      33.868  30.381  27.434  1.00  0.00     0.023 C 
BRANCH  28  29
ATOM     29  C   UNL A   1      34.623  31.678  27.697  1.00  0.00     0.116 C 
BRANCH  29  30
ATOM     30  N   UNL A   1      33.989  32.753  28.434  1.00  0.00    -0.352 N 
ATOM     31  C   UNL A   1      34.455  33.430  29.560  1.00  0.00     0.251 C 
ATOM     32  H   UNL A   1      33.111  33.044  28.094  1.00  0.00     0.163 HD
ATOM     33  O   UNL A   1      33.718  34.300  30.035  1.00  0.00    -0.269 OA
BRANCH  31  34
ATOM     34  C   UNL A   1      35.803  33.177  30.174  1.00  0.00     0.039 A 
ATOM     35  C   UNL A   1      36.982  33.572  29.504  1.00  0.00     0.014 A 
ATOM     36  C   UNL A   1      35.951  32.493  31.375  1.00  0.00     0.014 A 
ATOM     37  C   UNL A   1      38.238  33.092  29.913  1.00  0.00     0.010 A 
ATOM     38  C   UNL A   1      37.169  32.042  31.798  1.00  0.00     0.010 A 
ATOM     39  C   UNL A   1      38.288  32.232  30.999  1.00  0.00    -0.014 A 
BRANCH  39  40
ATOM     40  C   UNL A   1      39.316  31.265  31.346  1.00  0.00     0.031 A 
ATOM     41  C   UNL A   1      39.380  29.958  30.669  1.00  0.00     0.074 A 
ATOM     42  C   UNL A   1      40.447  31.870  31.788  1.00  0.00     0.049 A 
ATOM     43  N   UNL A   1      40.299  29.078  30.870  1.00  0.00    -0.248 NA
ATOM     44  C   UNL A   1      38.398  29.556  29.670  1.00  0.00     0.031 C 
ATOM     45  C   UNL A   1      41.831  31.467  31.564  1.00  0.00     0.029 A 
ATOM     46  N   UNL A   1      40.596  33.053  32.523  1.00  0.00    -0.354 N 
ATOM     47  C   UNL A   1      40.230  28.171  29.831  1.00  0.00     0.074 A 
ATOM     48  C   UNL A   1      38.945  28.421  29.225  1.00  0.00     0.031 C 
ATOM     49  C   UNL A   1      42.620  32.182  32.389  1.00  0.00     0.029 A 
ATOM     50  C   UNL A   1      41.729  32.858  33.316  1.00  0.00     0.049 A 
ATOM     51  H   UNL A   1      40.024  33.853  32.487  1.00  0.00     0.167 HD
ATOM     52  C   UNL A   1      41.348  27.451  29.513  1.00  0.00     0.034 A 
ATOM     53  C   UNL A   1      41.638  32.561  34.653  1.00  0.00     0.034 A 
ATOM     54  C   UNL A   1      42.430  27.712  30.492  1.00  0.00     0.049 A 
ATOM     55  C   UNL A   1      42.240  31.207  35.017  1.00  0.00     0.074 A 
ATOM     56  C   UNL A   1      43.609  28.439  30.435  1.00  0.00     0.029 A 
ATOM     57  N   UNL A   1      42.226  27.420  31.841  1.00  0.00    -0.354 N 
ATOM     58  N   UNL A   1      42.651  30.319  34.153  1.00  0.00    -0.248 NA
ATOM     59  C   UNL A   1      42.417  30.748  36.391  1.00  0.00     0.031 C 
ATOM     60  C   UNL A   1      44.046  28.677  31.772  1.00  0.00     0.029 A 
ATOM     61  C   UNL A   1      43.162  28.061  32.644  1.00  0.00     0.049 A 
ATOM     62  H   UNL A   1      41.511  26.834  32.181  1.00  0.00     0.167 HD
ATOM     63  C   UNL A   1      42.934  29.140  34.789  1.00  0.00     0.074 A 
ATOM     64  C   UNL A   1      42.896  29.506  36.197  1.00  0.00     0.031 C 
ATOM     65  C   UNL A   1      43.081  27.958  34.106  1.00  0.00     0.034 A 
BRANCH  52  66
ATOM     66  C   UNL A   1      41.605  26.708  28.194  1.00  0.00     0.023 A 
ATOM     67  C   UNL A   1      41.416  27.432  26.993  1.00  0.00     0.012 A 
ATOM     68  C   UNL A   1      41.947  25.343  28.019  1.00  0.00     0.148 A 
ATOM     69  C   UNL A   1      41.488  26.836  25.723  1.00  0.00     0.002 A 
ATOM     70  C   UNL A   1      42.003  24.739  26.757  1.00  0.00     0.091 A 
ATOM     71  F   UNL A   1      42.262  24.587  29.065  1.00  0.00    -0.205 F 
ATOM     72  C   UNL A   1      41.764  25.483  25.604  1.00  0.00     0.022 A 
BRANCH  70  73
ATOM     73  S   UNL A   1      42.339  22.976  26.542  1.00  0.00     0.127 S 
ATOM     74  O   UNL A   1      41.099  22.366  27.026  1.00  0.00    -0.237 OA
ATOM     75  O   UNL A   1      42.543  22.871  25.098  1.00  0.00    -0.237 OA
ATOM     76  O   UNL A   1      43.510  22.672  27.354  1.00  0.00    -0.744 OA
ENDBRANCH  70  73
ENDBRANCH  52  66
BRANCH  53  77
ATOM     77  C   UNL A   1      40.432  33.162  35.312  1.00  0.00     0.023 A 
ATOM     78  C   UNL A   1      39.254  32.381  35.316  1.00  0.00     0.012 A 
ATOM     79  C   UNL A   1      40.543  34.216  36.240  1.00  0.00     0.148 A 
ATOM     80  C   UNL A   1      38.292  32.543  36.312  1.00  0.00     0.002 A 
ATOM     81  C   UNL A   1      39.569  34.370  37.231  1.00  0.00     0.091 A 
ATOM     82  F   UNL A   1      41.620  35.008  36.186  1.00  0.00    -0.205 F 
ATOM     83  C   UNL A   1      38.469  33.506  37.293  1.00  0.00     0.022 A 
BRANCH  81  84
ATOM     84  S   UNL A   1      39.721  35.583  38.550  1.00  0.00     0.127 S 
ATOM     85  O   UNL A   1      39.501  36.831  37.823  1.00  0.00    -0.237 OA
ATOM     86  O   UNL A   1      38.637  35.204  39.457  1.00  0.00    -0.237 OA
ATOM     87  O   UNL A   1      41.052  35.379  39.099  1.00  0.00    -0.744 OA
ENDBRANCH  81  84
ENDBRANCH  53  77
BRANCH  65  88
ATOM     88  C   UNL A   1      43.119  26.579  34.758  1.00  0.00     0.023 A 
ATOM     89  C   UNL A   1      41.953  25.900  35.163  1.00  0.00     0.012 A 
ATOM     90  C   UNL A   1      44.333  25.851  34.866  1.00  0.00     0.148 A 
ATOM     91  C   UNL A   1      41.985  24.613  35.713  1.00  0.00     0.002 A 
ATOM     92  C   UNL A   1      44.346  24.524  35.294  1.00  0.00     0.091 A 
ATOM     93  F   UNL A   1      45.500  26.444  34.573  1.00  0.00    -0.205 F 
ATOM     94  C   UNL A   1      43.180  23.914  35.757  1.00  0.00     0.022 A 
BRANCH  92  95
ATOM     95  S   UNL A   1      45.817  23.506  35.108  1.00  0.00     0.127 S 
ATOM     96  O   UNL A   1      46.200  23.774  33.724  1.00  0.00    -0.237 OA
ATOM     97  O   UNL A   1      46.723  24.071  36.111  1.00  0.00    -0.237 OA
ATOM     98  O   UNL A   1      45.374  22.151  35.406  1.00  0.00    -0.744 OA
ENDBRANCH  92  95
ENDBRANCH  65  88
ENDBRANCH  39  40
ENDBRANCH  31  34
ENDBRANCH  29  30
ENDBRANCH  28  29
ENDBRANCH   1  28
TORSDOF 18
ENDMDL
