MODEL 1
REMARK VINA RESULT:     -14.8      0.000      0.000
REMARK SMILES O=C(NCCCCNC(=O)[C@@H](Cc1c[nH]c2ccccc12)NC(=O)c1ccc(F)cc1F)c1ccc(-c2c3nc(c(-c4cccc(S(=O)(=O)[O-])c4F)c4ccc([nH]4)c(-c4cccc(S(=O)(=O)[O-])c4F)c4nc(c(-c5cccc(S(=O)(=O)[O-])c5F)c5ccc2[nH]5)C=C4)C=C3)cc1
REMARK SMILES IDX 5 1 4 2 3 3 1 4 2 5 33 7 34 8 95 9 35 10 94 11 36 12 37 13
REMARK SMILES IDX 38 14 88 15 39 16 93 17 87 18 89 19 40 20 92 21 86 22 85 23
REMARK SMILES IDX 41 25 73 26 53 27 72 28 54 29 57 30 71 31 90 32 55 33 56 34
REMARK SMILES IDX 70 36 91 37 58 38 42 39 43 40 51 41 44 42 46 43 52 44 45 45
REMARK SMILES IDX 47 46 48 47 49 48 50 49 74 50 75 51 83 52 76 53 78 54 84 55
REMARK SMILES IDX 77 56 79 57 80 58 81 59 82 60 59 61 60 62 68 63 61 64 63 65
REMARK SMILES IDX 69 66 62 67 64 68 65 69 66 70 67 71 6 72 7 73 8 74 9 75
REMARK SMILES IDX 10 77 11 78 12 79 13 80 14 81 21 82 15 83 16 84 20 85 17 87
REMARK SMILES IDX 19 88 18 89 22 90 23 91 24 93 25 94 26 95 31 96 27 97 30 98
REMARK SMILES IDX 32 99 28 100 29 101
REMARK H PARENT 3 6 89 24 57 35 8 76 15 86 22 92
REMARK Flexibility Score: inf
ROOT
ATOM      1  C   UNL A   1      33.196  30.803  27.192  1.00  0.00     0.023 C 
ENDROOT
BRANCH   1   2
ATOM      2  C   UNL A   1      32.067  32.723  27.251  1.00  0.00     0.116 C 
BRANCH   2   3
ATOM      3  N   UNL A   1      32.700  34.258  27.527  1.00  0.00    -0.352 N 
ATOM      4  O   UNL A   1      33.495  35.932  28.822  1.00  0.00    -0.269 OA
ATOM      5  C   UNL A   1      33.569  34.754  28.483  1.00  0.00     0.251 C 
ATOM      6  H   UNL A   1      32.393  34.935  26.882  1.00  0.00     0.163 HD
BRANCH   5   7
ATOM      7  C   UNL A   1      34.565  33.864  29.103  1.00  0.00     0.039 A 
ATOM      8  C   UNL A   1      35.886  33.966  28.676  1.00  0.00     0.014 A 
ATOM      9  C   UNL A   1      34.194  32.908  30.060  1.00  0.00     0.014 A 
ATOM     10  C   UNL A   1      36.822  33.049  29.127  1.00  0.00     0.010 A 
ATOM     11  C   UNL A   1      35.159  32.033  30.573  1.00  0.00     0.010 A 
ATOM     12  C   UNL A   1      36.483  32.099  30.109  1.00  0.00    -0.014 A 
BRANCH  12  13
ATOM     13  C   UNL A   1      37.594  31.346  30.742  1.00  0.00     0.031 A 
ATOM     14  C   UNL A   1      38.412  30.326  30.009  1.00  0.00     0.074 A 
ATOM     15  C   UNL A   1      37.893  31.659  32.020  1.00  0.00     0.049 A 
ATOM     16  N   UNL A   1      39.495  29.710  30.411  1.00  0.00    -0.248 NA
ATOM     17  C   UNL A   1      37.965  29.941  28.664  1.00  0.00     0.031 C 
ATOM     18  C   UNL A   1      37.137  32.606  32.847  1.00  0.00     0.029 A 
ATOM     19  N   UNL A   1      38.910  31.244  32.838  1.00  0.00    -0.354 N 
ATOM     20  C   UNL A   1      39.850  28.845  29.385  1.00  0.00     0.074 A 
ATOM     21  C   UNL A   1      38.857  29.011  28.342  1.00  0.00     0.031 C 
ATOM     22  C   UNL A   1      37.745  32.740  34.030  1.00  0.00     0.029 A 
ATOM     23  C   UNL A   1      38.888  31.837  34.077  1.00  0.00     0.049 A 
ATOM     24  H   UNL A   1      39.589  30.586  32.565  1.00  0.00     0.167 HD
ATOM     25  C   UNL A   1      40.907  27.997  29.320  1.00  0.00     0.034 A 
ATOM     26  C   UNL A   1      39.684  31.665  35.148  1.00  0.00     0.034 A 
ATOM     27  C   UNL A   1      41.884  27.835  30.370  1.00  0.00     0.049 A 
ATOM     28  C   UNL A   1      40.836  30.712  35.049  1.00  0.00     0.074 A 
ATOM     29  C   UNL A   1      43.023  27.047  30.369  1.00  0.00     0.029 A 
ATOM     30  N   UNL A   1      41.826  28.443  31.616  1.00  0.00    -0.354 N 
ATOM     31  N   UNL A   1      41.233  30.004  34.020  1.00  0.00    -0.248 NA
ATOM     32  C   UNL A   1      41.666  30.553  36.250  1.00  0.00     0.031 C 
ATOM     33  C   UNL A   1      43.620  27.133  31.631  1.00  0.00     0.029 A 
ATOM     34  C   UNL A   1      42.890  28.026  32.400  1.00  0.00     0.049 A 
ATOM     35  H   UNL A   1      41.130  29.078  31.901  1.00  0.00     0.167 HD
ATOM     36  C   UNL A   1      42.376  29.336  34.439  1.00  0.00     0.074 A 
ATOM     37  C   UNL A   1      42.620  29.746  35.807  1.00  0.00     0.031 C 
ATOM     38  C   UNL A   1      43.147  28.457  33.753  1.00  0.00     0.034 A 
BRANCH  25  39
ATOM     39  C   UNL A   1      41.070  27.169  28.068  1.00  0.00     0.023 A 
ATOM     40  C   UNL A   1      41.691  27.724  26.930  1.00  0.00     0.012 A 
ATOM     41  C   UNL A   1      40.665  25.819  28.039  1.00  0.00     0.148 A 
ATOM     42  C   UNL A   1      41.865  26.966  25.772  1.00  0.00     0.002 A 
ATOM     43  C   UNL A   1      40.884  25.055  26.898  1.00  0.00     0.091 A 
ATOM     44  F   UNL A   1      40.068  25.306  29.125  1.00  0.00    -0.205 F 
ATOM     45  C   UNL A   1      41.469  25.632  25.758  1.00  0.00     0.022 A 
BRANCH  43  46
ATOM     46  S   UNL A   1      40.486  23.306  26.808  1.00  0.00     0.127 S 
ATOM     47  O   UNL A   1      40.808  22.861  28.163  1.00  0.00    -0.237 OA
ATOM     48  O   UNL A   1      39.056  23.333  26.498  1.00  0.00    -0.237 OA
ATOM     49  O   UNL A   1      41.326  22.755  25.755  1.00  0.00    -0.744 OA
ENDBRANCH  43  46
ENDBRANCH  25  39
BRANCH  26  50
ATOM     50  C   UNL A   1      39.414  32.429  36.396  1.00  0.00     0.023 A 
ATOM     51  C   UNL A   1      40.067  33.654  36.624  1.00  0.00     0.012 A 
ATOM     52  C   UNL A   1      38.480  31.957  37.339  1.00  0.00     0.148 A 
ATOM     53  C   UNL A   1      39.818  34.382  37.788  1.00  0.00     0.002 A 
ATOM     54  C   UNL A   1      38.190  32.716  38.464  1.00  0.00     0.091 A 
ATOM     55  F   UNL A   1      37.872  30.786  37.099  1.00  0.00    -0.205 F 
ATOM     56  C   UNL A   1      38.872  33.919  38.701  1.00  0.00     0.022 A 
BRANCH  54  57
ATOM     57  S   UNL A   1      36.896  32.264  39.622  1.00  0.00     0.127 S 
ATOM     58  O   UNL A   1      37.316  30.925  40.028  1.00  0.00    -0.237 OA
ATOM     59  O   UNL A   1      37.042  33.296  40.650  1.00  0.00    -0.237 OA
ATOM     60  O   UNL A   1      35.649  32.332  38.873  1.00  0.00    -0.744 OA
ENDBRANCH  54  57
ENDBRANCH  26  50
BRANCH  38  61
ATOM     61  C   UNL A   1      44.361  27.904  34.456  1.00  0.00     0.023 A 
ATOM     62  C   UNL A   1      45.590  28.592  34.400  1.00  0.00     0.012 A 
ATOM     63  C   UNL A   1      44.267  26.720  35.214  1.00  0.00     0.148 A 
ATOM     64  C   UNL A   1      46.716  28.087  35.053  1.00  0.00     0.002 A 
ATOM     65  C   UNL A   1      45.376  26.255  35.909  1.00  0.00     0.091 A 
ATOM     66  F   UNL A   1      43.095  26.069  35.239  1.00  0.00    -0.205 F 
ATOM     67  C   UNL A   1      46.606  26.927  35.816  1.00  0.00     0.022 A 
BRANCH  65  68
ATOM     68  S   UNL A   1      45.305  24.826  36.995  1.00  0.00     0.127 S 
ATOM     69  O   UNL A   1      44.178  25.166  37.861  1.00  0.00    -0.237 OA
ATOM     70  O   UNL A   1      45.046  23.737  36.053  1.00  0.00    -0.237 OA
ATOM     71  O   UNL A   1      46.600  24.759  37.659  1.00  0.00    -0.744 OA
ENDBRANCH  65  68
ENDBRANCH  38  61
ENDBRANCH  12  13
ENDBRANCH   5   7
ENDBRANCH   2   3
ENDBRANCH   1   2
BRANCH   1  72
ATOM     72  C   UNL A   1      32.219  30.010  27.065  1.00  0.00     0.023 C 
BRANCH  72  73
ATOM     73  C   UNL A   1      32.410  29.481  24.911  1.00  0.00     0.116 C 
BRANCH  73  74
ATOM     74  N   UNL A   1      31.156  29.367  23.816  1.00  0.00    -0.354 N 
ATOM     75  C   UNL A   1      30.734  28.402  22.933  1.00  0.00     0.242 C 
ATOM     76  H   UNL A   1      30.591  30.172  23.800  1.00  0.00     0.163 HD
ATOM     77  O   UNL A   1      30.050  28.810  21.980  1.00  0.00    -0.273 OA
BRANCH  75  78
ATOM     78  C   UNL A   1      30.922  26.857  23.092  1.00  0.00     0.176 C 
BRANCH  78  79
ATOM     79  C   UNL A   1      29.808  25.914  23.591  1.00  0.00     0.072 C 
BRANCH  79  80
ATOM     80  C   UNL A   1      30.248  25.114  24.740  1.00  0.00    -0.020 A 
ATOM     81  C   UNL A   1      30.473  25.470  26.082  1.00  0.00     0.087 A 
ATOM     82  C   UNL A   1      30.803  23.855  24.529  1.00  0.00     0.003 A 
ATOM     83  N   UNL A   1      31.254  24.604  26.892  1.00  0.00    -0.361 N 
ATOM     84  C   UNL A   1      31.755  23.519  26.190  1.00  0.00     0.046 A 
ATOM     85  C   UNL A   1      31.331  22.445  23.236  1.00  0.00     0.010 A 
ATOM     86  H   UNL A   1      31.421  24.758  27.849  1.00  0.00     0.166 HD
ATOM     87  C   UNL A   1      32.772  21.895  26.443  1.00  0.00     0.026 A 
ATOM     88  C   UNL A   1      32.381  20.833  23.468  1.00  0.00     0.001 A 
ATOM     89  C   UNL A   1      33.123  20.359  25.244  1.00  0.00     0.002 A 
ENDBRANCH  79  80
ENDBRANCH  78  79
BRANCH  78  90
ATOM     90  N   UNL A   1      31.541  26.384  21.846  1.00  0.00    -0.340 N 
ATOM     91  C   UNL A   1      32.805  25.874  21.671  1.00  0.00     0.254 C 
ATOM     92  H   UNL A   1      30.981  26.439  21.038  1.00  0.00     0.164 HD
ATOM     93  O   UNL A   1      33.278  25.765  20.545  1.00  0.00    -0.269 OA
BRANCH  91  94
ATOM     94  C   UNL A   1      33.574  25.394  22.839  1.00  0.00     0.075 A 
ATOM     95  C   UNL A   1      33.695  26.190  23.988  1.00  0.00     0.020 A 
ATOM     96  C   UNL A   1      34.146  24.121  22.819  1.00  0.00     0.138 A 
ATOM     97  C   UNL A   1      34.436  25.732  25.078  1.00  0.00     0.040 A 
ATOM     98  C   UNL A   1      34.868  23.652  23.914  1.00  0.00     0.079 A 
ATOM     99  F   UNL A   1      34.033  23.327  21.746  1.00  0.00    -0.206 F 
ATOM    100  C   UNL A   1      35.015  24.467  25.030  1.00  0.00     0.126 A 
ATOM    101  F   UNL A   1      35.717  24.028  26.082  1.00  0.00    -0.207 F 
ENDBRANCH  91  94
ENDBRANCH  78  90
ENDBRANCH  75  78
ENDBRANCH  73  74
ENDBRANCH  72  73
ENDBRANCH   1  72
TORSDOF 18
ENDMDL
MODEL 2
REMARK VINA RESULT:     -14.6      1.286      2.066
REMARK SMILES O=C(NCCCCNC(=O)[C@@H](Cc1c[nH]c2ccccc12)NC(=O)c1ccc(F)cc1F)c1ccc(-c2c3nc(c(-c4cccc(S(=O)(=O)[O-])c4F)c4ccc([nH]4)c(-c4cccc(S(=O)(=O)[O-])c4F)c4nc(c(-c5cccc(S(=O)(=O)[O-])c5F)c5ccc2[nH]5)C=C4)C=C3)cc1
REMARK SMILES IDX 5 1 4 2 3 3 1 4 2 5 33 7 34 8 95 9 35 10 94 11 36 12 37 13
REMARK SMILES IDX 38 14 88 15 39 16 93 17 87 18 89 19 40 20 92 21 86 22 85 23
REMARK SMILES IDX 41 25 73 26 53 27 72 28 54 29 57 30 71 31 90 32 55 33 56 34
REMARK SMILES IDX 70 36 91 37 58 38 42 39 43 40 51 41 44 42 46 43 52 44 45 45
REMARK SMILES IDX 47 46 48 47 49 48 50 49 74 50 75 51 83 52 76 53 78 54 84 55
REMARK SMILES IDX 77 56 79 57 80 58 81 59 82 60 59 61 60 62 68 63 61 64 63 65
REMARK SMILES IDX 69 66 62 67 64 68 65 69 66 70 67 71 6 72 7 73 8 74 9 75
REMARK SMILES IDX 10 77 11 78 12 79 13 80 14 81 21 82 15 83 16 84 20 85 17 87
REMARK SMILES IDX 19 88 18 89 22 90 23 91 24 93 25 94 26 95 31 96 27 97 30 98
REMARK SMILES IDX 32 99 28 100 29 101
REMARK H PARENT 3 6 89 24 57 35 8 76 15 86 22 92
REMARK Flexibility Score: inf
ROOT
ATOM      1  C   UNL A   1      33.610  30.069  26.567  1.00  0.00     0.023 C 
ENDROOT
BRANCH   1   2
ATOM      2  C   UNL A   1      32.061  31.641  26.876  1.00  0.00     0.116 C 
BRANCH   2   3
ATOM      3  N   UNL A   1      32.323  33.292  27.070  1.00  0.00    -0.352 N 
ATOM      4  O   UNL A   1      32.715  35.166  28.272  1.00  0.00    -0.269 OA
ATOM      5  C   UNL A   1      33.058  34.021  27.988  1.00  0.00     0.251 C 
ATOM      6  H   UNL A   1      31.865  33.847  26.399  1.00  0.00     0.163 HD
BRANCH   5   7
ATOM      7  C   UNL A   1      34.236  33.417  28.633  1.00  0.00     0.039 A 
ATOM      8  C   UNL A   1      34.026  32.614  29.750  1.00  0.00     0.014 A 
ATOM      9  C   UNL A   1      35.534  33.676  28.170  1.00  0.00     0.014 A 
ATOM     10  C   UNL A   1      35.115  32.149  30.470  1.00  0.00     0.010 A 
ATOM     11  C   UNL A   1      36.631  33.139  28.856  1.00  0.00     0.010 A 
ATOM     12  C   UNL A   1      36.427  32.369  30.012  1.00  0.00    -0.014 A 
BRANCH  12  13
ATOM     13  C   UNL A   1      37.517  31.608  30.672  1.00  0.00     0.031 A 
ATOM     14  C   UNL A   1      38.358  30.596  29.955  1.00  0.00     0.074 A 
ATOM     15  C   UNL A   1      37.775  31.907  31.962  1.00  0.00     0.049 A 
ATOM     16  N   UNL A   1      39.427  29.974  30.384  1.00  0.00    -0.248 NA
ATOM     17  C   UNL A   1      37.954  30.225  28.592  1.00  0.00     0.031 C 
ATOM     18  C   UNL A   1      36.994  32.846  32.774  1.00  0.00     0.029 A 
ATOM     19  N   UNL A   1      38.766  31.483  32.808  1.00  0.00    -0.354 N 
ATOM     20  C   UNL A   1      39.815  29.120  29.361  1.00  0.00     0.074 A 
ATOM     21  C   UNL A   1      38.855  29.298  28.289  1.00  0.00     0.031 C 
ATOM     22  C   UNL A   1      37.564  32.967  33.978  1.00  0.00     0.029 A 
ATOM     23  C   UNL A   1      38.704  32.063  34.052  1.00  0.00     0.049 A 
ATOM     24  H   UNL A   1      39.453  30.827  32.549  1.00  0.00     0.167 HD
ATOM     25  C   UNL A   1      40.873  28.272  29.321  1.00  0.00     0.034 A 
ATOM     26  C   UNL A   1      39.466  31.879  35.146  1.00  0.00     0.034 A 
ATOM     27  C   UNL A   1      41.816  28.098  30.400  1.00  0.00     0.049 A 
ATOM     28  C   UNL A   1      40.620  30.926  35.073  1.00  0.00     0.074 A 
ATOM     29  C   UNL A   1      42.954  27.310  30.427  1.00  0.00     0.029 A 
ATOM     30  N   UNL A   1      41.719  28.693  31.650  1.00  0.00    -0.354 N 
ATOM     31  N   UNL A   1      41.050  30.229  34.050  1.00  0.00    -0.248 NA
ATOM     32  C   UNL A   1      41.411  30.753  36.299  1.00  0.00     0.031 C 
ATOM     33  C   UNL A   1      43.510  27.382  31.709  1.00  0.00     0.029 A 
ATOM     34  C   UNL A   1      42.757  28.266  32.463  1.00  0.00     0.049 A 
ATOM     35  H   UNL A   1      41.014  29.326  31.920  1.00  0.00     0.167 HD
ATOM     36  C   UNL A   1      42.178  29.556  34.498  1.00  0.00     0.074 A 
ATOM     37  C   UNL A   1      42.379  29.951  35.878  1.00  0.00     0.031 C 
ATOM     38  C   UNL A   1      42.970  28.683  33.828  1.00  0.00     0.034 A 
BRANCH  25  39
ATOM     39  C   UNL A   1      41.076  27.457  28.066  1.00  0.00     0.023 A 
ATOM     40  C   UNL A   1      41.598  28.066  26.907  1.00  0.00     0.012 A 
ATOM     41  C   UNL A   1      40.807  26.073  28.054  1.00  0.00     0.148 A 
ATOM     42  C   UNL A   1      41.808  27.322  25.744  1.00  0.00     0.002 A 
ATOM     43  C   UNL A   1      41.063  25.329  26.909  1.00  0.00     0.091 A 
ATOM     44  F   UNL A   1      40.303  25.510  29.161  1.00  0.00    -0.205 F 
ATOM     45  C   UNL A   1      41.548  25.954  25.748  1.00  0.00     0.022 A 
BRANCH  43  46
ATOM     46  S   UNL A   1      40.840  23.548  26.836  1.00  0.00     0.127 S 
ATOM     47  O   UNL A   1      41.339  23.136  28.147  1.00  0.00    -0.237 OA
ATOM     48  O   UNL A   1      39.391  23.427  26.670  1.00  0.00    -0.237 OA
ATOM     49  O   UNL A   1      41.623  23.089  25.698  1.00  0.00    -0.744 OA
ENDBRANCH  43  46
ENDBRANCH  25  39
BRANCH  26  50
ATOM     50  C   UNL A   1      39.156  32.630  36.393  1.00  0.00     0.023 A 
ATOM     51  C   UNL A   1      39.695  33.914  36.590  1.00  0.00     0.012 A 
ATOM     52  C   UNL A   1      38.297  32.083  37.366  1.00  0.00     0.148 A 
ATOM     53  C   UNL A   1      39.407  34.630  37.752  1.00  0.00     0.002 A 
ATOM     54  C   UNL A   1      37.965  32.825  38.490  1.00  0.00     0.091 A 
ATOM     55  F   UNL A   1      37.799  30.856  37.155  1.00  0.00    -0.205 F 
ATOM     56  C   UNL A   1      38.534  34.091  38.696  1.00  0.00     0.022 A 
BRANCH  54  57
ATOM     57  S   UNL A   1      36.751  32.266  39.688  1.00  0.00     0.127 S 
ATOM     58  O   UNL A   1      36.876  33.279  40.733  1.00  0.00    -0.237 OA
ATOM     59  O   UNL A   1      35.513  32.331  38.910  1.00  0.00    -0.237 OA
ATOM     60  O   UNL A   1      37.156  30.919  40.066  1.00  0.00    -0.744 OA
ENDBRANCH  54  57
ENDBRANCH  26  50
BRANCH  38  61
ATOM     61  C   UNL A   1      44.161  28.122  34.563  1.00  0.00     0.023 A 
ATOM     62  C   UNL A   1      45.418  28.752  34.468  1.00  0.00     0.012 A 
ATOM     63  C   UNL A   1      44.019  26.990  35.390  1.00  0.00     0.148 A 
ATOM     64  C   UNL A   1      46.523  28.240  35.150  1.00  0.00     0.002 A 
ATOM     65  C   UNL A   1      45.107  26.521  36.112  1.00  0.00     0.091 A 
ATOM     66  F   UNL A   1      42.820  26.392  35.454  1.00  0.00    -0.205 F 
ATOM     67  C   UNL A   1      46.365  27.133  35.981  1.00  0.00     0.022 A 
BRANCH  65  68
ATOM     68  S   UNL A   1      44.978  25.163  37.281  1.00  0.00     0.127 S 
ATOM     69  O   UNL A   1      46.347  25.075  37.787  1.00  0.00    -0.237 OA
ATOM     70  O   UNL A   1      44.004  25.677  38.243  1.00  0.00    -0.237 OA
ATOM     71  O   UNL A   1      44.524  24.011  36.514  1.00  0.00    -0.744 OA
ENDBRANCH  65  68
ENDBRANCH  38  61
ENDBRANCH  12  13
ENDBRANCH   5   7
ENDBRANCH   2   3
ENDBRANCH   1   2
BRANCH   1  72
ATOM     72  C   UNL A   1      33.222  29.243  27.443  1.00  0.00     0.023 C 
BRANCH  72  73
ATOM     73  C   UNL A   1      32.287  27.694  26.146  1.00  0.00     0.116 C 
BRANCH  73  74
ATOM     74  N   UNL A   1      31.237  26.499  26.650  1.00  0.00    -0.354 N 
ATOM     75  C   UNL A   1      30.822  25.298  26.125  1.00  0.00     0.242 C 
ATOM     76  H   UNL A   1      30.822  26.699  27.519  1.00  0.00     0.163 HD
ATOM     77  O   UNL A   1      29.728  24.883  26.538  1.00  0.00    -0.273 OA
BRANCH  75  78
ATOM     78  C   UNL A   1      31.650  24.367  25.179  1.00  0.00     0.176 C 
BRANCH  78  79
ATOM     79  C   UNL A   1      31.167  22.974  24.725  1.00  0.00     0.072 C 
BRANCH  79  80
ATOM     80  C   UNL A   1      32.014  21.903  25.262  1.00  0.00    -0.020 A 
ATOM     81  C   UNL A   1      32.943  21.900  26.318  1.00  0.00     0.087 A 
ATOM     82  C   UNL A   1      32.196  20.736  24.524  1.00  0.00     0.003 A 
ATOM     83  N   UNL A   1      33.896  20.850  26.381  1.00  0.00    -0.361 N 
ATOM     84  C   UNL A   1      33.806  19.978  25.307  1.00  0.00     0.046 A 
ATOM     85  C   UNL A   1      31.780  19.702  22.882  1.00  0.00     0.010 A 
ATOM     86  H   UNL A   1      34.550  20.752  27.109  1.00  0.00     0.166 HD
ATOM     87  C   UNL A   1      34.565  18.336  24.626  1.00  0.00     0.026 A 
ATOM     88  C   UNL A   1      32.558  18.077  22.169  1.00  0.00     0.001 A 
ATOM     89  C   UNL A   1      34.029  17.158  23.128  1.00  0.00     0.002 A 
ENDBRANCH  79  80
ENDBRANCH  78  79
BRANCH  78  90
ATOM     90  N   UNL A   1      32.088  25.203  24.053  1.00  0.00    -0.340 N 
ATOM     91  C   UNL A   1      33.367  25.390  23.588  1.00  0.00     0.254 C 
ATOM     92  H   UNL A   1      31.379  25.689  23.574  1.00  0.00     0.164 HD
ATOM     93  O   UNL A   1      33.618  26.310  22.817  1.00  0.00    -0.269 OA
BRANCH  91  94
ATOM     94  C   UNL A   1      34.436  24.440  23.966  1.00  0.00     0.075 A 
ATOM     95  C   UNL A   1      34.812  23.408  23.093  1.00  0.00     0.020 A 
ATOM     96  C   UNL A   1      35.109  24.596  25.178  1.00  0.00     0.138 A 
ATOM     97  C   UNL A   1      35.811  22.509  23.467  1.00  0.00     0.040 A 
ATOM     98  C   UNL A   1      36.122  23.713  25.546  1.00  0.00     0.079 A 
ATOM     99  F   UNL A   1      34.788  25.583  26.027  1.00  0.00    -0.206 F 
ATOM    100  C   UNL A   1      36.457  22.671  24.689  1.00  0.00     0.126 A 
ATOM    101  F   UNL A   1      37.421  21.811  25.040  1.00  0.00    -0.207 F 
ENDBRANCH  91  94
ENDBRANCH  78  90
ENDBRANCH  75  78
ENDBRANCH  73  74
ENDBRANCH  72  73
ENDBRANCH   1  72
TORSDOF 18
ENDMDL
MODEL 3
REMARK VINA RESULT:     -14.4      1.384      2.862
REMARK SMILES O=C(NCCCCNC(=O)[C@@H](Cc1c[nH]c2ccccc12)NC(=O)c1ccc(F)cc1F)c1ccc(-c2c3nc(c(-c4cccc(S(=O)(=O)[O-])c4F)c4ccc([nH]4)c(-c4cccc(S(=O)(=O)[O-])c4F)c4nc(c(-c5cccc(S(=O)(=O)[O-])c5F)c5ccc2[nH]5)C=C4)C=C3)cc1
REMARK SMILES IDX 5 1 4 2 3 3 1 4 2 5 33 7 34 8 95 9 35 10 94 11 36 12 37 13
REMARK SMILES IDX 38 14 88 15 39 16 93 17 87 18 89 19 40 20 92 21 86 22 85 23
REMARK SMILES IDX 41 25 73 26 53 27 72 28 54 29 57 30 71 31 90 32 55 33 56 34
REMARK SMILES IDX 70 36 91 37 58 38 42 39 43 40 51 41 44 42 46 43 52 44 45 45
REMARK SMILES IDX 47 46 48 47 49 48 50 49 74 50 75 51 83 52 76 53 78 54 84 55
REMARK SMILES IDX 77 56 79 57 80 58 81 59 82 60 59 61 60 62 68 63 61 64 63 65
REMARK SMILES IDX 69 66 62 67 64 68 65 69 66 70 67 71 6 72 7 73 8 74 9 75
REMARK SMILES IDX 10 77 11 78 12 79 13 80 14 81 21 82 15 83 16 84 20 85 17 87
REMARK SMILES IDX 19 88 18 89 22 90 23 91 24 93 25 94 26 95 31 96 27 97 30 98
REMARK SMILES IDX 32 99 28 100 29 101
REMARK H PARENT 3 6 89 24 57 35 8 76 15 86 22 92
REMARK Flexibility Score: inf
ROOT
ATOM      1  C   UNL A   1      33.248  30.150  27.616  1.00  0.00     0.023 C 
ENDROOT
BRANCH   1   2
ATOM      2  C   UNL A   1      32.030  31.843  26.832  1.00  0.00     0.116 C 
BRANCH   2   3
ATOM      3  N   UNL A   1      32.282  33.482  27.113  1.00  0.00    -0.352 N 
ATOM      4  O   UNL A   1      32.661  35.293  28.413  1.00  0.00    -0.269 OA
ATOM      5  C   UNL A   1      33.011  34.167  28.070  1.00  0.00     0.251 C 
ATOM      6  H   UNL A   1      31.822  34.070  26.471  1.00  0.00     0.163 HD
BRANCH   5   7
ATOM      7  C   UNL A   1      34.191  33.536  28.685  1.00  0.00     0.039 A 
ATOM      8  C   UNL A   1      34.009  32.833  29.872  1.00  0.00     0.014 A 
ATOM      9  C   UNL A   1      35.468  33.674  28.123  1.00  0.00     0.014 A 
ATOM     10  C   UNL A   1      35.114  32.352  30.557  1.00  0.00     0.010 A 
ATOM     11  C   UNL A   1      36.575  33.119  28.778  1.00  0.00     0.010 A 
ATOM     12  C   UNL A   1      36.403  32.451  30.001  1.00  0.00    -0.014 A 
BRANCH  12  13
ATOM     13  C   UNL A   1      37.487  31.672  30.649  1.00  0.00     0.031 A 
ATOM     14  C   UNL A   1      38.289  30.631  29.927  1.00  0.00     0.074 A 
ATOM     15  C   UNL A   1      37.777  31.978  31.930  1.00  0.00     0.049 A 
ATOM     16  N   UNL A   1      39.351  29.989  30.343  1.00  0.00    -0.248 NA
ATOM     17  C   UNL A   1      37.850  30.256  28.577  1.00  0.00     0.031 C 
ATOM     18  C   UNL A   1      37.035  32.945  32.746  1.00  0.00     0.029 A 
ATOM     19  N   UNL A   1      38.774  31.540  32.761  1.00  0.00    -0.354 N 
ATOM     20  C   UNL A   1      39.698  29.114  29.322  1.00  0.00     0.074 A 
ATOM     21  C   UNL A   1      38.723  29.304  28.267  1.00  0.00     0.031 C 
ATOM     22  C   UNL A   1      37.631  33.065  33.938  1.00  0.00     0.029 A 
ATOM     23  C   UNL A   1      38.750  32.135  33.999  1.00  0.00     0.049 A 
ATOM     24  H   UNL A   1      39.440  30.865  32.497  1.00  0.00     0.167 HD
ATOM     25  C   UNL A   1      40.734  28.241  29.272  1.00  0.00     0.034 A 
ATOM     26  C   UNL A   1      39.529  31.944  35.080  1.00  0.00     0.034 A 
ATOM     27  C   UNL A   1      41.694  28.056  30.334  1.00  0.00     0.049 A 
ATOM     28  C   UNL A   1      40.657  30.963  34.997  1.00  0.00     0.074 A 
ATOM     29  C   UNL A   1      42.814  27.241  30.348  1.00  0.00     0.029 A 
ATOM     30  N   UNL A   1      41.636  28.666  31.579  1.00  0.00    -0.354 N 
ATOM     31  N   UNL A   1      41.051  30.244  33.974  1.00  0.00    -0.248 NA
ATOM     32  C   UNL A   1      41.468  30.784  36.209  1.00  0.00     0.031 C 
ATOM     33  C   UNL A   1      43.396  27.313  31.618  1.00  0.00     0.029 A 
ATOM     34  C   UNL A   1      42.679  28.224  32.377  1.00  0.00     0.049 A 
ATOM     35  H   UNL A   1      40.952  29.319  31.855  1.00  0.00     0.167 HD
ATOM     36  C   UNL A   1      42.171  29.549  34.408  1.00  0.00     0.074 A 
ATOM     37  C   UNL A   1      42.408  29.954  35.779  1.00  0.00     0.031 C 
ATOM     38  C   UNL A   1      42.929  28.650  33.732  1.00  0.00     0.034 A 
BRANCH  25  39
ATOM     39  C   UNL A   1      40.893  27.408  28.022  1.00  0.00     0.023 A 
ATOM     40  C   UNL A   1      41.497  27.963  26.875  1.00  0.00     0.012 A 
ATOM     41  C   UNL A   1      40.502  26.054  28.005  1.00  0.00     0.148 A 
ATOM     42  C   UNL A   1      41.666  27.200  25.719  1.00  0.00     0.002 A 
ATOM     43  C   UNL A   1      40.717  25.286  26.866  1.00  0.00     0.091 A 
ATOM     44  F   UNL A   1      39.922  25.541  29.099  1.00  0.00    -0.205 F 
ATOM     45  C   UNL A   1      41.284  25.862  25.717  1.00  0.00     0.022 A 
BRANCH  43  46
ATOM     46  S   UNL A   1      40.336  23.532  26.789  1.00  0.00     0.127 S 
ATOM     47  O   UNL A   1      38.925  23.555  26.405  1.00  0.00    -0.237 OA
ATOM     48  O   UNL A   1      41.245  23.066  25.741  1.00  0.00    -0.237 OA
ATOM     49  O   UNL A   1      40.613  23.000  28.115  1.00  0.00    -0.744 OA
ENDBRANCH  43  46
ENDBRANCH  25  39
BRANCH  26  50
ATOM     50  C   UNL A   1      39.261  32.716  36.325  1.00  0.00     0.023 A 
ATOM     51  C   UNL A   1      39.829  33.991  36.494  1.00  0.00     0.012 A 
ATOM     52  C   UNL A   1      38.412  32.198  37.323  1.00  0.00     0.148 A 
ATOM     53  C   UNL A   1      39.581  34.727  37.654  1.00  0.00     0.002 A 
ATOM     54  C   UNL A   1      38.120  32.960  38.445  1.00  0.00     0.091 A 
ATOM     55  F   UNL A   1      37.886  30.979  37.138  1.00  0.00    -0.205 F 
ATOM     56  C   UNL A   1      38.719  34.217  38.623  1.00  0.00     0.022 A 
BRANCH  54  57
ATOM     57  S   UNL A   1      36.922  32.440  39.676  1.00  0.00     0.127 S 
ATOM     58  O   UNL A   1      35.695  32.375  38.887  1.00  0.00    -0.237 OA
ATOM     59  O   UNL A   1      37.462  31.143  40.087  1.00  0.00    -0.237 OA
ATOM     60  O   UNL A   1      36.949  33.461  40.714  1.00  0.00    -0.744 OA
ENDBRANCH  54  57
ENDBRANCH  26  50
BRANCH  38  61
ATOM     61  C   UNL A   1      44.120  28.069  34.451  1.00  0.00     0.023 A 
ATOM     62  C   UNL A   1      45.343  28.768  34.483  1.00  0.00     0.012 A 
ATOM     63  C   UNL A   1      44.008  26.844  35.138  1.00  0.00     0.148 A 
ATOM     64  C   UNL A   1      46.448  28.236  35.151  1.00  0.00     0.002 A 
ATOM     65  C   UNL A   1      45.093  26.349  35.849  1.00  0.00     0.091 A 
ATOM     66  F   UNL A   1      42.843  26.183  35.080  1.00  0.00    -0.205 F 
ATOM     67  C   UNL A   1      46.319  27.035  35.843  1.00  0.00     0.022 A 
BRANCH  65  68
ATOM     68  S   UNL A   1      44.995  24.861  36.850  1.00  0.00     0.127 S 
ATOM     69  O   UNL A   1      44.200  25.320  37.988  1.00  0.00    -0.237 OA
ATOM     70  O   UNL A   1      44.302  23.934  35.955  1.00  0.00    -0.237 OA
ATOM     71  O   UNL A   1      46.369  24.491  37.161  1.00  0.00    -0.744 OA
ENDBRANCH  65  68
ENDBRANCH  38  61
ENDBRANCH  12  13
ENDBRANCH   5   7
ENDBRANCH   2   3
ENDBRANCH   1   2
BRANCH   1  72
ATOM     72  C   UNL A   1      34.269  30.292  26.882  1.00  0.00     0.023 C 
BRANCH  72  73
ATOM     73  C   UNL A   1      33.976  28.608  25.457  1.00  0.00     0.116 C 
BRANCH  73  74
ATOM     74  N   UNL A   1      33.959  28.727  23.793  1.00  0.00    -0.354 N 
ATOM     75  C   UNL A   1      33.814  27.825  22.765  1.00  0.00     0.242 C 
ATOM     76  H   UNL A   1      34.079  29.651  23.476  1.00  0.00     0.163 HD
ATOM     77  O   UNL A   1      34.283  28.180  21.671  1.00  0.00    -0.273 OA
BRANCH  75  78
ATOM     78  C   UNL A   1      33.011  26.484  22.817  1.00  0.00     0.176 C 
BRANCH  78  79
ATOM     79  C   UNL A   1      31.697  26.250  22.044  1.00  0.00     0.072 C 
BRANCH  79  80
ATOM     80  C   UNL A   1      30.524  26.632  22.837  1.00  0.00    -0.020 A 
ATOM     81  C   UNL A   1      29.557  25.850  23.495  1.00  0.00     0.087 A 
ATOM     82  C   UNL A   1      30.052  27.942  22.780  1.00  0.00     0.003 A 
ATOM     83  N   UNL A   1      28.327  26.456  23.861  1.00  0.00    -0.361 N 
ATOM     84  C   UNL A   1      28.231  27.773  23.439  1.00  0.00     0.046 A 
ATOM     85  C   UNL A   1      30.261  29.774  22.048  1.00  0.00     0.010 A 
ATOM     86  H   UNL A   1      27.619  25.991  24.360  1.00  0.00     0.166 HD
ATOM     87  C   UNL A   1      27.063  29.309  23.537  1.00  0.00     0.026 A 
ATOM     88  C   UNL A   1      29.082  31.311  22.106  1.00  0.00     0.001 A 
ATOM     89  C   UNL A   1      27.330  31.204  23.025  1.00  0.00     0.002 A 
ENDBRANCH  79  80
ENDBRANCH  78  79
BRANCH  78  90
ATOM     90  N   UNL A   1      33.988  25.407  22.602  1.00  0.00    -0.340 N 
ATOM     91  C   UNL A   1      34.226  24.312  23.396  1.00  0.00     0.254 C 
ATOM     92  H   UNL A   1      34.538  25.480  21.789  1.00  0.00     0.164 HD
ATOM     93  O   UNL A   1      35.239  23.640  23.237  1.00  0.00    -0.269 OA
BRANCH  91  94
ATOM     94  C   UNL A   1      33.226  23.901  24.405  1.00  0.00     0.075 A 
ATOM     95  C   UNL A   1      33.345  24.324  25.738  1.00  0.00     0.020 A 
ATOM     96  C   UNL A   1      32.130  23.127  24.023  1.00  0.00     0.138 A 
ATOM     97  C   UNL A   1      32.403  23.918  26.684  1.00  0.00     0.040 A 
ATOM     98  C   UNL A   1      31.176  22.737  24.961  1.00  0.00     0.079 A 
ATOM     99  F   UNL A   1      31.975  22.722  22.755  1.00  0.00    -0.206 F 
ATOM    100  C   UNL A   1      31.327  23.129  26.286  1.00  0.00     0.126 A 
ATOM    101  F   UNL A   1      30.421  22.750  27.195  1.00  0.00    -0.207 F 
ENDBRANCH  91  94
ENDBRANCH  78  90
ENDBRANCH  75  78
ENDBRANCH  73  74
ENDBRANCH  72  73
ENDBRANCH   1  72
TORSDOF 18
ENDMDL
