MODEL 1
REMARK VINA RESULT:     -11.9      0.000      0.000
REMARK SMILES Cc1cccc(CS[C@@H]2CC[C@]([NH3+])(C(=O)NCCCCNC(=O)c3ccc(-c4c5nc(c(-c6cccc(S(=O)(=O)[O-])c6F)c6ccc([nH]6)c(-c6cccc(S(=O)(=O)[O-])c6F)c6nc(c(-c7cccc(S(=O)(=O)[O-])c7F)c7ccc4[nH]7)C=C6)C=C5)cc3)C2)c1
REMARK SMILES IDX 18 1 17 2 16 3 14 4 15 5 12 7 9 8 10 9 87 10 11 11 8 12 7 13
REMARK SMILES IDX 6 14 1 15 2 16 3 17 88 18 4 19 5 20 13 21 19 25 20 26 21 27
REMARK SMILES IDX 22 28 23 30 24 31 25 32 86 33 26 34 85 35 27 36 28 37 29 38
REMARK SMILES IDX 79 39 30 40 84 41 78 42 80 43 31 44 83 45 77 46 76 47 32 49
REMARK SMILES IDX 64 50 44 51 63 52 45 53 48 54 62 55 81 56 46 57 47 58 61 60
REMARK SMILES IDX 82 61 49 62 33 63 34 64 42 65 35 66 37 67 43 68 36 69 38 70
REMARK SMILES IDX 39 71 40 72 41 73 65 74 66 75 74 76 67 77 69 78 75 79 68 80
REMARK SMILES IDX 70 81 71 82 72 83 73 84 50 85 51 86 59 87 52 88 54 89 60 90
REMARK SMILES IDX 53 91 55 92 56 93 57 94 58 95
REMARK H PARENT 16 6 13 22 13 23 13 24 21 29 80 48 48 59
REMARK Flexibility Score: inf
ROOT
ATOM      1  C   UNL A   1      33.655  28.271  25.959  1.00  0.00     0.023 C 
ENDROOT
BRANCH   1   2
ATOM      2  C   UNL A   1      32.893  27.518  24.871  1.00  0.00     0.116 C 
BRANCH   2   3
ATOM      3  N   UNL A   1      31.746  28.234  24.341  1.00  0.00    -0.351 N 
ATOM      4  C   UNL A   1      30.501  27.768  24.018  1.00  0.00     0.281 C 
ATOM      5  O   UNL A   1      29.677  28.580  23.587  1.00  0.00    -0.268 OA
ATOM      6  H   UNL A   1      31.885  29.198  24.192  1.00  0.00     0.163 HD
BRANCH   4   7
ATOM      7  C   UNL A   1      30.172  26.249  24.101  1.00  0.00     0.175 C 
ATOM      8  C   UNL A   1      30.769  24.117  25.115  1.00  0.00     0.054 C 
ATOM      9  C   UNL A   1      30.937  23.977  23.602  1.00  0.00     0.022 C 
ATOM     10  C   UNL A   1      30.729  25.620  25.406  1.00  0.00     0.093 C 
ATOM     11  C   UNL A   1      30.899  25.398  23.048  1.00  0.00     0.080 C 
BRANCH   8  12
ATOM     12  S   UNL A   1      31.865  23.048  26.116  1.00  0.00    -0.154 SA
BRANCH  12  13
ATOM     13  C   UNL A   1      33.365  24.052  26.366  1.00  0.00     0.105 C 
BRANCH  13  14
ATOM     14  C   UNL A   1      34.547  23.693  25.511  1.00  0.00    -0.038 A 
ATOM     15  C   UNL A   1      38.291  23.200  25.985  1.00  0.00     0.044 C 
ATOM     16  C   UNL A   1      36.943  23.280  25.334  1.00  0.00    -0.051 A 
ATOM     17  C   UNL A   1      36.802  23.091  23.955  1.00  0.00     0.003 A 
ATOM     18  C   UNL A   1      35.812  23.571  26.101  1.00  0.00     0.008 A 
ATOM     19  C   UNL A   1      35.545  23.171  23.358  1.00  0.00     0.001 A 
ATOM     20  C   UNL A   1      34.420  23.458  24.133  1.00  0.00     0.004 A 
ENDBRANCH  13  14
ENDBRANCH  12  13
ENDBRANCH   8  12
BRANCH   7  21
ATOM     21  N   UNL A   1      28.699  26.085  24.033  1.00  0.00    -0.345 N 
ATOM     22  H   UNL A   1      28.430  25.224  24.508  1.00  0.00     0.345 HD
ATOM     23  H   UNL A   1      28.407  26.041  23.056  1.00  0.00     0.345 HD
ATOM     24  H   UNL A   1      28.248  26.879  24.487  1.00  0.00     0.345 HD
ENDBRANCH   7  21
ENDBRANCH   4   7
ENDBRANCH   2   3
ENDBRANCH   1   2
BRANCH   1  25
ATOM     25  C   UNL A   1      33.558  29.789  25.916  1.00  0.00     0.023 C 
BRANCH  25  26
ATOM     26  C   UNL A   1      33.315  30.450  27.261  1.00  0.00     0.116 C 
BRANCH  26  27
ATOM     27  N   UNL A   1      34.173  31.588  27.526  1.00  0.00    -0.352 N 
ATOM     28  C   UNL A   1      35.360  31.641  28.235  1.00  0.00     0.251 C 
ATOM     29  H   UNL A   1      33.867  32.444  27.148  1.00  0.00     0.163 HD
ATOM     30  O   UNL A   1      35.748  32.741  28.629  1.00  0.00    -0.269 OA
BRANCH  28  31
ATOM     31  C   UNL A   1      36.225  30.437  28.361  1.00  0.00     0.039 A 
ATOM     32  C   UNL A   1      36.388  29.893  29.645  1.00  0.00     0.014 A 
ATOM     33  C   UNL A   1      37.066  30.022  27.335  1.00  0.00     0.014 A 
ATOM     34  C   UNL A   1      37.549  29.192  29.960  1.00  0.00     0.010 A 
ATOM     35  C   UNL A   1      38.253  29.416  27.655  1.00  0.00     0.010 A 
ATOM     36  C   UNL A   1      38.525  29.083  28.983  1.00  0.00    -0.014 A 
BRANCH  36  37
ATOM     37  C   UNL A   1      39.887  28.646  29.188  1.00  0.00     0.031 A 
ATOM     38  C   UNL A   1      40.208  27.218  29.009  1.00  0.00     0.074 A 
ATOM     39  C   UNL A   1      40.851  29.597  29.145  1.00  0.00     0.049 A 
ATOM     40  N   UNL A   1      41.395  26.742  29.143  1.00  0.00    -0.248 NA
ATOM     41  C   UNL A   1      39.219  26.200  28.658  1.00  0.00     0.031 C 
ATOM     42  C   UNL A   1      42.245  29.403  28.774  1.00  0.00     0.029 A 
ATOM     43  N   UNL A   1      40.817  30.938  29.548  1.00  0.00    -0.354 N 
ATOM     44  C   UNL A   1      41.403  25.503  28.550  1.00  0.00     0.074 A 
ATOM     45  C   UNL A   1      40.012  25.145  28.431  1.00  0.00     0.031 C 
ATOM     46  C   UNL A   1      42.965  30.427  29.252  1.00  0.00     0.029 A 
ATOM     47  C   UNL A   1      42.083  31.184  30.112  1.00  0.00     0.049 A 
ATOM     48  H   UNL A   1      40.069  31.572  29.457  1.00  0.00     0.167 HD
ATOM     49  C   UNL A   1      42.594  25.024  28.094  1.00  0.00     0.034 A 
ATOM     50  C   UNL A   1      42.297  31.375  31.453  1.00  0.00     0.034 A 
ATOM     51  C   UNL A   1      43.718  25.847  28.595  1.00  0.00     0.049 A 
ATOM     52  C   UNL A   1      43.213  30.311  32.069  1.00  0.00     0.074 A 
ATOM     53  C   UNL A   1      44.652  26.703  28.037  1.00  0.00     0.029 A 
ATOM     54  N   UNL A   1      43.824  26.033  29.970  1.00  0.00    -0.354 N 
ATOM     55  N   UNL A   1      43.840  29.396  31.375  1.00  0.00    -0.248 NA
ATOM     56  C   UNL A   1      43.450  30.142  33.502  1.00  0.00     0.031 C 
ATOM     57  C   UNL A   1      45.276  27.440  29.100  1.00  0.00     0.029 A 
ATOM     58  C   UNL A   1      44.757  26.999  30.306  1.00  0.00     0.049 A 
ATOM     59  H   UNL A   1      43.294  25.532  30.630  1.00  0.00     0.167 HD
ATOM     60  C   UNL A   1      44.400  28.459  32.199  1.00  0.00     0.074 A 
ATOM     61  C   UNL A   1      44.167  29.001  33.531  1.00  0.00     0.031 C 
ATOM     62  C   UNL A   1      44.954  27.294  31.727  1.00  0.00     0.034 A 
BRANCH  49  63
ATOM     63  C   UNL A   1      42.769  23.887  27.097  1.00  0.00     0.023 A 
ATOM     64  C   UNL A   1      43.507  24.167  25.924  1.00  0.00     0.012 A 
ATOM     65  C   UNL A   1      42.203  22.587  27.170  1.00  0.00     0.148 A 
ATOM     66  C   UNL A   1      43.671  23.229  24.894  1.00  0.00     0.002 A 
ATOM     67  C   UNL A   1      42.427  21.628  26.175  1.00  0.00     0.091 A 
ATOM     68  F   UNL A   1      41.355  22.276  28.151  1.00  0.00    -0.205 F 
ATOM     69  C   UNL A   1      43.147  21.952  25.026  1.00  0.00     0.022 A 
BRANCH  67  70
ATOM     70  S   UNL A   1      41.815  19.934  26.308  1.00  0.00     0.127 S 
ATOM     71  O   UNL A   1      42.261  19.551  27.648  1.00  0.00    -0.237 OA
ATOM     72  O   UNL A   1      40.369  20.109  26.176  1.00  0.00    -0.237 OA
ATOM     73  O   UNL A   1      42.431  19.191  25.215  1.00  0.00    -0.744 OA
ENDBRANCH  67  70
ENDBRANCH  49  63
BRANCH  50  74
ATOM     74  C   UNL A   1      41.157  32.086  32.109  1.00  0.00     0.023 A 
ATOM     75  C   UNL A   1      40.840  33.363  31.579  1.00  0.00     0.012 A 
ATOM     76  C   UNL A   1      40.174  31.395  32.837  1.00  0.00     0.148 A 
ATOM     77  C   UNL A   1      39.528  33.837  31.590  1.00  0.00     0.002 A 
ATOM     78  C   UNL A   1      38.869  31.890  32.865  1.00  0.00     0.091 A 
ATOM     79  F   UNL A   1      40.503  30.236  33.421  1.00  0.00    -0.205 F 
ATOM     80  C   UNL A   1      38.534  33.076  32.192  1.00  0.00     0.022 A 
BRANCH  78  81
ATOM     81  S   UNL A   1      37.533  30.975  33.646  1.00  0.00     0.127 S 
ATOM     82  O   UNL A   1      36.360  31.680  33.135  1.00  0.00    -0.237 OA
ATOM     83  O   UNL A   1      37.719  29.626  33.115  1.00  0.00    -0.237 OA
ATOM     84  O   UNL A   1      37.783  31.095  35.075  1.00  0.00    -0.744 OA
ENDBRANCH  78  81
ENDBRANCH  50  74
BRANCH  62  85
ATOM     85  C   UNL A   1      45.676  26.275  32.599  1.00  0.00     0.023 A 
ATOM     86  C   UNL A   1      47.062  26.061  32.470  1.00  0.00     0.012 A 
ATOM     87  C   UNL A   1      44.990  25.414  33.499  1.00  0.00     0.148 A 
ATOM     88  C   UNL A   1      47.750  25.148  33.277  1.00  0.00     0.002 A 
ATOM     89  C   UNL A   1      45.667  24.476  34.273  1.00  0.00     0.091 A 
ATOM     90  F   UNL A   1      43.660  25.473  33.605  1.00  0.00    -0.205 F 
ATOM     91  C   UNL A   1      47.055  24.365  34.188  1.00  0.00     0.022 A 
BRANCH  89  92
ATOM     92  S   UNL A   1      44.819  23.336  35.377  1.00  0.00     0.127 S 
ATOM     93  O   UNL A   1      45.917  22.465  35.799  1.00  0.00    -0.237 OA
ATOM     94  O   UNL A   1      44.325  24.241  36.414  1.00  0.00    -0.237 OA
ATOM     95  O   UNL A   1      43.787  22.681  34.586  1.00  0.00    -0.744 OA
ENDBRANCH  89  92
ENDBRANCH  62  85
ENDBRANCH  36  37
ENDBRANCH  28  31
ENDBRANCH  26  27
ENDBRANCH  25  26
ENDBRANCH   1  25
TORSDOF 18
ENDMDL
MODEL 2
REMARK VINA RESULT:     -11.4      4.747     11.299
REMARK SMILES Cc1cccc(CS[C@@H]2CC[C@]([NH3+])(C(=O)NCCCCNC(=O)c3ccc(-c4c5nc(c(-c6cccc(S(=O)(=O)[O-])c6F)c6ccc([nH]6)c(-c6cccc(S(=O)(=O)[O-])c6F)c6nc(c(-c7cccc(S(=O)(=O)[O-])c7F)c7ccc4[nH]7)C=C6)C=C5)cc3)C2)c1
REMARK SMILES IDX 18 1 17 2 16 3 14 4 15 5 12 7 9 8 10 9 87 10 11 11 8 12 7 13
REMARK SMILES IDX 6 14 1 15 2 16 3 17 88 18 4 19 5 20 13 21 19 25 20 26 21 27
REMARK SMILES IDX 22 28 23 30 24 31 25 32 86 33 26 34 85 35 27 36 28 37 29 38
REMARK SMILES IDX 79 39 30 40 84 41 78 42 80 43 31 44 83 45 77 46 76 47 32 49
REMARK SMILES IDX 64 50 44 51 63 52 45 53 48 54 62 55 81 56 46 57 47 58 61 60
REMARK SMILES IDX 82 61 49 62 33 63 34 64 42 65 35 66 37 67 43 68 36 69 38 70
REMARK SMILES IDX 39 71 40 72 41 73 65 74 66 75 74 76 67 77 69 78 75 79 68 80
REMARK SMILES IDX 70 81 71 82 72 83 73 84 50 85 51 86 59 87 52 88 54 89 60 90
REMARK SMILES IDX 53 91 55 92 56 93 57 94 58 95
REMARK H PARENT 16 6 13 22 13 23 13 24 21 29 80 48 48 59
REMARK Flexibility Score: inf
ROOT
ATOM      1  C   UNL A   1      41.065  19.705  26.122  1.00  0.00     0.023 C 
ENDROOT
BRANCH   1   2
ATOM      2  C   UNL A   1      42.371  20.491  26.203  1.00  0.00     0.116 C 
BRANCH   2   3
ATOM      3  N   UNL A   1      43.427  19.987  25.342  1.00  0.00    -0.351 N 
ATOM      4  C   UNL A   1      44.508  20.639  24.817  1.00  0.00     0.281 C 
ATOM      5  O   UNL A   1      45.284  19.988  24.111  1.00  0.00    -0.268 OA
ATOM      6  H   UNL A   1      43.353  19.035  25.102  1.00  0.00     0.163 HD
BRANCH   4   7
ATOM      7  C   UNL A   1      44.695  22.170  25.025  1.00  0.00     0.175 C 
ATOM      8  C   UNL A   1      44.422  24.035  26.566  1.00  0.00     0.054 C 
ATOM      9  C   UNL A   1      43.578  24.328  25.325  1.00  0.00     0.022 C 
ATOM     10  C   UNL A   1      44.730  22.535  26.533  1.00  0.00     0.093 C 
ATOM     11  C   UNL A   1      43.496  23.010  24.561  1.00  0.00     0.080 C 
BRANCH   8  12
ATOM     12  S   UNL A   1      43.800  24.780  28.117  1.00  0.00    -0.154 SA
BRANCH  12  13
ATOM     13  C   UNL A   1      44.317  23.610  29.415  1.00  0.00     0.105 C 
BRANCH  13  14
ATOM     14  C   UNL A   1      44.404  24.169  30.808  1.00  0.00    -0.038 A 
ATOM     15  C   UNL A   1      43.804  22.930  34.356  1.00  0.00     0.044 C 
ATOM     16  C   UNL A   1      44.153  23.830  33.208  1.00  0.00    -0.051 A 
ATOM     17  C   UNL A   1      44.487  25.171  33.426  1.00  0.00     0.003 A 
ATOM     18  C   UNL A   1      44.124  23.339  31.901  1.00  0.00     0.008 A 
ATOM     19  C   UNL A   1      44.807  26.000  32.352  1.00  0.00     0.001 A 
ATOM     20  C   UNL A   1      44.778  25.500  31.049  1.00  0.00     0.004 A 
ENDBRANCH  13  14
ENDBRANCH  12  13
ENDBRANCH   8  12
BRANCH   7  21
ATOM     21  N   UNL A   1      45.957  22.581  24.362  1.00  0.00    -0.345 N 
ATOM     22  H   UNL A   1      46.010  22.154  23.438  1.00  0.00     0.345 HD
ATOM     23  H   UNL A   1      46.751  22.276  24.925  1.00  0.00     0.345 HD
ATOM     24  H   UNL A   1      45.977  23.597  24.268  1.00  0.00     0.345 HD
ENDBRANCH   7  21
ENDBRANCH   4   7
ENDBRANCH   2   3
ENDBRANCH   1   2
BRANCH   1  25
ATOM     25  C   UNL A   1      39.786  20.530  26.108  1.00  0.00     0.023 C 
BRANCH  25  26
ATOM     26  C   UNL A   1      39.961  21.981  26.518  1.00  0.00     0.116 C 
BRANCH  26  27
ATOM     27  N   UNL A   1      38.943  22.872  25.996  1.00  0.00    -0.352 N 
ATOM     28  C   UNL A   1      38.539  24.108  26.465  1.00  0.00     0.251 C 
ATOM     29  H   UNL A   1      38.474  22.550  25.193  1.00  0.00     0.163 HD
ATOM     30  O   UNL A   1      37.448  24.539  26.092  1.00  0.00    -0.269 OA
BRANCH  28  31
ATOM     31  C   UNL A   1      39.469  24.965  27.251  1.00  0.00     0.039 A 
ATOM     32  C   UNL A   1      39.220  25.090  28.627  1.00  0.00     0.014 A 
ATOM     33  C   UNL A   1      40.368  25.830  26.641  1.00  0.00     0.014 A 
ATOM     34  C   UNL A   1      39.622  26.239  29.304  1.00  0.00     0.010 A 
ATOM     35  C   UNL A   1      40.688  27.006  27.270  1.00  0.00     0.010 A 
ATOM     36  C   UNL A   1      40.237  27.241  28.570  1.00  0.00    -0.014 A 
BRANCH  36  37
ATOM     37  C   UNL A   1      40.476  28.595  29.014  1.00  0.00     0.031 A 
ATOM     38  C   UNL A   1      39.413  29.600  28.831  1.00  0.00     0.074 A 
ATOM     39  C   UNL A   1      41.476  28.780  29.910  1.00  0.00     0.049 A 
ATOM     40  N   UNL A   1      39.524  30.820  29.219  1.00  0.00    -0.248 NA
ATOM     41  C   UNL A   1      38.127  29.316  28.197  1.00  0.00     0.031 C 
ATOM     42  C   UNL A   1      41.572  29.849  30.894  1.00  0.00     0.029 A 
ATOM     43  N   UNL A   1      42.698  28.112  30.052  1.00  0.00    -0.354 N 
ATOM     44  C   UNL A   1      38.258  31.354  29.242  1.00  0.00     0.074 A 
ATOM     45  C   UNL A   1      37.467  30.456  28.439  1.00  0.00     0.031 C 
ATOM     46  C   UNL A   1      42.848  29.961  31.285  1.00  0.00     0.029 A 
ATOM     47  C   UNL A   1      43.624  29.110  30.410  1.00  0.00     0.049 A 
ATOM     48  H   UNL A   1      42.873  27.150  29.929  1.00  0.00     0.167 HD
ATOM     49  C   UNL A   1      38.026  32.404  30.078  1.00  0.00     0.034 A 
ATOM     50  C   UNL A   1      44.614  29.565  29.579  1.00  0.00     0.034 A 
ATOM     51  C   UNL A   1      39.299  32.947  30.606  1.00  0.00     0.049 A 
ATOM     52  C   UNL A   1      44.478  31.056  29.248  1.00  0.00     0.074 A 
ATOM     53  C   UNL A   1      39.918  33.010  31.843  1.00  0.00     0.029 A 
ATOM     54  N   UNL A   1      40.270  33.332  29.688  1.00  0.00    -0.354 N 
ATOM     55  N   UNL A   1      43.599  31.851  29.802  1.00  0.00    -0.248 NA
ATOM     56  C   UNL A   1      45.262  31.760  28.235  1.00  0.00     0.031 C 
ATOM     57  C   UNL A   1      41.289  33.386  31.638  1.00  0.00     0.029 A 
ATOM     58  C   UNL A   1      41.491  33.598  30.285  1.00  0.00     0.049 A 
ATOM     59  H   UNL A   1      40.107  33.408  28.721  1.00  0.00     0.167 HD
ATOM     60  C   UNL A   1      43.562  33.058  29.161  1.00  0.00     0.074 A 
ATOM     61  C   UNL A   1      44.663  32.968  28.212  1.00  0.00     0.031 C 
ATOM     62  C   UNL A   1      42.601  34.004  29.419  1.00  0.00     0.034 A 
BRANCH  49  63
ATOM     63  C   UNL A   1      36.657  32.888  30.536  1.00  0.00     0.023 A 
ATOM     64  C   UNL A   1      36.247  32.524  31.838  1.00  0.00     0.012 A 
ATOM     65  C   UNL A   1      35.700  33.602  29.768  1.00  0.00     0.148 A 
ATOM     66  C   UNL A   1      34.979  32.840  32.346  1.00  0.00     0.002 A 
ATOM     67  C   UNL A   1      34.461  33.979  30.300  1.00  0.00     0.091 A 
ATOM     68  F   UNL A   1      35.920  33.847  28.476  1.00  0.00    -0.205 F 
ATOM     69  C   UNL A   1      34.090  33.584  31.585  1.00  0.00     0.022 A 
BRANCH  67  70
ATOM     70  S   UNL A   1      33.280  34.988  29.380  1.00  0.00     0.127 S 
ATOM     71  O   UNL A   1      32.274  35.289  30.399  1.00  0.00    -0.237 OA
ATOM     72  O   UNL A   1      34.092  36.134  28.972  1.00  0.00    -0.237 OA
ATOM     73  O   UNL A   1      32.810  34.162  28.274  1.00  0.00    -0.744 OA
ENDBRANCH  67  70
ENDBRANCH  49  63
BRANCH  50  74
ATOM     74  C   UNL A   1      45.152  28.482  28.699  1.00  0.00     0.023 A 
ATOM     75  C   UNL A   1      44.527  28.350  27.433  1.00  0.00     0.012 A 
ATOM     76  C   UNL A   1      46.447  27.966  28.869  1.00  0.00     0.148 A 
ATOM     77  C   UNL A   1      45.248  27.912  26.321  1.00  0.00     0.002 A 
ATOM     78  C   UNL A   1      47.152  27.505  27.756  1.00  0.00     0.091 A 
ATOM     79  F   UNL A   1      46.999  28.002  30.089  1.00  0.00    -0.205 F 
ATOM     80  C   UNL A   1      46.576  27.535  26.476  1.00  0.00     0.022 A 
BRANCH  78  81
ATOM     81  S   UNL A   1      48.866  26.976  27.880  1.00  0.00     0.127 S 
ATOM     82  O   UNL A   1      48.757  25.845  28.797  1.00  0.00    -0.237 OA
ATOM     83  O   UNL A   1      49.188  26.620  26.500  1.00  0.00    -0.237 OA
ATOM     84  O   UNL A   1      49.582  28.142  28.378  1.00  0.00    -0.744 OA
ENDBRANCH  78  81
ENDBRANCH  50  74
BRANCH  62  85
ATOM     85  C   UNL A   1      42.584  35.398  28.803  1.00  0.00     0.023 A 
ATOM     86  C   UNL A   1      42.010  35.625  27.537  1.00  0.00     0.012 A 
ATOM     87  C   UNL A   1      43.237  36.509  29.405  1.00  0.00     0.148 A 
ATOM     88  C   UNL A   1      41.963  36.901  26.963  1.00  0.00     0.002 A 
ATOM     89  C   UNL A   1      43.227  37.769  28.815  1.00  0.00     0.091 A 
ATOM     90  F   UNL A   1      43.901  36.358  30.553  1.00  0.00    -0.205 F 
ATOM     91  C   UNL A   1      42.559  37.976  27.608  1.00  0.00     0.022 A 
BRANCH  89  92
ATOM     92  S   UNL A   1      44.090  39.179  29.526  1.00  0.00     0.127 S 
ATOM     93  O   UNL A   1      43.531  39.214  30.878  1.00  0.00    -0.237 OA
ATOM     94  O   UNL A   1      45.484  38.740  29.453  1.00  0.00    -0.237 OA
ATOM     95  O   UNL A   1      43.761  40.329  28.697  1.00  0.00    -0.744 OA
ENDBRANCH  89  92
ENDBRANCH  62  85
ENDBRANCH  36  37
ENDBRANCH  28  31
ENDBRANCH  26  27
ENDBRANCH  25  26
ENDBRANCH   1  25
TORSDOF 18
ENDMDL
MODEL 3
REMARK VINA RESULT:     -11.2      1.666      2.265
REMARK SMILES Cc1cccc(CS[C@@H]2CC[C@]([NH3+])(C(=O)NCCCCNC(=O)c3ccc(-c4c5nc(c(-c6cccc(S(=O)(=O)[O-])c6F)c6ccc([nH]6)c(-c6cccc(S(=O)(=O)[O-])c6F)c6nc(c(-c7cccc(S(=O)(=O)[O-])c7F)c7ccc4[nH]7)C=C6)C=C5)cc3)C2)c1
REMARK SMILES IDX 18 1 17 2 16 3 14 4 15 5 12 7 9 8 10 9 87 10 11 11 8 12 7 13
REMARK SMILES IDX 6 14 1 15 2 16 3 17 88 18 4 19 5 20 13 21 19 25 20 26 21 27
REMARK SMILES IDX 22 28 23 30 24 31 25 32 86 33 26 34 85 35 27 36 28 37 29 38
REMARK SMILES IDX 79 39 30 40 84 41 78 42 80 43 31 44 83 45 77 46 76 47 32 49
REMARK SMILES IDX 64 50 44 51 63 52 45 53 48 54 62 55 81 56 46 57 47 58 61 60
REMARK SMILES IDX 82 61 49 62 33 63 34 64 42 65 35 66 37 67 43 68 36 69 38 70
REMARK SMILES IDX 39 71 40 72 41 73 65 74 66 75 74 76 67 77 69 78 75 79 68 80
REMARK SMILES IDX 70 81 71 82 72 83 73 84 50 85 51 86 59 87 52 88 54 89 60 90
REMARK SMILES IDX 53 91 55 92 56 93 57 94 58 95
REMARK H PARENT 16 6 13 22 13 23 13 24 21 29 80 48 48 59
REMARK Flexibility Score: inf
ROOT
ATOM      1  C   UNL A   1      33.178  28.132  26.798  1.00  0.00     0.023 C 
ENDROOT
BRANCH   1   2
ATOM      2  C   UNL A   1      31.943  27.738  25.991  1.00  0.00     0.116 C 
BRANCH   2   3
ATOM      3  N   UNL A   1      31.131  28.861  25.555  1.00  0.00    -0.351 N 
ATOM      4  C   UNL A   1      30.952  29.369  24.297  1.00  0.00     0.281 C 
ATOM      5  O   UNL A   1      30.196  30.337  24.171  1.00  0.00    -0.268 OA
ATOM      6  H   UNL A   1      30.638  29.326  26.269  1.00  0.00     0.163 HD
BRANCH   4   7
ATOM      7  C   UNL A   1      31.751  28.805  23.087  1.00  0.00     0.175 C 
ATOM      8  C   UNL A   1      32.769  26.824  22.101  1.00  0.00     0.054 C 
ATOM      9  C   UNL A   1      33.875  27.856  22.323  1.00  0.00     0.022 C 
ATOM     10  C   UNL A   1      31.588  27.266  22.971  1.00  0.00     0.093 C 
ATOM     11  C   UNL A   1      33.275  28.914  23.244  1.00  0.00     0.080 C 
BRANCH   8  12
ATOM     12  S   UNL A   1      33.315  25.080  22.163  1.00  0.00    -0.154 SA
BRANCH  12  13
ATOM     13  C   UNL A   1      34.086  24.910  23.806  1.00  0.00     0.105 C 
BRANCH  13  14
ATOM     14  C   UNL A   1      34.776  23.603  24.077  1.00  0.00    -0.038 A 
ATOM     15  C   UNL A   1      33.779  20.082  25.122  1.00  0.00     0.044 C 
ATOM     16  C   UNL A   1      34.618  21.256  24.717  1.00  0.00    -0.051 A 
ATOM     17  C   UNL A   1      36.012  21.153  24.658  1.00  0.00     0.003 A 
ATOM     18  C   UNL A   1      34.012  22.479  24.416  1.00  0.00     0.008 A 
ATOM     19  C   UNL A   1      36.784  22.252  24.284  1.00  0.00     0.001 A 
ATOM     20  C   UNL A   1      36.170  23.468  23.982  1.00  0.00     0.004 A 
ENDBRANCH  13  14
ENDBRANCH  12  13
ENDBRANCH   8  12
BRANCH   7  21
ATOM     21  N   UNL A   1      31.266  29.472  21.854  1.00  0.00    -0.345 N 
ATOM     22  H   UNL A   1      31.963  29.373  21.117  1.00  0.00     0.345 HD
ATOM     23  H   UNL A   1      31.108  30.462  22.044  1.00  0.00     0.345 HD
ATOM     24  H   UNL A   1      30.391  29.040  21.555  1.00  0.00     0.345 HD
ENDBRANCH   7  21
ENDBRANCH   4   7
ENDBRANCH   2   3
ENDBRANCH   1   2
BRANCH   1  25
ATOM     25  C   UNL A   1      33.099  29.460  27.538  1.00  0.00     0.023 C 
BRANCH  25  26
ATOM     26  C   UNL A   1      33.668  30.646  26.780  1.00  0.00     0.116 C 
BRANCH  26  27
ATOM     27  N   UNL A   1      34.294  31.644  27.626  1.00  0.00    -0.352 N 
ATOM     28  C   UNL A   1      35.213  31.473  28.645  1.00  0.00     0.251 C 
ATOM     29  H   UNL A   1      34.027  32.574  27.449  1.00  0.00     0.163 HD
ATOM     30  O   UNL A   1      35.358  32.392  29.451  1.00  0.00    -0.269 OA
BRANCH  28  31
ATOM     31  C   UNL A   1      36.121  30.293  28.661  1.00  0.00     0.039 A 
ATOM     32  C   UNL A   1      36.288  29.627  29.886  1.00  0.00     0.014 A 
ATOM     33  C   UNL A   1      36.988  30.016  27.611  1.00  0.00     0.014 A 
ATOM     34  C   UNL A   1      37.470  28.939  30.146  1.00  0.00     0.010 A 
ATOM     35  C   UNL A   1      38.193  29.422  27.887  1.00  0.00     0.010 A 
ATOM     36  C   UNL A   1      38.461  28.965  29.178  1.00  0.00    -0.014 A 
BRANCH  36  37
ATOM     37  C   UNL A   1      39.836  28.558  29.358  1.00  0.00     0.031 A 
ATOM     38  C   UNL A   1      40.195  27.147  29.122  1.00  0.00     0.074 A 
ATOM     39  C   UNL A   1      40.773  29.536  29.347  1.00  0.00     0.049 A 
ATOM     40  N   UNL A   1      41.394  26.699  29.231  1.00  0.00    -0.248 NA
ATOM     41  C   UNL A   1      39.231  26.117  28.737  1.00  0.00     0.031 C 
ATOM     42  C   UNL A   1      42.170  29.394  28.961  1.00  0.00     0.029 A 
ATOM     43  N   UNL A   1      40.706  30.859  29.802  1.00  0.00    -0.354 N 
ATOM     44  C   UNL A   1      41.432  25.484  28.590  1.00  0.00     0.074 A 
ATOM     45  C   UNL A   1      40.050  25.093  28.465  1.00  0.00     0.031 C 
ATOM     46  C   UNL A   1      42.864  30.418  29.474  1.00  0.00     0.029 A 
ATOM     47  C   UNL A   1      41.969  31.118  30.368  1.00  0.00     0.049 A 
ATOM     48  H   UNL A   1      39.940  31.475  29.739  1.00  0.00     0.167 HD
ATOM     49  C   UNL A   1      42.632  25.056  28.110  1.00  0.00     0.034 A 
ATOM     50  C   UNL A   1      42.186  31.262  31.714  1.00  0.00     0.034 A 
ATOM     51  C   UNL A   1      43.737  25.889  28.636  1.00  0.00     0.049 A 
ATOM     52  C   UNL A   1      43.134  30.200  32.283  1.00  0.00     0.074 A 
ATOM     53  C   UNL A   1      44.644  26.792  28.106  1.00  0.00     0.029 A 
ATOM     54  N   UNL A   1      43.847  26.025  30.016  1.00  0.00    -0.354 N 
ATOM     55  N   UNL A   1      43.781  29.330  31.551  1.00  0.00    -0.248 NA
ATOM     56  C   UNL A   1      43.385  29.983  33.707  1.00  0.00     0.031 C 
ATOM     57  C   UNL A   1      45.255  27.503  29.194  1.00  0.00     0.029 A 
ATOM     58  C   UNL A   1      44.756  27.003  30.384  1.00  0.00     0.049 A 
ATOM     59  H   UNL A   1      43.335  25.484  30.660  1.00  0.00     0.167 HD
ATOM     60  C   UNL A   1      44.372  28.378  32.335  1.00  0.00     0.074 A 
ATOM     61  C   UNL A   1      44.133  28.862  33.688  1.00  0.00     0.031 C 
ATOM     62  C   UNL A   1      44.954  27.248  31.815  1.00  0.00     0.034 A 
BRANCH  49  63
ATOM     63  C   UNL A   1      42.832  23.964  27.068  1.00  0.00     0.023 A 
ATOM     64  C   UNL A   1      43.513  24.321  25.882  1.00  0.00     0.012 A 
ATOM     65  C   UNL A   1      42.337  22.633  27.115  1.00  0.00     0.148 A 
ATOM     66  C   UNL A   1      43.690  23.428  24.815  1.00  0.00     0.002 A 
ATOM     67  C   UNL A   1      42.575  21.721  26.080  1.00  0.00     0.091 A 
ATOM     68  F   UNL A   1      41.541  22.246  28.112  1.00  0.00    -0.205 F 
ATOM     69  C   UNL A   1      43.238  22.121  24.920  1.00  0.00     0.022 A 
BRANCH  67  70
ATOM     70  S   UNL A   1      42.058  19.994  26.174  1.00  0.00     0.127 S 
ATOM     71  O   UNL A   1      40.613  20.095  25.966  1.00  0.00    -0.237 OA
ATOM     72  O   UNL A   1      42.790  19.383  25.064  1.00  0.00    -0.237 OA
ATOM     73  O   UNL A   1      42.461  19.518  27.492  1.00  0.00    -0.744 OA
ENDBRANCH  67  70
ENDBRANCH  49  63
BRANCH  50  74
ATOM     74  C   UNL A   1      41.031  31.916  32.404  1.00  0.00     0.023 A 
ATOM     75  C   UNL A   1      40.011  31.042  32.860  1.00  0.00     0.012 A 
ATOM     76  C   UNL A   1      41.143  33.187  32.992  1.00  0.00     0.148 A 
ATOM     77  C   UNL A   1      39.271  31.342  34.004  1.00  0.00     0.002 A 
ATOM     78  C   UNL A   1      40.380  33.488  34.120  1.00  0.00     0.091 A 
ATOM     79  F   UNL A   1      42.041  34.048  32.495  1.00  0.00    -0.205 F 
ATOM     80  C   UNL A   1      39.491  32.546  34.661  1.00  0.00     0.022 A 
BRANCH  78  81
ATOM     81  S   UNL A   1      40.589  35.037  35.011  1.00  0.00     0.127 S 
ATOM     82  O   UNL A   1      41.117  34.568  36.289  1.00  0.00    -0.237 OA
ATOM     83  O   UNL A   1      41.548  35.756  34.176  1.00  0.00    -0.237 OA
ATOM     84  O   UNL A   1      39.260  35.631  35.043  1.00  0.00    -0.744 OA
ENDBRANCH  78  81
ENDBRANCH  50  74
BRANCH  62  85
ATOM     85  C   UNL A   1      45.709  26.216  32.643  1.00  0.00     0.023 A 
ATOM     86  C   UNL A   1      47.110  26.101  32.557  1.00  0.00     0.012 A 
ATOM     87  C   UNL A   1      45.048  25.249  33.450  1.00  0.00     0.148 A 
ATOM     88  C   UNL A   1      47.827  25.177  33.327  1.00  0.00     0.002 A 
ATOM     89  C   UNL A   1      45.757  24.302  34.183  1.00  0.00     0.091 A 
ATOM     90  F   UNL A   1      43.715  25.216  33.503  1.00  0.00    -0.205 F 
ATOM     91  C   UNL A   1      47.152  24.287  34.150  1.00  0.00     0.022 A 
BRANCH  89  92
ATOM     92  S   UNL A   1      44.946  23.033  35.168  1.00  0.00     0.127 S 
ATOM     93  O   UNL A   1      44.162  22.330  34.151  1.00  0.00    -0.237 OA
ATOM     94  O   UNL A   1      46.090  22.282  35.683  1.00  0.00    -0.237 OA
ATOM     95  O   UNL A   1      44.159  23.729  36.176  1.00  0.00    -0.744 OA
ENDBRANCH  89  92
ENDBRANCH  62  85
ENDBRANCH  36  37
ENDBRANCH  28  31
ENDBRANCH  26  27
ENDBRANCH  25  26
ENDBRANCH   1  25
TORSDOF 18
ENDMDL
