MODEL 1
REMARK VINA RESULT:     -12.5      0.000      0.000
REMARK SMILES O=C(CC1CCN(C(=O)c2ccc3[nH]ccc3c2)CC1)NCCCCNC(=O)c1ccc(-c2c3nc(c(-c4cccc(S(=O)(=O)[O-])c4F)c4ccc([nH]4)c(-c4cccc(S(=O)(=O)[O-])c4F)c4nc(c(-c5cccc(S(=O)(=O)[O-])c5F)c5ccc2[nH]5)C=C4)C=C3)cc1
REMARK SMILES IDX 24 1 23 2 22 3 21 4 1 5 2 6 3 8 4 9 5 10 20 11 6 12 19 13
REMARK SMILES IDX 7 14 8 15 9 16 10 17 11 18 18 19 12 20 17 21 13 22 16 23
REMARK SMILES IDX 14 24 15 25 25 27 26 28 27 29 28 31 29 32 30 33 91 34 31 35
REMARK SMILES IDX 90 36 32 37 33 38 34 39 84 40 35 41 89 42 83 43 85 44 36 45
REMARK SMILES IDX 88 46 82 47 81 48 37 50 69 51 49 52 68 53 50 54 53 55 67 56
REMARK SMILES IDX 86 57 51 58 52 59 66 61 87 62 54 63 38 64 39 65 47 66 40 67
REMARK SMILES IDX 42 68 48 69 41 70 43 71 44 72 45 73 46 74 70 75 71 76 79 77
REMARK SMILES IDX 72 78 74 79 80 80 73 81 75 82 76 83 77 84 78 85 55 86 56 87
REMARK SMILES IDX 64 88 57 89 59 90 65 91 58 92 60 93 61 94 62 95 63 96
REMARK H PARENT 21 7 14 26 26 30 85 49 53 60
REMARK Flexibility Score: inf
ROOT
ATOM      1  C   UNL A   1      31.713  31.296  26.659  1.00  0.00     0.023 C 
ENDROOT
BRANCH   1   2
ATOM      2  C   UNL A   1      30.805  32.082  25.708  1.00  0.00     0.023 C 
BRANCH   2   3
ATOM      3  C   UNL A   1      30.106  31.244  24.638  1.00  0.00     0.116 C 
BRANCH   3   4
ATOM      4  N   UNL A   1      30.841  30.031  24.339  1.00  0.00    -0.356 N 
ATOM      5  O   UNL A   1      29.566  29.401  22.538  1.00  0.00    -0.275 OA
ATOM      6  C   UNL A   1      30.503  29.192  23.303  1.00  0.00     0.220 C 
ATOM      7  H   UNL A   1      31.616  29.799  24.900  1.00  0.00     0.163 HD
BRANCH   6   8
ATOM      8  C   UNL A   1      31.334  27.922  23.212  1.00  0.00     0.103 C 
BRANCH   8   9
ATOM      9  C   UNL A   1      30.496  26.629  23.142  1.00  0.00     0.002 C 
ATOM     10  C   UNL A   1      29.621  26.450  24.399  1.00  0.00     0.026 C 
ATOM     11  C   UNL A   1      31.370  25.372  22.971  1.00  0.00     0.026 C 
ATOM     12  C   UNL A   1      30.446  26.109  25.640  1.00  0.00     0.120 C 
ATOM     13  C   UNL A   1      32.163  25.019  24.230  1.00  0.00     0.120 C 
ATOM     14  N   UNL A   1      31.292  24.944  25.403  1.00  0.00    -0.339 N 
ATOM     15  C   UNL A   1      31.210  23.860  26.278  1.00  0.00     0.253 C 
ATOM     16  O   UNL A   1      30.398  23.788  27.199  1.00  0.00    -0.269 OA
BRANCH  15  17
ATOM     17  C   UNL A   1      32.132  22.719  26.089  1.00  0.00     0.040 A 
ATOM     18  C   UNL A   1      33.395  22.722  26.689  1.00  0.00     0.016 A 
ATOM     19  C   UNL A   1      31.702  21.644  25.299  1.00  0.00     0.024 A 
ATOM     20  C   UNL A   1      34.297  21.680  26.452  1.00  0.00     0.027 A 
ATOM     21  C   UNL A   1      32.595  20.583  25.059  1.00  0.00     0.000 A 
ATOM     22  C   UNL A   1      33.872  20.634  25.624  1.00  0.00     0.045 A 
ATOM     23  C   UNL A   1      32.516  19.376  24.312  1.00  0.00     0.028 A 
ATOM     24  N   UNL A   1      34.550  19.513  25.195  1.00  0.00    -0.361 N 
ATOM     25  C   UNL A   1      33.730  18.738  24.415  1.00  0.00     0.083 A 
ATOM     26  H   UNL A   1      35.485  19.300  25.415  1.00  0.00     0.166 HD
ENDBRANCH  15  17
ENDBRANCH   8   9
ENDBRANCH   6   8
ENDBRANCH   3   4
ENDBRANCH   2   3
ENDBRANCH   1   2
BRANCH   1  27
ATOM     27  C   UNL A   1      32.927  32.053  27.188  1.00  0.00     0.116 C 
BRANCH  27  28
ATOM     28  N   UNL A   1      32.646  33.452  27.468  1.00  0.00    -0.352 N 
ATOM     29  C   UNL A   1      33.219  34.291  28.395  1.00  0.00     0.251 C 
ATOM     30  H   UNL A   1      31.943  33.859  26.912  1.00  0.00     0.163 HD
ATOM     31  O   UNL A   1      32.744  35.411  28.574  1.00  0.00    -0.269 OA
BRANCH  29  32
ATOM     32  C   UNL A   1      34.381  33.845  29.196  1.00  0.00     0.039 A 
ATOM     33  C   UNL A   1      34.164  32.987  30.279  1.00  0.00     0.014 A 
ATOM     34  C   UNL A   1      35.678  34.267  28.892  1.00  0.00     0.014 A 
ATOM     35  C   UNL A   1      35.250  32.499  31.010  1.00  0.00     0.010 A 
ATOM     36  C   UNL A   1      36.764  33.718  29.572  1.00  0.00     0.010 A 
ATOM     37  C   UNL A   1      36.564  32.828  30.639  1.00  0.00    -0.014 A 
BRANCH  37  38
ATOM     38  C   UNL A   1      37.736  32.235  31.338  1.00  0.00     0.031 A 
ATOM     39  C   UNL A   1      38.523  31.119  30.704  1.00  0.00     0.074 A 
ATOM     40  C   UNL A   1      38.045  32.645  32.586  1.00  0.00     0.049 A 
ATOM     41  N   UNL A   1      39.532  30.442  31.190  1.00  0.00    -0.248 NA
ATOM     42  C   UNL A   1      38.104  30.687  29.361  1.00  0.00     0.031 C 
ATOM     43  C   UNL A   1      37.318  33.665  33.345  1.00  0.00     0.029 A 
ATOM     44  N   UNL A   1      39.033  32.234  33.447  1.00  0.00    -0.354 N 
ATOM     45  C   UNL A   1      39.849  29.488  30.230  1.00  0.00     0.074 A 
ATOM     46  C   UNL A   1      38.901  29.649  29.149  1.00  0.00     0.031 C 
ATOM     47  C   UNL A   1      37.882  33.799  34.555  1.00  0.00     0.029 A 
ATOM     48  C   UNL A   1      38.988  32.854  34.674  1.00  0.00     0.049 A 
ATOM     49  H   UNL A   1      39.709  31.560  33.209  1.00  0.00     0.167 HD
ATOM     50  C   UNL A   1      40.855  28.579  30.232  1.00  0.00     0.034 A 
ATOM     51  C   UNL A   1      39.738  32.674  35.779  1.00  0.00     0.034 A 
ATOM     52  C   UNL A   1      41.815  28.439  31.294  1.00  0.00     0.049 A 
ATOM     53  C   UNL A   1      40.864  31.676  35.748  1.00  0.00     0.074 A 
ATOM     54  C   UNL A   1      42.916  27.602  31.352  1.00  0.00     0.029 A 
ATOM     55  N   UNL A   1      41.784  29.141  32.488  1.00  0.00    -0.354 N 
ATOM     56  N   UNL A   1      41.240  30.889  34.770  1.00  0.00    -0.248 NA
ATOM     57  C   UNL A   1      41.693  31.569  36.957  1.00  0.00     0.031 C 
ATOM     58  C   UNL A   1      43.532  27.774  32.595  1.00  0.00     0.029 A 
ATOM     59  C   UNL A   1      42.839  28.749  33.296  1.00  0.00     0.049 A 
ATOM     60  H   UNL A   1      41.113  29.820  32.728  1.00  0.00     0.167 HD
ATOM     61  C   UNL A   1      42.368  30.219  35.232  1.00  0.00     0.074 A 
ATOM     62  C   UNL A   1      42.625  30.710  36.570  1.00  0.00     0.031 C 
ATOM     63  C   UNL A   1      43.115  29.274  34.609  1.00  0.00     0.034 A 
BRANCH  50  64
ATOM     64  C   UNL A   1      40.994  27.689  29.022  1.00  0.00     0.023 A 
ATOM     65  C   UNL A   1      40.144  26.573  28.876  1.00  0.00     0.012 A 
ATOM     66  C   UNL A   1      41.923  27.986  28.005  1.00  0.00     0.148 A 
ATOM     67  C   UNL A   1      40.243  25.745  27.759  1.00  0.00     0.002 A 
ATOM     68  C   UNL A   1      41.982  27.183  26.872  1.00  0.00     0.091 A 
ATOM     69  F   UNL A   1      42.735  29.040  28.168  1.00  0.00    -0.205 F 
ATOM     70  C   UNL A   1      41.154  26.055  26.754  1.00  0.00     0.022 A 
BRANCH  68  71
ATOM     71  S   UNL A   1      43.063  27.544  25.483  1.00  0.00     0.127 S 
ATOM     72  O   UNL A   1      43.329  26.204  24.962  1.00  0.00    -0.237 OA
ATOM     73  O   UNL A   1      42.204  28.369  24.633  1.00  0.00    -0.237 OA
ATOM     74  O   UNL A   1      44.216  28.237  26.040  1.00  0.00    -0.744 OA
ENDBRANCH  68  71
ENDBRANCH  50  64
BRANCH  51  75
ATOM     75  C   UNL A   1      39.477  33.492  36.997  1.00  0.00     0.023 A 
ATOM     76  C   UNL A   1      39.959  34.814  37.067  1.00  0.00     0.012 A 
ATOM     77  C   UNL A   1      38.732  32.975  38.075  1.00  0.00     0.148 A 
ATOM     78  C   UNL A   1      39.735  35.593  38.201  1.00  0.00     0.002 A 
ATOM     79  C   UNL A   1      38.461  33.776  39.177  1.00  0.00     0.091 A 
ATOM     80  F   UNL A   1      38.288  31.713  37.991  1.00  0.00    -0.205 F 
ATOM     81  C   UNL A   1      38.977  35.079  39.251  1.00  0.00     0.022 A 
BRANCH  79  82
ATOM     82  S   UNL A   1      37.388  33.243  40.515  1.00  0.00     0.127 S 
ATOM     83  O   UNL A   1      38.144  32.128  41.080  1.00  0.00    -0.237 OA
ATOM     84  O   UNL A   1      37.332  34.440  41.353  1.00  0.00    -0.237 OA
ATOM     85  O   UNL A   1      36.120  32.887  39.890  1.00  0.00    -0.744 OA
ENDBRANCH  79  82
ENDBRANCH  51  75
BRANCH  63  86
ATOM     86  C   UNL A   1      44.314  28.731  35.343  1.00  0.00     0.023 A 
ATOM     87  C   UNL A   1      45.585  29.306  35.143  1.00  0.00     0.012 A 
ATOM     88  C   UNL A   1      44.165  27.692  36.284  1.00  0.00     0.148 A 
ATOM     89  C   UNL A   1      46.695  28.833  35.843  1.00  0.00     0.002 A 
ATOM     90  C   UNL A   1      45.266  27.262  37.016  1.00  0.00     0.091 A 
ATOM     91  F   UNL A   1      42.952  27.146  36.447  1.00  0.00    -0.205 F 
ATOM     92  C   UNL A   1      46.533  27.822  36.787  1.00  0.00     0.022 A 
BRANCH  90  93
ATOM     93  S   UNL A   1      45.136  26.034  38.321  1.00  0.00     0.127 S 
ATOM     94  O   UNL A   1      46.525  25.923  38.763  1.00  0.00    -0.237 OA
ATOM     95  O   UNL A   1      44.243  26.692  39.276  1.00  0.00    -0.237 OA
ATOM     96  O   UNL A   1      44.582  24.841  37.697  1.00  0.00    -0.744 OA
ENDBRANCH  90  93
ENDBRANCH  63  86
ENDBRANCH  37  38
ENDBRANCH  29  32
ENDBRANCH  27  28
ENDBRANCH   1  27
TORSDOF 16
ENDMDL
MODEL 2
REMARK VINA RESULT:     -12.5      5.584      9.247
REMARK SMILES O=C(CC1CCN(C(=O)c2ccc3[nH]ccc3c2)CC1)NCCCCNC(=O)c1ccc(-c2c3nc(c(-c4cccc(S(=O)(=O)[O-])c4F)c4ccc([nH]4)c(-c4cccc(S(=O)(=O)[O-])c4F)c4nc(c(-c5cccc(S(=O)(=O)[O-])c5F)c5ccc2[nH]5)C=C4)C=C3)cc1
REMARK SMILES IDX 24 1 23 2 22 3 21 4 1 5 2 6 3 8 4 9 5 10 20 11 6 12 19 13
REMARK SMILES IDX 7 14 8 15 9 16 10 17 11 18 18 19 12 20 17 21 13 22 16 23
REMARK SMILES IDX 14 24 15 25 25 27 26 28 27 29 28 31 29 32 30 33 91 34 31 35
REMARK SMILES IDX 90 36 32 37 33 38 34 39 84 40 35 41 89 42 83 43 85 44 36 45
REMARK SMILES IDX 88 46 82 47 81 48 37 50 69 51 49 52 68 53 50 54 53 55 67 56
REMARK SMILES IDX 86 57 51 58 52 59 66 61 87 62 54 63 38 64 39 65 47 66 40 67
REMARK SMILES IDX 42 68 48 69 41 70 43 71 44 72 45 73 46 74 70 75 71 76 79 77
REMARK SMILES IDX 72 78 74 79 80 80 73 81 75 82 76 83 77 84 78 85 55 86 56 87
REMARK SMILES IDX 64 88 57 89 59 90 65 91 58 92 60 93 61 94 62 95 63 96
REMARK H PARENT 21 7 14 26 26 30 85 49 53 60
REMARK Flexibility Score: inf
ROOT
ATOM      1  C   UNL A   1      36.937  20.699  24.555  1.00  0.00     0.023 C 
ENDROOT
BRANCH   1   2
ATOM      2  C   UNL A   1      36.632  19.223  24.831  1.00  0.00     0.023 C 
BRANCH   2   3
ATOM      3  C   UNL A   1      35.151  18.848  24.793  1.00  0.00     0.116 C 
BRANCH   3   4
ATOM      4  N   UNL A   1      34.300  19.984  25.087  1.00  0.00    -0.356 N 
ATOM      5  O   UNL A   1      32.316  18.951  24.581  1.00  0.00    -0.275 OA
ATOM      6  C   UNL A   1      32.933  19.946  24.948  1.00  0.00     0.220 C 
ATOM      7  H   UNL A   1      34.720  20.818  25.400  1.00  0.00     0.163 HD
BRANCH   6   8
ATOM      8  C   UNL A   1      32.227  21.267  25.210  1.00  0.00     0.103 C 
BRANCH   8   9
ATOM      9  C   UNL A   1      33.182  22.431  25.545  1.00  0.00     0.002 C 
ATOM     10  C   UNL A   1      32.801  23.115  26.874  1.00  0.00     0.026 C 
ATOM     11  C   UNL A   1      33.214  23.500  24.436  1.00  0.00     0.026 C 
ATOM     12  C   UNL A   1      31.505  23.919  26.765  1.00  0.00     0.120 C 
ATOM     13  C   UNL A   1      31.927  24.323  24.360  1.00  0.00     0.120 C 
ATOM     14  N   UNL A   1      31.573  24.878  25.666  1.00  0.00    -0.339 N 
ATOM     15  C   UNL A   1      31.315  26.224  25.928  1.00  0.00     0.253 C 
ATOM     16  O   UNL A   1      31.116  26.673  27.055  1.00  0.00    -0.269 OA
BRANCH  15  17
ATOM     17  C   UNL A   1      31.296  27.179  24.798  1.00  0.00     0.040 A 
ATOM     18  C   UNL A   1      32.491  27.689  24.281  1.00  0.00     0.016 A 
ATOM     19  C   UNL A   1      30.054  27.550  24.266  1.00  0.00     0.024 A 
ATOM     20  C   UNL A   1      32.474  28.647  23.264  1.00  0.00     0.027 A 
ATOM     21  C   UNL A   1      30.020  28.507  23.234  1.00  0.00     0.000 A 
ATOM     22  C   UNL A   1      31.225  29.044  22.771  1.00  0.00     0.045 A 
ATOM     23  C   UNL A   1      28.975  29.123  22.493  1.00  0.00     0.028 A 
ATOM     24  N   UNL A   1      30.907  29.981  21.811  1.00  0.00    -0.361 N 
ATOM     25  C   UNL A   1      29.550  30.021  21.624  1.00  0.00     0.083 A 
ATOM     26  H   UNL A   1      31.560  30.539  21.331  1.00  0.00     0.166 HD
ENDBRANCH  15  17
ENDBRANCH   8   9
ENDBRANCH   6   8
ENDBRANCH   3   4
ENDBRANCH   2   3
ENDBRANCH   1   2
BRANCH   1  27
ATOM     27  C   UNL A   1      37.890  21.371  25.538  1.00  0.00     0.116 C 
BRANCH  27  28
ATOM     28  N   UNL A   1      38.939  20.482  26.011  1.00  0.00    -0.352 N 
ATOM     29  C   UNL A   1      40.142  20.786  26.603  1.00  0.00     0.251 C 
ATOM     30  H   UNL A   1      38.763  19.521  25.888  1.00  0.00     0.163 HD
ATOM     31  O   UNL A   1      40.961  19.891  26.807  1.00  0.00    -0.269 OA
BRANCH  29  32
ATOM     32  C   UNL A   1      40.468  22.182  26.971  1.00  0.00     0.039 A 
ATOM     33  C   UNL A   1      41.298  22.412  28.073  1.00  0.00     0.014 A 
ATOM     34  C   UNL A   1      39.963  23.262  26.242  1.00  0.00     0.014 A 
ATOM     35  C   UNL A   1      41.675  23.717  28.400  1.00  0.00     0.010 A 
ATOM     36  C   UNL A   1      40.403  24.555  26.522  1.00  0.00     0.010 A 
ATOM     37  C   UNL A   1      41.263  24.799  27.604  1.00  0.00    -0.014 A 
BRANCH  37  38
ATOM     38  C   UNL A   1      41.740  26.182  27.873  1.00  0.00     0.031 A 
ATOM     39  C   UNL A   1      43.148  26.589  27.528  1.00  0.00     0.074 A 
ATOM     40  C   UNL A   1      40.930  27.054  28.508  1.00  0.00     0.049 A 
ATOM     41  N   UNL A   1      43.755  27.729  27.745  1.00  0.00    -0.248 NA
ATOM     42  C   UNL A   1      43.996  25.575  26.879  1.00  0.00     0.031 C 
ATOM     43  C   UNL A   1      39.570  26.764  28.966  1.00  0.00     0.029 A 
ATOM     44  N   UNL A   1      41.143  28.353  28.904  1.00  0.00    -0.354 N 
ATOM     45  C   UNL A   1      45.057  27.561  27.289  1.00  0.00     0.074 A 
ATOM     46  C   UNL A   1      45.164  26.197  26.818  1.00  0.00     0.031 C 
ATOM     47  C   UNL A   1      39.071  27.849  29.580  1.00  0.00     0.029 A 
ATOM     48  C   UNL A   1      40.084  28.900  29.591  1.00  0.00     0.049 A 
ATOM     49  H   UNL A   1      41.974  28.844  28.715  1.00  0.00     0.167 HD
ATOM     50  C   UNL A   1      46.065  28.465  27.239  1.00  0.00     0.034 A 
ATOM     51  C   UNL A   1      39.945  30.105  30.179  1.00  0.00     0.034 A 
ATOM     52  C   UNL A   1      45.949  29.829  27.681  1.00  0.00     0.049 A 
ATOM     53  C   UNL A   1      41.070  31.100  30.089  1.00  0.00     0.074 A 
ATOM     54  C   UNL A   1      46.889  30.842  27.599  1.00  0.00     0.029 A 
ATOM     55  N   UNL A   1      44.833  30.371  28.299  1.00  0.00    -0.354 N 
ATOM     56  N   UNL A   1      42.243  30.969  29.519  1.00  0.00    -0.248 NA
ATOM     57  C   UNL A   1      40.839  32.422  30.690  1.00  0.00     0.031 C 
ATOM     58  C   UNL A   1      46.354  31.987  28.198  1.00  0.00     0.029 A 
ATOM     59  C   UNL A   1      45.063  31.699  28.616  1.00  0.00     0.049 A 
ATOM     60  H   UNL A   1      43.998  29.883  28.485  1.00  0.00     0.167 HD
ATOM     61  C   UNL A   1      42.875  32.200  29.661  1.00  0.00     0.074 A 
ATOM     62  C   UNL A   1      41.946  33.069  30.352  1.00  0.00     0.031 C 
ATOM     63  C   UNL A   1      44.117  32.571  29.264  1.00  0.00     0.034 A 
BRANCH  50  64
ATOM     64  C   UNL A   1      47.377  28.017  26.644  1.00  0.00     0.023 A 
ATOM     65  C   UNL A   1      48.437  27.642  27.496  1.00  0.00     0.012 A 
ATOM     66  C   UNL A   1      47.543  27.913  25.249  1.00  0.00     0.148 A 
ATOM     67  C   UNL A   1      49.654  27.210  26.970  1.00  0.00     0.002 A 
ATOM     68  C   UNL A   1      48.743  27.434  24.734  1.00  0.00     0.091 A 
ATOM     69  F   UNL A   1      46.532  28.289  24.454  1.00  0.00    -0.205 F 
ATOM     70  C   UNL A   1      49.803  27.096  25.591  1.00  0.00     0.022 A 
BRANCH  68  71
ATOM     71  S   UNL A   1      49.007  27.172  22.977  1.00  0.00     0.127 S 
ATOM     72  O   UNL A   1      48.237  25.951  22.742  1.00  0.00    -0.237 OA
ATOM     73  O   UNL A   1      48.425  28.382  22.395  1.00  0.00    -0.237 OA
ATOM     74  O   UNL A   1      50.448  27.045  22.801  1.00  0.00    -0.744 OA
ENDBRANCH  68  71
ENDBRANCH  50  64
BRANCH  51  75
ATOM     75  C   UNL A   1      38.671  30.453  30.869  1.00  0.00     0.023 A 
ATOM     76  C   UNL A   1      38.480  30.079  32.213  1.00  0.00     0.012 A 
ATOM     77  C   UNL A   1      37.658  31.172  30.205  1.00  0.00     0.148 A 
ATOM     78  C   UNL A   1      37.290  30.385  32.874  1.00  0.00     0.002 A 
ATOM     79  C   UNL A   1      36.500  31.526  30.886  1.00  0.00     0.091 A 
ATOM     80  F   UNL A   1      37.856  31.511  28.924  1.00  0.00    -0.205 F 
ATOM     81  C   UNL A   1      36.305  31.117  32.215  1.00  0.00     0.022 A 
BRANCH  79  82
ATOM     82  S   UNL A   1      35.237  32.575  30.159  1.00  0.00     0.127 S 
ATOM     83  O   UNL A   1      36.002  33.772  29.815  1.00  0.00    -0.237 OA
ATOM     84  O   UNL A   1      34.797  31.773  29.018  1.00  0.00    -0.237 OA
ATOM     85  O   UNL A   1      34.225  32.754  31.193  1.00  0.00    -0.744 OA
ENDBRANCH  79  82
ENDBRANCH  51  75
BRANCH  63  86
ATOM     86  C   UNL A   1      44.541  33.994  29.525  1.00  0.00     0.023 A 
ATOM     87  C   UNL A   1      45.172  34.331  30.739  1.00  0.00     0.012 A 
ATOM     88  C   UNL A   1      44.375  34.982  28.535  1.00  0.00     0.148 A 
ATOM     89  C   UNL A   1      45.600  35.637  30.977  1.00  0.00     0.002 A 
ATOM     90  C   UNL A   1      44.852  36.269  28.758  1.00  0.00     0.091 A 
ATOM     91  F   UNL A   1      43.757  34.647  27.394  1.00  0.00    -0.205 F 
ATOM     92  C   UNL A   1      45.451  36.601  29.984  1.00  0.00     0.022 A 
BRANCH  90  93
ATOM     93  S   UNL A   1      44.793  37.551  27.501  1.00  0.00     0.127 S 
ATOM     94  O   UNL A   1      43.429  37.407  26.994  1.00  0.00    -0.237 OA
ATOM     95  O   UNL A   1      45.028  38.764  28.285  1.00  0.00    -0.237 OA
ATOM     96  O   UNL A   1      45.848  37.231  26.550  1.00  0.00    -0.744 OA
ENDBRANCH  90  93
ENDBRANCH  63  86
ENDBRANCH  37  38
ENDBRANCH  29  32
ENDBRANCH  27  28
ENDBRANCH   1  27
TORSDOF 16
ENDMDL
MODEL 3
REMARK VINA RESULT:     -12.4      6.156     11.759
REMARK SMILES O=C(CC1CCN(C(=O)c2ccc3[nH]ccc3c2)CC1)NCCCCNC(=O)c1ccc(-c2c3nc(c(-c4cccc(S(=O)(=O)[O-])c4F)c4ccc([nH]4)c(-c4cccc(S(=O)(=O)[O-])c4F)c4nc(c(-c5cccc(S(=O)(=O)[O-])c5F)c5ccc2[nH]5)C=C4)C=C3)cc1
REMARK SMILES IDX 24 1 23 2 22 3 21 4 1 5 2 6 3 8 4 9 5 10 20 11 6 12 19 13
REMARK SMILES IDX 7 14 8 15 9 16 10 17 11 18 18 19 12 20 17 21 13 22 16 23
REMARK SMILES IDX 14 24 15 25 25 27 26 28 27 29 28 31 29 32 30 33 91 34 31 35
REMARK SMILES IDX 90 36 32 37 33 38 34 39 84 40 35 41 89 42 83 43 85 44 36 45
REMARK SMILES IDX 88 46 82 47 81 48 37 50 69 51 49 52 68 53 50 54 53 55 67 56
REMARK SMILES IDX 86 57 51 58 52 59 66 61 87 62 54 63 38 64 39 65 47 66 40 67
REMARK SMILES IDX 42 68 48 69 41 70 43 71 44 72 45 73 46 74 70 75 71 76 79 77
REMARK SMILES IDX 72 78 74 79 80 80 73 81 75 82 76 83 77 84 78 85 55 86 56 87
REMARK SMILES IDX 64 88 57 89 59 90 65 91 58 92 60 93 61 94 62 95 63 96
REMARK H PARENT 21 7 14 26 26 30 85 49 53 60
REMARK Flexibility Score: inf
ROOT
ATOM      1  C   UNL A   1      38.610  19.966  24.693  1.00  0.00     0.023 C 
ENDROOT
BRANCH   1   2
ATOM      2  C   UNL A   1      37.324  20.798  24.688  1.00  0.00     0.023 C 
BRANCH   2   3
ATOM      3  C   UNL A   1      36.049  20.024  25.023  1.00  0.00     0.116 C 
BRANCH   3   4
ATOM      4  N   UNL A   1      34.949  20.912  25.342  1.00  0.00    -0.356 N 
ATOM      5  O   UNL A   1      33.277  19.496  24.663  1.00  0.00    -0.275 OA
ATOM      6  C   UNL A   1      33.633  20.575  25.127  1.00  0.00     0.220 C 
ATOM      7  H   UNL A   1      35.152  21.794  25.731  1.00  0.00     0.163 HD
BRANCH   6   8
ATOM      8  C   UNL A   1      32.632  21.677  25.434  1.00  0.00     0.103 C 
BRANCH   8   9
ATOM      9  C   UNL A   1      31.826  22.151  24.207  1.00  0.00     0.002 C 
ATOM     10  C   UNL A   1      32.732  22.348  22.974  1.00  0.00     0.026 C 
ATOM     11  C   UNL A   1      31.069  23.465  24.474  1.00  0.00     0.026 C 
ATOM     12  C   UNL A   1      33.650  23.562  23.114  1.00  0.00     0.120 C 
ATOM     13  C   UNL A   1      31.994  24.679  24.576  1.00  0.00     0.120 C 
ATOM     14  N   UNL A   1      32.885  24.767  23.419  1.00  0.00    -0.339 N 
ATOM     15  C   UNL A   1      33.038  25.889  22.603  1.00  0.00     0.253 C 
ATOM     16  O   UNL A   1      33.721  25.899  21.580  1.00  0.00    -0.269 OA
BRANCH  15  17
ATOM     17  C   UNL A   1      32.331  27.137  22.965  1.00  0.00     0.040 A 
ATOM     18  C   UNL A   1      32.916  28.053  23.844  1.00  0.00     0.016 A 
ATOM     19  C   UNL A   1      31.069  27.370  22.402  1.00  0.00     0.024 A 
ATOM     20  C   UNL A   1      32.220  29.196  24.247  1.00  0.00     0.027 A 
ATOM     21  C   UNL A   1      30.359  28.522  22.790  1.00  0.00     0.000 A 
ATOM     22  C   UNL A   1      30.941  29.395  23.712  1.00  0.00     0.045 A 
ATOM     23  C   UNL A   1      29.084  29.054  22.456  1.00  0.00     0.028 A 
ATOM     24  N   UNL A   1      30.026  30.397  23.953  1.00  0.00    -0.361 N 
ATOM     25  C   UNL A   1      28.908  30.209  23.184  1.00  0.00     0.083 A 
ATOM     26  H   UNL A   1      30.156  31.140  24.586  1.00  0.00     0.166 HD
ENDBRANCH  15  17
ENDBRANCH   8   9
ENDBRANCH   6   8
ENDBRANCH   3   4
ENDBRANCH   2   3
ENDBRANCH   1   2
BRANCH   1  27
ATOM     27  C   UNL A   1      39.152  19.596  26.070  1.00  0.00     0.116 C 
BRANCH  27  28
ATOM     28  N   UNL A   1      40.413  18.873  26.010  1.00  0.00    -0.352 N 
ATOM     29  C   UNL A   1      41.699  19.350  26.095  1.00  0.00     0.251 C 
ATOM     30  H   UNL A   1      40.333  17.899  25.890  1.00  0.00     0.163 HD
ATOM     31  O   UNL A   1      42.643  18.591  25.881  1.00  0.00    -0.269 OA
BRANCH  29  32
ATOM     32  C   UNL A   1      41.955  20.773  26.415  1.00  0.00     0.039 A 
ATOM     33  C   UNL A   1      42.234  21.127  27.739  1.00  0.00     0.014 A 
ATOM     34  C   UNL A   1      41.918  21.758  25.424  1.00  0.00     0.014 A 
ATOM     35  C   UNL A   1      42.545  22.452  28.054  1.00  0.00     0.010 A 
ATOM     36  C   UNL A   1      42.305  23.062  25.727  1.00  0.00     0.010 A 
ATOM     37  C   UNL A   1      42.623  23.426  27.045  1.00  0.00    -0.014 A 
BRANCH  37  38
ATOM     38  C   UNL A   1      43.055  24.817  27.346  1.00  0.00     0.031 A 
ATOM     39  C   UNL A   1      42.101  25.799  27.973  1.00  0.00     0.074 A 
ATOM     40  C   UNL A   1      44.286  25.226  26.976  1.00  0.00     0.049 A 
ATOM     41  N   UNL A   1      42.283  27.065  28.249  1.00  0.00    -0.248 NA
ATOM     42  C   UNL A   1      40.757  25.301  28.308  1.00  0.00     0.031 C 
ATOM     43  C   UNL A   1      45.282  24.399  26.292  1.00  0.00     0.029 A 
ATOM     44  N   UNL A   1      44.900  26.450  27.098  1.00  0.00    -0.354 N 
ATOM     45  C   UNL A   1      41.074  27.522  28.760  1.00  0.00     0.074 A 
ATOM     46  C   UNL A   1      40.153  26.406  28.721  1.00  0.00     0.031 C 
ATOM     47  C   UNL A   1      46.379  25.135  26.055  1.00  0.00     0.029 A 
ATOM     48  C   UNL A   1      46.155  26.495  26.536  1.00  0.00     0.049 A 
ATOM     49  H   UNL A   1      44.482  27.220  27.545  1.00  0.00     0.167 HD
ATOM     50  C   UNL A   1      40.763  28.748  29.246  1.00  0.00     0.034 A 
ATOM     51  C   UNL A   1      47.025  27.516  26.407  1.00  0.00     0.034 A 
ATOM     52  C   UNL A   1      41.688  29.849  29.311  1.00  0.00     0.049 A 
ATOM     53  C   UNL A   1      46.667  28.863  26.976  1.00  0.00     0.074 A 
ATOM     54  C   UNL A   1      41.491  31.106  29.858  1.00  0.00     0.029 A 
ATOM     55  N   UNL A   1      42.978  29.832  28.804  1.00  0.00    -0.354 N 
ATOM     56  N   UNL A   1      45.570  29.231  27.591  1.00  0.00    -0.248 NA
ATOM     57  C   UNL A   1      47.679  29.923  26.865  1.00  0.00     0.031 C 
ATOM     58  C   UNL A   1      42.650  31.860  29.652  1.00  0.00     0.029 A 
ATOM     59  C   UNL A   1      43.585  31.060  29.013  1.00  0.00     0.049 A 
ATOM     60  H   UNL A   1      43.401  29.062  28.362  1.00  0.00     0.167 HD
ATOM     61  C   UNL A   1      45.774  30.554  27.973  1.00  0.00     0.074 A 
ATOM     62  C   UNL A   1      47.107  30.912  27.537  1.00  0.00     0.031 C 
ATOM     63  C   UNL A   1      44.928  31.396  28.616  1.00  0.00     0.034 A 
BRANCH  50  64
ATOM     64  C   UNL A   1      39.371  28.954  29.787  1.00  0.00     0.023 A 
ATOM     65  C   UNL A   1      39.084  28.610  31.124  1.00  0.00     0.012 A 
ATOM     66  C   UNL A   1      38.363  29.539  28.995  1.00  0.00     0.148 A 
ATOM     67  C   UNL A   1      37.809  28.805  31.652  1.00  0.00     0.002 A 
ATOM     68  C   UNL A   1      37.107  29.776  29.544  1.00  0.00     0.091 A 
ATOM     69  F   UNL A   1      38.646  29.844  27.721  1.00  0.00    -0.205 F 
ATOM     70  C   UNL A   1      36.825  29.397  30.866  1.00  0.00     0.022 A 
BRANCH  68  71
ATOM     71  S   UNL A   1      35.796  30.607  28.641  1.00  0.00     0.127 S 
ATOM     72  O   UNL A   1      35.147  31.373  29.705  1.00  0.00    -0.237 OA
ATOM     73  O   UNL A   1      36.549  31.414  27.681  1.00  0.00    -0.237 OA
ATOM     74  O   UNL A   1      34.985  29.553  28.047  1.00  0.00    -0.744 OA
ENDBRANCH  68  71
ENDBRANCH  50  64
BRANCH  51  75
ATOM     75  C   UNL A   1      48.342  27.292  25.746  1.00  0.00     0.023 A 
ATOM     76  C   UNL A   1      49.439  26.850  26.511  1.00  0.00     0.012 A 
ATOM     77  C   UNL A   1      48.505  27.492  24.362  1.00  0.00     0.148 A 
ATOM     78  C   UNL A   1      50.683  26.643  25.915  1.00  0.00     0.002 A 
ATOM     79  C   UNL A   1      49.731  27.228  23.764  1.00  0.00     0.091 A 
ATOM     80  F   UNL A   1      47.451  27.920  23.654  1.00  0.00    -0.205 F 
ATOM     81  C   UNL A   1      50.827  26.822  24.541  1.00  0.00     0.022 A 
BRANCH  79  82
ATOM     82  S   UNL A   1      49.972  27.306  21.985  1.00  0.00     0.127 S 
ATOM     83  O   UNL A   1      49.790  28.731  21.720  1.00  0.00    -0.237 OA
ATOM     84  O   UNL A   1      51.345  26.821  21.846  1.00  0.00    -0.237 OA
ATOM     85  O   UNL A   1      48.962  26.427  21.408  1.00  0.00    -0.744 OA
ENDBRANCH  79  82
ENDBRANCH  51  75
BRANCH  63  86
ATOM     86  C   UNL A   1      45.425  32.784  28.932  1.00  0.00     0.023 A 
ATOM     87  C   UNL A   1      46.118  33.030  30.134  1.00  0.00     0.012 A 
ATOM     88  C   UNL A   1      45.265  33.829  28.000  1.00  0.00     0.148 A 
ATOM     89  C   UNL A   1      46.612  34.302  30.420  1.00  0.00     0.002 A 
ATOM     90  C   UNL A   1      45.806  35.081  28.269  1.00  0.00     0.091 A 
ATOM     91  F   UNL A   1      44.588  33.580  26.870  1.00  0.00    -0.205 F 
ATOM     92  C   UNL A   1      46.468  35.322  29.484  1.00  0.00     0.022 A 
BRANCH  90  93
ATOM     93  S   UNL A   1      45.755  36.428  27.081  1.00  0.00     0.127 S 
ATOM     94  O   UNL A   1      46.641  37.408  27.707  1.00  0.00    -0.237 OA
ATOM     95  O   UNL A   1      46.296  35.798  25.876  1.00  0.00    -0.237 OA
ATOM     96  O   UNL A   1      44.358  36.825  26.981  1.00  0.00    -0.744 OA
ENDBRANCH  90  93
ENDBRANCH  63  86
ENDBRANCH  37  38
ENDBRANCH  29  32
ENDBRANCH  27  28
ENDBRANCH   1  27
TORSDOF 16
ENDMDL
