MODEL 1
REMARK VINA RESULT:     -11.2      0.000      0.000
REMARK SMILES C[C@H]([NH2+][C@@H](C)[C@@H](C)C(=O)NCCCCNC(=O)c1ccc(-c2c3nc(c(-c4cccc(S(=O)(=O)[O-])c4F)c4ccc([nH]4)c(-c4cccc(S(=O)(=O)[O-])c4F)c4nc(c(-c5cccc(S(=O)(=O)[O-])c5F)c5ccc2[nH]5)C=C4)C=C3)cc1)c1cccc(Br)c1
REMARK SMILES IDX 12 1 11 2 10 3 8 4 9 5 6 7 7 8 4 9 5 10 3 11 2 14 1 15 81 16
REMARK SMILES IDX 82 17 87 18 83 19 85 20 84 21 86 22 13 23 14 24 15 25 16 26
REMARK SMILES IDX 17 28 18 29 19 30 80 31 20 32 79 33 21 34 22 35 23 36 73 37
REMARK SMILES IDX 24 38 78 39 72 40 74 41 25 42 77 43 71 44 70 45 26 47 58 48
REMARK SMILES IDX 38 49 57 50 39 51 42 52 56 53 75 54 40 55 41 56 55 58 76 59
REMARK SMILES IDX 43 60 27 61 28 62 36 63 29 64 31 65 37 66 30 67 32 68 33 69
REMARK SMILES IDX 34 70 35 71 59 72 60 73 68 74 61 75 63 76 69 77 62 78 64 79
REMARK SMILES IDX 65 80 66 81 67 82 44 83 45 84 53 85 46 86 48 87 54 88 47 89
REMARK SMILES IDX 49 90 50 91 51 92 52 93
REMARK H PARENT 10 6 3 12 3 13 15 27 74 46 42 57
REMARK Flexibility Score: inf
ROOT
ATOM      1  C   UNL A   1      35.176  22.585  23.825  1.00  0.00     0.023 C 
ENDROOT
BRANCH   1   2
ATOM      2  C   UNL A   1      35.007  24.065  23.502  1.00  0.00     0.116 C 
BRANCH   2   3
ATOM      3  N   UNL A   1      34.806  24.841  24.711  1.00  0.00    -0.356 N 
ATOM      4  C   UNL A   1      34.027  25.935  24.930  1.00  0.00     0.228 C 
ATOM      5  O   UNL A   1      34.033  26.448  26.051  1.00  0.00    -0.275 OA
ATOM      6  H   UNL A   1      35.310  24.526  25.495  1.00  0.00     0.163 HD
BRANCH   4   7
ATOM      7  C   UNL A   1      33.141  26.504  23.826  1.00  0.00     0.133 C 
ATOM      8  C   UNL A   1      33.638  27.917  23.525  1.00  0.00     0.024 C 
BRANCH   7   9
ATOM      9  C   UNL A   1      31.625  26.306  24.129  1.00  0.00     0.192 C 
ATOM     10  C   UNL A   1      31.023  27.645  24.607  1.00  0.00     0.076 C 
BRANCH   9  11
ATOM     11  N   UNL A   1      31.299  25.362  25.204  1.00  0.00    -0.337 N 
ATOM     12  H   UNL A   1      32.120  25.317  25.807  1.00  0.00     0.347 HD
ATOM     13  H   UNL A   1      30.436  25.751  25.584  1.00  0.00     0.347 HD
BRANCH  11  14
ATOM     14  C   UNL A   1      30.920  23.972  24.914  1.00  0.00     0.210 C 
ATOM     15  C   UNL A   1      30.693  23.733  23.412  1.00  0.00     0.081 C 
BRANCH  14  16
ATOM     16  C   UNL A   1      31.792  22.938  25.623  1.00  0.00     0.010 A 
ATOM     17  C   UNL A   1      32.491  23.295  26.793  1.00  0.00     0.010 A 
ATOM     18  C   UNL A   1      31.940  21.619  25.155  1.00  0.00     0.025 A 
ATOM     19  C   UNL A   1      33.393  22.417  27.400  1.00  0.00     0.002 A 
ATOM     20  C   UNL A   1      32.827  20.737  25.779  1.00  0.00     0.018 A 
ATOM     21  C   UNL A   1      33.574  21.138  26.881  1.00  0.00     0.016 A 
ATOM     22  Br  UNL A   1      33.037  18.985  25.097  1.00  0.00    -0.051 Br
ENDBRANCH  14  16
ENDBRANCH  11  14
ENDBRANCH   9  11
ENDBRANCH   7   9
ENDBRANCH   4   7
ENDBRANCH   2   3
ENDBRANCH   1   2
BRANCH   1  23
ATOM     23  C   UNL A   1      36.634  22.159  23.993  1.00  0.00     0.023 C 
BRANCH  23  24
ATOM     24  C   UNL A   1      37.111  22.107  25.439  1.00  0.00     0.116 C 
BRANCH  24  25
ATOM     25  N   UNL A   1      38.087  21.051  25.679  1.00  0.00    -0.352 N 
ATOM     26  C   UNL A   1      39.341  21.190  26.225  1.00  0.00     0.251 C 
ATOM     27  H   UNL A   1      37.819  20.139  25.421  1.00  0.00     0.163 HD
ATOM     28  O   UNL A   1      40.125  20.248  26.272  1.00  0.00    -0.269 OA
BRANCH  26  29
ATOM     29  C   UNL A   1      39.721  22.522  26.725  1.00  0.00     0.039 A 
ATOM     30  C   UNL A   1      40.752  22.632  27.659  1.00  0.00     0.014 A 
ATOM     31  C   UNL A   1      39.135  23.655  26.156  1.00  0.00     0.014 A 
ATOM     32  C   UNL A   1      41.243  23.897  27.984  1.00  0.00     0.010 A 
ATOM     33  C   UNL A   1      39.673  24.904  26.429  1.00  0.00     0.010 A 
ATOM     34  C   UNL A   1      40.729  25.038  27.347  1.00  0.00    -0.014 A 
BRANCH  34  35
ATOM     35  C   UNL A   1      41.254  26.396  27.622  1.00  0.00     0.031 A 
ATOM     36  C   UNL A   1      42.666  26.729  27.227  1.00  0.00     0.074 A 
ATOM     37  C   UNL A   1      40.523  27.270  28.340  1.00  0.00     0.049 A 
ATOM     38  N   UNL A   1      43.376  27.786  27.514  1.00  0.00    -0.248 NA
ATOM     39  C   UNL A   1      43.386  25.714  26.437  1.00  0.00     0.031 C 
ATOM     40  C   UNL A   1      39.171  27.030  28.848  1.00  0.00     0.029 A 
ATOM     41  N   UNL A   1      40.834  28.524  28.805  1.00  0.00    -0.354 N 
ATOM     42  C   UNL A   1      44.642  27.540  26.995  1.00  0.00     0.074 A 
ATOM     43  C   UNL A   1      44.608  26.222  26.400  1.00  0.00     0.031 C 
ATOM     44  C   UNL A   1      38.773  28.096  29.560  1.00  0.00     0.029 A 
ATOM     45  C   UNL A   1      39.851  29.082  29.588  1.00  0.00     0.049 A 
ATOM     46  H   UNL A   1      41.681  28.981  28.598  1.00  0.00     0.167 HD
ATOM     47  C   UNL A   1      45.726  28.349  26.989  1.00  0.00     0.034 A 
ATOM     48  C   UNL A   1      39.826  30.249  30.260  1.00  0.00     0.034 A 
ATOM     49  C   UNL A   1      45.730  29.682  27.522  1.00  0.00     0.049 A 
ATOM     50  C   UNL A   1      41.017  31.166  30.174  1.00  0.00     0.074 A 
ATOM     51  C   UNL A   1      46.742  30.624  27.477  1.00  0.00     0.029 A 
ATOM     52  N   UNL A   1      44.667  30.266  28.194  1.00  0.00    -0.354 N 
ATOM     53  N   UNL A   1      42.154  30.982  29.548  1.00  0.00    -0.248 NA
ATOM     54  C   UNL A   1      40.909  32.466  30.851  1.00  0.00     0.031 C 
ATOM     55  C   UNL A   1      46.292  31.776  28.130  1.00  0.00     0.029 A 
ATOM     56  C   UNL A   1      44.995  31.556  28.567  1.00  0.00     0.049 A 
ATOM     57  H   UNL A   1      43.806  29.826  28.379  1.00  0.00     0.167 HD
ATOM     58  C   UNL A   1      42.881  32.154  29.721  1.00  0.00     0.074 A 
ATOM     59  C   UNL A   1      42.050  33.047  30.502  1.00  0.00     0.031 C 
ATOM     60  C   UNL A   1      44.127  32.457  29.283  1.00  0.00     0.034 A 
BRANCH  47  61
ATOM     61  C   UNL A   1      46.976  27.828  26.332  1.00  0.00     0.023 A 
ATOM     62  C   UNL A   1      47.947  27.166  27.113  1.00  0.00     0.012 A 
ATOM     63  C   UNL A   1      47.182  27.967  24.947  1.00  0.00     0.148 A 
ATOM     64  C   UNL A   1      49.122  26.691  26.533  1.00  0.00     0.002 A 
ATOM     65  C   UNL A   1      48.335  27.449  24.368  1.00  0.00     0.091 A 
ATOM     66  F   UNL A   1      46.263  28.623  24.223  1.00  0.00    -0.205 F 
ATOM     67  C   UNL A   1      49.312  26.824  25.161  1.00  0.00     0.022 A 
BRANCH  65  68
ATOM     68  S   UNL A   1      48.627  27.504  22.596  1.00  0.00     0.127 S 
ATOM     69  O   UNL A   1      49.931  28.161  22.531  1.00  0.00    -0.237 OA
ATOM     70  O   UNL A   1      48.642  26.084  22.239  1.00  0.00    -0.237 OA
ATOM     71  O   UNL A   1      47.512  28.253  22.035  1.00  0.00    -0.744 OA
ENDBRANCH  65  68
ENDBRANCH  47  61
BRANCH  48  72
ATOM     72  C   UNL A   1      38.599  30.646  31.005  1.00  0.00     0.023 A 
ATOM     73  C   UNL A   1      38.516  30.375  32.385  1.00  0.00     0.012 A 
ATOM     74  C   UNL A   1      37.543  31.334  30.377  1.00  0.00     0.148 A 
ATOM     75  C   UNL A   1      37.395  30.760  33.122  1.00  0.00     0.002 A 
ATOM     76  C   UNL A   1      36.451  31.760  31.126  1.00  0.00     0.091 A 
ATOM     77  F   UNL A   1      37.637  31.576  29.062  1.00  0.00    -0.205 F 
ATOM     78  C   UNL A   1      36.369  31.462  32.495  1.00  0.00     0.022 A 
BRANCH  76  79
ATOM     79  S   UNL A   1      35.144  32.782  30.436  1.00  0.00     0.127 S 
ATOM     80  O   UNL A   1      35.884  33.968  30.013  1.00  0.00    -0.237 OA
ATOM     81  O   UNL A   1      34.650  31.941  29.345  1.00  0.00    -0.237 OA
ATOM     82  O   UNL A   1      34.190  32.984  31.518  1.00  0.00    -0.744 OA
ENDBRANCH  76  79
ENDBRANCH  48  72
BRANCH  60  83
ATOM     83  C   UNL A   1      44.667  33.829  29.588  1.00  0.00     0.023 A 
ATOM     84  C   UNL A   1      45.393  34.049  30.774  1.00  0.00     0.012 A 
ATOM     85  C   UNL A   1      44.548  34.867  28.644  1.00  0.00     0.148 A 
ATOM     86  C   UNL A   1      45.977  35.289  31.025  1.00  0.00     0.002 A 
ATOM     87  C   UNL A   1      45.171  36.087  28.879  1.00  0.00     0.091 A 
ATOM     88  F   UNL A   1      43.835  34.642  27.530  1.00  0.00    -0.205 F 
ATOM     89  C   UNL A   1      45.879  36.302  30.072  1.00  0.00     0.022 A 
BRANCH  87  90
ATOM     90  S   UNL A   1      45.180  37.412  27.665  1.00  0.00     0.127 S 
ATOM     91  O   UNL A   1      45.871  38.475  28.392  1.00  0.00    -0.237 OA
ATOM     92  O   UNL A   1      45.948  36.825  26.568  1.00  0.00    -0.237 OA
ATOM     93  O   UNL A   1      43.782  37.675  27.350  1.00  0.00    -0.744 OA
ENDBRANCH  87  90
ENDBRANCH  60  83
ENDBRANCH  34  35
ENDBRANCH  26  29
ENDBRANCH  24  25
ENDBRANCH  23  24
ENDBRANCH   1  23
TORSDOF 18
ENDMDL
MODEL 2
REMARK VINA RESULT:     -11.2      5.552     10.539
REMARK SMILES C[C@H]([NH2+][C@@H](C)[C@@H](C)C(=O)NCCCCNC(=O)c1ccc(-c2c3nc(c(-c4cccc(S(=O)(=O)[O-])c4F)c4ccc([nH]4)c(-c4cccc(S(=O)(=O)[O-])c4F)c4nc(c(-c5cccc(S(=O)(=O)[O-])c5F)c5ccc2[nH]5)C=C4)C=C3)cc1)c1cccc(Br)c1
REMARK SMILES IDX 12 1 11 2 10 3 8 4 9 5 6 7 7 8 4 9 5 10 3 11 2 14 1 15 81 16
REMARK SMILES IDX 82 17 87 18 83 19 85 20 84 21 86 22 13 23 14 24 15 25 16 26
REMARK SMILES IDX 17 28 18 29 19 30 80 31 20 32 79 33 21 34 22 35 23 36 73 37
REMARK SMILES IDX 24 38 78 39 72 40 74 41 25 42 77 43 71 44 70 45 26 47 58 48
REMARK SMILES IDX 38 49 57 50 39 51 42 52 56 53 75 54 40 55 41 56 55 58 76 59
REMARK SMILES IDX 43 60 27 61 28 62 36 63 29 64 31 65 37 66 30 67 32 68 33 69
REMARK SMILES IDX 34 70 35 71 59 72 60 73 68 74 61 75 63 76 69 77 62 78 64 79
REMARK SMILES IDX 65 80 66 81 67 82 44 83 45 84 53 85 46 86 48 87 54 88 47 89
REMARK SMILES IDX 49 90 50 91 51 92 52 93
REMARK H PARENT 10 6 3 12 3 13 15 27 74 46 42 57
REMARK Flexibility Score: inf
ROOT
ATOM      1  C   UNL A   1      32.144  28.937  26.021  1.00  0.00     0.023 C 
ENDROOT
BRANCH   1   2
ATOM      2  C   UNL A   1      33.536  28.393  25.723  1.00  0.00     0.116 C 
BRANCH   2   3
ATOM      3  N   UNL A   1      33.907  28.639  24.343  1.00  0.00    -0.356 N 
ATOM      4  C   UNL A   1      33.725  27.869  23.236  1.00  0.00     0.228 C 
ATOM      5  O   UNL A   1      34.150  28.282  22.155  1.00  0.00    -0.275 OA
ATOM      6  H   UNL A   1      34.359  29.498  24.182  1.00  0.00     0.163 HD
BRANCH   4   7
ATOM      7  C   UNL A   1      32.986  26.537  23.318  1.00  0.00     0.133 C 
ATOM      8  C   UNL A   1      34.014  25.431  23.085  1.00  0.00     0.024 C 
BRANCH   7   9
ATOM      9  C   UNL A   1      31.691  26.530  22.453  1.00  0.00     0.192 C 
ATOM     10  C   UNL A   1      32.015  25.961  21.055  1.00  0.00     0.076 C 
BRANCH   9  11
ATOM     11  N   UNL A   1      31.091  27.841  22.176  1.00  0.00    -0.337 N 
ATOM     12  H   UNL A   1      31.642  28.524  22.695  1.00  0.00     0.347 HD
ATOM     13  H   UNL A   1      31.103  27.878  21.157  1.00  0.00     0.347 HD
BRANCH  11  14
ATOM     14  C   UNL A   1      29.682  28.121  22.489  1.00  0.00     0.210 C 
ATOM     15  C   UNL A   1      29.166  27.266  23.660  1.00  0.00     0.081 C 
BRANCH  14  16
ATOM     16  C   UNL A   1      29.354  29.610  22.563  1.00  0.00     0.010 A 
ATOM     17  C   UNL A   1      29.503  30.299  23.784  1.00  0.00     0.010 A 
ATOM     18  C   UNL A   1      28.897  30.345  21.454  1.00  0.00     0.025 A 
ATOM     19  C   UNL A   1      29.097  31.629  23.923  1.00  0.00     0.002 A 
ATOM     20  C   UNL A   1      28.513  31.681  21.593  1.00  0.00     0.018 A 
ATOM     21  C   UNL A   1      28.585  32.318  22.828  1.00  0.00     0.016 A 
ATOM     22  Br  UNL A   1      27.859  32.627  20.092  1.00  0.00    -0.051 Br
ENDBRANCH  14  16
ENDBRANCH  11  14
ENDBRANCH   9  11
ENDBRANCH   7   9
ENDBRANCH   4   7
ENDBRANCH   2   3
ENDBRANCH   1   2
BRANCH   1  23
ATOM     23  C   UNL A   1      32.069  30.463  26.008  1.00  0.00     0.023 C 
BRANCH  23  24
ATOM     24  C   UNL A   1      32.341  31.118  27.356  1.00  0.00     0.116 C 
BRANCH  24  25
ATOM     25  N   UNL A   1      32.502  32.564  27.265  1.00  0.00    -0.352 N 
ATOM     26  C   UNL A   1      33.596  33.302  27.650  1.00  0.00     0.251 C 
ATOM     27  H   UNL A   1      31.744  33.067  26.887  1.00  0.00     0.163 HD
ATOM     28  O   UNL A   1      33.576  34.528  27.636  1.00  0.00    -0.269 OA
BRANCH  26  29
ATOM     29  C   UNL A   1      34.785  32.566  28.110  1.00  0.00     0.039 A 
ATOM     30  C   UNL A   1      36.015  33.224  28.171  1.00  0.00     0.014 A 
ATOM     31  C   UNL A   1      34.634  31.267  28.600  1.00  0.00     0.014 A 
ATOM     32  C   UNL A   1      37.095  32.591  28.788  1.00  0.00     0.010 A 
ATOM     33  C   UNL A   1      35.690  30.671  29.274  1.00  0.00     0.010 A 
ATOM     34  C   UNL A   1      36.931  31.324  29.371  1.00  0.00    -0.014 A 
BRANCH  34  35
ATOM     35  C   UNL A   1      38.035  30.636  30.081  1.00  0.00     0.031 A 
ATOM     36  C   UNL A   1      38.375  31.054  31.484  1.00  0.00     0.074 A 
ATOM     37  C   UNL A   1      38.808  29.749  29.427  1.00  0.00     0.049 A 
ATOM     38  N   UNL A   1      39.394  30.708  32.225  1.00  0.00    -0.248 NA
ATOM     39  C   UNL A   1      37.468  32.025  32.122  1.00  0.00     0.031 C 
ATOM     40  C   UNL A   1      38.624  29.324  28.038  1.00  0.00     0.029 A 
ATOM     41  N   UNL A   1      39.934  29.076  29.833  1.00  0.00    -0.354 N 
ATOM     42  C   UNL A   1      39.285  31.460  33.388  1.00  0.00     0.074 A 
ATOM     43  C   UNL A   1      38.117  32.301  33.242  1.00  0.00     0.031 C 
ATOM     44  C   UNL A   1      39.607  28.471  27.705  1.00  0.00     0.029 A 
ATOM     45  C   UNL A   1      40.508  28.313  28.843  1.00  0.00     0.049 A 
ATOM     46  H   UNL A   1      40.297  29.135  30.746  1.00  0.00     0.167 HD
ATOM     47  C   UNL A   1      40.069  31.433  34.490  1.00  0.00     0.034 A 
ATOM     48  C   UNL A   1      41.637  27.578  28.850  1.00  0.00     0.034 A 
ATOM     49  C   UNL A   1      41.186  30.546  34.653  1.00  0.00     0.049 A 
ATOM     50  C   UNL A   1      42.452  27.505  30.114  1.00  0.00     0.074 A 
ATOM     51  C   UNL A   1      41.986  30.364  35.766  1.00  0.00     0.029 A 
ATOM     52  N   UNL A   1      41.660  29.687  33.673  1.00  0.00    -0.354 N 
ATOM     53  N   UNL A   1      42.248  28.107  31.261  1.00  0.00    -0.248 NA
ATOM     54  C   UNL A   1      43.627  26.622  30.101  1.00  0.00     0.031 C 
ATOM     55  C   UNL A   1      42.949  29.399  35.457  1.00  0.00     0.029 A 
ATOM     56  C   UNL A   1      42.739  28.969  34.156  1.00  0.00     0.049 A 
ATOM     57  H   UNL A   1      41.284  29.601  32.768  1.00  0.00     0.167 HD
ATOM     58  C   UNL A   1      43.243  27.648  32.117  1.00  0.00     0.074 A 
ATOM     59  C   UNL A   1      44.043  26.707  31.358  1.00  0.00     0.031 C 
ATOM     60  C   UNL A   1      43.479  27.984  33.408  1.00  0.00     0.034 A 
BRANCH  47  61
ATOM     61  C   UNL A   1      39.704  32.352  35.624  1.00  0.00     0.023 A 
ATOM     62  C   UNL A   1      38.945  31.854  36.704  1.00  0.00     0.012 A 
ATOM     63  C   UNL A   1      40.127  33.694  35.639  1.00  0.00     0.148 A 
ATOM     64  C   UNL A   1      38.577  32.688  37.758  1.00  0.00     0.002 A 
ATOM     65  C   UNL A   1      39.796  34.508  36.717  1.00  0.00     0.091 A 
ATOM     66  F   UNL A   1      40.823  34.160  34.592  1.00  0.00    -0.205 F 
ATOM     67  C   UNL A   1      39.009  34.010  37.770  1.00  0.00     0.022 A 
BRANCH  65  68
ATOM     68  S   UNL A   1      40.377  36.202  36.854  1.00  0.00     0.127 S 
ATOM     69  O   UNL A   1      39.687  36.655  38.061  1.00  0.00    -0.237 OA
ATOM     70  O   UNL A   1      41.822  36.024  37.010  1.00  0.00    -0.237 OA
ATOM     71  O   UNL A   1      39.982  36.857  35.616  1.00  0.00    -0.744 OA
ENDBRANCH  65  68
ENDBRANCH  47  61
BRANCH  48  72
ATOM     72  C   UNL A   1      42.015  26.793  27.642  1.00  0.00     0.023 A 
ATOM     73  C   UNL A   1      42.690  27.440  26.587  1.00  0.00     0.012 A 
ATOM     74  C   UNL A   1      41.764  25.411  27.550  1.00  0.00     0.148 A 
ATOM     75  C   UNL A   1      43.087  26.730  25.454  1.00  0.00     0.002 A 
ATOM     76  C   UNL A   1      42.206  24.699  26.441  1.00  0.00     0.091 A 
ATOM     77  F   UNL A   1      41.114  24.817  28.560  1.00  0.00    -0.205 F 
ATOM     78  C   UNL A   1      42.855  25.358  25.385  1.00  0.00     0.022 A 
BRANCH  76  79
ATOM     79  S   UNL A   1      42.071  22.911  26.322  1.00  0.00     0.127 S 
ATOM     80  O   UNL A   1      42.844  22.475  27.481  1.00  0.00    -0.237 OA
ATOM     81  O   UNL A   1      40.625  22.712  26.434  1.00  0.00    -0.237 OA
ATOM     82  O   UNL A   1      42.626  22.560  25.022  1.00  0.00    -0.744 OA
ENDBRANCH  76  79
ENDBRANCH  48  72
BRANCH  60  83
ATOM     83  C   UNL A   1      44.619  27.301  34.117  1.00  0.00     0.023 A 
ATOM     84  C   UNL A   1      45.901  27.881  34.101  1.00  0.00     0.012 A 
ATOM     85  C   UNL A   1      44.388  26.146  34.889  1.00  0.00     0.148 A 
ATOM     86  C   UNL A   1      46.944  27.310  34.829  1.00  0.00     0.002 A 
ATOM     87  C   UNL A   1      45.420  25.608  35.649  1.00  0.00     0.091 A 
ATOM     88  F   UNL A   1      43.163  25.600  34.874  1.00  0.00    -0.205 F 
ATOM     89  C   UNL A   1      46.700  26.184  35.613  1.00  0.00     0.022 A 
BRANCH  87  90
ATOM     90  S   UNL A   1      45.171  24.221  36.763  1.00  0.00     0.127 S 
ATOM     91  O   UNL A   1      44.577  23.227  35.871  1.00  0.00    -0.237 OA
ATOM     92  O   UNL A   1      46.536  23.916  37.192  1.00  0.00    -0.237 OA
ATOM     93  O   UNL A   1      44.300  24.711  37.824  1.00  0.00    -0.744 OA
ENDBRANCH  87  90
ENDBRANCH  60  83
ENDBRANCH  34  35
ENDBRANCH  26  29
ENDBRANCH  24  25
ENDBRANCH  23  24
ENDBRANCH   1  23
TORSDOF 18
ENDMDL
MODEL 3
REMARK VINA RESULT:     -11.1      5.129      7.458
REMARK SMILES C[C@H]([NH2+][C@@H](C)[C@@H](C)C(=O)NCCCCNC(=O)c1ccc(-c2c3nc(c(-c4cccc(S(=O)(=O)[O-])c4F)c4ccc([nH]4)c(-c4cccc(S(=O)(=O)[O-])c4F)c4nc(c(-c5cccc(S(=O)(=O)[O-])c5F)c5ccc2[nH]5)C=C4)C=C3)cc1)c1cccc(Br)c1
REMARK SMILES IDX 12 1 11 2 10 3 8 4 9 5 6 7 7 8 4 9 5 10 3 11 2 14 1 15 81 16
REMARK SMILES IDX 82 17 87 18 83 19 85 20 84 21 86 22 13 23 14 24 15 25 16 26
REMARK SMILES IDX 17 28 18 29 19 30 80 31 20 32 79 33 21 34 22 35 23 36 73 37
REMARK SMILES IDX 24 38 78 39 72 40 74 41 25 42 77 43 71 44 70 45 26 47 58 48
REMARK SMILES IDX 38 49 57 50 39 51 42 52 56 53 75 54 40 55 41 56 55 58 76 59
REMARK SMILES IDX 43 60 27 61 28 62 36 63 29 64 31 65 37 66 30 67 32 68 33 69
REMARK SMILES IDX 34 70 35 71 59 72 60 73 68 74 61 75 63 76 69 77 62 78 64 79
REMARK SMILES IDX 65 80 66 81 67 82 44 83 45 84 53 85 46 86 48 87 54 88 47 89
REMARK SMILES IDX 49 90 50 91 51 92 52 93
REMARK H PARENT 10 6 3 12 3 13 15 27 74 46 42 57
REMARK Flexibility Score: inf
ROOT
ATOM      1  C   UNL A   1      31.434  29.302  23.623  1.00  0.00     0.023 C 
ENDROOT
BRANCH   1   2
ATOM      2  C   UNL A   1      30.746  28.397  22.608  1.00  0.00     0.116 C 
BRANCH   2   3
ATOM      3  N   UNL A   1      29.559  27.787  23.175  1.00  0.00    -0.356 N 
ATOM      4  C   UNL A   1      29.418  26.626  23.871  1.00  0.00     0.228 C 
ATOM      5  O   UNL A   1      28.290  26.294  24.240  1.00  0.00    -0.275 OA
ATOM      6  H   UNL A   1      28.726  28.292  23.035  1.00  0.00     0.163 HD
BRANCH   4   7
ATOM      7  C   UNL A   1      30.629  25.765  24.218  1.00  0.00     0.133 C 
ATOM      8  C   UNL A   1      30.574  24.523  23.329  1.00  0.00     0.024 C 
BRANCH   7   9
ATOM      9  C   UNL A   1      30.785  25.563  25.754  1.00  0.00     0.192 C 
ATOM     10  C   UNL A   1      30.993  26.936  26.430  1.00  0.00     0.076 C 
BRANCH   9  11
ATOM     11  N   UNL A   1      31.942  24.771  26.188  1.00  0.00    -0.337 N 
ATOM     12  H   UNL A   1      32.598  24.769  25.407  1.00  0.00     0.347 HD
ATOM     13  H   UNL A   1      32.215  25.236  27.053  1.00  0.00     0.347 HD
BRANCH  11  14
ATOM     14  C   UNL A   1      31.797  23.371  26.611  1.00  0.00     0.210 C 
ATOM     15  C   UNL A   1      30.322  22.949  26.727  1.00  0.00     0.081 C 
BRANCH  14  16
ATOM     16  C   UNL A   1      32.703  22.404  25.853  1.00  0.00     0.010 A 
ATOM     17  C   UNL A   1      32.269  21.086  25.606  1.00  0.00     0.010 A 
ATOM     18  C   UNL A   1      33.978  22.766  25.381  1.00  0.00     0.025 A 
ATOM     19  C   UNL A   1      33.115  20.137  25.026  1.00  0.00     0.002 A 
ATOM     20  C   UNL A   1      34.812  21.820  24.781  1.00  0.00     0.018 A 
ATOM     21  C   UNL A   1      34.398  20.501  24.627  1.00  0.00     0.016 A 
ATOM     22  Br  UNL A   1      36.538  22.329  24.199  1.00  0.00    -0.051 Br
ENDBRANCH  14  16
ENDBRANCH  11  14
ENDBRANCH   9  11
ENDBRANCH   7   9
ENDBRANCH   4   7
ENDBRANCH   2   3
ENDBRANCH   1   2
BRANCH   1  23
ATOM     23  C   UNL A   1      32.878  28.901  23.920  1.00  0.00     0.023 C 
BRANCH  23  24
ATOM     24  C   UNL A   1      33.340  29.216  25.338  1.00  0.00     0.116 C 
BRANCH  24  25
ATOM     25  N   UNL A   1      32.679  30.384  25.905  1.00  0.00    -0.352 N 
ATOM     26  C   UNL A   1      33.130  31.171  26.938  1.00  0.00     0.251 C 
ATOM     27  H   UNL A   1      31.815  30.637  25.506  1.00  0.00     0.163 HD
ATOM     28  O   UNL A   1      32.434  32.062  27.414  1.00  0.00    -0.269 OA
BRANCH  26  29
ATOM     29  C   UNL A   1      34.471  30.886  27.475  1.00  0.00     0.039 A 
ATOM     30  C   UNL A   1      35.382  31.932  27.630  1.00  0.00     0.014 A 
ATOM     31  C   UNL A   1      34.758  29.601  27.942  1.00  0.00     0.014 A 
ATOM     32  C   UNL A   1      36.575  31.699  28.317  1.00  0.00     0.010 A 
ATOM     33  C   UNL A   1      35.911  29.392  28.684  1.00  0.00     0.010 A 
ATOM     34  C   UNL A   1      36.832  30.437  28.876  1.00  0.00    -0.014 A 
BRANCH  34  35
ATOM     35  C   UNL A   1      38.060  30.158  29.656  1.00  0.00     0.031 A 
ATOM     36  C   UNL A   1      39.074  29.195  29.106  1.00  0.00     0.074 A 
ATOM     37  C   UNL A   1      38.197  30.656  30.900  1.00  0.00     0.049 A 
ATOM     38  N   UNL A   1      40.128  28.685  29.684  1.00  0.00    -0.248 NA
ATOM     39  C   UNL A   1      38.845  28.709  27.734  1.00  0.00     0.031 C 
ATOM     40  C   UNL A   1      37.240  31.537  31.571  1.00  0.00     0.029 A 
ATOM     41  N   UNL A   1      39.177  30.453  31.840  1.00  0.00    -0.354 N 
ATOM     42  C   UNL A   1      40.653  27.776  28.774  1.00  0.00     0.074 A 
ATOM     43  C   UNL A   1      39.786  27.784  27.617  1.00  0.00     0.031 C 
ATOM     44  C   UNL A   1      37.676  31.792  32.816  1.00  0.00     0.029 A 
ATOM     45  C   UNL A   1      38.923  31.068  33.043  1.00  0.00     0.049 A 
ATOM     46  H   UNL A   1      39.986  29.918  31.668  1.00  0.00     0.167 HD
ATOM     47  C   UNL A   1      41.772  27.023  28.880  1.00  0.00     0.034 A 
ATOM     48  C   UNL A   1      39.613  31.042  34.201  1.00  0.00     0.034 A 
ATOM     49  C   UNL A   1      42.664  27.072  30.004  1.00  0.00     0.049 A 
ATOM     50  C   UNL A   1      40.896  30.257  34.267  1.00  0.00     0.074 A 
ATOM     51  C   UNL A   1      43.877  26.428  30.170  1.00  0.00     0.029 A 
ATOM     52  N   UNL A   1      42.441  27.811  31.156  1.00  0.00    -0.354 N 
ATOM     53  N   UNL A   1      41.460  29.520  33.341  1.00  0.00    -0.248 NA
ATOM     54  C   UNL A   1      41.658  30.329  35.523  1.00  0.00     0.031 C 
ATOM     55  C   UNL A   1      44.384  26.774  31.427  1.00  0.00     0.029 A 
ATOM     56  C   UNL A   1      43.495  27.644  32.036  1.00  0.00     0.049 A 
ATOM     57  H   UNL A   1      41.650  28.373  31.322  1.00  0.00     0.167 HD
ATOM     58  C   UNL A   1      42.659  29.074  33.884  1.00  0.00     0.074 A 
ATOM     59  C   UNL A   1      42.746  29.633  35.218  1.00  0.00     0.031 C 
ATOM     60  C   UNL A   1      43.597  28.266  33.332  1.00  0.00     0.034 A 
BRANCH  47  61
ATOM     61  C   UNL A   1      42.118  26.129  27.721  1.00  0.00     0.023 A 
ATOM     62  C   UNL A   1      42.890  26.640  26.655  1.00  0.00     0.012 A 
ATOM     63  C   UNL A   1      41.708  24.782  27.691  1.00  0.00     0.148 A 
ATOM     64  C   UNL A   1      43.209  25.839  25.561  1.00  0.00     0.002 A 
ATOM     65  C   UNL A   1      42.070  23.976  26.618  1.00  0.00     0.091 A 
ATOM     66  F   UNL A   1      40.953  24.319  28.697  1.00  0.00    -0.205 F 
ATOM     67  C   UNL A   1      42.808  24.506  25.546  1.00  0.00     0.022 A 
BRANCH  65  68
ATOM     68  S   UNL A   1      41.666  22.227  26.552  1.00  0.00     0.127 S 
ATOM     69  O   UNL A   1      40.206  22.263  26.492  1.00  0.00    -0.237 OA
ATOM     70  O   UNL A   1      42.316  21.803  25.311  1.00  0.00    -0.237 OA
ATOM     71  O   UNL A   1      42.235  21.644  27.759  1.00  0.00    -0.744 OA
ENDBRANCH  65  68
ENDBRANCH  47  61
BRANCH  48  72
ATOM     72  C   UNL A   1      39.140  31.849  35.360  1.00  0.00     0.023 A 
ATOM     73  C   UNL A   1      38.261  31.262  36.291  1.00  0.00     0.012 A 
ATOM     74  C   UNL A   1      39.593  33.164  35.579  1.00  0.00     0.148 A 
ATOM     75  C   UNL A   1      37.822  31.977  37.406  1.00  0.00     0.002 A 
ATOM     76  C   UNL A   1      39.191  33.854  36.717  1.00  0.00     0.091 A 
ATOM     77  F   UNL A   1      40.422  33.707  34.677  1.00  0.00    -0.205 F 
ATOM     78  C   UNL A   1      38.295  33.269  37.625  1.00  0.00     0.022 A 
BRANCH  76  79
ATOM     79  S   UNL A   1      39.849  35.469  37.152  1.00  0.00     0.127 S 
ATOM     80  O   UNL A   1      39.464  36.270  35.993  1.00  0.00    -0.237 OA
ATOM     81  O   UNL A   1      39.116  35.771  38.382  1.00  0.00    -0.237 OA
ATOM     82  O   UNL A   1      41.280  35.274  37.338  1.00  0.00    -0.744 OA
ENDBRANCH  76  79
ENDBRANCH  48  72
BRANCH  60  83
ATOM     83  C   UNL A   1      44.831  27.966  34.139  1.00  0.00     0.023 A 
ATOM     84  C   UNL A   1      45.903  28.879  34.146  1.00  0.00     0.012 A 
ATOM     85  C   UNL A   1      44.878  26.834  34.976  1.00  0.00     0.148 A 
ATOM     86  C   UNL A   1      47.013  28.659  34.960  1.00  0.00     0.002 A 
ATOM     87  C   UNL A   1      45.966  26.645  35.820  1.00  0.00     0.091 A 
ATOM     88  F   UNL A   1      43.855  25.968  34.939  1.00  0.00    -0.205 F 
ATOM     89  C   UNL A   1      47.038  27.552  35.807  1.00  0.00     0.022 A 
BRANCH  87  90
ATOM     90  S   UNL A   1      46.037  25.302  37.011  1.00  0.00     0.127 S 
ATOM     91  O   UNL A   1      44.833  25.545  37.804  1.00  0.00    -0.237 OA
ATOM     92  O   UNL A   1      45.974  24.119  36.153  1.00  0.00    -0.237 OA
ATOM     93  O   UNL A   1      47.299  25.465  37.722  1.00  0.00    -0.744 OA
ENDBRANCH  87  90
ENDBRANCH  60  83
ENDBRANCH  34  35
ENDBRANCH  26  29
ENDBRANCH  24  25
ENDBRANCH  23  24
ENDBRANCH   1  23
TORSDOF 18
ENDMDL
