MODEL 1
REMARK VINA RESULT:     -12.1      0.000      0.000
REMARK SMILES C[C@@]1(C(=O)NCCCCNC(=O)c2ccc(-c3c4nc(c(-c5cccc(S(=O)(=O)[O-])c5F)c5ccc([nH]5)c(-c5cccc(S(=O)(=O)[O-])c5F)c5nc(c(-c6cccc(S(=O)(=O)[O-])c6F)c6ccc3[nH]6)C=C5)C=C4)cc2)COC[C@H]1NC(=O)C[C@@H]1C[NH2+]CCO1
REMARK SMILES IDX 7 1 6 2 5 3 3 4 4 5 2 7 1 8 76 9 79 10 77 11 78 12 80 13
REMARK SMILES IDX 81 14 82 16 83 17 84 18 85 19 89 20 86 21 88 22 87 23 8 26
REMARK SMILES IDX 9 27 10 28 11 29 12 31 13 32 14 33 75 34 15 35 74 36 16 37
REMARK SMILES IDX 17 38 18 39 68 40 19 41 73 42 67 43 69 44 20 45 72 46 66 47
REMARK SMILES IDX 65 48 21 50 53 51 33 52 52 53 34 54 37 55 51 56 70 57 35 58
REMARK SMILES IDX 36 59 50 61 71 62 38 63 22 64 23 65 31 66 24 67 26 68 32 69
REMARK SMILES IDX 25 70 27 71 28 72 29 73 30 74 54 75 55 76 63 77 56 78 58 79
REMARK SMILES IDX 64 80 57 81 59 82 60 83 61 84 62 85 39 86 40 87 48 88 41 89
REMARK SMILES IDX 43 90 49 91 42 92 44 93 45 94 46 95 47 96
REMARK H PARENT 5 6 80 15 86 24 86 25 10 30 69 49 37 60
REMARK Flexibility Score: inf
ROOT
ATOM      1  C   UNL A   1      31.763  27.817  27.091  1.00  0.00     0.023 C 
ENDROOT
BRANCH   1   2
ATOM      2  C   UNL A   1      32.161  26.511  26.408  1.00  0.00     0.116 C 
BRANCH   2   3
ATOM      3  N   UNL A   1      31.377  25.397  26.902  1.00  0.00    -0.355 N 
ATOM      4  C   UNL A   1      31.382  24.066  26.652  1.00  0.00     0.230 C 
ATOM      5  O   UNL A   1      30.535  23.418  27.284  1.00  0.00    -0.274 OA
ATOM      6  H   UNL A   1      30.696  25.664  27.561  1.00  0.00     0.163 HD
BRANCH   4   7
ATOM      7  C   UNL A   1      32.295  23.354  25.628  1.00  0.00     0.092 C 
ATOM      8  C   UNL A   1      31.354  22.549  24.694  1.00  0.00     0.026 C 
ATOM      9  C   UNL A   1      33.268  22.368  26.266  1.00  0.00     0.179 C 
ATOM     10  C   UNL A   1      33.189  24.361  24.882  1.00  0.00     0.125 C 
ATOM     11  O   UNL A   1      34.610  22.827  26.058  1.00  0.00    -0.378 OA
ATOM     12  C   UNL A   1      34.597  24.099  25.408  1.00  0.00     0.186 C 
BRANCH  10  13
ATOM     13  N   UNL A   1      33.185  24.192  23.419  1.00  0.00    -0.350 N 
ATOM     14  C   UNL A   1      33.344  25.118  22.432  1.00  0.00     0.223 C 
ATOM     15  H   UNL A   1      33.049  23.268  23.107  1.00  0.00     0.163 HD
ATOM     16  O   UNL A   1      33.329  24.740  21.261  1.00  0.00    -0.275 OA
BRANCH  14  17
ATOM     17  C   UNL A   1      33.530  26.573  22.789  1.00  0.00     0.138 C 
BRANCH  17  18
ATOM     18  C   UNL A   1      32.324  27.402  22.368  1.00  0.00     0.182 C 
ATOM     19  C   UNL A   1      32.575  28.918  22.475  1.00  0.00     0.293 C 
ATOM     20  O   UNL A   1      31.208  27.020  23.192  1.00  0.00    -0.366 OA
ATOM     21  N   UNL A   1      31.398  29.681  22.013  1.00  0.00    -0.342 N 
ATOM     22  C   UNL A   1      30.022  27.709  22.761  1.00  0.00     0.222 C 
ATOM     23  C   UNL A   1      30.215  29.235  22.780  1.00  0.00     0.289 C 
ATOM     24  H   UNL A   1      31.247  29.511  21.018  1.00  0.00     0.346 HD
ATOM     25  H   UNL A   1      31.551  30.679  22.158  1.00  0.00     0.346 HD
ENDBRANCH  17  18
ENDBRANCH  14  17
ENDBRANCH  10  13
ENDBRANCH   4   7
ENDBRANCH   2   3
ENDBRANCH   1   2
BRANCH   1  26
ATOM     26  C   UNL A   1      31.559  28.994  26.132  1.00  0.00     0.023 C 
BRANCH  26  27
ATOM     27  C   UNL A   1      32.740  29.955  26.014  1.00  0.00     0.116 C 
BRANCH  27  28
ATOM     28  N   UNL A   1      32.423  31.316  26.425  1.00  0.00    -0.352 N 
ATOM     29  C   UNL A   1      33.134  32.145  27.263  1.00  0.00     0.251 C 
ATOM     30  H   UNL A   1      31.592  31.692  26.056  1.00  0.00     0.163 HD
ATOM     31  O   UNL A   1      32.680  33.232  27.592  1.00  0.00    -0.269 OA
BRANCH  29  32
ATOM     32  C   UNL A   1      34.439  31.685  27.785  1.00  0.00     0.039 A 
ATOM     33  C   UNL A   1      35.483  32.606  27.900  1.00  0.00     0.014 A 
ATOM     34  C   UNL A   1      34.607  30.365  28.208  1.00  0.00     0.014 A 
ATOM     35  C   UNL A   1      36.677  32.219  28.511  1.00  0.00     0.010 A 
ATOM     36  C   UNL A   1      35.772  30.001  28.874  1.00  0.00     0.010 A 
ATOM     37  C   UNL A   1      36.816  30.924  29.039  1.00  0.00    -0.014 A 
BRANCH  37  38
ATOM     38  C   UNL A   1      38.034  30.517  29.782  1.00  0.00     0.031 A 
ATOM     39  C   UNL A   1      38.998  29.535  29.174  1.00  0.00     0.074 A 
ATOM     40  C   UNL A   1      38.222  30.959  31.043  1.00  0.00     0.049 A 
ATOM     41  N   UNL A   1      40.068  28.998  29.699  1.00  0.00    -0.248 NA
ATOM     42  C   UNL A   1      38.705  29.076  27.805  1.00  0.00     0.031 C 
ATOM     43  C   UNL A   1      37.318  31.852  31.773  1.00  0.00     0.029 A 
ATOM     44  N   UNL A   1      39.220  30.691  31.946  1.00  0.00    -0.354 N 
ATOM     45  C   UNL A   1      40.557  28.117  28.743  1.00  0.00     0.074 A 
ATOM     46  C   UNL A   1      39.648  28.163  27.619  1.00  0.00     0.031 C 
ATOM     47  C   UNL A   1      37.805  32.061  33.006  1.00  0.00     0.029 A 
ATOM     48  C   UNL A   1      39.040  31.298  33.167  1.00  0.00     0.049 A 
ATOM     49  H   UNL A   1      39.995  30.119  31.739  1.00  0.00     0.167 HD
ATOM     50  C   UNL A   1      41.682  27.363  28.780  1.00  0.00     0.034 A 
ATOM     51  C   UNL A   1      39.782  31.243  34.291  1.00  0.00     0.034 A 
ATOM     52  C   UNL A   1      42.611  27.358  29.876  1.00  0.00     0.049 A 
ATOM     53  C   UNL A   1      41.048  30.429  34.288  1.00  0.00     0.074 A 
ATOM     54  C   UNL A   1      43.815  26.685  29.980  1.00  0.00     0.029 A 
ATOM     55  N   UNL A   1      42.444  28.064  31.058  1.00  0.00    -0.354 N 
ATOM     56  N   UNL A   1      41.572  29.720  33.317  1.00  0.00    -0.248 NA
ATOM     57  C   UNL A   1      41.848  30.438  35.522  1.00  0.00     0.031 C 
ATOM     58  C   UNL A   1      44.374  26.980  31.229  1.00  0.00     0.029 A 
ATOM     59  C   UNL A   1      43.523  27.847  31.895  1.00  0.00     0.049 A 
ATOM     60  H   UNL A   1      41.671  28.636  31.269  1.00  0.00     0.167 HD
ATOM     61  C   UNL A   1      42.777  29.232  33.808  1.00  0.00     0.074 A 
ATOM     62  C   UNL A   1      42.917  29.744  35.157  1.00  0.00     0.031 C 
ATOM     63  C   UNL A   1      43.679  28.420  33.207  1.00  0.00     0.034 A 
BRANCH  50  64
ATOM     64  C   UNL A   1      42.010  26.536  27.566  1.00  0.00     0.023 A 
ATOM     65  C   UNL A   1      42.639  27.153  26.464  1.00  0.00     0.012 A 
ATOM     66  C   UNL A   1      41.766  25.149  27.535  1.00  0.00     0.148 A 
ATOM     67  C   UNL A   1      42.993  26.410  25.339  1.00  0.00     0.002 A 
ATOM     68  C   UNL A   1      42.159  24.408  26.427  1.00  0.00     0.091 A 
ATOM     69  F   UNL A   1      41.150  24.585  28.584  1.00  0.00    -0.205 F 
ATOM     70  C   UNL A   1      42.763  25.038  25.325  1.00  0.00     0.022 A 
BRANCH  68  71
ATOM     71  S   UNL A   1      41.975  22.623  26.337  1.00  0.00     0.127 S 
ATOM     72  O   UNL A   1      40.521  22.477  26.316  1.00  0.00    -0.237 OA
ATOM     73  O   UNL A   1      42.638  22.309  25.071  1.00  0.00    -0.237 OA
ATOM     74  O   UNL A   1      42.638  22.091  27.519  1.00  0.00    -0.744 OA
ENDBRANCH  68  71
ENDBRANCH  50  64
BRANCH  51  75
ATOM     75  C   UNL A   1      39.393  32.039  35.489  1.00  0.00     0.023 A 
ATOM     76  C   UNL A   1      39.818  33.378  35.593  1.00  0.00     0.012 A 
ATOM     77  C   UNL A   1      38.603  31.490  36.517  1.00  0.00     0.148 A 
ATOM     78  C   UNL A   1      39.498  34.143  36.715  1.00  0.00     0.002 A 
ATOM     79  C   UNL A   1      38.241  32.275  37.607  1.00  0.00     0.091 A 
ATOM     80  F   UNL A   1      38.218  30.209  36.412  1.00  0.00    -0.205 F 
ATOM     81  C   UNL A   1      38.702  33.595  37.717  1.00  0.00     0.022 A 
BRANCH  79  82
ATOM     82  S   UNL A   1      37.112  31.684  38.874  1.00  0.00     0.127 S 
ATOM     83  O   UNL A   1      36.876  30.307  38.448  1.00  0.00    -0.237 OA
ATOM     84  O   UNL A   1      37.913  31.824  40.090  1.00  0.00    -0.237 OA
ATOM     85  O   UNL A   1      35.964  32.579  38.812  1.00  0.00    -0.744 OA
ENDBRANCH  79  82
ENDBRANCH  51  75
BRANCH  63  86
ATOM     86  C   UNL A   1      44.921  28.059  33.978  1.00  0.00     0.023 A 
ATOM     87  C   UNL A   1      46.050  28.901  33.915  1.00  0.00     0.012 A 
ATOM     88  C   UNL A   1      44.941  26.934  34.824  1.00  0.00     0.148 A 
ATOM     89  C   UNL A   1      47.190  28.610  34.664  1.00  0.00     0.002 A 
ATOM     90  C   UNL A   1      46.063  26.676  35.601  1.00  0.00     0.091 A 
ATOM     91  F   UNL A   1      43.863  26.136  34.853  1.00  0.00    -0.205 F 
ATOM     92  C   UNL A   1      47.192  27.508  35.515  1.00  0.00     0.022 A 
BRANCH  90  93
ATOM     93  S   UNL A   1      46.119  25.334  36.793  1.00  0.00     0.127 S 
ATOM     94  O   UNL A   1      45.937  24.165  35.935  1.00  0.00    -0.237 OA
ATOM     95  O   UNL A   1      47.463  25.473  37.356  1.00  0.00    -0.237 OA
ATOM     96  O   UNL A   1      45.041  25.593  37.738  1.00  0.00    -0.744 OA
ENDBRANCH  90  93
ENDBRANCH  63  86
ENDBRANCH  37  38
ENDBRANCH  29  32
ENDBRANCH  27  28
ENDBRANCH  26  27
ENDBRANCH   1  26
TORSDOF 17
ENDMDL
MODEL 2
REMARK VINA RESULT:     -11.8      5.253      7.657
REMARK SMILES C[C@@]1(C(=O)NCCCCNC(=O)c2ccc(-c3c4nc(c(-c5cccc(S(=O)(=O)[O-])c5F)c5ccc([nH]5)c(-c5cccc(S(=O)(=O)[O-])c5F)c5nc(c(-c6cccc(S(=O)(=O)[O-])c6F)c6ccc3[nH]6)C=C5)C=C4)cc2)COC[C@H]1NC(=O)C[C@@H]1C[NH2+]CCO1
REMARK SMILES IDX 7 1 6 2 5 3 3 4 4 5 2 7 1 8 76 9 79 10 77 11 78 12 80 13
REMARK SMILES IDX 81 14 82 16 83 17 84 18 85 19 89 20 86 21 88 22 87 23 8 26
REMARK SMILES IDX 9 27 10 28 11 29 12 31 13 32 14 33 75 34 15 35 74 36 16 37
REMARK SMILES IDX 17 38 18 39 68 40 19 41 73 42 67 43 69 44 20 45 72 46 66 47
REMARK SMILES IDX 65 48 21 50 53 51 33 52 52 53 34 54 37 55 51 56 70 57 35 58
REMARK SMILES IDX 36 59 50 61 71 62 38 63 22 64 23 65 31 66 24 67 26 68 32 69
REMARK SMILES IDX 25 70 27 71 28 72 29 73 30 74 54 75 55 76 63 77 56 78 58 79
REMARK SMILES IDX 64 80 57 81 59 82 60 83 61 84 62 85 39 86 40 87 48 88 41 89
REMARK SMILES IDX 43 90 49 91 42 92 44 93 45 94 46 95 47 96
REMARK H PARENT 5 6 80 15 86 24 86 25 10 30 69 49 37 60
REMARK Flexibility Score: inf
ROOT
ATOM      1  C   UNL A   1      35.439  20.538  25.006  1.00  0.00     0.023 C 
ENDROOT
BRANCH   1   2
ATOM      2  C   UNL A   1      34.021  20.939  25.403  1.00  0.00     0.116 C 
BRANCH   2   3
ATOM      3  N   UNL A   1      33.376  21.705  24.356  1.00  0.00    -0.355 N 
ATOM      4  C   UNL A   1      32.771  22.916  24.320  1.00  0.00     0.230 C 
ATOM      5  O   UNL A   1      32.325  23.238  23.210  1.00  0.00    -0.274 OA
ATOM      6  H   UNL A   1      33.378  21.248  23.483  1.00  0.00     0.163 HD
BRANCH   4   7
ATOM      7  C   UNL A   1      32.562  23.846  25.537  1.00  0.00     0.092 C 
ATOM      8  C   UNL A   1      33.874  24.662  25.688  1.00  0.00     0.026 C 
ATOM      9  C   UNL A   1      32.333  23.092  26.843  1.00  0.00     0.179 C 
ATOM     10  C   UNL A   1      31.308  24.722  25.363  1.00  0.00     0.125 C 
ATOM     11  O   UNL A   1      31.010  23.367  27.321  1.00  0.00    -0.378 OA
ATOM     12  C   UNL A   1      30.307  24.175  26.376  1.00  0.00     0.186 C 
BRANCH  10  13
ATOM     13  N   UNL A   1      31.537  26.150  25.638  1.00  0.00    -0.350 N 
ATOM     14  C   UNL A   1      31.148  27.249  24.930  1.00  0.00     0.223 C 
ATOM     15  H   UNL A   1      32.046  26.341  26.459  1.00  0.00     0.163 HD
ATOM     16  O   UNL A   1      31.434  28.363  25.368  1.00  0.00    -0.275 OA
BRANCH  14  17
ATOM     17  C   UNL A   1      30.388  27.080  23.637  1.00  0.00     0.138 C 
BRANCH  17  18
ATOM     18  C   UNL A   1      29.641  28.355  23.267  1.00  0.00     0.182 C 
ATOM     19  C   UNL A   1      28.120  28.142  23.148  1.00  0.00     0.293 C 
ATOM     20  O   UNL A   1      30.177  28.843  22.024  1.00  0.00    -0.366 OA
ATOM     21  N   UNL A   1      27.433  29.411  22.835  1.00  0.00    -0.342 N 
ATOM     22  C   UNL A   1      29.567  30.100  21.687  1.00  0.00     0.222 C 
ATOM     23  C   UNL A   1      28.035  29.984  21.612  1.00  0.00     0.289 C 
ATOM     24  H   UNL A   1      27.546  30.063  23.612  1.00  0.00     0.346 HD
ATOM     25  H   UNL A   1      26.439  29.242  22.688  1.00  0.00     0.346 HD
ENDBRANCH  17  18
ENDBRANCH  14  17
ENDBRANCH  10  13
ENDBRANCH   4   7
ENDBRANCH   2   3
ENDBRANCH   1   2
BRANCH   1  26
ATOM     26  C   UNL A   1      36.339  21.712  24.609  1.00  0.00     0.023 C 
BRANCH  26  27
ATOM     27  C   UNL A   1      37.320  22.177  25.683  1.00  0.00     0.116 C 
BRANCH  27  28
ATOM     28  N   UNL A   1      38.389  21.222  25.945  1.00  0.00    -0.352 N 
ATOM     29  C   UNL A   1      39.643  21.460  26.461  1.00  0.00     0.251 C 
ATOM     30  H   UNL A   1      38.189  20.284  25.723  1.00  0.00     0.163 HD
ATOM     31  O   UNL A   1      40.468  20.560  26.526  1.00  0.00    -0.269 OA
BRANCH  29  32
ATOM     32  C   UNL A   1      39.986  22.829  26.902  1.00  0.00     0.039 A 
ATOM     33  C   UNL A   1      40.845  22.991  27.992  1.00  0.00     0.014 A 
ATOM     34  C   UNL A   1      39.504  23.940  26.207  1.00  0.00     0.014 A 
ATOM     35  C   UNL A   1      41.281  24.271  28.339  1.00  0.00     0.010 A 
ATOM     36  C   UNL A   1      39.991  25.205  26.512  1.00  0.00     0.010 A 
ATOM     37  C   UNL A   1      40.888  25.385  27.576  1.00  0.00    -0.014 A 
BRANCH  37  38
ATOM     38  C   UNL A   1      41.417  26.742  27.860  1.00  0.00     0.031 A 
ATOM     39  C   UNL A   1      42.855  27.070  27.564  1.00  0.00     0.074 A 
ATOM     40  C   UNL A   1      40.627  27.649  28.472  1.00  0.00     0.049 A 
ATOM     41  N   UNL A   1      43.519  28.168  27.816  1.00  0.00    -0.248 NA
ATOM     42  C   UNL A   1      43.660  26.016  26.923  1.00  0.00     0.031 C 
ATOM     43  C   UNL A   1      39.239  27.424  28.883  1.00  0.00     0.029 A 
ATOM     44  N   UNL A   1      40.889  28.931  28.884  1.00  0.00    -0.354 N 
ATOM     45  C   UNL A   1      44.821  27.928  27.399  1.00  0.00     0.074 A 
ATOM     46  C   UNL A   1      44.865  26.567  26.908  1.00  0.00     0.031 C 
ATOM     47  C   UNL A   1      38.772  28.531  29.482  1.00  0.00     0.029 A 
ATOM     48  C   UNL A   1      39.831  29.534  29.525  1.00  0.00     0.049 A 
ATOM     49  H   UNL A   1      41.754  29.379  28.735  1.00  0.00     0.167 HD
ATOM     50  C   UNL A   1      45.879  28.774  27.389  1.00  0.00     0.034 A 
ATOM     51  C   UNL A   1      39.728  30.755  30.086  1.00  0.00     0.034 A 
ATOM     52  C   UNL A   1      45.819  30.141  27.827  1.00  0.00     0.049 A 
ATOM     53  C   UNL A   1      40.908  31.688  30.022  1.00  0.00     0.074 A 
ATOM     54  C   UNL A   1      46.816  31.100  27.791  1.00  0.00     0.029 A 
ATOM     55  N   UNL A   1      44.701  30.747  28.379  1.00  0.00    -0.354 N 
ATOM     56  N   UNL A   1      42.088  31.491  29.486  1.00  0.00    -0.248 NA
ATOM     57  C   UNL A   1      40.731  33.025  30.608  1.00  0.00     0.031 C 
ATOM     58  C   UNL A   1      46.301  32.285  28.326  1.00  0.00     0.029 A 
ATOM     59  C   UNL A   1      44.980  32.067  28.683  1.00  0.00     0.049 A 
ATOM     60  H   UNL A   1      43.836  30.302  28.531  1.00  0.00     0.167 HD
ATOM     61  C   UNL A   1      42.778  32.689  29.633  1.00  0.00     0.074 A 
ATOM     62  C   UNL A   1      41.877  33.613  30.291  1.00  0.00     0.031 C 
ATOM     63  C   UNL A   1      44.049  32.993  29.274  1.00  0.00     0.034 A 
BRANCH  50  64
ATOM     64  C   UNL A   1      47.175  28.267  26.815  1.00  0.00     0.023 A 
ATOM     65  C   UNL A   1      48.234  27.946  27.690  1.00  0.00     0.012 A 
ATOM     66  C   UNL A   1      47.327  28.042  25.433  1.00  0.00     0.148 A 
ATOM     67  C   UNL A   1      49.435  27.437  27.197  1.00  0.00     0.002 A 
ATOM     68  C   UNL A   1      48.512  27.496  24.954  1.00  0.00     0.091 A 
ATOM     69  F   UNL A   1      46.316  28.372  24.617  1.00  0.00    -0.205 F 
ATOM     70  C   UNL A   1      49.569  27.203  25.832  1.00  0.00     0.022 A 
BRANCH  68  71
ATOM     71  S   UNL A   1      48.762  27.086  23.222  1.00  0.00     0.127 S 
ATOM     72  O   UNL A   1      48.116  25.778  23.133  1.00  0.00    -0.237 OA
ATOM     73  O   UNL A   1      48.044  28.167  22.543  1.00  0.00    -0.237 OA
ATOM     74  O   UNL A   1      50.202  27.087  23.013  1.00  0.00    -0.744 OA
ENDBRANCH  68  71
ENDBRANCH  50  64
BRANCH  51  75
ATOM     75  C   UNL A   1      38.440  31.199  30.689  1.00  0.00     0.023 A 
ATOM     76  C   UNL A   1      38.227  31.016  32.070  1.00  0.00     0.012 A 
ATOM     77  C   UNL A   1      37.432  31.808  29.916  1.00  0.00     0.148 A 
ATOM     78  C   UNL A   1      37.022  31.392  32.662  1.00  0.00     0.002 A 
ATOM     79  C   UNL A   1      36.254  32.230  30.523  1.00  0.00     0.091 A 
ATOM     80  F   UNL A   1      37.643  31.962  28.601  1.00  0.00    -0.205 F 
ATOM     81  C   UNL A   1      36.039  32.007  31.892  1.00  0.00     0.022 A 
BRANCH  79  82
ATOM     82  S   UNL A   1      34.996  33.147  29.626  1.00  0.00     0.127 S 
ATOM     83  O   UNL A   1      35.781  34.217  29.016  1.00  0.00    -0.237 OA
ATOM     84  O   UNL A   1      34.492  32.141  28.690  1.00  0.00    -0.237 OA
ATOM     85  O   UNL A   1      34.028  33.558  30.634  1.00  0.00    -0.744 OA
ENDBRANCH  79  82
ENDBRANCH  51  75
BRANCH  63  86
ATOM     86  C   UNL A   1      44.537  34.391  29.542  1.00  0.00     0.023 A 
ATOM     87  C   UNL A   1      45.231  34.670  30.736  1.00  0.00     0.012 A 
ATOM     88  C   UNL A   1      44.378  35.406  28.579  1.00  0.00     0.148 A 
ATOM     89  C   UNL A   1      45.736  35.948  30.978  1.00  0.00     0.002 A 
ATOM     90  C   UNL A   1      44.923  36.663  28.806  1.00  0.00     0.091 A 
ATOM     91  F   UNL A   1      43.696  35.123  27.458  1.00  0.00    -0.205 F 
ATOM     92  C   UNL A   1      45.594  36.939  30.009  1.00  0.00     0.022 A 
BRANCH  90  93
ATOM     93  S   UNL A   1      44.869  37.971  27.576  1.00  0.00     0.127 S 
ATOM     94  O   UNL A   1      45.040  39.165  28.402  1.00  0.00    -0.237 OA
ATOM     95  O   UNL A   1      46.017  37.648  26.728  1.00  0.00    -0.237 OA
ATOM     96  O   UNL A   1      43.578  37.844  26.914  1.00  0.00    -0.744 OA
ENDBRANCH  90  93
ENDBRANCH  63  86
ENDBRANCH  37  38
ENDBRANCH  29  32
ENDBRANCH  27  28
ENDBRANCH  26  27
ENDBRANCH   1  26
TORSDOF 17
ENDMDL
MODEL 3
REMARK VINA RESULT:     -11.8      5.796     10.940
REMARK SMILES C[C@@]1(C(=O)NCCCCNC(=O)c2ccc(-c3c4nc(c(-c5cccc(S(=O)(=O)[O-])c5F)c5ccc([nH]5)c(-c5cccc(S(=O)(=O)[O-])c5F)c5nc(c(-c6cccc(S(=O)(=O)[O-])c6F)c6ccc3[nH]6)C=C5)C=C4)cc2)COC[C@H]1NC(=O)C[C@@H]1C[NH2+]CCO1
REMARK SMILES IDX 7 1 6 2 5 3 3 4 4 5 2 7 1 8 76 9 79 10 77 11 78 12 80 13
REMARK SMILES IDX 81 14 82 16 83 17 84 18 85 19 89 20 86 21 88 22 87 23 8 26
REMARK SMILES IDX 9 27 10 28 11 29 12 31 13 32 14 33 75 34 15 35 74 36 16 37
REMARK SMILES IDX 17 38 18 39 68 40 19 41 73 42 67 43 69 44 20 45 72 46 66 47
REMARK SMILES IDX 65 48 21 50 53 51 33 52 52 53 34 54 37 55 51 56 70 57 35 58
REMARK SMILES IDX 36 59 50 61 71 62 38 63 22 64 23 65 31 66 24 67 26 68 32 69
REMARK SMILES IDX 25 70 27 71 28 72 29 73 30 74 54 75 55 76 63 77 56 78 58 79
REMARK SMILES IDX 64 80 57 81 59 82 60 83 61 84 62 85 39 86 40 87 48 88 41 89
REMARK SMILES IDX 43 90 49 91 42 92 44 93 45 94 46 95 47 96
REMARK H PARENT 5 6 80 15 86 24 86 25 10 30 69 49 37 60
REMARK Flexibility Score: inf
ROOT
ATOM      1  C   UNL A   1      36.994  20.371  24.522  1.00  0.00     0.023 C 
ENDROOT
BRANCH   1   2
ATOM      2  C   UNL A   1      36.099  20.918  25.630  1.00  0.00     0.116 C 
BRANCH   2   3
ATOM      3  N   UNL A   1      36.449  22.284  25.966  1.00  0.00    -0.355 N 
ATOM      4  C   UNL A   1      35.959  23.492  25.599  1.00  0.00     0.230 C 
ATOM      5  O   UNL A   1      36.539  24.461  26.109  1.00  0.00    -0.274 OA
ATOM      6  H   UNL A   1      37.203  22.347  26.596  1.00  0.00     0.163 HD
BRANCH   4   7
ATOM      7  C   UNL A   1      34.817  23.721  24.584  1.00  0.00     0.092 C 
ATOM      8  C   UNL A   1      35.407  23.395  23.187  1.00  0.00     0.026 C 
ATOM      9  C   UNL A   1      34.314  25.160  24.550  1.00  0.00     0.179 C 
ATOM     10  C   UNL A   1      33.576  22.881  24.940  1.00  0.00     0.125 C 
ATOM     11  O   UNL A   1      32.953  25.197  24.995  1.00  0.00    -0.378 OA
ATOM     12  C   UNL A   1      32.540  23.895  25.415  1.00  0.00     0.186 C 
BRANCH  10  13
ATOM     13  N   UNL A   1      33.022  22.126  23.804  1.00  0.00    -0.350 N 
ATOM     14  C   UNL A   1      32.530  20.855  23.756  1.00  0.00     0.223 C 
ATOM     15  H   UNL A   1      33.003  22.613  22.948  1.00  0.00     0.163 HD
ATOM     16  O   UNL A   1      32.090  20.433  22.687  1.00  0.00    -0.275 OA
BRANCH  14  17
ATOM     17  C   UNL A   1      32.536  19.999  24.999  1.00  0.00     0.138 C 
BRANCH  17  18
ATOM     18  C   UNL A   1      32.777  18.534  24.659  1.00  0.00     0.182 C 
ATOM     19  C   UNL A   1      32.535  17.596  25.856  1.00  0.00     0.293 C 
ATOM     20  O   UNL A   1      34.128  18.401  24.183  1.00  0.00    -0.366 OA
ATOM     21  N   UNL A   1      32.733  16.185  25.468  1.00  0.00    -0.342 N 
ATOM     22  C   UNL A   1      34.366  17.049  23.755  1.00  0.00     0.222 C 
ATOM     23  C   UNL A   1      34.084  16.041  24.883  1.00  0.00     0.289 C 
ATOM     24  H   UNL A   1      32.030  15.916  24.779  1.00  0.00     0.346 HD
ATOM     25  H   UNL A   1      32.642  15.583  26.285  1.00  0.00     0.346 HD
ENDBRANCH  17  18
ENDBRANCH  14  17
ENDBRANCH  10  13
ENDBRANCH   4   7
ENDBRANCH   2   3
ENDBRANCH   1   2
BRANCH   1  26
ATOM     26  C   UNL A   1      38.075  19.400  25.006  1.00  0.00     0.023 C 
BRANCH  26  27
ATOM     27  C   UNL A   1      39.129  20.002  25.933  1.00  0.00     0.116 C 
BRANCH  27  28
ATOM     28  N   UNL A   1      40.341  19.199  26.031  1.00  0.00    -0.352 N 
ATOM     29  C   UNL A   1      41.621  19.614  26.320  1.00  0.00     0.251 C 
ATOM     30  H   UNL A   1      40.230  18.235  25.870  1.00  0.00     0.163 HD
ATOM     31  O   UNL A   1      42.556  18.827  26.266  1.00  0.00    -0.269 OA
BRANCH  29  32
ATOM     32  C   UNL A   1      41.853  21.034  26.663  1.00  0.00     0.039 A 
ATOM     33  C   UNL A   1      42.283  21.355  27.953  1.00  0.00     0.014 A 
ATOM     34  C   UNL A   1      41.698  22.030  25.698  1.00  0.00     0.014 A 
ATOM     35  C   UNL A   1      42.630  22.674  28.253  1.00  0.00     0.010 A 
ATOM     36  C   UNL A   1      42.106  23.329  25.980  1.00  0.00     0.010 A 
ATOM     37  C   UNL A   1      42.582  23.664  27.257  1.00  0.00    -0.014 A 
BRANCH  37  38
ATOM     38  C   UNL A   1      43.041  25.050  27.520  1.00  0.00     0.031 A 
ATOM     39  C   UNL A   1      42.110  26.046  28.156  1.00  0.00     0.074 A 
ATOM     40  C   UNL A   1      44.263  25.438  27.099  1.00  0.00     0.049 A 
ATOM     41  N   UNL A   1      42.299  27.319  28.389  1.00  0.00    -0.248 NA
ATOM     42  C   UNL A   1      40.781  25.553  28.558  1.00  0.00     0.031 C 
ATOM     43  C   UNL A   1      45.228  24.586  26.399  1.00  0.00     0.029 A 
ATOM     44  N   UNL A   1      44.890  26.656  27.171  1.00  0.00    -0.354 N 
ATOM     45  C   UNL A   1      41.109  27.786  28.932  1.00  0.00     0.074 A 
ATOM     46  C   UNL A   1      40.190  26.668  28.962  1.00  0.00     0.031 C 
ATOM     47  C   UNL A   1      46.324  25.306  26.111  1.00  0.00     0.029 A 
ATOM     48  C   UNL A   1      46.132  26.675  26.580  1.00  0.00     0.049 A 
ATOM     49  H   UNL A   1      44.489  27.443  27.606  1.00  0.00     0.167 HD
ATOM     50  C   UNL A   1      40.817  29.023  29.399  1.00  0.00     0.034 A 
ATOM     51  C   UNL A   1      47.014  27.683  26.428  1.00  0.00     0.034 A 
ATOM     52  C   UNL A   1      41.749  30.117  29.417  1.00  0.00     0.049 A 
ATOM     53  C   UNL A   1      46.678  29.036  26.995  1.00  0.00     0.074 A 
ATOM     54  C   UNL A   1      41.573  31.388  29.933  1.00  0.00     0.029 A 
ATOM     55  N   UNL A   1      43.033  30.070  28.898  1.00  0.00    -0.354 N 
ATOM     56  N   UNL A   1      45.602  29.417  27.641  1.00  0.00    -0.248 NA
ATOM     57  C   UNL A   1      47.692  30.091  26.845  1.00  0.00     0.031 C 
ATOM     58  C   UNL A   1      42.751  32.112  29.722  1.00  0.00     0.029 A 
ATOM     59  C   UNL A   1      43.664  31.286  29.086  1.00  0.00     0.049 A 
ATOM     60  H   UNL A   1      43.437  29.285  28.461  1.00  0.00     0.167 HD
ATOM     61  C   UNL A   1      45.827  30.739  28.009  1.00  0.00     0.074 A 
ATOM     62  C   UNL A   1      47.149  31.088  27.531  1.00  0.00     0.031 C 
ATOM     63  C   UNL A   1      45.006  31.594  28.665  1.00  0.00     0.034 A 
BRANCH  50  64
ATOM     64  C   UNL A   1      39.454  29.240  30.001  1.00  0.00     0.023 A 
ATOM     65  C   UNL A   1      39.211  28.811  31.323  1.00  0.00     0.012 A 
ATOM     66  C   UNL A   1      38.442  29.921  29.298  1.00  0.00     0.148 A 
ATOM     67  C   UNL A   1      37.974  29.031  31.926  1.00  0.00     0.002 A 
ATOM     68  C   UNL A   1      37.225  30.172  29.921  1.00  0.00     0.091 A 
ATOM     69  F   UNL A   1      38.686  30.303  28.036  1.00  0.00    -0.205 F 
ATOM     70  C   UNL A   1      36.986  29.720  31.230  1.00  0.00     0.022 A 
BRANCH  68  71
ATOM     71  S   UNL A   1      35.910  31.115  29.139  1.00  0.00     0.127 S 
ATOM     72  O   UNL A   1      35.266  30.095  28.314  1.00  0.00    -0.237 OA
ATOM     73  O   UNL A   1      35.120  31.555  30.290  1.00  0.00    -0.237 OA
ATOM     74  O   UNL A   1      36.567  32.188  28.405  1.00  0.00    -0.744 OA
ENDBRANCH  68  71
ENDBRANCH  50  64
BRANCH  51  75
ATOM     75  C   UNL A   1      48.333  27.437  25.780  1.00  0.00     0.023 A 
ATOM     76  C   UNL A   1      49.433  27.063  26.578  1.00  0.00     0.012 A 
ATOM     77  C   UNL A   1      48.508  27.558  24.388  1.00  0.00     0.148 A 
ATOM     78  C   UNL A   1      50.689  26.854  26.009  1.00  0.00     0.002 A 
ATOM     79  C   UNL A   1      49.750  27.295  23.820  1.00  0.00     0.091 A 
ATOM     80  F   UNL A   1      47.456  27.929  23.644  1.00  0.00    -0.205 F 
ATOM     81  C   UNL A   1      50.846  26.961  24.630  1.00  0.00     0.022 A 
BRANCH  79  82
ATOM     82  S   UNL A   1      50.000  27.283  22.041  1.00  0.00     0.127 S 
ATOM     83  O   UNL A   1      48.961  26.358  21.597  1.00  0.00    -0.237 OA
ATOM     84  O   UNL A   1      49.769  28.685  21.688  1.00  0.00    -0.237 OA
ATOM     85  O   UNL A   1      51.375  26.842  21.850  1.00  0.00    -0.744 OA
ENDBRANCH  79  82
ENDBRANCH  51  75
BRANCH  63  86
ATOM     86  C   UNL A   1      45.521  32.980  28.948  1.00  0.00     0.023 A 
ATOM     87  C   UNL A   1      46.286  33.217  30.107  1.00  0.00     0.012 A 
ATOM     88  C   UNL A   1      45.314  34.026  28.028  1.00  0.00     0.148 A 
ATOM     89  C   UNL A   1      46.815  34.483  30.358  1.00  0.00     0.002 A 
ATOM     90  C   UNL A   1      45.882  35.272  28.261  1.00  0.00     0.091 A 
ATOM     91  F   UNL A   1      44.565  33.783  26.941  1.00  0.00    -0.205 F 
ATOM     92  C   UNL A   1      46.624  35.505  29.431  1.00  0.00     0.022 A 
BRANCH  90  93
ATOM     93  S   UNL A   1      45.766  36.618  27.078  1.00  0.00     0.127 S 
ATOM     94  O   UNL A   1      46.549  37.662  27.736  1.00  0.00    -0.237 OA
ATOM     95  O   UNL A   1      46.397  36.042  25.889  1.00  0.00    -0.237 OA
ATOM     96  O   UNL A   1      44.345  36.898  26.929  1.00  0.00    -0.744 OA
ENDBRANCH  90  93
ENDBRANCH  63  86
ENDBRANCH  37  38
ENDBRANCH  29  32
ENDBRANCH  27  28
ENDBRANCH  26  27
ENDBRANCH   1  26
TORSDOF 17
ENDMDL
