MODEL 1
REMARK VINA RESULT:     -11.8      0.000      0.000
REMARK SMILES Cc1cccc([C@@H](CC(=O)NCCCCNC(=O)c2ccc(-c3c4nc(c(-c5cccc(S(=O)(=O)[O-])c5F)c5ccc([nH]5)c(-c5cccc(S(=O)(=O)[O-])c5F)c5nc(c(-c6cccc(S(=O)(=O)[O-])c6F)c6ccc3[nH]6)C=C5)C=C4)cc2)NC(=O)OC(C)(C)C)c1
REMARK SMILES IDX 13 1 12 2 11 3 9 4 10 5 8 7 7 8 6 9 1 10 2 11 3 12 90 13
REMARK SMILES IDX 4 14 5 15 82 16 83 17 84 19 85 20 86 21 87 22 88 23 89 24
REMARK SMILES IDX 14 25 15 26 16 27 17 28 18 30 19 31 20 32 81 33 21 34 80 35
REMARK SMILES IDX 22 36 23 37 24 38 74 39 25 40 79 41 73 42 75 43 26 44 78 45
REMARK SMILES IDX 72 46 71 47 27 49 59 50 39 51 58 52 40 53 43 54 57 55 76 56
REMARK SMILES IDX 41 57 42 58 56 60 77 61 44 62 28 63 29 64 37 65 30 66 32 67
REMARK SMILES IDX 38 68 31 69 33 70 34 71 35 72 36 73 60 74 61 75 69 76 62 77
REMARK SMILES IDX 64 78 70 79 63 80 65 81 66 82 67 83 68 84 45 85 46 86 54 87
REMARK SMILES IDX 47 88 49 89 55 90 48 91 50 92 51 93 52 94 53 95
REMARK H PARENT 11 6 82 18 16 29 75 48 43 59
REMARK Flexibility Score: inf
ROOT
ATOM      1  C   UNL A   1      35.400  22.412  26.104  1.00  0.00     0.023 C 
ENDROOT
BRANCH   1   2
ATOM      2  C   UNL A   1      34.169  22.331  27.002  1.00  0.00     0.116 C 
BRANCH   2   3
ATOM      3  N   UNL A   1      32.979  22.147  26.190  1.00  0.00    -0.356 N 
ATOM      4  C   UNL A   1      31.958  23.025  25.971  1.00  0.00     0.222 C 
ATOM      5  O   UNL A   1      30.887  22.572  25.560  1.00  0.00    -0.275 OA
ATOM      6  H   UNL A   1      32.898  21.276  25.740  1.00  0.00     0.163 HD
BRANCH   4   7
ATOM      7  C   UNL A   1      32.135  24.523  26.184  1.00  0.00     0.130 C 
BRANCH   7   8
ATOM      8  C   UNL A   1      30.939  25.441  25.841  1.00  0.00     0.125 C 
BRANCH   8   9
ATOM      9  C   UNL A   1      30.913  25.998  24.415  1.00  0.00    -0.025 A 
ATOM     10  C   UNL A   1      32.759  25.474  21.102  1.00  0.00     0.044 C 
ATOM     11  C   UNL A   1      31.854  26.051  22.151  1.00  0.00    -0.051 A 
ATOM     12  C   UNL A   1      31.056  27.157  21.843  1.00  0.00     0.003 A 
ATOM     13  C   UNL A   1      31.811  25.509  23.448  1.00  0.00     0.009 A 
ATOM     14  C   UNL A   1      30.115  27.609  22.760  1.00  0.00     0.001 A 
ATOM     15  C   UNL A   1      30.007  26.995  24.011  1.00  0.00     0.006 A 
ENDBRANCH   8   9
BRANCH   8  16
ATOM     16  N   UNL A   1      30.740  26.478  26.839  1.00  0.00    -0.314 N 
ATOM     17  C   UNL A   1      31.648  27.412  27.243  1.00  0.00     0.408 C 
ATOM     18  H   UNL A   1      29.856  26.510  27.270  1.00  0.00     0.167 HD
ATOM     19  O   UNL A   1      31.438  28.129  28.197  1.00  0.00    -0.225 OA
BRANCH  17  20
ATOM     20  O   UNL A   1      32.751  27.427  26.453  1.00  0.00    -0.444 OA
BRANCH  20  21
ATOM     21  C   UNL A   1      33.156  28.642  25.784  1.00  0.00     0.106 C 
ATOM     22  C   UNL A   1      33.837  28.349  24.442  1.00  0.00     0.056 C 
ATOM     23  C   UNL A   1      31.968  29.598  25.639  1.00  0.00     0.056 C 
ATOM     24  C   UNL A   1      34.192  29.276  26.725  1.00  0.00     0.056 C 
ENDBRANCH  20  21
ENDBRANCH  17  20
ENDBRANCH   8  16
ENDBRANCH   7   8
ENDBRANCH   4   7
ENDBRANCH   2   3
ENDBRANCH   1   2
BRANCH   1  25
ATOM     25  C   UNL A   1      36.316  23.637  26.139  1.00  0.00     0.023 C 
BRANCH  25  26
ATOM     26  C   UNL A   1      37.723  23.415  25.610  1.00  0.00     0.116 C 
BRANCH  26  27
ATOM     27  N   UNL A   1      38.603  22.706  26.564  1.00  0.00    -0.352 N 
ATOM     28  C   UNL A   1      39.802  23.131  27.141  1.00  0.00     0.251 C 
ATOM     29  H   UNL A   1      38.301  21.807  26.832  1.00  0.00     0.163 HD
ATOM     30  O   UNL A   1      40.616  22.311  27.542  1.00  0.00    -0.269 OA
BRANCH  28  31
ATOM     31  C   UNL A   1      39.985  24.582  27.321  1.00  0.00     0.039 A 
ATOM     32  C   UNL A   1      40.436  25.519  26.388  1.00  0.00     0.014 A 
ATOM     33  C   UNL A   1      39.678  24.991  28.599  1.00  0.00     0.014 A 
ATOM     34  C   UNL A   1      40.569  26.848  26.808  1.00  0.00     0.010 A 
ATOM     35  C   UNL A   1      39.318  26.270  28.795  1.00  0.00     0.010 A 
ATOM     36  C   UNL A   1      40.033  27.184  28.047  1.00  0.00    -0.014 A 
BRANCH  36  37
ATOM     37  C   UNL A   1      40.227  28.383  28.833  1.00  0.00     0.031 A 
ATOM     38  C   UNL A   1      39.265  29.467  28.717  1.00  0.00     0.074 A 
ATOM     39  C   UNL A   1      41.058  28.213  29.893  1.00  0.00     0.049 A 
ATOM     40  N   UNL A   1      39.501  30.663  29.110  1.00  0.00    -0.248 NA
ATOM     41  C   UNL A   1      37.937  29.276  28.145  1.00  0.00     0.031 C 
ATOM     42  C   UNL A   1      41.049  28.827  31.211  1.00  0.00     0.029 A 
ATOM     43  N   UNL A   1      42.085  27.289  30.019  1.00  0.00    -0.354 N 
ATOM     44  C   UNL A   1      38.274  31.278  29.189  1.00  0.00     0.074 A 
ATOM     45  C   UNL A   1      37.371  30.456  28.416  1.00  0.00     0.031 C 
ATOM     46  C   UNL A   1      42.168  28.462  31.874  1.00  0.00     0.029 A 
ATOM     47  C   UNL A   1      43.012  27.720  30.948  1.00  0.00     0.049 A 
ATOM     48  H   UNL A   1      42.146  26.445  29.515  1.00  0.00     0.167 HD
ATOM     49  C   UNL A   1      38.091  32.250  30.122  1.00  0.00     0.034 A 
ATOM     50  C   UNL A   1      44.237  28.107  30.470  1.00  0.00     0.034 A 
ATOM     51  C   UNL A   1      39.298  32.373  30.965  1.00  0.00     0.049 A 
ATOM     52  C   UNL A   1      44.379  29.619  30.502  1.00  0.00     0.074 A 
ATOM     53  C   UNL A   1      39.617  31.885  32.224  1.00  0.00     0.029 A 
ATOM     54  N   UNL A   1      40.508  32.738  30.382  1.00  0.00    -0.354 N 
ATOM     55  N   UNL A   1      43.407  30.443  30.781  1.00  0.00    -0.248 NA
ATOM     56  C   UNL A   1      45.635  30.318  30.277  1.00  0.00     0.031 C 
ATOM     57  C   UNL A   1      41.033  31.929  32.376  1.00  0.00     0.029 A 
ATOM     58  C   UNL A   1      41.581  32.452  31.216  1.00  0.00     0.049 A 
ATOM     59  H   UNL A   1      40.592  33.147  29.490  1.00  0.00     0.167 HD
ATOM     60  C   UNL A   1      43.825  31.742  30.690  1.00  0.00     0.074 A 
ATOM     61  C   UNL A   1      45.254  31.599  30.443  1.00  0.00     0.031 C 
ATOM     62  C   UNL A   1      42.944  32.792  30.797  1.00  0.00     0.034 A 
BRANCH  49  63
ATOM     63  C   UNL A   1      36.731  32.793  30.508  1.00  0.00     0.023 A 
ATOM     64  C   UNL A   1      36.214  32.422  31.768  1.00  0.00     0.012 A 
ATOM     65  C   UNL A   1      35.915  33.646  29.724  1.00  0.00     0.148 A 
ATOM     66  C   UNL A   1      34.938  32.796  32.198  1.00  0.00     0.002 A 
ATOM     67  C   UNL A   1      34.613  33.967  30.124  1.00  0.00     0.091 A 
ATOM     68  F   UNL A   1      36.417  34.210  28.618  1.00  0.00    -0.205 F 
ATOM     69  C   UNL A   1      34.124  33.543  31.363  1.00  0.00     0.022 A 
BRANCH  67  70
ATOM     70  S   UNL A   1      33.460  34.861  29.066  1.00  0.00     0.127 S 
ATOM     71  O   UNL A   1      33.120  33.854  28.056  1.00  0.00    -0.237 OA
ATOM     72  O   UNL A   1      32.373  35.186  29.984  1.00  0.00    -0.237 OA
ATOM     73  O   UNL A   1      34.205  35.997  28.534  1.00  0.00    -0.744 OA
ENDBRANCH  67  70
ENDBRANCH  49  63
BRANCH  50  74
ATOM     74  C   UNL A   1      44.702  27.178  29.368  1.00  0.00     0.023 A 
ATOM     75  C   UNL A   1      44.727  25.795  29.697  1.00  0.00     0.012 A 
ATOM     76  C   UNL A   1      44.601  27.534  28.009  1.00  0.00     0.148 A 
ATOM     77  C   UNL A   1      44.414  24.823  28.743  1.00  0.00     0.002 A 
ATOM     78  C   UNL A   1      44.324  26.549  27.054  1.00  0.00     0.091 A 
ATOM     79  F   UNL A   1      44.710  28.825  27.670  1.00  0.00    -0.205 F 
ATOM     80  C   UNL A   1      44.163  25.206  27.430  1.00  0.00     0.022 A 
BRANCH  78  81
ATOM     81  S   UNL A   1      44.078  26.977  25.324  1.00  0.00     0.127 S 
ATOM     82  O   UNL A   1      45.454  27.172  24.874  1.00  0.00    -0.237 OA
ATOM     83  O   UNL A   1      43.428  25.789  24.771  1.00  0.00    -0.237 OA
ATOM     84  O   UNL A   1      43.232  28.161  25.352  1.00  0.00    -0.744 OA
ENDBRANCH  78  81
ENDBRANCH  50  74
BRANCH  62  85
ATOM     85  C   UNL A   1      43.249  34.262  30.517  1.00  0.00     0.023 A 
ATOM     86  C   UNL A   1      43.539  35.189  31.531  1.00  0.00     0.012 A 
ATOM     87  C   UNL A   1      43.355  34.751  29.182  1.00  0.00     0.148 A 
ATOM     88  C   UNL A   1      43.876  36.520  31.255  1.00  0.00     0.002 A 
ATOM     89  C   UNL A   1      43.819  36.033  28.910  1.00  0.00     0.091 A 
ATOM     90  F   UNL A   1      42.960  33.997  28.149  1.00  0.00    -0.205 F 
ATOM     91  C   UNL A   1      44.048  36.934  29.945  1.00  0.00     0.022 A 
BRANCH  89  92
ATOM     92  S   UNL A   1      44.267  36.540  27.245  1.00  0.00     0.127 S 
ATOM     93  O   UNL A   1      42.986  36.441  26.549  1.00  0.00    -0.237 OA
ATOM     94  O   UNL A   1      44.741  37.909  27.460  1.00  0.00    -0.237 OA
ATOM     95  O   UNL A   1      45.302  35.611  26.814  1.00  0.00    -0.744 OA
ENDBRANCH  89  92
ENDBRANCH  62  85
ENDBRANCH  36  37
ENDBRANCH  28  31
ENDBRANCH  26  27
ENDBRANCH  25  26
ENDBRANCH   1  25
TORSDOF 19
ENDMDL
MODEL 2
REMARK VINA RESULT:     -11.3      1.294      2.446
REMARK SMILES Cc1cccc([C@@H](CC(=O)NCCCCNC(=O)c2ccc(-c3c4nc(c(-c5cccc(S(=O)(=O)[O-])c5F)c5ccc([nH]5)c(-c5cccc(S(=O)(=O)[O-])c5F)c5nc(c(-c6cccc(S(=O)(=O)[O-])c6F)c6ccc3[nH]6)C=C5)C=C4)cc2)NC(=O)OC(C)(C)C)c1
REMARK SMILES IDX 13 1 12 2 11 3 9 4 10 5 8 7 7 8 6 9 1 10 2 11 3 12 90 13
REMARK SMILES IDX 4 14 5 15 82 16 83 17 84 19 85 20 86 21 87 22 88 23 89 24
REMARK SMILES IDX 14 25 15 26 16 27 17 28 18 30 19 31 20 32 81 33 21 34 80 35
REMARK SMILES IDX 22 36 23 37 24 38 74 39 25 40 79 41 73 42 75 43 26 44 78 45
REMARK SMILES IDX 72 46 71 47 27 49 59 50 39 51 58 52 40 53 43 54 57 55 76 56
REMARK SMILES IDX 41 57 42 58 56 60 77 61 44 62 28 63 29 64 37 65 30 66 32 67
REMARK SMILES IDX 38 68 31 69 33 70 34 71 35 72 36 73 60 74 61 75 69 76 62 77
REMARK SMILES IDX 64 78 70 79 63 80 65 81 66 82 67 83 68 84 45 85 46 86 54 87
REMARK SMILES IDX 47 88 49 89 55 90 48 91 50 92 51 93 52 94 53 95
REMARK H PARENT 11 6 82 18 16 29 75 48 43 59
REMARK Flexibility Score: inf
ROOT
ATOM      1  C   UNL A   1      34.688  24.637  25.432  1.00  0.00     0.023 C 
ENDROOT
BRANCH   1   2
ATOM      2  C   UNL A   1      34.201  26.068  25.646  1.00  0.00     0.116 C 
BRANCH   2   3
ATOM      3  N   UNL A   1      32.937  26.056  26.362  1.00  0.00    -0.356 N 
ATOM      4  C   UNL A   1      31.946  26.993  26.347  1.00  0.00     0.222 C 
ATOM      5  O   UNL A   1      31.132  26.984  27.274  1.00  0.00    -0.275 OA
ATOM      6  H   UNL A   1      32.775  25.270  26.932  1.00  0.00     0.163 HD
BRANCH   4   7
ATOM      7  C   UNL A   1      31.813  27.994  25.207  1.00  0.00     0.130 C 
BRANCH   7   8
ATOM      8  C   UNL A   1      30.996  27.564  23.967  1.00  0.00     0.125 C 
BRANCH   8   9
ATOM      9  C   UNL A   1      29.789  28.442  23.626  1.00  0.00    -0.025 A 
ATOM     10  C   UNL A   1      28.932  32.167  23.399  1.00  0.00     0.044 C 
ATOM     11  C   UNL A   1      28.790  30.673  23.428  1.00  0.00    -0.051 A 
ATOM     12  C   UNL A   1      27.533  30.094  23.231  1.00  0.00     0.003 A 
ATOM     13  C   UNL A   1      29.900  29.845  23.669  1.00  0.00     0.009 A 
ATOM     14  C   UNL A   1      27.416  28.715  23.116  1.00  0.00     0.001 A 
ATOM     15  C   UNL A   1      28.545  27.903  23.254  1.00  0.00     0.006 A 
ENDBRANCH   8   9
BRANCH   8  16
ATOM     16  N   UNL A   1      30.655  26.151  23.998  1.00  0.00    -0.314 N 
ATOM     17  C   UNL A   1      30.692  25.278  22.951  1.00  0.00     0.408 C 
ATOM     18  H   UNL A   1      30.367  25.787  24.865  1.00  0.00     0.167 HD
ATOM     19  O   UNL A   1      30.233  24.160  23.044  1.00  0.00    -0.225 OA
BRANCH  17  20
ATOM     20  O   UNL A   1      31.297  25.811  21.861  1.00  0.00    -0.444 OA
BRANCH  20  21
ATOM     21  C   UNL A   1      32.622  25.383  21.476  1.00  0.00     0.106 C 
ATOM     22  C   UNL A   1      33.026  24.085  22.188  1.00  0.00     0.056 C 
ATOM     23  C   UNL A   1      32.732  25.271  19.953  1.00  0.00     0.056 C 
ATOM     24  C   UNL A   1      33.549  26.509  21.960  1.00  0.00     0.056 C 
ENDBRANCH  20  21
ENDBRANCH  17  20
ENDBRANCH   8  16
ENDBRANCH   7   8
ENDBRANCH   4   7
ENDBRANCH   2   3
ENDBRANCH   1   2
BRANCH   1  25
ATOM     25  C   UNL A   1      35.772  24.037  26.330  1.00  0.00     0.023 C 
BRANCH  25  26
ATOM     26  C   UNL A   1      37.150  23.919  25.699  1.00  0.00     0.116 C 
BRANCH  26  27
ATOM     27  N   UNL A   1      38.087  23.090  26.487  1.00  0.00    -0.352 N 
ATOM     28  C   UNL A   1      39.371  23.401  26.941  1.00  0.00     0.251 C 
ATOM     29  H   UNL A   1      37.760  22.192  26.726  1.00  0.00     0.163 HD
ATOM     30  O   UNL A   1      40.171  22.506  27.181  1.00  0.00    -0.269 OA
BRANCH  28  31
ATOM     31  C   UNL A   1      39.670  24.820  27.196  1.00  0.00     0.039 A 
ATOM     32  C   UNL A   1      40.298  25.738  26.350  1.00  0.00     0.014 A 
ATOM     33  C   UNL A   1      39.276  25.216  28.454  1.00  0.00     0.014 A 
ATOM     34  C   UNL A   1      40.511  27.034  26.834  1.00  0.00     0.010 A 
ATOM     35  C   UNL A   1      39.019  26.518  28.666  1.00  0.00     0.010 A 
ATOM     36  C   UNL A   1      39.887  27.382  28.029  1.00  0.00    -0.014 A 
BRANCH  36  37
ATOM     37  C   UNL A   1      40.112  28.530  28.878  1.00  0.00     0.031 A 
ATOM     38  C   UNL A   1      39.201  29.660  28.796  1.00  0.00     0.074 A 
ATOM     39  C   UNL A   1      40.910  28.272  29.947  1.00  0.00     0.049 A 
ATOM     40  N   UNL A   1      39.477  30.823  29.253  1.00  0.00    -0.248 NA
ATOM     41  C   UNL A   1      37.879  29.555  28.185  1.00  0.00     0.031 C 
ATOM     42  C   UNL A   1      40.895  28.821  31.293  1.00  0.00     0.029 A 
ATOM     43  N   UNL A   1      41.894  27.300  30.048  1.00  0.00    -0.354 N 
ATOM     44  C   UNL A   1      38.275  31.486  29.336  1.00  0.00     0.074 A 
ATOM     45  C   UNL A   1      37.358  30.743  28.503  1.00  0.00     0.031 C 
ATOM     46  C   UNL A   1      41.981  28.376  31.962  1.00  0.00     0.029 A 
ATOM     47  C   UNL A   1      42.815  27.645  31.019  1.00  0.00     0.049 A 
ATOM     48  H   UNL A   1      41.931  26.480  29.504  1.00  0.00     0.167 HD
ATOM     49  C   UNL A   1      38.111  32.419  30.312  1.00  0.00     0.034 A 
ATOM     50  C   UNL A   1      44.066  28.001  30.588  1.00  0.00     0.034 A 
ATOM     51  C   UNL A   1      39.301  32.448  31.187  1.00  0.00     0.049 A 
ATOM     52  C   UNL A   1      44.271  29.502  30.699  1.00  0.00     0.074 A 
ATOM     53  C   UNL A   1      39.569  31.885  32.427  1.00  0.00     0.029 A 
ATOM     54  N   UNL A   1      40.539  32.788  30.650  1.00  0.00    -0.354 N 
ATOM     55  N   UNL A   1      43.328  30.353  30.997  1.00  0.00    -0.248 NA
ATOM     56  C   UNL A   1      45.561  30.156  30.537  1.00  0.00     0.031 C 
ATOM     57  C   UNL A   1      40.982  31.860  32.611  1.00  0.00     0.029 A 
ATOM     58  C   UNL A   1      41.579  32.415  31.492  1.00  0.00     0.049 A 
ATOM     59  H   UNL A   1      40.662  33.236  29.782  1.00  0.00     0.167 HD
ATOM     60  C   UNL A   1      43.803  31.635  30.981  1.00  0.00     0.074 A 
ATOM     61  C   UNL A   1      45.230  31.442  30.758  1.00  0.00     0.031 C 
ATOM     62  C   UNL A   1      42.965  32.716  31.121  1.00  0.00     0.034 A 
BRANCH  49  63
ATOM     63  C   UNL A   1      36.766  33.001  30.695  1.00  0.00     0.023 A 
ATOM     64  C   UNL A   1      36.306  32.770  32.010  1.00  0.00     0.012 A 
ATOM     65  C   UNL A   1      35.913  33.761  29.857  1.00  0.00     0.148 A 
ATOM     66  C   UNL A   1      35.048  33.188  32.450  1.00  0.00     0.002 A 
ATOM     67  C   UNL A   1      34.628  34.124  30.277  1.00  0.00     0.091 A 
ATOM     68  F   UNL A   1      36.364  34.200  28.676  1.00  0.00    -0.205 F 
ATOM     69  C   UNL A   1      34.195  33.839  31.575  1.00  0.00     0.022 A 
BRANCH  67  70
ATOM     70  S   UNL A   1      33.426  34.896  29.177  1.00  0.00     0.127 S 
ATOM     71  O   UNL A   1      32.318  35.195  30.089  1.00  0.00    -0.237 OA
ATOM     72  O   UNL A   1      34.145  36.071  28.695  1.00  0.00    -0.237 OA
ATOM     73  O   UNL A   1      33.103  33.890  28.171  1.00  0.00    -0.744 OA
ENDBRANCH  67  70
ENDBRANCH  49  63
BRANCH  50  74
ATOM     74  C   UNL A   1      44.519  27.108  29.451  1.00  0.00     0.023 A 
ATOM     75  C   UNL A   1      44.483  25.711  29.713  1.00  0.00     0.012 A 
ATOM     76  C   UNL A   1      44.460  27.533  28.109  1.00  0.00     0.148 A 
ATOM     77  C   UNL A   1      44.152  24.799  28.706  1.00  0.00     0.002 A 
ATOM     78  C   UNL A   1      44.166  26.606  27.103  1.00  0.00     0.091 A 
ATOM     79  F   UNL A   1      44.627  28.833  27.836  1.00  0.00    -0.205 F 
ATOM     80  C   UNL A   1      43.945  25.254  27.409  1.00  0.00     0.022 A 
BRANCH  78  81
ATOM     81  S   UNL A   1      43.974  27.126  25.390  1.00  0.00     0.127 S 
ATOM     82  O   UNL A   1      45.363  27.346  24.995  1.00  0.00    -0.237 OA
ATOM     83  O   UNL A   1      43.345  25.969  24.754  1.00  0.00    -0.237 OA
ATOM     84  O   UNL A   1      43.125  28.306  25.455  1.00  0.00    -0.744 OA
ENDBRANCH  78  81
ENDBRANCH  50  74
BRANCH  62  85
ATOM     85  C   UNL A   1      43.338  34.183  30.922  1.00  0.00     0.023 A 
ATOM     86  C   UNL A   1      43.496  35.083  31.988  1.00  0.00     0.012 A 
ATOM     87  C   UNL A   1      43.649  34.695  29.628  1.00  0.00     0.148 A 
ATOM     88  C   UNL A   1      43.897  36.411  31.795  1.00  0.00     0.002 A 
ATOM     89  C   UNL A   1      44.175  35.971  29.456  1.00  0.00     0.091 A 
ATOM     90  F   UNL A   1      43.394  33.971  28.531  1.00  0.00    -0.205 F 
ATOM     91  C   UNL A   1      44.268  36.846  30.534  1.00  0.00     0.022 A 
BRANCH  89  92
ATOM     92  S   UNL A   1      44.873  36.499  27.886  1.00  0.00     0.127 S 
ATOM     93  O   UNL A   1      45.343  35.232  27.328  1.00  0.00    -0.237 OA
ATOM     94  O   UNL A   1      43.706  37.068  27.210  1.00  0.00    -0.237 OA
ATOM     95  O   UNL A   1      45.904  37.471  28.219  1.00  0.00    -0.744 OA
ENDBRANCH  89  92
ENDBRANCH  62  85
ENDBRANCH  36  37
ENDBRANCH  28  31
ENDBRANCH  26  27
ENDBRANCH  25  26
ENDBRANCH   1  25
TORSDOF 19
ENDMDL
MODEL 3
REMARK VINA RESULT:     -11.2      4.140      9.470
REMARK SMILES Cc1cccc([C@@H](CC(=O)NCCCCNC(=O)c2ccc(-c3c4nc(c(-c5cccc(S(=O)(=O)[O-])c5F)c5ccc([nH]5)c(-c5cccc(S(=O)(=O)[O-])c5F)c5nc(c(-c6cccc(S(=O)(=O)[O-])c6F)c6ccc3[nH]6)C=C5)C=C4)cc2)NC(=O)OC(C)(C)C)c1
REMARK SMILES IDX 13 1 12 2 11 3 9 4 10 5 8 7 7 8 6 9 1 10 2 11 3 12 90 13
REMARK SMILES IDX 4 14 5 15 82 16 83 17 84 19 85 20 86 21 87 22 88 23 89 24
REMARK SMILES IDX 14 25 15 26 16 27 17 28 18 30 19 31 20 32 81 33 21 34 80 35
REMARK SMILES IDX 22 36 23 37 24 38 74 39 25 40 79 41 73 42 75 43 26 44 78 45
REMARK SMILES IDX 72 46 71 47 27 49 59 50 39 51 58 52 40 53 43 54 57 55 76 56
REMARK SMILES IDX 41 57 42 58 56 60 77 61 44 62 28 63 29 64 37 65 30 66 32 67
REMARK SMILES IDX 38 68 31 69 33 70 34 71 35 72 36 73 60 74 61 75 69 76 62 77
REMARK SMILES IDX 64 78 70 79 63 80 65 81 66 82 67 83 68 84 45 85 46 86 54 87
REMARK SMILES IDX 47 88 49 89 55 90 48 91 50 92 51 93 52 94 53 95
REMARK H PARENT 11 6 82 18 16 29 75 48 43 59
REMARK Flexibility Score: inf
ROOT
ATOM      1  C   UNL A   1      35.091  30.938  27.925  1.00  0.00     0.023 C 
ENDROOT
BRANCH   1   2
ATOM      2  C   UNL A   1      34.792  29.459  27.698  1.00  0.00     0.116 C 
BRANCH   2   3
ATOM      3  N   UNL A   1      34.649  29.198  26.276  1.00  0.00    -0.356 N 
ATOM      4  C   UNL A   1      33.799  28.332  25.655  1.00  0.00     0.222 C 
ATOM      5  O   UNL A   1      34.067  27.989  24.501  1.00  0.00    -0.275 OA
ATOM      6  H   UNL A   1      35.244  29.712  25.685  1.00  0.00     0.163 HD
BRANCH   4   7
ATOM      7  C   UNL A   1      32.533  27.829  26.338  1.00  0.00     0.130 C 
BRANCH   7   8
ATOM      8  C   UNL A   1      31.789  26.643  25.682  1.00  0.00     0.125 C 
BRANCH   8   9
ATOM      9  C   UNL A   1      30.637  27.015  24.745  1.00  0.00    -0.025 A 
ATOM     10  C   UNL A   1      29.730  29.812  22.293  1.00  0.00     0.044 C 
ATOM     11  C   UNL A   1      29.626  28.595  23.164  1.00  0.00    -0.051 A 
ATOM     12  C   UNL A   1      28.440  27.857  23.182  1.00  0.00     0.003 A 
ATOM     13  C   UNL A   1      30.700  28.195  23.980  1.00  0.00     0.009 A 
ATOM     14  C   UNL A   1      28.383  26.654  23.875  1.00  0.00     0.001 A 
ATOM     15  C   UNL A   1      29.492  26.210  24.600  1.00  0.00     0.006 A 
ENDBRANCH   8   9
BRANCH   8  16
ATOM     16  N   UNL A   1      31.402  25.633  26.653  1.00  0.00    -0.314 N 
ATOM     17  C   UNL A   1      31.867  24.354  26.733  1.00  0.00     0.408 C 
ATOM     18  H   UNL A   1      30.733  25.901  27.323  1.00  0.00     0.167 HD
ATOM     19  O   UNL A   1      31.361  23.542  27.478  1.00  0.00    -0.225 OA
BRANCH  17  20
ATOM     20  O   UNL A   1      32.927  24.143  25.914  1.00  0.00    -0.444 OA
BRANCH  20  21
ATOM     21  C   UNL A   1      32.858  23.146  24.870  1.00  0.00     0.106 C 
ATOM     22  C   UNL A   1      33.176  21.744  25.405  1.00  0.00     0.056 C 
ATOM     23  C   UNL A   1      31.504  23.205  24.157  1.00  0.00     0.056 C 
ATOM     24  C   UNL A   1      33.960  23.547  23.878  1.00  0.00     0.056 C 
ENDBRANCH  20  21
ENDBRANCH  17  20
ENDBRANCH   8  16
ENDBRANCH   7   8
ENDBRANCH   4   7
ENDBRANCH   2   3
ENDBRANCH   1   2
BRANCH   1  25
ATOM     25  C   UNL A   1      33.965  31.975  27.911  1.00  0.00     0.023 C 
BRANCH  25  26
ATOM     26  C   UNL A   1      34.416  33.426  27.939  1.00  0.00     0.116 C 
BRANCH  26  27
ATOM     27  N   UNL A   1      34.098  34.115  29.209  1.00  0.00    -0.352 N 
ATOM     28  C   UNL A   1      34.667  33.939  30.473  1.00  0.00     0.251 C 
ATOM     29  H   UNL A   1      33.386  34.793  29.156  1.00  0.00     0.163 HD
ATOM     30  O   UNL A   1      34.034  34.235  31.477  1.00  0.00    -0.269 OA
BRANCH  28  31
ATOM     31  C   UNL A   1      36.065  33.478  30.524  1.00  0.00     0.039 A 
ATOM     32  C   UNL A   1      37.182  34.029  29.892  1.00  0.00     0.014 A 
ATOM     33  C   UNL A   1      36.210  32.343  31.291  1.00  0.00     0.014 A 
ATOM     34  C   UNL A   1      38.412  33.384  30.059  1.00  0.00     0.010 A 
ATOM     35  C   UNL A   1      37.410  32.086  31.836  1.00  0.00     0.010 A 
ATOM     36  C   UNL A   1      38.483  32.377  31.017  1.00  0.00    -0.014 A 
BRANCH  36  37
ATOM     37  C   UNL A   1      39.520  31.394  31.236  1.00  0.00     0.031 A 
ATOM     38  C   UNL A   1      39.504  30.163  30.462  1.00  0.00     0.074 A 
ATOM     39  C   UNL A   1      40.625  31.892  31.850  1.00  0.00     0.049 A 
ATOM     40  N   UNL A   1      40.165  29.117  30.787  1.00  0.00    -0.248 NA
ATOM     41  C   UNL A   1      38.728  30.024  29.233  1.00  0.00     0.031 C 
ATOM     42  C   UNL A   1      42.028  31.540  31.704  1.00  0.00     0.029 A 
ATOM     43  N   UNL A   1      40.694  32.979  32.708  1.00  0.00    -0.354 N 
ATOM     44  C   UNL A   1      40.203  28.334  29.657  1.00  0.00     0.074 A 
ATOM     45  C   UNL A   1      39.160  28.838  28.794  1.00  0.00     0.031 C 
ATOM     46  C   UNL A   1      42.747  32.200  32.638  1.00  0.00     0.029 A 
ATOM     47  C   UNL A   1      41.810  32.886  33.516  1.00  0.00     0.049 A 
ATOM     48  H   UNL A   1      40.039  33.714  32.737  1.00  0.00     0.167 HD
ATOM     49  C   UNL A   1      41.284  27.535  29.454  1.00  0.00     0.034 A 
ATOM     50  C   UNL A   1      41.595  32.624  34.844  1.00  0.00     0.034 A 
ATOM     51  C   UNL A   1      42.290  27.770  30.509  1.00  0.00     0.049 A 
ATOM     52  C   UNL A   1      41.960  31.189  35.181  1.00  0.00     0.074 A 
ATOM     53  C   UNL A   1      43.452  28.529  30.546  1.00  0.00     0.029 A 
ATOM     54  N   UNL A   1      41.967  27.508  31.837  1.00  0.00    -0.354 N 
ATOM     55  N   UNL A   1      42.270  30.282  34.295  1.00  0.00    -0.248 NA
ATOM     56  C   UNL A   1      42.059  30.677  36.539  1.00  0.00     0.031 C 
ATOM     57  C   UNL A   1      43.801  28.748  31.911  1.00  0.00     0.029 A 
ATOM     58  C   UNL A   1      42.861  28.116  32.709  1.00  0.00     0.049 A 
ATOM     59  H   UNL A   1      41.200  26.960  32.123  1.00  0.00     0.167 HD
ATOM     60  C   UNL A   1      42.509  29.076  34.893  1.00  0.00     0.074 A 
ATOM     61  C   UNL A   1      42.435  29.404  36.311  1.00  0.00     0.031 C 
ATOM     62  C   UNL A   1      42.712  27.933  34.155  1.00  0.00     0.034 A 
BRANCH  49  63
ATOM     63  C   UNL A   1      41.586  26.856  28.134  1.00  0.00     0.023 A 
ATOM     64  C   UNL A   1      41.293  27.570  26.951  1.00  0.00     0.012 A 
ATOM     65  C   UNL A   1      42.139  25.563  27.963  1.00  0.00     0.148 A 
ATOM     66  C   UNL A   1      41.454  27.016  25.679  1.00  0.00     0.002 A 
ATOM     67  C   UNL A   1      42.240  24.983  26.693  1.00  0.00     0.091 A 
ATOM     68  F   UNL A   1      42.637  24.911  29.021  1.00  0.00    -0.205 F 
ATOM     69  C   UNL A   1      41.898  25.711  25.549  1.00  0.00     0.022 A 
BRANCH  67  70
ATOM     70  S   UNL A   1      42.727  23.266  26.441  1.00  0.00     0.127 S 
ATOM     71  O   UNL A   1      42.653  23.133  24.983  1.00  0.00    -0.237 OA
ATOM     72  O   UNL A   1      44.083  23.238  26.982  1.00  0.00    -0.237 OA
ATOM     73  O   UNL A   1      41.740  22.463  27.154  1.00  0.00    -0.744 OA
ENDBRANCH  67  70
ENDBRANCH  49  63
BRANCH  50  74
ATOM     74  C   UNL A   1      40.397  33.397  35.358  1.00  0.00     0.023 A 
ATOM     75  C   UNL A   1      39.140  32.748  35.215  1.00  0.00     0.012 A 
ATOM     76  C   UNL A   1      40.526  34.383  36.355  1.00  0.00     0.148 A 
ATOM     77  C   UNL A   1      38.140  32.898  36.181  1.00  0.00     0.002 A 
ATOM     78  C   UNL A   1      39.503  34.553  37.296  1.00  0.00     0.091 A 
ATOM     79  F   UNL A   1      41.658  35.095  36.416  1.00  0.00    -0.205 F 
ATOM     80  C   UNL A   1      38.342  33.765  37.250  1.00  0.00     0.022 A 
BRANCH  78  81
ATOM     81  S   UNL A   1      39.675  35.726  38.650  1.00  0.00     0.127 S 
ATOM     82  O   UNL A   1      39.495  36.999  37.957  1.00  0.00    -0.237 OA
ATOM     83  O   UNL A   1      38.575  35.370  39.546  1.00  0.00    -0.237 OA
ATOM     84  O   UNL A   1      40.998  35.467  39.198  1.00  0.00    -0.744 OA
ENDBRANCH  78  81
ENDBRANCH  50  74
BRANCH  62  85
ATOM     85  C   UNL A   1      42.789  26.508  34.697  1.00  0.00     0.023 A 
ATOM     86  C   UNL A   1      41.795  25.944  35.513  1.00  0.00     0.012 A 
ATOM     87  C   UNL A   1      43.843  25.629  34.310  1.00  0.00     0.148 A 
ATOM     88  C   UNL A   1      41.850  24.616  35.953  1.00  0.00     0.002 A 
ATOM     89  C   UNL A   1      43.824  24.278  34.637  1.00  0.00     0.091 A 
ATOM     90  F   UNL A   1      44.914  26.098  33.657  1.00  0.00    -0.205 F 
ATOM     91  C   UNL A   1      42.846  23.774  35.489  1.00  0.00     0.022 A 
BRANCH  89  92
ATOM     92  S   UNL A   1      44.962  23.109  33.884  1.00  0.00     0.127 S 
ATOM     93  O   UNL A   1      46.251  23.582  34.385  1.00  0.00    -0.237 OA
ATOM     94  O   UNL A   1      44.515  21.837  34.455  1.00  0.00    -0.237 OA
ATOM     95  O   UNL A   1      44.754  23.224  32.448  1.00  0.00    -0.744 OA
ENDBRANCH  89  92
ENDBRANCH  62  85
ENDBRANCH  36  37
ENDBRANCH  28  31
ENDBRANCH  26  27
ENDBRANCH  25  26
ENDBRANCH   1  25
TORSDOF 19
ENDMDL
