MODEL 1
REMARK VINA RESULT:     -12.1      0.000      0.000
REMARK SMILES CCc1ccc2[nH]c(C(=O)c3cc(C)ccn3)c(CC(=O)NCCCCNC(=O)c3ccc(-c4c5nc(c(-c6cccc(S(=O)(=O)[O-])c6F)c6ccc([nH]6)c(-c6cccc(S(=O)(=O)[O-])c6F)c6nc(c(-c7cccc(S(=O)(=O)[O-])c7F)c7ccc4[nH]7)C=C6)C=C5)cc3)c2c1
REMARK SMILES IDX 24 1 23 2 22 3 20 4 21 5 19 7 18 8 3 9 4 10 94 11 5 12 93 13
REMARK SMILES IDX 6 14 7 15 8 16 2 18 1 19 9 20 10 21 11 22 12 23 17 24 13 25
REMARK SMILES IDX 16 26 14 27 15 28 25 29 26 30 27 31 28 32 29 34 30 35 31 36
REMARK SMILES IDX 92 37 32 38 91 39 33 40 34 41 35 42 85 43 36 44 90 45 84 46
REMARK SMILES IDX 86 47 37 48 89 49 83 50 82 51 38 53 70 54 50 55 69 56 51 57
REMARK SMILES IDX 54 58 68 59 87 60 52 61 53 62 67 64 88 65 55 66 39 67 40 68
REMARK SMILES IDX 48 69 41 70 43 71 49 72 42 73 44 74 45 75 46 76 47 77 71 78
REMARK SMILES IDX 72 79 80 80 73 81 75 82 81 83 74 84 76 85 77 86 78 87 79 88
REMARK SMILES IDX 56 89 57 90 65 91 58 92 60 93 66 94 59 95 61 96 62 97 63 98
REMARK SMILES IDX 64 99
REMARK H PARENT 22 6 7 17 27 33 86 52 54 63
REMARK Flexibility Score: inf
ROOT
ATOM      1  C   UNL A   1      31.196  30.906  25.986  1.00  0.00     0.023 C 
ENDROOT
BRANCH   1   2
ATOM      2  C   UNL A   1      32.144  29.943  26.698  1.00  0.00     0.116 C 
BRANCH   2   3
ATOM      3  N   UNL A   1      31.548  28.649  26.945  1.00  0.00    -0.356 N 
ATOM      4  C   UNL A   1      32.062  27.399  26.745  1.00  0.00     0.224 C 
ATOM      5  O   UNL A   1      31.444  26.453  27.240  1.00  0.00    -0.275 OA
ATOM      6  H   UNL A   1      30.635  28.671  27.314  1.00  0.00     0.163 HD
BRANCH   4   7
ATOM      7  C   UNL A   1      33.412  27.189  26.066  1.00  0.00     0.138 C 
BRANCH   7   8
ATOM      8  C   UNL A   1      33.375  26.397  24.786  1.00  0.00    -0.002 A 
ATOM      9  C   UNL A   1      34.664  22.786  25.068  1.00  0.00    -0.048 A 
ATOM     10  C   UNL A   1      34.559  22.502  23.704  1.00  0.00     0.006 A 
ATOM     11  C   UNL A   1      34.261  24.047  25.542  1.00  0.00     0.014 A 
ATOM     12  C   UNL A   1      34.075  23.451  22.795  1.00  0.00     0.027 A 
ATOM     13  C   UNL A   1      33.783  25.026  24.645  1.00  0.00     0.004 A 
ATOM     14  C   UNL A   1      33.697  24.701  23.297  1.00  0.00     0.046 A 
ATOM     15  N   UNL A   1      33.223  25.813  22.646  1.00  0.00    -0.352 N 
ATOM     16  C   UNL A   1      32.918  26.823  23.536  1.00  0.00     0.093 A 
ATOM     17  H   UNL A   1      33.113  25.881  21.670  1.00  0.00     0.167 HD
BRANCH   9  18
ATOM     18  C   UNL A   1      35.215  21.765  26.033  1.00  0.00     0.032 C 
ATOM     19  C   UNL A   1      36.248  20.855  25.384  1.00  0.00     0.009 C 
ENDBRANCH   9  18
BRANCH  16  20
ATOM     20  C   UNL A   1      32.276  28.086  23.189  1.00  0.00     0.227 C 
ATOM     21  O   UNL A   1      32.903  29.123  22.971  1.00  0.00    -0.285 OA
BRANCH  20  22
ATOM     22  C   UNL A   1      30.792  28.169  23.189  1.00  0.00     0.113 A 
ATOM     23  C   UNL A   1      30.170  29.343  22.773  1.00  0.00     0.036 A 
ATOM     24  N   UNL A   1      30.123  27.058  23.579  1.00  0.00    -0.253 NA
ATOM     25  C   UNL A   1      28.774  29.386  22.760  1.00  0.00    -0.047 A 
ATOM     26  C   UNL A   1      28.777  27.113  23.528  1.00  0.00     0.112 A 
ATOM     27  C   UNL A   1      28.040  30.615  22.321  1.00  0.00     0.044 C 
ATOM     28  C   UNL A   1      28.069  28.239  23.134  1.00  0.00     0.023 A 
ENDBRANCH  20  22
ENDBRANCH  16  20
ENDBRANCH   7   8
ENDBRANCH   4   7
ENDBRANCH   2   3
ENDBRANCH   1   2
BRANCH   1  29
ATOM     29  C   UNL A   1      31.159  32.327  26.556  1.00  0.00     0.023 C 
BRANCH  29  30
ATOM     30  C   UNL A   1      32.514  32.952  26.875  1.00  0.00     0.116 C 
BRANCH  30  31
ATOM     31  N   UNL A   1      32.415  34.219  27.583  1.00  0.00    -0.352 N 
ATOM     32  C   UNL A   1      33.166  34.685  28.636  1.00  0.00     0.251 C 
ATOM     33  H   UNL A   1      31.710  34.828  27.264  1.00  0.00     0.163 HD
ATOM     34  O   UNL A   1      32.871  35.754  29.165  1.00  0.00    -0.269 OA
BRANCH  32  35
ATOM     35  C   UNL A   1      34.302  33.890  29.157  1.00  0.00     0.039 A 
ATOM     36  C   UNL A   1      35.602  34.345  28.913  1.00  0.00     0.014 A 
ATOM     37  C   UNL A   1      34.100  32.712  29.881  1.00  0.00     0.014 A 
ATOM     38  C   UNL A   1      36.693  33.656  29.450  1.00  0.00     0.010 A 
ATOM     39  C   UNL A   1      35.185  32.060  30.466  1.00  0.00     0.010 A 
ATOM     40  C   UNL A   1      36.492  32.526  30.259  1.00  0.00    -0.014 A 
BRANCH  40  41
ATOM     41  C   UNL A   1      37.634  31.852  30.928  1.00  0.00     0.031 A 
ATOM     42  C   UNL A   1      38.451  30.817  30.203  1.00  0.00     0.074 A 
ATOM     43  C   UNL A   1      37.883  32.111  32.227  1.00  0.00     0.049 A 
ATOM     44  N   UNL A   1      39.474  30.127  30.635  1.00  0.00    -0.248 NA
ATOM     45  C   UNL A   1      38.053  30.498  28.822  1.00  0.00     0.031 C 
ATOM     46  C   UNL A   1      37.101  33.015  33.073  1.00  0.00     0.029 A 
ATOM     47  N   UNL A   1      38.847  31.619  33.072  1.00  0.00    -0.354 N 
ATOM     48  C   UNL A   1      39.821  29.269  29.597  1.00  0.00     0.074 A 
ATOM     49  C   UNL A   1      38.882  29.507  28.522  1.00  0.00     0.031 C 
ATOM     50  C   UNL A   1      37.614  33.012  34.313  1.00  0.00     0.029 A 
ATOM     51  C   UNL A   1      38.753  32.100  34.356  1.00  0.00     0.049 A 
ATOM     52  H   UNL A   1      39.540  30.981  32.785  1.00  0.00     0.167 HD
ATOM     53  C   UNL A   1      40.847  28.387  29.533  1.00  0.00     0.034 A 
ATOM     54  C   UNL A   1      39.502  31.843  35.446  1.00  0.00     0.034 A 
ATOM     55  C   UNL A   1      41.814  28.192  30.580  1.00  0.00     0.049 A 
ATOM     56  C   UNL A   1      40.685  30.922  35.321  1.00  0.00     0.074 A 
ATOM     57  C   UNL A   1      42.954  27.406  30.564  1.00  0.00     0.029 A 
ATOM     58  N   UNL A   1      41.755  28.784  31.831  1.00  0.00    -0.354 N 
ATOM     59  N   UNL A   1      41.116  30.272  34.266  1.00  0.00    -0.248 NA
ATOM     60  C   UNL A   1      41.512  30.733  36.523  1.00  0.00     0.031 C 
ATOM     61  C   UNL A   1      43.580  27.518  31.810  1.00  0.00     0.029 A 
ATOM     62  C   UNL A   1      42.834  28.378  32.599  1.00  0.00     0.049 A 
ATOM     63  H   UNL A   1      41.050  29.402  32.131  1.00  0.00     0.167 HD
ATOM     64  C   UNL A   1      42.276  29.620  34.668  1.00  0.00     0.074 A 
ATOM     65  C   UNL A   1      42.497  29.978  36.055  1.00  0.00     0.031 C 
ATOM     66  C   UNL A   1      43.074  28.783  33.960  1.00  0.00     0.034 A 
BRANCH  53  67
ATOM     67  C   UNL A   1      41.026  27.615  28.252  1.00  0.00     0.023 A 
ATOM     68  C   UNL A   1      41.604  28.256  27.138  1.00  0.00     0.012 A 
ATOM     69  C   UNL A   1      40.693  26.249  28.168  1.00  0.00     0.148 A 
ATOM     70  C   UNL A   1      41.823  27.559  25.951  1.00  0.00     0.002 A 
ATOM     71  C   UNL A   1      40.949  25.550  26.993  1.00  0.00     0.091 A 
ATOM     72  F   UNL A   1      40.123  25.661  29.230  1.00  0.00    -0.205 F 
ATOM     73  C   UNL A   1      41.506  26.206  25.882  1.00  0.00     0.022 A 
BRANCH  71  74
ATOM     74  S   UNL A   1      40.643  23.787  26.829  1.00  0.00     0.127 S 
ATOM     75  O   UNL A   1      41.581  23.423  25.769  1.00  0.00    -0.237 OA
ATOM     76  O   UNL A   1      40.999  23.286  28.157  1.00  0.00    -0.237 OA
ATOM     77  O   UNL A   1      39.232  23.657  26.492  1.00  0.00    -0.744 OA
ENDBRANCH  71  74
ENDBRANCH  53  67
BRANCH  54  78
ATOM     78  C   UNL A   1      39.210  32.543  36.729  1.00  0.00     0.023 A 
ATOM     79  C   UNL A   1      39.801  33.797  36.978  1.00  0.00     0.012 A 
ATOM     80  C   UNL A   1      38.326  31.999  37.681  1.00  0.00     0.148 A 
ATOM     81  C   UNL A   1      39.540  34.483  38.164  1.00  0.00     0.002 A 
ATOM     82  C   UNL A   1      38.030  32.713  38.837  1.00  0.00     0.091 A 
ATOM     83  F   UNL A   1      37.786  30.797  37.436  1.00  0.00    -0.205 F 
ATOM     84  C   UNL A   1      38.647  33.948  39.088  1.00  0.00     0.022 A 
BRANCH  82  85
ATOM     85  S   UNL A   1      36.787  32.155  40.010  1.00  0.00     0.127 S 
ATOM     86  O   UNL A   1      35.574  32.188  39.199  1.00  0.00    -0.237 OA
ATOM     87  O   UNL A   1      37.264  30.813  40.348  1.00  0.00    -0.237 OA
ATOM     88  O   UNL A   1      36.848  33.103  41.114  1.00  0.00    -0.744 OA
ENDBRANCH  82  85
ENDBRANCH  54  78
BRANCH  66  89
ATOM     89  C   UNL A   1      44.271  28.202  34.664  1.00  0.00     0.023 A 
ATOM     90  C   UNL A   1      45.481  28.925  34.684  1.00  0.00     0.012 A 
ATOM     91  C   UNL A   1      44.186  26.980  35.357  1.00  0.00     0.148 A 
ATOM     92  C   UNL A   1      46.595  28.426  35.356  1.00  0.00     0.002 A 
ATOM     93  C   UNL A   1      45.289  26.508  36.062  1.00  0.00     0.091 A 
ATOM     94  F   UNL A   1      43.035  26.292  35.309  1.00  0.00    -0.205 F 
ATOM     95  C   UNL A   1      46.497  27.224  36.054  1.00  0.00     0.022 A 
BRANCH  93  96
ATOM     96  S   UNL A   1      45.211  25.014  37.056  1.00  0.00     0.127 S 
ATOM     97  O   UNL A   1      46.522  25.015  37.702  1.00  0.00    -0.237 OA
ATOM     98  O   UNL A   1      44.090  25.288  37.955  1.00  0.00    -0.237 OA
ATOM     99  O   UNL A   1      44.970  23.929  36.114  1.00  0.00    -0.744 OA
ENDBRANCH  93  96
ENDBRANCH  66  89
ENDBRANCH  40  41
ENDBRANCH  32  35
ENDBRANCH  30  31
ENDBRANCH  29  30
ENDBRANCH   1  29
TORSDOF 18
ENDMDL
MODEL 2
REMARK VINA RESULT:     -12.1      1.752      3.916
REMARK SMILES CCc1ccc2[nH]c(C(=O)c3cc(C)ccn3)c(CC(=O)NCCCCNC(=O)c3ccc(-c4c5nc(c(-c6cccc(S(=O)(=O)[O-])c6F)c6ccc([nH]6)c(-c6cccc(S(=O)(=O)[O-])c6F)c6nc(c(-c7cccc(S(=O)(=O)[O-])c7F)c7ccc4[nH]7)C=C6)C=C5)cc3)c2c1
REMARK SMILES IDX 24 1 23 2 22 3 20 4 21 5 19 7 18 8 3 9 4 10 94 11 5 12 93 13
REMARK SMILES IDX 6 14 7 15 8 16 2 18 1 19 9 20 10 21 11 22 12 23 17 24 13 25
REMARK SMILES IDX 16 26 14 27 15 28 25 29 26 30 27 31 28 32 29 34 30 35 31 36
REMARK SMILES IDX 92 37 32 38 91 39 33 40 34 41 35 42 85 43 36 44 90 45 84 46
REMARK SMILES IDX 86 47 37 48 89 49 83 50 82 51 38 53 70 54 50 55 69 56 51 57
REMARK SMILES IDX 54 58 68 59 87 60 52 61 53 62 67 64 88 65 55 66 39 67 40 68
REMARK SMILES IDX 48 69 41 70 43 71 49 72 42 73 44 74 45 75 46 76 47 77 71 78
REMARK SMILES IDX 72 79 80 80 73 81 75 82 81 83 74 84 76 85 77 86 78 87 79 88
REMARK SMILES IDX 56 89 57 90 65 91 58 92 60 93 66 94 59 95 61 96 62 97 63 98
REMARK SMILES IDX 64 99
REMARK H PARENT 22 6 7 17 27 33 86 52 54 63
REMARK Flexibility Score: inf
ROOT
ATOM      1  C   UNL A   1      34.709  30.966  27.721  1.00  0.00     0.023 C 
ENDROOT
BRANCH   1   2
ATOM      2  C   UNL A   1      34.435  29.498  27.397  1.00  0.00     0.116 C 
BRANCH   2   3
ATOM      3  N   UNL A   1      33.157  29.042  27.897  1.00  0.00    -0.356 N 
ATOM      4  C   UNL A   1      32.249  28.196  27.325  1.00  0.00     0.224 C 
ATOM      5  O   UNL A   1      31.334  27.787  28.046  1.00  0.00    -0.275 OA
ATOM      6  H   UNL A   1      32.903  29.393  28.781  1.00  0.00     0.163 HD
BRANCH   4   7
ATOM      7  C   UNL A   1      32.432  27.664  25.907  1.00  0.00     0.138 C 
BRANCH   7   8
ATOM      8  C   UNL A   1      31.196  27.088  25.269  1.00  0.00    -0.002 A 
ATOM      9  C   UNL A   1      29.168  29.557  23.131  1.00  0.00    -0.048 A 
ATOM     10  C   UNL A   1      28.122  28.671  22.862  1.00  0.00     0.006 A 
ATOM     11  C   UNL A   1      30.263  29.119  23.896  1.00  0.00     0.014 A 
ATOM     12  C   UNL A   1      28.133  27.358  23.351  1.00  0.00     0.027 A 
ATOM     13  C   UNL A   1      30.292  27.806  24.413  1.00  0.00     0.004 A 
ATOM     14  C   UNL A   1      29.230  26.959  24.122  1.00  0.00     0.046 A 
ATOM     15  N   UNL A   1      29.489  25.762  24.744  1.00  0.00    -0.352 N 
ATOM     16  C   UNL A   1      30.725  25.776  25.360  1.00  0.00     0.093 A 
ATOM     17  H   UNL A   1      28.875  24.994  24.749  1.00  0.00     0.167 HD
BRANCH   9  18
ATOM     18  C   UNL A   1      29.130  30.977  22.622  1.00  0.00     0.032 C 
ATOM     19  C   UNL A   1      28.045  31.804  23.296  1.00  0.00     0.009 C 
ENDBRANCH   9  18
BRANCH  16  20
ATOM     20  C   UNL A   1      31.360  24.629  25.999  1.00  0.00     0.227 C 
ATOM     21  O   UNL A   1      31.255  24.382  27.201  1.00  0.00    -0.285 OA
BRANCH  20  22
ATOM     22  C   UNL A   1      32.258  23.758  25.197  1.00  0.00     0.113 A 
ATOM     23  C   UNL A   1      31.717  22.920  24.225  1.00  0.00     0.036 A 
ATOM     24  N   UNL A   1      33.585  23.856  25.453  1.00  0.00    -0.253 NA
ATOM     25  C   UNL A   1      32.586  22.130  23.470  1.00  0.00    -0.047 A 
ATOM     26  C   UNL A   1      34.406  23.108  24.691  1.00  0.00     0.112 A 
ATOM     27  C   UNL A   1      32.072  21.210  22.406  1.00  0.00     0.044 C 
ATOM     28  C   UNL A   1      33.960  22.241  23.704  1.00  0.00     0.023 A 
ENDBRANCH  20  22
ENDBRANCH  16  20
ENDBRANCH   7   8
ENDBRANCH   4   7
ENDBRANCH   2   3
ENDBRANCH   1   2
BRANCH   1  29
ATOM     29  C   UNL A   1      33.463  31.835  27.909  1.00  0.00     0.023 C 
BRANCH  29  30
ATOM     30  C   UNL A   1      33.364  33.062  27.006  1.00  0.00     0.116 C 
BRANCH  30  31
ATOM     31  N   UNL A   1      32.791  34.224  27.669  1.00  0.00    -0.352 N 
ATOM     32  C   UNL A   1      33.159  34.816  28.853  1.00  0.00     0.251 C 
ATOM     33  H   UNL A   1      32.032  34.644  27.204  1.00  0.00     0.163 HD
ATOM     34  O   UNL A   1      32.489  35.744  29.302  1.00  0.00    -0.269 OA
BRANCH  32  35
ATOM     35  C   UNL A   1      34.331  34.317  29.609  1.00  0.00     0.039 A 
ATOM     36  C   UNL A   1      34.110  33.638  30.812  1.00  0.00     0.014 A 
ATOM     37  C   UNL A   1      35.636  34.507  29.146  1.00  0.00     0.014 A 
ATOM     38  C   UNL A   1      35.189  33.094  31.513  1.00  0.00     0.010 A 
ATOM     39  C   UNL A   1      36.705  33.914  29.814  1.00  0.00     0.010 A 
ATOM     40  C   UNL A   1      36.494  33.199  31.003  1.00  0.00    -0.014 A 
BRANCH  40  41
ATOM     41  C   UNL A   1      37.634  32.530  31.680  1.00  0.00     0.031 A 
ATOM     42  C   UNL A   1      38.357  31.386  31.023  1.00  0.00     0.074 A 
ATOM     43  C   UNL A   1      37.965  32.899  32.933  1.00  0.00     0.049 A 
ATOM     44  N   UNL A   1      39.365  30.683  31.471  1.00  0.00    -0.248 NA
ATOM     45  C   UNL A   1      37.870  30.957  29.701  1.00  0.00     0.031 C 
ATOM     46  C   UNL A   1      37.277  33.923  33.722  1.00  0.00     0.029 A 
ATOM     47  N   UNL A   1      38.947  32.438  33.776  1.00  0.00    -0.354 N 
ATOM     48  C   UNL A   1      39.611  29.711  30.509  1.00  0.00     0.074 A 
ATOM     49  C   UNL A   1      38.630  29.897  29.462  1.00  0.00     0.031 C 
ATOM     50  C   UNL A   1      37.855  34.011  34.930  1.00  0.00     0.029 A 
ATOM     51  C   UNL A   1      38.946  33.045  35.009  1.00  0.00     0.049 A 
ATOM     52  H   UNL A   1      39.590  31.737  33.520  1.00  0.00     0.167 HD
ATOM     53  C   UNL A   1      40.587  28.771  30.483  1.00  0.00     0.034 A 
ATOM     54  C   UNL A   1      39.739  32.853  36.082  1.00  0.00     0.034 A 
ATOM     55  C   UNL A   1      41.597  28.624  31.496  1.00  0.00     0.049 A 
ATOM     56  C   UNL A   1      40.864  31.859  35.992  1.00  0.00     0.074 A 
ATOM     57  C   UNL A   1      42.692  27.778  31.504  1.00  0.00     0.029 A 
ATOM     58  N   UNL A   1      41.635  29.337  32.684  1.00  0.00    -0.354 N 
ATOM     59  N   UNL A   1      41.204  31.087  34.987  1.00  0.00    -0.248 NA
ATOM     60  C   UNL A   1      41.744  31.741  37.165  1.00  0.00     0.031 C 
ATOM     61  C   UNL A   1      43.389  27.974  32.701  1.00  0.00     0.029 A 
ATOM     62  C   UNL A   1      42.731  28.947  33.436  1.00  0.00     0.049 A 
ATOM     63  H   UNL A   1      40.980  30.020  32.955  1.00  0.00     0.167 HD
ATOM     64  C   UNL A   1      42.349  30.412  35.396  1.00  0.00     0.074 A 
ATOM     65  C   UNL A   1      42.663  30.889  36.728  1.00  0.00     0.031 C 
ATOM     66  C   UNL A   1      43.065  29.468  34.737  1.00  0.00     0.034 A 
BRANCH  53  67
ATOM     67  C   UNL A   1      40.657  27.870  29.278  1.00  0.00     0.023 A 
ATOM     68  C   UNL A   1      39.792  26.760  29.199  1.00  0.00     0.012 A 
ATOM     69  C   UNL A   1      41.520  28.153  28.202  1.00  0.00     0.148 A 
ATOM     70  C   UNL A   1      39.801  25.929  28.080  1.00  0.00     0.002 A 
ATOM     71  C   UNL A   1      41.497  27.341  27.071  1.00  0.00     0.091 A 
ATOM     72  F   UNL A   1      42.352  29.199  28.304  1.00  0.00    -0.205 F 
ATOM     73  C   UNL A   1      40.644  26.226  27.013  1.00  0.00     0.022 A 
BRANCH  71  74
ATOM     74  S   UNL A   1      42.494  27.682  25.616  1.00  0.00     0.127 S 
ATOM     75  O   UNL A   1      41.926  28.950  25.161  1.00  0.00    -0.237 OA
ATOM     76  O   UNL A   1      43.840  27.785  26.180  1.00  0.00    -0.237 OA
ATOM     77  O   UNL A   1      42.296  26.549  24.723  1.00  0.00    -0.744 OA
ENDBRANCH  71  74
ENDBRANCH  53  67
BRANCH  54  78
ATOM     78  C   UNL A   1      39.551  33.689  37.301  1.00  0.00     0.023 A 
ATOM     79  C   UNL A   1      40.090  34.990  37.331  1.00  0.00     0.012 A 
ATOM     80  C   UNL A   1      38.815  33.223  38.408  1.00  0.00     0.148 A 
ATOM     81  C   UNL A   1      39.924  35.802  38.453  1.00  0.00     0.002 A 
ATOM     82  C   UNL A   1      38.609  34.058  39.502  1.00  0.00     0.091 A 
ATOM     83  F   UNL A   1      38.325  31.977  38.369  1.00  0.00    -0.205 F 
ATOM     84  C   UNL A   1      39.175  35.342  39.532  1.00  0.00     0.022 A 
BRANCH  82  85
ATOM     85  S   UNL A   1      37.544  33.590  40.870  1.00  0.00     0.127 S 
ATOM     86  O   UNL A   1      37.370  34.861  41.565  1.00  0.00    -0.237 OA
ATOM     87  O   UNL A   1      36.351  33.099  40.178  1.00  0.00    -0.237 OA
ATOM     88  O   UNL A   1      38.277  32.558  41.592  1.00  0.00    -0.744 OA
ENDBRANCH  82  85
ENDBRANCH  54  78
BRANCH  66  89
ATOM     89  C   UNL A   1      44.266  28.891  35.436  1.00  0.00     0.023 A 
ATOM     90  C   UNL A   1      45.538  29.449  35.200  1.00  0.00     0.012 A 
ATOM     91  C   UNL A   1      44.133  27.846  36.370  1.00  0.00     0.148 A 
ATOM     92  C   UNL A   1      46.663  28.956  35.859  1.00  0.00     0.002 A 
ATOM     93  C   UNL A   1      45.253  27.388  37.057  1.00  0.00     0.091 A 
ATOM     94  F   UNL A   1      42.919  27.310  36.567  1.00  0.00    -0.205 F 
ATOM     95  C   UNL A   1      46.520  27.934  36.795  1.00  0.00     0.022 A 
BRANCH  93  96
ATOM     96  S   UNL A   1      45.133  26.136  38.341  1.00  0.00     0.127 S 
ATOM     97  O   UNL A   1      44.173  26.742  39.261  1.00  0.00    -0.237 OA
ATOM     98  O   UNL A   1      44.625  24.976  37.607  1.00  0.00    -0.237 OA
ATOM     99  O   UNL A   1      46.487  25.972  38.854  1.00  0.00    -0.744 OA
ENDBRANCH  93  96
ENDBRANCH  66  89
ENDBRANCH  40  41
ENDBRANCH  32  35
ENDBRANCH  30  31
ENDBRANCH  29  30
ENDBRANCH   1  29
TORSDOF 18
ENDMDL
MODEL 3
REMARK VINA RESULT:     -12.0      4.957      8.912
REMARK SMILES CCc1ccc2[nH]c(C(=O)c3cc(C)ccn3)c(CC(=O)NCCCCNC(=O)c3ccc(-c4c5nc(c(-c6cccc(S(=O)(=O)[O-])c6F)c6ccc([nH]6)c(-c6cccc(S(=O)(=O)[O-])c6F)c6nc(c(-c7cccc(S(=O)(=O)[O-])c7F)c7ccc4[nH]7)C=C6)C=C5)cc3)c2c1
REMARK SMILES IDX 24 1 23 2 22 3 20 4 21 5 19 7 18 8 3 9 4 10 94 11 5 12 93 13
REMARK SMILES IDX 6 14 7 15 8 16 2 18 1 19 9 20 10 21 11 22 12 23 17 24 13 25
REMARK SMILES IDX 16 26 14 27 15 28 25 29 26 30 27 31 28 32 29 34 30 35 31 36
REMARK SMILES IDX 92 37 32 38 91 39 33 40 34 41 35 42 85 43 36 44 90 45 84 46
REMARK SMILES IDX 86 47 37 48 89 49 83 50 82 51 38 53 70 54 50 55 69 56 51 57
REMARK SMILES IDX 54 58 68 59 87 60 52 61 53 62 67 64 88 65 55 66 39 67 40 68
REMARK SMILES IDX 48 69 41 70 43 71 49 72 42 73 44 74 45 75 46 76 47 77 71 78
REMARK SMILES IDX 72 79 80 80 73 81 75 82 81 83 74 84 76 85 77 86 78 87 79 88
REMARK SMILES IDX 56 89 57 90 65 91 58 92 60 93 66 94 59 95 61 96 62 97 63 98
REMARK SMILES IDX 64 99
REMARK H PARENT 22 6 7 17 27 33 86 52 54 63
REMARK Flexibility Score: inf
ROOT
ATOM      1  C   UNL A   1      35.155  23.291  23.466  1.00  0.00     0.023 C 
ENDROOT
BRANCH   1   2
ATOM      2  C   UNL A   1      34.407  24.470  24.084  1.00  0.00     0.116 C 
BRANCH   2   3
ATOM      3  N   UNL A   1      34.105  25.509  23.124  1.00  0.00    -0.356 N 
ATOM      4  C   UNL A   1      33.349  26.637  23.269  1.00  0.00     0.224 C 
ATOM      5  O   UNL A   1      33.423  27.480  22.370  1.00  0.00    -0.275 OA
ATOM      6  H   UNL A   1      34.505  25.384  22.232  1.00  0.00     0.163 HD
BRANCH   4   7
ATOM      7  C   UNL A   1      32.562  26.915  24.546  1.00  0.00     0.138 C 
BRANCH   7   8
ATOM      8  C   UNL A   1      31.080  26.666  24.457  1.00  0.00    -0.002 A 
ATOM      9  C   UNL A   1      29.100  29.310  22.490  1.00  0.00    -0.048 A 
ATOM     10  C   UNL A   1      27.843  28.762  22.761  1.00  0.00     0.006 A 
ATOM     11  C   UNL A   1      30.251  28.669  22.980  1.00  0.00     0.014 A 
ATOM     12  C   UNL A   1      27.704  27.595  23.521  1.00  0.00     0.027 A 
ATOM     13  C   UNL A   1      30.138  27.498  23.761  1.00  0.00     0.004 A 
ATOM     14  C   UNL A   1      28.868  26.990  24.006  1.00  0.00     0.046 A 
ATOM     15  N   UNL A   1      29.029  25.872  24.789  1.00  0.00    -0.352 N 
ATOM     16  C   UNL A   1      30.365  25.591  24.992  1.00  0.00     0.093 A 
ATOM     17  H   UNL A   1      28.287  25.341  25.158  1.00  0.00     0.167 HD
BRANCH   9  18
ATOM     18  C   UNL A   1      29.234  30.585  21.694  1.00  0.00     0.032 C 
ATOM     19  C   UNL A   1      27.947  30.954  20.971  1.00  0.00     0.009 C 
ENDBRANCH   9  18
BRANCH  16  20
ATOM     20  C   UNL A   1      30.883  24.406  25.667  1.00  0.00     0.227 C 
ATOM     21  O   UNL A   1      31.018  24.332  26.889  1.00  0.00    -0.285 OA
BRANCH  20  22
ATOM     22  C   UNL A   1      31.366  23.260  24.854  1.00  0.00     0.113 A 
ATOM     23  C   UNL A   1      31.913  22.148  25.489  1.00  0.00     0.036 A 
ATOM     24  N   UNL A   1      31.216  23.364  23.512  1.00  0.00    -0.253 NA
ATOM     25  C   UNL A   1      32.337  21.076  24.702  1.00  0.00    -0.047 A 
ATOM     26  C   UNL A   1      31.604  22.304  22.775  1.00  0.00     0.112 A 
ATOM     27  C   UNL A   1      32.930  19.847  25.319  1.00  0.00     0.044 C 
ATOM     28  C   UNL A   1      32.164  21.156  23.317  1.00  0.00     0.023 A 
ENDBRANCH  20  22
ENDBRANCH  16  20
ENDBRANCH   7   8
ENDBRANCH   4   7
ENDBRANCH   2   3
ENDBRANCH   1   2
BRANCH   1  29
ATOM     29  C   UNL A   1      36.016  22.481  24.440  1.00  0.00     0.023 C 
BRANCH  29  30
ATOM     30  C   UNL A   1      37.302  23.155  24.911  1.00  0.00     0.116 C 
BRANCH  30  31
ATOM     31  N   UNL A   1      38.223  22.244  25.575  1.00  0.00    -0.352 N 
ATOM     32  C   UNL A   1      39.280  22.533  26.405  1.00  0.00     0.251 C 
ATOM     33  H   UNL A   1      38.068  21.288  25.405  1.00  0.00     0.163 HD
ATOM     34  O   UNL A   1      40.006  21.624  26.801  1.00  0.00    -0.269 OA
BRANCH  32  35
ATOM     35  C   UNL A   1      39.569  23.933  26.792  1.00  0.00     0.039 A 
ATOM     36  C   UNL A   1      39.251  24.345  28.090  1.00  0.00     0.014 A 
ATOM     37  C   UNL A   1      40.150  24.836  25.897  1.00  0.00     0.014 A 
ATOM     38  C   UNL A   1      39.574  25.638  28.510  1.00  0.00     0.010 A 
ATOM     39  C   UNL A   1      40.527  26.104  26.334  1.00  0.00     0.010 A 
ATOM     40  C   UNL A   1      40.245  26.519  27.645  1.00  0.00    -0.014 A 
BRANCH  40  41
ATOM     41  C   UNL A   1      40.695  27.855  28.113  1.00  0.00     0.031 A 
ATOM     42  C   UNL A   1      42.157  28.207  28.150  1.00  0.00     0.074 A 
ATOM     43  C   UNL A   1      39.784  28.726  28.592  1.00  0.00     0.049 A 
ATOM     44  N   UNL A   1      42.725  29.321  28.535  1.00  0.00    -0.248 NA
ATOM     45  C   UNL A   1      43.107  27.168  27.721  1.00  0.00     0.031 C 
ATOM     46  C   UNL A   1      38.347  28.467  28.709  1.00  0.00     0.029 A 
ATOM     47  N   UNL A   1      39.933  29.994  29.096  1.00  0.00    -0.354 N 
ATOM     48  C   UNL A   1      44.094  29.106  28.430  1.00  0.00     0.074 A 
ATOM     49  C   UNL A   1      44.274  27.747  27.968  1.00  0.00     0.031 C 
ATOM     50  C   UNL A   1      37.749  29.540  29.249  1.00  0.00     0.029 A 
ATOM     51  C   UNL A   1      38.756  30.559  29.528  1.00  0.00     0.049 A 
ATOM     52  H   UNL A   1      40.802  30.456  29.143  1.00  0.00     0.167 HD
ATOM     53  C   UNL A   1      45.109  29.973  28.664  1.00  0.00     0.034 A 
ATOM     54  C   UNL A   1      38.512  31.763  30.080  1.00  0.00     0.034 A 
ATOM     55  C   UNL A   1      44.928  31.342  29.068  1.00  0.00     0.049 A 
ATOM     56  C   UNL A   1      39.648  32.734  30.252  1.00  0.00     0.074 A 
ATOM     57  C   UNL A   1      45.886  32.329  29.220  1.00  0.00     0.029 A 
ATOM     58  N   UNL A   1      43.708  31.917  29.388  1.00  0.00    -0.354 N 
ATOM     59  N   UNL A   1      40.916  32.580  29.954  1.00  0.00    -0.248 NA
ATOM     60  C   UNL A   1      39.315  34.061  30.791  1.00  0.00     0.031 C 
ATOM     61  C   UNL A   1      45.246  33.500  29.640  1.00  0.00     0.029 A 
ATOM     62  C   UNL A   1      43.888  33.244  29.743  1.00  0.00     0.049 A 
ATOM     63  H   UNL A   1      42.841  31.452  29.367  1.00  0.00     0.167 HD
ATOM     64  C   UNL A   1      41.527  33.795  30.246  1.00  0.00     0.074 A 
ATOM     65  C   UNL A   1      40.483  34.685  30.714  1.00  0.00     0.031 C 
ATOM     66  C   UNL A   1      42.836  34.136  30.154  1.00  0.00     0.034 A 
BRANCH  53  67
ATOM     67  C   UNL A   1      46.513  29.490  28.416  1.00  0.00     0.023 A 
ATOM     68  C   UNL A   1      47.107  29.718  27.158  1.00  0.00     0.012 A 
ATOM     69  C   UNL A   1      47.268  28.877  29.435  1.00  0.00     0.148 A 
ATOM     70  C   UNL A   1      48.419  29.321  26.908  1.00  0.00     0.002 A 
ATOM     71  C   UNL A   1      48.590  28.518  29.191  1.00  0.00     0.091 A 
ATOM     72  F   UNL A   1      46.680  28.646  30.618  1.00  0.00    -0.205 F 
ATOM     73  C   UNL A   1      49.163  28.732  27.925  1.00  0.00     0.022 A 
BRANCH  71  74
ATOM     74  S   UNL A   1      49.653  27.818  30.459  1.00  0.00     0.127 S 
ATOM     75  O   UNL A   1      50.924  27.704  29.747  1.00  0.00    -0.237 OA
ATOM     76  O   UNL A   1      49.625  28.853  31.493  1.00  0.00    -0.237 OA
ATOM     77  O   UNL A   1      49.034  26.558  30.847  1.00  0.00    -0.744 OA
ENDBRANCH  71  74
ENDBRANCH  53  67
BRANCH  54  78
ATOM     78  C   UNL A   1      37.115  32.152  30.424  1.00  0.00     0.023 A 
ATOM     79  C   UNL A   1      36.637  31.911  31.727  1.00  0.00     0.012 A 
ATOM     80  C   UNL A   1      36.276  32.789  29.490  1.00  0.00     0.148 A 
ATOM     81  C   UNL A   1      35.337  32.272  32.085  1.00  0.00     0.002 A 
ATOM     82  C   UNL A   1      35.000  33.193  29.869  1.00  0.00     0.091 A 
ATOM     83  F   UNL A   1      36.742  32.994  28.250  1.00  0.00    -0.205 F 
ATOM     84  C   UNL A   1      34.523  32.922  31.162  1.00  0.00     0.022 A 
BRANCH  82  85
ATOM     85  S   UNL A   1      33.942  34.155  28.781  1.00  0.00     0.127 S 
ATOM     86  O   UNL A   1      32.853  34.530  29.676  1.00  0.00    -0.237 OA
ATOM     87  O   UNL A   1      34.824  35.256  28.390  1.00  0.00    -0.237 OA
ATOM     88  O   UNL A   1      33.596  33.255  27.689  1.00  0.00    -0.744 OA
ENDBRANCH  82  85
ENDBRANCH  54  78
BRANCH  66  89
ATOM     89  C   UNL A   1      43.219  35.535  30.556  1.00  0.00     0.023 A 
ATOM     90  C   UNL A   1      43.628  35.788  31.881  1.00  0.00     0.012 A 
ATOM     91  C   UNL A   1      43.237  36.584  29.616  1.00  0.00     0.148 A 
ATOM     92  C   UNL A   1      44.020  37.067  32.271  1.00  0.00     0.002 A 
ATOM     93  C   UNL A   1      43.670  37.848  30.001  1.00  0.00     0.091 A 
ATOM     94  F   UNL A   1      42.823  36.333  28.365  1.00  0.00    -0.205 F 
ATOM     95  C   UNL A   1      44.052  38.094  31.330  1.00  0.00     0.022 A 
BRANCH  93  96
ATOM     96  S   UNL A   1      43.824  39.199  28.826  1.00  0.00     0.127 S 
ATOM     97  O   UNL A   1      44.521  40.208  29.619  1.00  0.00    -0.237 OA
ATOM     98  O   UNL A   1      44.627  38.601  27.758  1.00  0.00    -0.237 OA
ATOM     99  O   UNL A   1      42.461  39.531  28.433  1.00  0.00    -0.744 OA
ENDBRANCH  93  96
ENDBRANCH  66  89
ENDBRANCH  40  41
ENDBRANCH  32  35
ENDBRANCH  30  31
ENDBRANCH  29  30
ENDBRANCH   1  29
TORSDOF 18
ENDMDL
