MODEL 1
REMARK VINA RESULT:     -12.3      0.000      0.000
REMARK SMILES Cc1cc(N2CC[C@H](CC(=O)NCCCCNC(=O)c3ccc(-c4c5nc(c(-c6cccc(S(=O)(=O)[O-])c6F)c6ccc([nH]6)c(-c6cccc(S(=O)(=O)[O-])c6F)c6nc(c(-c7cccc(S(=O)(=O)[O-])c7F)c7ccc4[nH]7)C=C6)C=C5)cc3)C2)ncc1[N+](=O)[O-]
REMARK SMILES IDX 14 1 13 2 12 3 10 4 11 5 9 7 8 8 5 9 6 10 83 11 7 12 4 13
REMARK SMILES IDX 1 14 2 15 3 16 86 17 85 18 84 19 87 20 88 21 89 22 15 23
REMARK SMILES IDX 16 24 17 25 18 26 19 28 20 29 21 30 82 31 22 32 81 33 23 34
REMARK SMILES IDX 24 35 25 36 75 37 26 38 80 39 74 40 76 41 27 42 79 43 73 44
REMARK SMILES IDX 72 45 28 47 60 48 40 49 59 50 41 51 44 52 58 53 77 54 42 55
REMARK SMILES IDX 43 56 57 58 78 59 45 60 29 61 30 62 38 63 31 64 33 65 39 66
REMARK SMILES IDX 32 67 34 68 35 69 36 70 37 71 61 72 62 73 70 74 63 75 65 76
REMARK SMILES IDX 71 77 64 78 66 79 67 80 68 81 69 82 46 83 47 84 55 85 48 86
REMARK SMILES IDX 50 87 56 88 49 89 51 90 52 91 53 92 54 93
REMARK H PARENT 12 6 17 27 76 46 44 57
REMARK Flexibility Score: inf
ROOT
ATOM      1  C   UNL A   1      35.988  23.093  23.398  1.00  0.00     0.023 C 
ENDROOT
BRANCH   1   2
ATOM      2  C   UNL A   1      34.657  23.817  23.604  1.00  0.00     0.116 C 
BRANCH   2   3
ATOM      3  N   UNL A   1      33.595  23.177  22.846  1.00  0.00    -0.356 N 
ATOM      4  C   UNL A   1      32.690  22.233  23.231  1.00  0.00     0.220 C 
ATOM      5  O   UNL A   1      31.939  21.749  22.382  1.00  0.00    -0.275 OA
ATOM      6  H   UNL A   1      33.518  23.471  21.910  1.00  0.00     0.163 HD
BRANCH   4   7
ATOM      7  C   UNL A   1      32.600  21.793  24.678  1.00  0.00     0.105 C 
BRANCH   7   8
ATOM      8  C   UNL A   1      31.684  22.677  25.525  1.00  0.00     0.019 C 
ATOM      9  N   UNL A   1      30.544  24.749  25.528  1.00  0.00    -0.356 N 
ATOM     10  C   UNL A   1      31.438  24.787  26.676  1.00  0.00     0.118 C 
ATOM     11  C   UNL A   1      30.828  23.609  24.660  1.00  0.00     0.122 C 
ATOM     12  C   UNL A   1      32.424  23.664  26.419  1.00  0.00     0.027 C 
BRANCH   9  13
ATOM     13  C   UNL A   1      30.320  25.963  24.904  1.00  0.00     0.129 A 
ATOM     14  C   UNL A   1      32.214  29.212  24.659  1.00  0.00     0.052 C 
ATOM     15  C   UNL A   1      31.134  28.201  24.420  1.00  0.00     0.032 A 
ATOM     16  C   UNL A   1      31.245  26.983  25.106  1.00  0.00     0.057 A 
ATOM     17  C   UNL A   1      30.029  28.353  23.573  1.00  0.00     0.290 A 
ATOM     18  C   UNL A   1      29.138  27.295  23.429  1.00  0.00     0.199 A 
ATOM     19  N   UNL A   1      29.267  26.110  24.074  1.00  0.00    -0.232 NA
BRANCH  17  20
ATOM     20  N   UNL A   1      29.745  29.567  22.827  1.00  0.00     0.064 N 
ATOM     21  O   UNL A   1      29.421  30.572  23.475  1.00  0.00    -0.258 OA
ATOM     22  O   UNL A   1      29.875  29.536  21.595  1.00  0.00    -0.258 OA
ENDBRANCH  17  20
ENDBRANCH   9  13
ENDBRANCH   7   8
ENDBRANCH   4   7
ENDBRANCH   2   3
ENDBRANCH   1   2
BRANCH   1  23
ATOM     23  C   UNL A   1      36.163  21.812  24.194  1.00  0.00     0.023 C 
BRANCH  23  24
ATOM     24  C   UNL A   1      37.020  21.956  25.437  1.00  0.00     0.116 C 
BRANCH  24  25
ATOM     25  N   UNL A   1      38.058  20.939  25.561  1.00  0.00    -0.352 N 
ATOM     26  C   UNL A   1      39.322  21.075  26.099  1.00  0.00     0.251 C 
ATOM     27  H   UNL A   1      37.829  20.044  25.220  1.00  0.00     0.163 HD
ATOM     28  O   UNL A   1      40.120  20.155  26.070  1.00  0.00    -0.269 OA
BRANCH  26  29
ATOM     29  C   UNL A   1      39.695  22.388  26.670  1.00  0.00     0.039 A 
ATOM     30  C   UNL A   1      40.712  22.449  27.625  1.00  0.00     0.014 A 
ATOM     31  C   UNL A   1      39.121  23.554  26.162  1.00  0.00     0.014 A 
ATOM     32  C   UNL A   1      41.215  23.694  28.007  1.00  0.00     0.010 A 
ATOM     33  C   UNL A   1      39.699  24.779  26.458  1.00  0.00     0.010 A 
ATOM     34  C   UNL A   1      40.744  24.865  27.390  1.00  0.00    -0.014 A 
BRANCH  34  35
ATOM     35  C   UNL A   1      41.307  26.201  27.706  1.00  0.00     0.031 A 
ATOM     36  C   UNL A   1      42.711  26.533  27.277  1.00  0.00     0.074 A 
ATOM     37  C   UNL A   1      40.610  27.065  28.472  1.00  0.00     0.049 A 
ATOM     38  N   UNL A   1      43.430  27.589  27.547  1.00  0.00    -0.248 NA
ATOM     39  C   UNL A   1      43.415  25.518  26.473  1.00  0.00     0.031 C 
ATOM     40  C   UNL A   1      39.277  26.825  29.028  1.00  0.00     0.029 A 
ATOM     41  N   UNL A   1      40.940  28.313  28.936  1.00  0.00    -0.354 N 
ATOM     42  C   UNL A   1      44.682  27.342  26.996  1.00  0.00     0.074 A 
ATOM     43  C   UNL A   1      44.640  26.016  26.422  1.00  0.00     0.031 C 
ATOM     44  C   UNL A   1      38.895  27.898  29.739  1.00  0.00     0.029 A 
ATOM     45  C   UNL A   1      39.965  28.891  29.715  1.00  0.00     0.049 A 
ATOM     46  H   UNL A   1      41.796  28.755  28.731  1.00  0.00     0.167 HD
ATOM     47  C   UNL A   1      45.758  28.160  26.931  1.00  0.00     0.034 A 
ATOM     48  C   UNL A   1      39.936  30.088  30.333  1.00  0.00     0.034 A 
ATOM     49  C   UNL A   1      45.768  29.506  27.432  1.00  0.00     0.049 A 
ATOM     50  C   UNL A   1      41.116  31.011  30.184  1.00  0.00     0.074 A 
ATOM     51  C   UNL A   1      46.766  30.456  27.330  1.00  0.00     0.029 A 
ATOM     52  N   UNL A   1      44.719  30.096  28.121  1.00  0.00    -0.354 N 
ATOM     53  N   UNL A   1      42.235  30.820  29.528  1.00  0.00    -0.248 NA
ATOM     54  C   UNL A   1      41.014  32.328  30.829  1.00  0.00     0.031 C 
ATOM     55  C   UNL A   1      46.320  31.623  27.961  1.00  0.00     0.029 A 
ATOM     56  C   UNL A   1      45.041  31.400  28.447  1.00  0.00     0.049 A 
ATOM     57  H   UNL A   1      43.869  29.651  28.345  1.00  0.00     0.167 HD
ATOM     58  C   UNL A   1      42.954  32.004  29.647  1.00  0.00     0.074 A 
ATOM     59  C   UNL A   1      42.136  32.911  30.427  1.00  0.00     0.031 C 
ATOM     60  C   UNL A   1      44.185  32.308  29.169  1.00  0.00     0.034 A 
BRANCH  47  61
ATOM     61  C   UNL A   1      46.980  27.638  26.223  1.00  0.00     0.023 A 
ATOM     62  C   UNL A   1      47.937  26.900  26.951  1.00  0.00     0.012 A 
ATOM     63  C   UNL A   1      47.181  27.861  24.847  1.00  0.00     0.148 A 
ATOM     64  C   UNL A   1      49.098  26.436  26.334  1.00  0.00     0.002 A 
ATOM     65  C   UNL A   1      48.320  27.354  24.229  1.00  0.00     0.091 A 
ATOM     66  F   UNL A   1      46.277  28.588  24.175  1.00  0.00    -0.205 F 
ATOM     67  C   UNL A   1      49.285  26.655  24.973  1.00  0.00     0.022 A 
BRANCH  65  68
ATOM     68  S   UNL A   1      48.606  27.522  22.463  1.00  0.00     0.127 S 
ATOM     69  O   UNL A   1      47.458  28.329  22.054  1.00  0.00    -0.237 OA
ATOM     70  O   UNL A   1      49.890  28.223  22.420  1.00  0.00    -0.237 OA
ATOM     71  O   UNL A   1      48.645  26.164  21.940  1.00  0.00    -0.744 OA
ENDBRANCH  65  68
ENDBRANCH  47  61
BRANCH  48  72
ATOM     72  C   UNL A   1      38.706  30.523  31.053  1.00  0.00     0.023 A 
ATOM     73  C   UNL A   1      38.614  30.297  32.441  1.00  0.00     0.012 A 
ATOM     74  C   UNL A   1      37.656  31.194  30.396  1.00  0.00     0.148 A 
ATOM     75  C   UNL A   1      37.488  30.706  33.158  1.00  0.00     0.002 A 
ATOM     76  C   UNL A   1      36.559  31.641  31.125  1.00  0.00     0.091 A 
ATOM     77  F   UNL A   1      37.758  31.393  29.075  1.00  0.00    -0.205 F 
ATOM     78  C   UNL A   1      36.467  31.385  32.503  1.00  0.00     0.022 A 
BRANCH  76  79
ATOM     79  S   UNL A   1      35.252  32.634  30.393  1.00  0.00     0.127 S 
ATOM     80  O   UNL A   1      35.989  33.812  29.944  1.00  0.00    -0.237 OA
ATOM     81  O   UNL A   1      34.773  31.760  29.322  1.00  0.00    -0.237 OA
ATOM     82  O   UNL A   1      34.286  32.860  31.460  1.00  0.00    -0.744 OA
ENDBRANCH  76  79
ENDBRANCH  48  72
BRANCH  60  83
ATOM     83  C   UNL A   1      44.720  33.688  29.439  1.00  0.00     0.023 A 
ATOM     84  C   UNL A   1      45.405  33.947  30.642  1.00  0.00     0.012 A 
ATOM     85  C   UNL A   1      44.624  34.699  28.462  1.00  0.00     0.148 A 
ATOM     86  C   UNL A   1      45.968  35.201  30.879  1.00  0.00     0.002 A 
ATOM     87  C   UNL A   1      45.225  35.932  28.688  1.00  0.00     0.091 A 
ATOM     88  F   UNL A   1      43.949  34.437  27.334  1.00  0.00    -0.205 F 
ATOM     89  C   UNL A   1      45.889  36.188  29.898  1.00  0.00     0.022 A 
BRANCH  87  90
ATOM     90  S   UNL A   1      45.255  37.224  27.440  1.00  0.00     0.127 S 
ATOM     91  O   UNL A   1      45.976  36.568  26.349  1.00  0.00    -0.237 OA
ATOM     92  O   UNL A   1      43.831  37.444  27.183  1.00  0.00    -0.237 OA
ATOM     93  O   UNL A   1      45.938  38.355  28.054  1.00  0.00    -0.744 OA
ENDBRANCH  87  90
ENDBRANCH  60  83
ENDBRANCH  34  35
ENDBRANCH  26  29
ENDBRANCH  24  25
ENDBRANCH  23  24
ENDBRANCH   1  23
TORSDOF 17
ENDMDL
MODEL 2
REMARK VINA RESULT:     -11.9      6.441     11.498
REMARK SMILES Cc1cc(N2CC[C@H](CC(=O)NCCCCNC(=O)c3ccc(-c4c5nc(c(-c6cccc(S(=O)(=O)[O-])c6F)c6ccc([nH]6)c(-c6cccc(S(=O)(=O)[O-])c6F)c6nc(c(-c7cccc(S(=O)(=O)[O-])c7F)c7ccc4[nH]7)C=C6)C=C5)cc3)C2)ncc1[N+](=O)[O-]
REMARK SMILES IDX 14 1 13 2 12 3 10 4 11 5 9 7 8 8 5 9 6 10 83 11 7 12 4 13
REMARK SMILES IDX 1 14 2 15 3 16 86 17 85 18 84 19 87 20 88 21 89 22 15 23
REMARK SMILES IDX 16 24 17 25 18 26 19 28 20 29 21 30 82 31 22 32 81 33 23 34
REMARK SMILES IDX 24 35 25 36 75 37 26 38 80 39 74 40 76 41 27 42 79 43 73 44
REMARK SMILES IDX 72 45 28 47 60 48 40 49 59 50 41 51 44 52 58 53 77 54 42 55
REMARK SMILES IDX 43 56 57 58 78 59 45 60 29 61 30 62 38 63 31 64 33 65 39 66
REMARK SMILES IDX 32 67 34 68 35 69 36 70 37 71 61 72 62 73 70 74 63 75 65 76
REMARK SMILES IDX 71 77 64 78 66 79 67 80 68 81 69 82 46 83 47 84 55 85 48 86
REMARK SMILES IDX 50 87 56 88 49 89 51 90 52 91 53 92 54 93
REMARK H PARENT 12 6 17 27 76 46 44 57
REMARK Flexibility Score: inf
ROOT
ATOM      1  C   UNL A   1      33.602  32.879  27.849  1.00  0.00     0.023 C 
ENDROOT
BRANCH   1   2
ATOM      2  C   UNL A   1      34.511  32.185  28.864  1.00  0.00     0.116 C 
BRANCH   2   3
ATOM      3  N   UNL A   1      35.636  31.547  28.204  1.00  0.00    -0.356 N 
ATOM      4  C   UNL A   1      35.763  30.281  27.714  1.00  0.00     0.220 C 
ATOM      5  O   UNL A   1      36.859  29.917  27.284  1.00  0.00    -0.275 OA
ATOM      6  H   UNL A   1      36.430  32.118  28.092  1.00  0.00     0.163 HD
BRANCH   4   7
ATOM      7  C   UNL A   1      34.576  29.339  27.689  1.00  0.00     0.105 C 
BRANCH   7   8
ATOM      8  C   UNL A   1      34.379  28.648  26.340  1.00  0.00     0.019 C 
ATOM      9  N   UNL A   1      32.854  28.417  24.547  1.00  0.00    -0.356 N 
ATOM     10  C   UNL A   1      33.063  27.073  25.067  1.00  0.00     0.118 C 
ATOM     11  C   UNL A   1      33.427  29.430  25.429  1.00  0.00     0.122 C 
ATOM     12  C   UNL A   1      33.692  27.292  26.429  1.00  0.00     0.027 C 
BRANCH   9  13
ATOM     13  C   UNL A   1      31.592  28.673  24.044  1.00  0.00     0.129 A 
ATOM     14  C   UNL A   1      29.253  31.627  24.116  1.00  0.00     0.052 C 
ATOM     15  C   UNL A   1      29.772  30.262  23.779  1.00  0.00     0.032 A 
ATOM     16  C   UNL A   1      31.003  29.897  24.344  1.00  0.00     0.057 A 
ATOM     17  C   UNL A   1      29.153  29.320  22.950  1.00  0.00     0.290 A 
ATOM     18  C   UNL A   1      29.794  28.112  22.702  1.00  0.00     0.199 A 
ATOM     19  N   UNL A   1      30.996  27.776  23.231  1.00  0.00    -0.232 NA
BRANCH  17  20
ATOM     20  N   UNL A   1      27.857  29.525  22.323  1.00  0.00     0.064 N 
ATOM     21  O   UNL A   1      26.851  29.343  23.023  1.00  0.00    -0.258 OA
ATOM     22  O   UNL A   1      27.835  29.899  21.143  1.00  0.00    -0.258 OA
ENDBRANCH  17  20
ENDBRANCH   9  13
ENDBRANCH   7   8
ENDBRANCH   4   7
ENDBRANCH   2   3
ENDBRANCH   1   2
BRANCH   1  23
ATOM     23  C   UNL A   1      33.039  34.219  28.288  1.00  0.00     0.023 C 
BRANCH  23  24
ATOM     24  C   UNL A   1      33.730  34.826  29.494  1.00  0.00     0.116 C 
BRANCH  24  25
ATOM     25  N   UNL A   1      32.826  35.511  30.410  1.00  0.00    -0.352 N 
ATOM     26  C   UNL A   1      32.896  35.570  31.788  1.00  0.00     0.251 C 
ATOM     27  H   UNL A   1      32.072  35.990  29.996  1.00  0.00     0.163 HD
ATOM     28  O   UNL A   1      32.024  36.119  32.439  1.00  0.00    -0.269 OA
BRANCH  26  29
ATOM     29  C   UNL A   1      34.038  34.907  32.453  1.00  0.00     0.039 A 
ATOM     30  C   UNL A   1      33.861  33.634  32.999  1.00  0.00     0.014 A 
ATOM     31  C   UNL A   1      35.301  35.499  32.418  1.00  0.00     0.014 A 
ATOM     32  C   UNL A   1      34.978  32.916  33.433  1.00  0.00     0.010 A 
ATOM     33  C   UNL A   1      36.416  34.741  32.743  1.00  0.00     0.010 A 
ATOM     34  C   UNL A   1      36.267  33.447  33.263  1.00  0.00    -0.014 A 
BRANCH  34  35
ATOM     35  C   UNL A   1      37.485  32.686  33.635  1.00  0.00     0.031 A 
ATOM     36  C   UNL A   1      38.251  33.074  34.871  1.00  0.00     0.074 A 
ATOM     37  C   UNL A   1      37.967  31.733  32.811  1.00  0.00     0.049 A 
ATOM     38  N   UNL A   1      39.394  32.621  35.312  1.00  0.00    -0.248 NA
ATOM     39  C   UNL A   1      37.674  34.149  35.698  1.00  0.00     0.031 C 
ATOM     40  C   UNL A   1      37.367  31.328  31.537  1.00  0.00     0.029 A 
ATOM     41  N   UNL A   1      39.088  30.949  32.911  1.00  0.00    -0.354 N 
ATOM     42  C   UNL A   1      39.697  33.389  36.430  1.00  0.00     0.074 A 
ATOM     43  C   UNL A   1      38.645  34.370  36.570  1.00  0.00     0.031 C 
ATOM     44  C   UNL A   1      38.115  30.358  30.987  1.00  0.00     0.029 A 
ATOM     45  C   UNL A   1      39.261  30.091  31.850  1.00  0.00     0.049 A 
ATOM     46  H   UNL A   1      39.711  30.996  33.672  1.00  0.00     0.167 HD
ATOM     47  C   UNL A   1      40.732  33.262  37.293  1.00  0.00     0.034 A 
ATOM     48  C   UNL A   1      40.230  29.186  31.607  1.00  0.00     0.034 A 
ATOM     49  C   UNL A   1      41.730  32.235  37.195  1.00  0.00     0.049 A 
ATOM     50  C   UNL A   1      41.331  29.013  32.619  1.00  0.00     0.074 A 
ATOM     51  C   UNL A   1      42.764  31.952  38.068  1.00  0.00     0.029 A 
ATOM     52  N   UNL A   1      41.810  31.312  36.163  1.00  0.00    -0.354 N 
ATOM     53  N   UNL A   1      41.519  29.647  33.751  1.00  0.00    -0.248 NA
ATOM     54  C   UNL A   1      42.335  27.976  32.338  1.00  0.00     0.031 C 
ATOM     55  C   UNL A   1      43.471  30.856  37.561  1.00  0.00     0.029 A 
ATOM     56  C   UNL A   1      42.872  30.453  36.378  1.00  0.00     0.049 A 
ATOM     57  H   UNL A   1      41.200  31.274  35.391  1.00  0.00     0.167 HD
ATOM     58  C   UNL A   1      42.635  29.061  34.337  1.00  0.00     0.074 A 
ATOM     59  C   UNL A   1      43.073  28.011  33.439  1.00  0.00     0.031 C 
ATOM     60  C   UNL A   1      43.252  29.373  35.503  1.00  0.00     0.034 A 
BRANCH  47  61
ATOM     61  C   UNL A   1      40.780  34.217  38.456  1.00  0.00     0.023 A 
ATOM     62  C   UNL A   1      41.668  35.312  38.414  1.00  0.00     0.012 A 
ATOM     63  C   UNL A   1      39.950  34.045  39.580  1.00  0.00     0.148 A 
ATOM     64  C   UNL A   1      41.766  36.192  39.491  1.00  0.00     0.002 A 
ATOM     65  C   UNL A   1      40.020  34.954  40.630  1.00  0.00     0.091 A 
ATOM     66  F   UNL A   1      39.132  32.984  39.619  1.00  0.00    -0.205 F 
ATOM     67  C   UNL A   1      40.936  36.019  40.594  1.00  0.00     0.022 A 
BRANCH  65  68
ATOM     68  S   UNL A   1      38.934  34.854  42.058  1.00  0.00     0.127 S 
ATOM     69  O   UNL A   1      39.466  33.681  42.751  1.00  0.00    -0.237 OA
ATOM     70  O   UNL A   1      39.188  36.127  42.734  1.00  0.00    -0.237 OA
ATOM     71  O   UNL A   1      37.588  34.717  41.521  1.00  0.00    -0.744 OA
ENDBRANCH  65  68
ENDBRANCH  47  61
BRANCH  48  72
ATOM     72  C   UNL A   1      40.139  28.302  30.411  1.00  0.00     0.023 A 
ATOM     73  C   UNL A   1      39.166  27.282  30.391  1.00  0.00     0.012 A 
ATOM     74  C   UNL A   1      40.964  28.485  29.285  1.00  0.00     0.148 A 
ATOM     75  C   UNL A   1      39.034  26.444  29.284  1.00  0.00     0.002 A 
ATOM     76  C   UNL A   1      40.794  27.677  28.165  1.00  0.00     0.091 A 
ATOM     77  F   UNL A   1      41.889  29.455  29.326  1.00  0.00    -0.205 F 
ATOM     78  C   UNL A   1      39.840  26.647  28.169  1.00  0.00     0.022 A 
BRANCH  76  79
ATOM     79  S   UNL A   1      41.700  27.942  26.636  1.00  0.00     0.127 S 
ATOM     80  O   UNL A   1      43.074  27.680  27.053  1.00  0.00    -0.237 OA
ATOM     81  O   UNL A   1      41.116  26.925  25.760  1.00  0.00    -0.237 OA
ATOM     82  O   UNL A   1      41.408  29.313  26.240  1.00  0.00    -0.744 OA
ENDBRANCH  76  79
ENDBRANCH  48  72
BRANCH  60  83
ATOM     83  C   UNL A   1      44.448  28.552  35.904  1.00  0.00     0.023 A 
ATOM     84  C   UNL A   1      45.732  28.936  35.472  1.00  0.00     0.012 A 
ATOM     85  C   UNL A   1      44.307  27.459  36.781  1.00  0.00     0.148 A 
ATOM     86  C   UNL A   1      46.859  28.228  35.890  1.00  0.00     0.002 A 
ATOM     87  C   UNL A   1      45.439  26.787  37.229  1.00  0.00     0.091 A 
ATOM     88  F   UNL A   1      43.073  27.098  37.163  1.00  0.00    -0.205 F 
ATOM     89  C   UNL A   1      46.714  27.163  36.777  1.00  0.00     0.022 A 
BRANCH  87  90
ATOM     90  S   UNL A   1      45.349  25.468  38.445  1.00  0.00     0.127 S 
ATOM     91  O   UNL A   1      44.434  24.527  37.799  1.00  0.00    -0.237 OA
ATOM     92  O   UNL A   1      46.739  25.014  38.517  1.00  0.00    -0.237 OA
ATOM     93  O   UNL A   1      44.855  26.086  39.668  1.00  0.00    -0.744 OA
ENDBRANCH  87  90
ENDBRANCH  60  83
ENDBRANCH  34  35
ENDBRANCH  26  29
ENDBRANCH  24  25
ENDBRANCH  23  24
ENDBRANCH   1  23
TORSDOF 17
ENDMDL
MODEL 3
REMARK VINA RESULT:     -11.9      2.669      4.711
REMARK SMILES Cc1cc(N2CC[C@H](CC(=O)NCCCCNC(=O)c3ccc(-c4c5nc(c(-c6cccc(S(=O)(=O)[O-])c6F)c6ccc([nH]6)c(-c6cccc(S(=O)(=O)[O-])c6F)c6nc(c(-c7cccc(S(=O)(=O)[O-])c7F)c7ccc4[nH]7)C=C6)C=C5)cc3)C2)ncc1[N+](=O)[O-]
REMARK SMILES IDX 14 1 13 2 12 3 10 4 11 5 9 7 8 8 5 9 6 10 83 11 7 12 4 13
REMARK SMILES IDX 1 14 2 15 3 16 86 17 85 18 84 19 87 20 88 21 89 22 15 23
REMARK SMILES IDX 16 24 17 25 18 26 19 28 20 29 21 30 82 31 22 32 81 33 23 34
REMARK SMILES IDX 24 35 25 36 75 37 26 38 80 39 74 40 76 41 27 42 79 43 73 44
REMARK SMILES IDX 72 45 28 47 60 48 40 49 59 50 41 51 44 52 58 53 77 54 42 55
REMARK SMILES IDX 43 56 57 58 78 59 45 60 29 61 30 62 38 63 31 64 33 65 39 66
REMARK SMILES IDX 32 67 34 68 35 69 36 70 37 71 61 72 62 73 70 74 63 75 65 76
REMARK SMILES IDX 71 77 64 78 66 79 67 80 68 81 69 82 46 83 47 84 55 85 48 86
REMARK SMILES IDX 50 87 56 88 49 89 51 90 52 91 53 92 54 93
REMARK H PARENT 12 6 17 27 76 46 44 57
REMARK Flexibility Score: inf
ROOT
ATOM      1  C   UNL A   1      37.434  21.096  24.914  1.00  0.00     0.023 C 
ENDROOT
BRANCH   1   2
ATOM      2  C   UNL A   1      36.391  22.134  25.331  1.00  0.00     0.116 C 
BRANCH   2   3
ATOM      3  N   UNL A   1      36.105  23.049  24.240  1.00  0.00    -0.356 N 
ATOM      4  C   UNL A   1      34.966  23.739  23.950  1.00  0.00     0.220 C 
ATOM      5  O   UNL A   1      34.911  24.383  22.901  1.00  0.00    -0.275 OA
ATOM      6  H   UNL A   1      36.850  23.194  23.613  1.00  0.00     0.163 HD
BRANCH   4   7
ATOM      7  C   UNL A   1      33.789  23.724  24.905  1.00  0.00     0.105 C 
BRANCH   7   8
ATOM      8  C   UNL A   1      32.688  22.745  24.494  1.00  0.00     0.019 C 
ATOM      9  N   UNL A   1      32.132  20.447  24.448  1.00  0.00    -0.356 N 
ATOM     10  C   UNL A   1      32.080  20.896  23.064  1.00  0.00     0.118 C 
ATOM     11  C   UNL A   1      32.732  21.454  25.319  1.00  0.00     0.122 C 
ATOM     12  C   UNL A   1      32.821  22.218  23.071  1.00  0.00     0.027 C 
BRANCH   9  13
ATOM     13  C   UNL A   1      32.541  19.140  24.637  1.00  0.00     0.129 A 
ATOM     14  C   UNL A   1      34.337  16.587  22.526  1.00  0.00     0.052 C 
ATOM     15  C   UNL A   1      33.666  17.189  23.722  1.00  0.00     0.032 A 
ATOM     16  C   UNL A   1      33.133  18.477  23.567  1.00  0.00     0.057 A 
ATOM     17  C   UNL A   1      33.524  16.594  24.982  1.00  0.00     0.290 A 
ATOM     18  C   UNL A   1      32.912  17.311  26.003  1.00  0.00     0.199 A 
ATOM     19  N   UNL A   1      32.423  18.566  25.853  1.00  0.00    -0.232 NA
BRANCH  17  20
ATOM     20  N   UNL A   1      33.980  15.250  25.294  1.00  0.00     0.064 N 
ATOM     21  O   UNL A   1      33.116  14.373  25.438  1.00  0.00    -0.258 OA
ATOM     22  O   UNL A   1      35.201  15.052  25.367  1.00  0.00    -0.258 OA
ENDBRANCH  17  20
ENDBRANCH   9  13
ENDBRANCH   7   8
ENDBRANCH   4   7
ENDBRANCH   2   3
ENDBRANCH   1   2
BRANCH   1  23
ATOM     23  C   UNL A   1      38.859  21.396  25.344  1.00  0.00     0.023 C 
BRANCH  23  24
ATOM     24  C   UNL A   1      39.351  20.566  26.514  1.00  0.00     0.116 C 
BRANCH  24  25
ATOM     25  N   UNL A   1      40.351  19.568  26.152  1.00  0.00    -0.352 N 
ATOM     26  C   UNL A   1      41.715  19.738  26.026  1.00  0.00     0.251 C 
ATOM     27  H   UNL A   1      40.011  18.661  25.975  1.00  0.00     0.163 HD
ATOM     28  O   UNL A   1      42.429  18.829  25.642  1.00  0.00    -0.269 OA
BRANCH  26  29
ATOM     29  C   UNL A   1      42.279  21.072  26.330  1.00  0.00     0.039 A 
ATOM     30  C   UNL A   1      42.441  21.992  25.293  1.00  0.00     0.014 A 
ATOM     31  C   UNL A   1      42.522  21.437  27.654  1.00  0.00     0.014 A 
ATOM     32  C   UNL A   1      42.766  23.316  25.600  1.00  0.00     0.010 A 
ATOM     33  C   UNL A   1      42.732  22.773  27.962  1.00  0.00     0.010 A 
ATOM     34  C   UNL A   1      42.866  23.724  26.940  1.00  0.00    -0.014 A 
BRANCH  34  35
ATOM     35  C   UNL A   1      43.129  25.136  27.314  1.00  0.00     0.031 A 
ATOM     36  C   UNL A   1      44.520  25.693  27.166  1.00  0.00     0.074 A 
ATOM     37  C   UNL A   1      42.160  25.877  27.888  1.00  0.00     0.049 A 
ATOM     38  N   UNL A   1      44.989  26.854  27.538  1.00  0.00    -0.248 NA
ATOM     39  C   UNL A   1      45.529  24.805  26.562  1.00  0.00     0.031 C 
ATOM     40  C   UNL A   1      40.796  25.422  28.170  1.00  0.00     0.029 A 
ATOM     41  N   UNL A   1      42.182  27.164  28.363  1.00  0.00    -0.354 N 
ATOM     42  C   UNL A   1      46.351  26.815  27.263  1.00  0.00     0.074 A 
ATOM     43  C   UNL A   1      46.642  25.498  26.742  1.00  0.00     0.031 C 
ATOM     44  C   UNL A   1      40.109  26.420  28.748  1.00  0.00     0.029 A 
ATOM     45  C   UNL A   1      40.987  27.575  28.905  1.00  0.00     0.049 A 
ATOM     46  H   UNL A   1      42.980  27.740  28.319  1.00  0.00     0.167 HD
ATOM     47  C   UNL A   1      47.271  27.799  27.386  1.00  0.00     0.034 A 
ATOM     48  C   UNL A   1      40.639  28.754  29.459  1.00  0.00     0.034 A 
ATOM     49  C   UNL A   1      46.961  29.130  27.828  1.00  0.00     0.049 A 
ATOM     50  C   UNL A   1      41.660  29.858  29.517  1.00  0.00     0.074 A 
ATOM     51  C   UNL A   1      47.793  30.231  27.896  1.00  0.00     0.029 A 
ATOM     52  N   UNL A   1      45.711  29.542  28.267  1.00  0.00    -0.354 N 
ATOM     53  N   UNL A   1      42.906  29.852  29.111  1.00  0.00    -0.248 NA
ATOM     54  C   UNL A   1      41.218  31.143  30.079  1.00  0.00     0.031 C 
ATOM     55  C   UNL A   1      47.045  31.311  28.378  1.00  0.00     0.029 A 
ATOM     56  C   UNL A   1      45.746  30.882  28.602  1.00  0.00     0.049 A 
ATOM     57  H   UNL A   1      44.916  28.964  28.330  1.00  0.00     0.167 HD
ATOM     58  C   UNL A   1      43.386  31.138  29.329  1.00  0.00     0.074 A 
ATOM     59  C   UNL A   1      42.290  31.902  29.891  1.00  0.00     0.031 C 
ATOM     60  C   UNL A   1      44.625  31.639  29.100  1.00  0.00     0.034 A 
BRANCH  47  61
ATOM     61  C   UNL A   1      48.681  27.482  26.962  1.00  0.00     0.023 A 
ATOM     62  C   UNL A   1      49.589  26.973  27.912  1.00  0.00     0.012 A 
ATOM     63  C   UNL A   1      49.106  27.675  25.634  1.00  0.00     0.148 A 
ATOM     64  C   UNL A   1      50.912  26.706  27.562  1.00  0.00     0.002 A 
ATOM     65  C   UNL A   1      50.415  27.362  25.281  1.00  0.00     0.091 A 
ATOM     66  F   UNL A   1      48.240  28.186  24.748  1.00  0.00    -0.205 F 
ATOM     67  C   UNL A   1      51.322  26.892  26.245  1.00  0.00     0.022 A 
BRANCH  65  68
ATOM     68  S   UNL A   1      51.009  27.497  23.591  1.00  0.00     0.127 S 
ATOM     69  O   UNL A   1      49.992  26.743  22.859  1.00  0.00    -0.237 OA
ATOM     70  O   UNL A   1      50.976  28.942  23.362  1.00  0.00    -0.237 OA
ATOM     71  O   UNL A   1      52.346  26.919  23.596  1.00  0.00    -0.744 OA
ENDBRANCH  65  68
ENDBRANCH  47  61
BRANCH  48  72
ATOM     72  C   UNL A   1      39.233  28.983  29.896  1.00  0.00     0.023 A 
ATOM     73  C   UNL A   1      38.887  28.723  31.237  1.00  0.00     0.012 A 
ATOM     74  C   UNL A   1      38.255  29.495  29.022  1.00  0.00     0.148 A 
ATOM     75  C   UNL A   1      37.587  28.942  31.694  1.00  0.00     0.002 A 
ATOM     76  C   UNL A   1      36.973  29.757  29.496  1.00  0.00     0.091 A 
ATOM     77  F   UNL A   1      38.601  29.728  27.748  1.00  0.00    -0.205 F 
ATOM     78  C   UNL A   1      36.634  29.467  30.828  1.00  0.00     0.022 A 
BRANCH  76  79
ATOM     79  S   UNL A   1      35.713  30.549  28.490  1.00  0.00     0.127 S 
ATOM     80  O   UNL A   1      36.521  31.228  27.480  1.00  0.00    -0.237 OA
ATOM     81  O   UNL A   1      34.952  29.399  28.000  1.00  0.00    -0.237 OA
ATOM     82  O   UNL A   1      34.973  31.415  29.397  1.00  0.00    -0.744 OA
ENDBRANCH  76  79
ENDBRANCH  48  72
BRANCH  60  83
ATOM     83  C   UNL A   1      44.863  33.090  29.420  1.00  0.00     0.023 A 
ATOM     84  C   UNL A   1      45.360  33.450  30.689  1.00  0.00     0.012 A 
ATOM     85  C   UNL A   1      44.684  34.082  28.436  1.00  0.00     0.148 A 
ATOM     86  C   UNL A   1      45.652  34.783  30.980  1.00  0.00     0.002 A 
ATOM     87  C   UNL A   1      45.021  35.400  28.720  1.00  0.00     0.091 A 
ATOM     88  F   UNL A   1      44.191  33.719  27.243  1.00  0.00    -0.205 F 
ATOM     89  C   UNL A   1      45.496  35.754  29.993  1.00  0.00     0.022 A 
BRANCH  87  90
ATOM     90  S   UNL A   1      44.941  36.696  27.479  1.00  0.00     0.127 S 
ATOM     91  O   UNL A   1      45.945  36.248  26.514  1.00  0.00    -0.237 OA
ATOM     92  O   UNL A   1      43.558  36.595  27.010  1.00  0.00    -0.237 OA
ATOM     93  O   UNL A   1      45.249  37.937  28.177  1.00  0.00    -0.744 OA
ENDBRANCH  87  90
ENDBRANCH  60  83
ENDBRANCH  34  35
ENDBRANCH  26  29
ENDBRANCH  24  25
ENDBRANCH  23  24
ENDBRANCH   1  23
TORSDOF 17
ENDMDL
