MODEL 1
REMARK VINA RESULT:     -12.0      0.000      0.000
REMARK SMILES CC[C@@H]1CCC[C@@](Cc2cccc(O)c2)(C(=O)NCCCCNC(=O)c2ccc(-c3c4nc(c(-c5cccc(S(=O)(=O)[O-])c5F)c5ccc([nH]5)c(-c5cccc(S(=O)(=O)[O-])c5F)c5nc(c(-c6cccc(S(=O)(=O)[O-])c6F)c6ccc3[nH]6)C=C5)C=C4)cc2)C1
REMARK SMILES IDX 20 1 19 2 18 3 16 4 17 5 7 7 3 8 4 9 89 10 5 11 6 12 2 13
REMARK SMILES IDX 1 14 8 15 9 16 10 17 15 18 11 19 13 20 12 21 14 22 21 24
REMARK SMILES IDX 22 25 23 26 24 27 25 29 26 30 27 31 88 32 28 33 87 34 29 35
REMARK SMILES IDX 30 36 31 37 81 38 32 39 86 40 80 41 82 42 33 43 85 44 79 45
REMARK SMILES IDX 78 46 34 48 66 49 46 50 65 51 47 52 50 53 64 54 83 55 48 56
REMARK SMILES IDX 49 57 63 59 84 60 51 61 35 62 36 63 44 64 37 65 39 66 45 67
REMARK SMILES IDX 38 68 40 69 41 70 42 71 43 72 67 73 68 74 76 75 69 76 71 77
REMARK SMILES IDX 77 78 70 79 72 80 73 81 74 82 75 83 52 84 53 85 61 86 54 87
REMARK SMILES IDX 56 88 62 89 55 90 57 91 58 92 59 93 60 94
REMARK H PARENT 18 6 14 23 23 28 82 47 50 58
REMARK Flexibility Score: inf
ROOT
ATOM      1  C   UNL A   1      33.072  29.713  26.490  1.00  0.00     0.023 C 
ENDROOT
BRANCH   1   2
ATOM      2  C   UNL A   1      32.680  29.326  25.072  1.00  0.00     0.116 C 
BRANCH   2   3
ATOM      3  N   UNL A   1      33.363  28.152  24.571  1.00  0.00    -0.356 N 
ATOM      4  C   UNL A   1      32.917  27.078  23.863  1.00  0.00     0.226 C 
ATOM      5  O   UNL A   1      33.793  26.430  23.278  1.00  0.00    -0.274 OA
ATOM      6  H   UNL A   1      34.324  28.124  24.781  1.00  0.00     0.163 HD
BRANCH   4   7
ATOM      7  C   UNL A   1      31.421  26.673  23.735  1.00  0.00     0.053 C 
ATOM      8  C   UNL A   1      31.862  24.203  24.504  1.00  0.00    -0.010 C 
ATOM      9  C   UNL A   1      31.156  24.493  25.835  1.00  0.00     0.003 C 
ATOM     10  C   UNL A   1      31.369  25.138  23.378  1.00  0.00     0.020 C 
ATOM     11  C   UNL A   1      31.168  25.977  26.179  1.00  0.00     0.001 C 
ATOM     12  C   UNL A   1      30.590  26.808  25.031  1.00  0.00     0.017 C 
BRANCH   8  13
ATOM     13  C   UNL A   1      31.767  22.716  24.102  1.00  0.00     0.000 C 
ATOM     14  C   UNL A   1      32.740  22.256  23.023  1.00  0.00     0.004 C 
ENDBRANCH   8  13
BRANCH   7  15
ATOM     15  C   UNL A   1      30.766  27.392  22.509  1.00  0.00     0.052 C 
BRANCH  15  16
ATOM     16  C   UNL A   1      29.673  28.406  22.740  1.00  0.00    -0.043 A 
ATOM     17  C   UNL A   1      29.994  29.762  22.908  1.00  0.00     0.004 A 
ATOM     18  C   UNL A   1      28.328  28.017  22.803  1.00  0.00     0.049 A 
ATOM     19  C   UNL A   1      28.996  30.703  23.180  1.00  0.00     0.004 A 
ATOM     20  C   UNL A   1      27.342  28.961  23.086  1.00  0.00     0.115 A 
ATOM     21  C   UNL A   1      27.665  30.300  23.282  1.00  0.00     0.046 A 
BRANCH  20  22
ATOM     22  O   UNL A   1      26.054  28.524  23.186  1.00  0.00    -0.508 OA
ATOM     23  H   UNL A   1      25.346  29.107  22.991  1.00  0.00     0.293 HD
ENDBRANCH  20  22
ENDBRANCH  15  16
ENDBRANCH   7  15
ENDBRANCH   4   7
ENDBRANCH   2   3
ENDBRANCH   1   2
BRANCH   1  24
ATOM     24  C   UNL A   1      32.448  31.011  27.000  1.00  0.00     0.023 C 
BRANCH  24  25
ATOM     25  C   UNL A   1      33.422  32.118  27.401  1.00  0.00     0.116 C 
BRANCH  25  26
ATOM     26  N   UNL A   1      32.795  33.414  27.640  1.00  0.00    -0.352 N 
ATOM     27  C   UNL A   1      33.175  34.387  28.534  1.00  0.00     0.251 C 
ATOM     28  H   UNL A   1      32.001  33.616  27.093  1.00  0.00     0.163 HD
ATOM     29  O   UNL A   1      32.543  35.435  28.633  1.00  0.00    -0.269 OA
BRANCH  27  30
ATOM     30  C   UNL A   1      34.341  34.129  29.402  1.00  0.00     0.039 A 
ATOM     31  C   UNL A   1      34.149  33.455  30.610  1.00  0.00     0.014 A 
ATOM     32  C   UNL A   1      35.625  34.455  28.962  1.00  0.00     0.014 A 
ATOM     33  C   UNL A   1      35.260  33.022  31.338  1.00  0.00     0.010 A 
ATOM     34  C   UNL A   1      36.729  33.976  29.661  1.00  0.00     0.010 A 
ATOM     35  C   UNL A   1      36.557  33.236  30.842  1.00  0.00    -0.014 A 
BRANCH  35  36
ATOM     36  C   UNL A   1      37.747  32.640  31.500  1.00  0.00     0.031 A 
ATOM     37  C   UNL A   1      38.458  31.474  30.873  1.00  0.00     0.074 A 
ATOM     38  C   UNL A   1      38.106  33.068  32.728  1.00  0.00     0.049 A 
ATOM     39  N   UNL A   1      39.448  30.764  31.347  1.00  0.00    -0.248 NA
ATOM     40  C   UNL A   1      37.976  31.033  29.554  1.00  0.00     0.031 C 
ATOM     41  C   UNL A   1      37.438  34.133  33.481  1.00  0.00     0.029 A 
ATOM     42  N   UNL A   1      39.095  32.634  33.576  1.00  0.00    -0.354 N 
ATOM     43  C   UNL A   1      39.683  29.770  30.406  1.00  0.00     0.074 A 
ATOM     44  C   UNL A   1      38.717  29.954  29.344  1.00  0.00     0.031 C 
ATOM     45  C   UNL A   1      38.030  34.261  34.679  1.00  0.00     0.029 A 
ATOM     46  C   UNL A   1      39.101  33.277  34.792  1.00  0.00     0.049 A 
ATOM     47  H   UNL A   1      39.739  31.929  33.335  1.00  0.00     0.167 HD
ATOM     48  C   UNL A   1      40.636  28.808  30.411  1.00  0.00     0.034 A 
ATOM     49  C   UNL A   1      39.876  33.089  35.879  1.00  0.00     0.034 A 
ATOM     50  C   UNL A   1      41.631  28.662  31.439  1.00  0.00     0.049 A 
ATOM     51  C   UNL A   1      40.958  32.045  35.837  1.00  0.00     0.074 A 
ATOM     52  C   UNL A   1      42.705  27.790  31.477  1.00  0.00     0.029 A 
ATOM     53  N   UNL A   1      41.671  29.398  32.612  1.00  0.00    -0.354 N 
ATOM     54  N   UNL A   1      41.283  31.235  34.859  1.00  0.00    -0.248 NA
ATOM     55  C   UNL A   1      41.802  31.911  37.034  1.00  0.00     0.031 C 
ATOM     56  C   UNL A   1      43.391  27.994  32.680  1.00  0.00     0.029 A 
ATOM     57  C   UNL A   1      42.745  28.997  33.387  1.00  0.00     0.049 A 
ATOM     58  H   UNL A   1      41.029  30.103  32.859  1.00  0.00     0.167 HD
ATOM     59  C   UNL A   1      42.384  30.516  35.310  1.00  0.00     0.074 A 
ATOM     60  C   UNL A   1      42.686  31.001  36.640  1.00  0.00     0.031 C 
ATOM     61  C   UNL A   1      43.071  29.528  34.685  1.00  0.00     0.034 A 
BRANCH  48  62
ATOM     62  C   UNL A   1      40.698  27.880  29.229  1.00  0.00     0.023 A 
ATOM     63  C   UNL A   1      39.822  26.776  29.176  1.00  0.00     0.012 A 
ATOM     64  C   UNL A   1      41.567  28.128  28.150  1.00  0.00     0.148 A 
ATOM     65  C   UNL A   1      39.830  25.917  28.079  1.00  0.00     0.002 A 
ATOM     66  C   UNL A   1      41.542  27.287  27.042  1.00  0.00     0.091 A 
ATOM     67  F   UNL A   1      42.409  29.168  28.230  1.00  0.00    -0.205 F 
ATOM     68  C   UNL A   1      40.681  26.177  27.009  1.00  0.00     0.022 A 
BRANCH  66  69
ATOM     69  S   UNL A   1      42.553  27.580  25.587  1.00  0.00     0.127 S 
ATOM     70  O   UNL A   1      42.093  28.903  25.169  1.00  0.00    -0.237 OA
ATOM     71  O   UNL A   1      43.909  27.554  26.140  1.00  0.00    -0.237 OA
ATOM     72  O   UNL A   1      42.255  26.491  24.668  1.00  0.00    -0.744 OA
ENDBRANCH  66  69
ENDBRANCH  48  62
BRANCH  49  73
ATOM     73  C   UNL A   1      39.702  33.963  37.073  1.00  0.00     0.023 A 
ATOM     74  C   UNL A   1      40.066  35.320  36.989  1.00  0.00     0.012 A 
ATOM     75  C   UNL A   1      39.147  33.473  38.272  1.00  0.00     0.148 A 
ATOM     76  C   UNL A   1      39.906  36.170  38.083  1.00  0.00     0.002 A 
ATOM     77  C   UNL A   1      38.943  34.338  39.343  1.00  0.00     0.091 A 
ATOM     78  F   UNL A   1      38.823  32.175  38.341  1.00  0.00    -0.205 F 
ATOM     79  C   UNL A   1      39.334  35.682  39.256  1.00  0.00     0.022 A 
BRANCH  77  80
ATOM     80  S   UNL A   1      38.089  33.819  40.836  1.00  0.00     0.127 S 
ATOM     81  O   UNL A   1      38.968  32.765  41.333  1.00  0.00    -0.237 OA
ATOM     82  O   UNL A   1      38.088  35.047  41.634  1.00  0.00    -0.237 OA
ATOM     83  O   UNL A   1      36.766  33.397  40.396  1.00  0.00    -0.744 OA
ENDBRANCH  77  80
ENDBRANCH  49  73
BRANCH  61  84
ATOM     84  C   UNL A   1      44.231  28.910  35.417  1.00  0.00     0.023 A 
ATOM     85  C   UNL A   1      45.523  29.443  35.242  1.00  0.00     0.012 A 
ATOM     86  C   UNL A   1      44.030  27.869  36.344  1.00  0.00     0.148 A 
ATOM     87  C   UNL A   1      46.602  28.934  35.963  1.00  0.00     0.002 A 
ATOM     88  C   UNL A   1      45.103  27.395  37.089  1.00  0.00     0.091 A 
ATOM     89  F   UNL A   1      42.796  27.362  36.481  1.00  0.00    -0.205 F 
ATOM     90  C   UNL A   1      46.392  27.921  36.895  1.00  0.00     0.022 A 
BRANCH  88  91
ATOM     91  S   UNL A   1      44.907  26.154  38.374  1.00  0.00     0.127 S 
ATOM     92  O   UNL A   1      43.920  26.784  39.249  1.00  0.00    -0.237 OA
ATOM     93  O   UNL A   1      44.407  25.001  37.623  1.00  0.00    -0.237 OA
ATOM     94  O   UNL A   1      46.231  25.966  38.951  1.00  0.00    -0.744 OA
ENDBRANCH  88  91
ENDBRANCH  61  84
ENDBRANCH  35  36
ENDBRANCH  27  30
ENDBRANCH  25  26
ENDBRANCH  24  25
ENDBRANCH   1  24
TORSDOF 18
ENDMDL
MODEL 2
REMARK VINA RESULT:     -11.9      1.676      7.832
REMARK SMILES CC[C@@H]1CCC[C@@](Cc2cccc(O)c2)(C(=O)NCCCCNC(=O)c2ccc(-c3c4nc(c(-c5cccc(S(=O)(=O)[O-])c5F)c5ccc([nH]5)c(-c5cccc(S(=O)(=O)[O-])c5F)c5nc(c(-c6cccc(S(=O)(=O)[O-])c6F)c6ccc3[nH]6)C=C5)C=C4)cc2)C1
REMARK SMILES IDX 20 1 19 2 18 3 16 4 17 5 7 7 3 8 4 9 89 10 5 11 6 12 2 13
REMARK SMILES IDX 1 14 8 15 9 16 10 17 15 18 11 19 13 20 12 21 14 22 21 24
REMARK SMILES IDX 22 25 23 26 24 27 25 29 26 30 27 31 88 32 28 33 87 34 29 35
REMARK SMILES IDX 30 36 31 37 81 38 32 39 86 40 80 41 82 42 33 43 85 44 79 45
REMARK SMILES IDX 78 46 34 48 66 49 46 50 65 51 47 52 50 53 64 54 83 55 48 56
REMARK SMILES IDX 49 57 63 59 84 60 51 61 35 62 36 63 44 64 37 65 39 66 45 67
REMARK SMILES IDX 38 68 40 69 41 70 42 71 43 72 67 73 68 74 76 75 69 76 71 77
REMARK SMILES IDX 77 78 70 79 72 80 73 81 74 82 75 83 52 84 53 85 61 86 54 87
REMARK SMILES IDX 56 88 62 89 55 90 57 91 58 92 59 93 60 94
REMARK H PARENT 18 6 14 23 23 28 82 47 50 58
REMARK Flexibility Score: inf
ROOT
ATOM      1  C   UNL A   1      31.859  29.980  26.714  1.00  0.00     0.023 C 
ENDROOT
BRANCH   1   2
ATOM      2  C   UNL A   1      32.033  29.575  25.257  1.00  0.00     0.116 C 
BRANCH   2   3
ATOM      3  N   UNL A   1      32.861  28.403  25.066  1.00  0.00    -0.356 N 
ATOM      4  C   UNL A   1      32.676  27.274  24.330  1.00  0.00     0.226 C 
ATOM      5  O   UNL A   1      33.703  26.631  24.082  1.00  0.00    -0.274 OA
ATOM      6  H   UNL A   1      33.714  28.428  25.558  1.00  0.00     0.163 HD
BRANCH   4   7
ATOM      7  C   UNL A   1      31.300  26.801  23.783  1.00  0.00     0.053 C 
ATOM      8  C   UNL A   1      31.822  24.266  24.219  1.00  0.00    -0.010 C 
ATOM      9  C   UNL A   1      30.809  24.257  25.371  1.00  0.00     0.003 C 
ATOM     10  C   UNL A   1      31.496  25.357  23.177  1.00  0.00     0.020 C 
ATOM     11  C   UNL A   1      30.583  25.650  25.946  1.00  0.00     0.001 C 
ATOM     12  C   UNL A   1      30.190  26.638  24.847  1.00  0.00     0.017 C 
BRANCH   8  13
ATOM     13  C   UNL A   1      31.980  22.876  23.567  1.00  0.00     0.000 C 
ATOM     14  C   UNL A   1      33.385  22.286  23.594  1.00  0.00     0.004 C 
ENDBRANCH   8  13
BRANCH   7  15
ATOM     15  C   UNL A   1      30.862  27.688  22.571  1.00  0.00     0.052 C 
BRANCH  15  16
ATOM     16  C   UNL A   1      29.673  28.605  22.713  1.00  0.00    -0.043 A 
ATOM     17  C   UNL A   1      29.853  29.998  22.715  1.00  0.00     0.004 A 
ATOM     18  C   UNL A   1      28.377  28.092  22.859  1.00  0.00     0.049 A 
ATOM     19  C   UNL A   1      28.766  30.857  22.904  1.00  0.00     0.004 A 
ATOM     20  C   UNL A   1      27.303  28.957  23.058  1.00  0.00     0.115 A 
ATOM     21  C   UNL A   1      27.486  30.336  23.090  1.00  0.00     0.046 A 
BRANCH  20  22
ATOM     22  O   UNL A   1      26.068  28.406  23.243  1.00  0.00    -0.508 OA
ATOM     23  H   UNL A   1      25.351  28.946  23.511  1.00  0.00     0.293 HD
ENDBRANCH  20  22
ENDBRANCH  15  16
ENDBRANCH   7  15
ENDBRANCH   4   7
ENDBRANCH   2   3
ENDBRANCH   1   2
BRANCH   1  24
ATOM     24  C   UNL A   1      31.475  31.443  26.935  1.00  0.00     0.023 C 
BRANCH  24  25
ATOM     25  C   UNL A   1      32.546  32.480  26.598  1.00  0.00     0.116 C 
BRANCH  25  26
ATOM     26  N   UNL A   1      32.474  33.699  27.397  1.00  0.00    -0.352 N 
ATOM     27  C   UNL A   1      33.358  34.136  28.357  1.00  0.00     0.251 C 
ATOM     28  H   UNL A   1      31.697  34.280  27.229  1.00  0.00     0.163 HD
ATOM     29  O   UNL A   1      33.164  35.187  28.960  1.00  0.00    -0.269 OA
BRANCH  27  30
ATOM     30  C   UNL A   1      34.527  33.292  28.674  1.00  0.00     0.039 A 
ATOM     31  C   UNL A   1      35.804  33.852  28.602  1.00  0.00     0.014 A 
ATOM     32  C   UNL A   1      34.342  31.991  29.147  1.00  0.00     0.014 A 
ATOM     33  C   UNL A   1      36.897  33.134  29.096  1.00  0.00     0.010 A 
ATOM     34  C   UNL A   1      35.422  31.301  29.688  1.00  0.00     0.010 A 
ATOM     35  C   UNL A   1      36.705  31.875  29.688  1.00  0.00    -0.014 A 
BRANCH  35  36
ATOM     36  C   UNL A   1      37.813  31.164  30.376  1.00  0.00     0.031 A 
ATOM     37  C   UNL A   1      38.174  31.510  31.792  1.00  0.00     0.074 A 
ATOM     38  C   UNL A   1      38.576  30.299  29.676  1.00  0.00     0.049 A 
ATOM     39  N   UNL A   1      39.168  31.069  32.518  1.00  0.00    -0.248 NA
ATOM     40  C   UNL A   1      37.324  32.501  32.472  1.00  0.00     0.031 C 
ATOM     41  C   UNL A   1      38.382  29.947  28.268  1.00  0.00     0.029 A 
ATOM     42  N   UNL A   1      39.692  29.588  30.044  1.00  0.00    -0.354 N 
ATOM     43  C   UNL A   1      39.088  31.754  33.724  1.00  0.00     0.074 A 
ATOM     44  C   UNL A   1      37.961  32.657  33.624  1.00  0.00     0.031 C 
ATOM     45  C   UNL A   1      39.349  29.096  27.889  1.00  0.00     0.029 A 
ATOM     46  C   UNL A   1      40.246  28.860  29.016  1.00  0.00     0.049 A 
ATOM     47  H   UNL A   1      40.061  29.600  30.957  1.00  0.00     0.167 HD
ATOM     48  C   UNL A   1      39.864  31.622  34.825  1.00  0.00     0.034 A 
ATOM     49  C   UNL A   1      41.355  28.095  28.982  1.00  0.00     0.034 A 
ATOM     50  C   UNL A   1      40.947  30.683  34.943  1.00  0.00     0.049 A 
ATOM     51  C   UNL A   1      42.170  27.928  30.236  1.00  0.00     0.074 A 
ATOM     52  C   UNL A   1      41.719  30.397  36.056  1.00  0.00     0.029 A 
ATOM     53  N   UNL A   1      41.418  29.886  33.913  1.00  0.00    -0.354 N 
ATOM     54  N   UNL A   1      41.968  28.445  31.423  1.00  0.00    -0.248 NA
ATOM     55  C   UNL A   1      43.346  27.049  30.155  1.00  0.00     0.031 C 
ATOM     56  C   UNL A   1      42.663  29.429  35.695  1.00  0.00     0.029 A 
ATOM     57  C   UNL A   1      42.475  29.111  34.359  1.00  0.00     0.049 A 
ATOM     58  H   UNL A   1      41.054  29.871  32.998  1.00  0.00     0.167 HD
ATOM     59  C   UNL A   1      42.972  27.932  32.237  1.00  0.00     0.074 A 
ATOM     60  C   UNL A   1      43.768  27.047  31.414  1.00  0.00     0.031 C 
ATOM     61  C   UNL A   1      43.223  28.189  33.545  1.00  0.00     0.034 A 
BRANCH  48  62
ATOM     62  C   UNL A   1      39.522  32.463  36.025  1.00  0.00     0.023 A 
ATOM     63  C   UNL A   1      40.098  33.743  36.152  1.00  0.00     0.012 A 
ATOM     64  C   UNL A   1      38.593  32.021  36.986  1.00  0.00     0.148 A 
ATOM     65  C   UNL A   1      39.776  34.562  37.234  1.00  0.00     0.002 A 
ATOM     66  C   UNL A   1      38.249  32.859  38.042  1.00  0.00     0.091 A 
ATOM     67  F   UNL A   1      38.076  30.791  36.860  1.00  0.00    -0.205 F 
ATOM     68  C   UNL A   1      38.845  34.124  38.171  1.00  0.00     0.022 A 
BRANCH  66  69
ATOM     69  S   UNL A   1      37.009  32.410  39.262  1.00  0.00     0.127 S 
ATOM     70  O   UNL A   1      37.282  33.373  40.328  1.00  0.00    -0.237 OA
ATOM     71  O   UNL A   1      35.760  32.643  38.536  1.00  0.00    -0.237 OA
ATOM     72  O   UNL A   1      37.264  31.015  39.594  1.00  0.00    -0.744 OA
ENDBRANCH  66  69
ENDBRANCH  48  62
BRANCH  49  73
ATOM     73  C   UNL A   1      41.716  27.368  27.733  1.00  0.00     0.023 A 
ATOM     74  C   UNL A   1      42.217  28.095  26.637  1.00  0.00     0.012 A 
ATOM     75  C   UNL A   1      41.604  25.967  27.635  1.00  0.00     0.148 A 
ATOM     76  C   UNL A   1      42.577  27.447  25.456  1.00  0.00     0.002 A 
ATOM     77  C   UNL A   1      42.012  25.321  26.472  1.00  0.00     0.091 A 
ATOM     78  F   UNL A   1      41.107  25.292  28.681  1.00  0.00    -0.205 F 
ATOM     79  C   UNL A   1      42.485  26.059  25.377  1.00  0.00     0.022 A 
BRANCH  77  80
ATOM     80  S   UNL A   1      42.053  23.529  26.342  1.00  0.00     0.127 S 
ATOM     81  O   UNL A   1      42.711  23.337  25.053  1.00  0.00    -0.237 OA
ATOM     82  O   UNL A   1      42.855  23.153  27.507  1.00  0.00    -0.237 OA
ATOM     83  O   UNL A   1      40.661  23.106  26.421  1.00  0.00    -0.744 OA
ENDBRANCH  77  80
ENDBRANCH  49  73
BRANCH  61  84
ATOM     84  C   UNL A   1      44.396  27.493  34.182  1.00  0.00     0.023 A 
ATOM     85  C   UNL A   1      45.674  28.077  34.101  1.00  0.00     0.012 A 
ATOM     86  C   UNL A   1      44.217  26.317  34.936  1.00  0.00     0.148 A 
ATOM     87  C   UNL A   1      46.763  27.491  34.743  1.00  0.00     0.002 A 
ATOM     88  C   UNL A   1      45.299  25.760  35.608  1.00  0.00     0.091 A 
ATOM     89  F   UNL A   1      42.996  25.765  34.984  1.00  0.00    -0.205 F 
ATOM     90  C   UNL A   1      46.574  26.341  35.507  1.00  0.00     0.022 A 
BRANCH  88  91
ATOM     91  S   UNL A   1      45.129  24.332  36.685  1.00  0.00     0.127 S 
ATOM     92  O   UNL A   1      46.488  24.186  37.204  1.00  0.00    -0.237 OA
ATOM     93  O   UNL A   1      44.148  24.795  37.668  1.00  0.00    -0.237 OA
ATOM     94  O   UNL A   1      44.661  23.245  35.834  1.00  0.00    -0.744 OA
ENDBRANCH  88  91
ENDBRANCH  61  84
ENDBRANCH  35  36
ENDBRANCH  27  30
ENDBRANCH  25  26
ENDBRANCH  24  25
ENDBRANCH   1  24
TORSDOF 18
ENDMDL
MODEL 3
REMARK VINA RESULT:     -11.7      2.565      3.698
REMARK SMILES CC[C@@H]1CCC[C@@](Cc2cccc(O)c2)(C(=O)NCCCCNC(=O)c2ccc(-c3c4nc(c(-c5cccc(S(=O)(=O)[O-])c5F)c5ccc([nH]5)c(-c5cccc(S(=O)(=O)[O-])c5F)c5nc(c(-c6cccc(S(=O)(=O)[O-])c6F)c6ccc3[nH]6)C=C5)C=C4)cc2)C1
REMARK SMILES IDX 20 1 19 2 18 3 16 4 17 5 7 7 3 8 4 9 89 10 5 11 6 12 2 13
REMARK SMILES IDX 1 14 8 15 9 16 10 17 15 18 11 19 13 20 12 21 14 22 21 24
REMARK SMILES IDX 22 25 23 26 24 27 25 29 26 30 27 31 88 32 28 33 87 34 29 35
REMARK SMILES IDX 30 36 31 37 81 38 32 39 86 40 80 41 82 42 33 43 85 44 79 45
REMARK SMILES IDX 78 46 34 48 66 49 46 50 65 51 47 52 50 53 64 54 83 55 48 56
REMARK SMILES IDX 49 57 63 59 84 60 51 61 35 62 36 63 44 64 37 65 39 66 45 67
REMARK SMILES IDX 38 68 40 69 41 70 42 71 43 72 67 73 68 74 76 75 69 76 71 77
REMARK SMILES IDX 77 78 70 79 72 80 73 81 74 82 75 83 52 84 53 85 61 86 54 87
REMARK SMILES IDX 56 88 62 89 55 90 57 91 58 92 59 93 60 94
REMARK H PARENT 18 6 14 23 23 28 82 47 50 58
REMARK Flexibility Score: inf
ROOT
ATOM      1  C   UNL A   1      31.974  27.430  26.941  1.00  0.00     0.023 C 
ENDROOT
BRANCH   1   2
ATOM      2  C   UNL A   1      32.145  26.086  26.248  1.00  0.00     0.116 C 
BRANCH   2   3
ATOM      3  N   UNL A   1      31.421  25.002  26.878  1.00  0.00    -0.356 N 
ATOM      4  C   UNL A   1      31.425  23.660  26.654  1.00  0.00     0.226 C 
ATOM      5  O   UNL A   1      30.985  22.968  27.579  1.00  0.00    -0.274 OA
ATOM      6  H   UNL A   1      30.817  25.287  27.601  1.00  0.00     0.163 HD
BRANCH   4   7
ATOM      7  C   UNL A   1      31.966  22.990  25.359  1.00  0.00     0.053 C 
ATOM      8  C   UNL A   1      34.475  23.418  25.999  1.00  0.00    -0.010 C 
ATOM      9  C   UNL A   1      34.663  21.919  26.260  1.00  0.00     0.003 C 
ATOM     10  C   UNL A   1      33.333  23.687  24.994  1.00  0.00     0.020 C 
ATOM     11  C   UNL A   1      33.346  21.223  26.581  1.00  0.00     0.001 C 
ATOM     12  C   UNL A   1      32.308  21.488  25.490  1.00  0.00     0.017 C 
BRANCH   8  13
ATOM     13  C   UNL A   1      35.789  24.109  25.575  1.00  0.00     0.000 C 
ATOM     14  C   UNL A   1      36.514  23.486  24.388  1.00  0.00     0.004 C 
ENDBRANCH   8  13
BRANCH   7  15
ATOM     15  C   UNL A   1      31.023  23.301  24.150  1.00  0.00     0.052 C 
BRANCH  15  16
ATOM     16  C   UNL A   1      31.157  24.616  23.423  1.00  0.00    -0.043 A 
ATOM     17  C   UNL A   1      30.237  25.651  23.661  1.00  0.00     0.004 A 
ATOM     18  C   UNL A   1      32.185  24.827  22.494  1.00  0.00     0.049 A 
ATOM     19  C   UNL A   1      30.317  26.852  22.951  1.00  0.00     0.004 A 
ATOM     20  C   UNL A   1      32.248  26.025  21.784  1.00  0.00     0.115 A 
ATOM     21  C   UNL A   1      31.318  27.038  21.999  1.00  0.00     0.046 A 
BRANCH  20  22
ATOM     22  O   UNL A   1      33.238  26.163  20.856  1.00  0.00    -0.508 OA
ATOM     23  H   UNL A   1      33.080  25.923  19.964  1.00  0.00     0.293 HD
ENDBRANCH  20  22
ENDBRANCH  15  16
ENDBRANCH   7  15
ENDBRANCH   4   7
ENDBRANCH   2   3
ENDBRANCH   1   2
BRANCH   1  24
ATOM     24  C   UNL A   1      31.727  28.611  26.003  1.00  0.00     0.023 C 
BRANCH  24  25
ATOM     25  C   UNL A   1      32.827  29.670  25.947  1.00  0.00     0.116 C 
BRANCH  25  26
ATOM     26  N   UNL A   1      32.437  30.971  26.482  1.00  0.00    -0.352 N 
ATOM     27  C   UNL A   1      33.179  31.820  27.271  1.00  0.00     0.251 C 
ATOM     28  H   UNL A   1      31.531  31.280  26.249  1.00  0.00     0.163 HD
ATOM     29  O   UNL A   1      32.716  32.888  27.657  1.00  0.00    -0.269 OA
BRANCH  27  30
ATOM     30  C   UNL A   1      34.534  31.399  27.676  1.00  0.00     0.039 A 
ATOM     31  C   UNL A   1      35.540  32.363  27.778  1.00  0.00     0.014 A 
ATOM     32  C   UNL A   1      34.771  30.077  28.060  1.00  0.00     0.014 A 
ATOM     33  C   UNL A   1      36.765  32.018  28.355  1.00  0.00     0.010 A 
ATOM     34  C   UNL A   1      35.970  29.750  28.685  1.00  0.00     0.010 A 
ATOM     35  C   UNL A   1      36.969  30.722  28.859  1.00  0.00    -0.014 A 
BRANCH  35  36
ATOM     36  C   UNL A   1      38.188  30.374  29.632  1.00  0.00     0.031 A 
ATOM     37  C   UNL A   1      39.183  29.392  29.081  1.00  0.00     0.074 A 
ATOM     38  C   UNL A   1      38.330  30.845  30.888  1.00  0.00     0.049 A 
ATOM     39  N   UNL A   1      40.248  28.894  29.651  1.00  0.00    -0.248 NA
ATOM     40  C   UNL A   1      38.932  28.883  27.722  1.00  0.00     0.031 C 
ATOM     41  C   UNL A   1      37.386  31.735  31.569  1.00  0.00     0.029 A 
ATOM     42  N   UNL A   1      39.302  30.611  31.829  1.00  0.00    -0.354 N 
ATOM     43  C   UNL A   1      40.775  27.987  28.740  1.00  0.00     0.074 A 
ATOM     44  C   UNL A   1      39.898  27.986  27.589  1.00  0.00     0.031 C 
ATOM     45  C   UNL A   1      37.821  31.963  32.819  1.00  0.00     0.029 A 
ATOM     46  C   UNL A   1      39.057  31.219  33.039  1.00  0.00     0.049 A 
ATOM     47  H   UNL A   1      40.098  30.059  31.655  1.00  0.00     0.167 HD
ATOM     48  C   UNL A   1      41.902  27.244  28.841  1.00  0.00     0.034 A 
ATOM     49  C   UNL A   1      39.746  31.177  34.197  1.00  0.00     0.034 A 
ATOM     50  C   UNL A   1      42.801  27.289  29.962  1.00  0.00     0.049 A 
ATOM     51  C   UNL A   1      41.021  30.381  34.263  1.00  0.00     0.074 A 
ATOM     52  C   UNL A   1      44.025  26.658  30.107  1.00  0.00     0.029 A 
ATOM     53  N   UNL A   1      42.574  27.996  31.131  1.00  0.00    -0.354 N 
ATOM     54  N   UNL A   1      41.599  29.673  33.324  1.00  0.00    -0.248 NA
ATOM     55  C   UNL A   1      41.755  30.404  35.538  1.00  0.00     0.031 C 
ATOM     56  C   UNL A   1      44.535  26.979  31.370  1.00  0.00     0.029 A 
ATOM     57  C   UNL A   1      43.630  27.813  32.008  1.00  0.00     0.049 A 
ATOM     58  H   UNL A   1      41.780  28.548  31.312  1.00  0.00     0.167 HD
ATOM     59  C   UNL A   1      42.777  29.191  33.883  1.00  0.00     0.074 A 
ATOM     60  C   UNL A   1      42.842  29.704  35.235  1.00  0.00     0.031 C 
ATOM     61  C   UNL A   1      43.711  28.378  33.330  1.00  0.00     0.034 A 
BRANCH  48  62
ATOM     62  C   UNL A   1      42.268  26.370  27.673  1.00  0.00     0.023 A 
ATOM     63  C   UNL A   1      43.093  26.893  26.656  1.00  0.00     0.012 A 
ATOM     64  C   UNL A   1      41.854  25.026  27.607  1.00  0.00     0.148 A 
ATOM     65  C   UNL A   1      43.479  26.100  25.577  1.00  0.00     0.002 A 
ATOM     66  C   UNL A   1      42.274  24.231  26.546  1.00  0.00     0.091 A 
ATOM     67  F   UNL A   1      41.049  24.555  28.570  1.00  0.00    -0.205 F 
ATOM     68  C   UNL A   1      43.079  24.768  25.528  1.00  0.00     0.022 A 
BRANCH  66  69
ATOM     69  S   UNL A   1      41.865  22.485  26.431  1.00  0.00     0.127 S 
ATOM     70  O   UNL A   1      40.407  22.530  26.330  1.00  0.00    -0.237 OA
ATOM     71  O   UNL A   1      42.549  22.086  25.199  1.00  0.00    -0.237 OA
ATOM     72  O   UNL A   1      42.393  21.871  27.641  1.00  0.00    -0.744 OA
ENDBRANCH  66  69
ENDBRANCH  48  62
BRANCH  49  73
ATOM     73  C   UNL A   1      39.280  31.974  35.366  1.00  0.00     0.023 A 
ATOM     74  C   UNL A   1      38.407  31.380  36.297  1.00  0.00     0.012 A 
ATOM     75  C   UNL A   1      39.720  33.295  35.583  1.00  0.00     0.148 A 
ATOM     76  C   UNL A   1      37.959  32.092  37.410  1.00  0.00     0.002 A 
ATOM     77  C   UNL A   1      39.311  33.982  36.721  1.00  0.00     0.091 A 
ATOM     78  F   UNL A   1      40.536  33.852  34.677  1.00  0.00    -0.205 F 
ATOM     79  C   UNL A   1      38.420  33.388  37.628  1.00  0.00     0.022 A 
BRANCH  77  80
ATOM     80  S   UNL A   1      39.965  35.601  37.143  1.00  0.00     0.127 S 
ATOM     81  O   UNL A   1      39.288  35.877  38.407  1.00  0.00    -0.237 OA
ATOM     82  O   UNL A   1      41.399  35.335  37.256  1.00  0.00    -0.237 OA
ATOM     83  O   UNL A   1      39.608  36.463  36.024  1.00  0.00    -0.744 OA
ENDBRANCH  77  80
ENDBRANCH  49  73
BRANCH  61  84
ATOM     84  C   UNL A   1      44.899  28.000  34.174  1.00  0.00     0.023 A 
ATOM     85  C   UNL A   1      46.035  28.832  34.181  1.00  0.00     0.012 A 
ATOM     86  C   UNL A   1      44.855  26.880  35.026  1.00  0.00     0.148 A 
ATOM     87  C   UNL A   1      47.119  28.543  35.008  1.00  0.00     0.002 A 
ATOM     88  C   UNL A   1      45.922  26.621  35.878  1.00  0.00     0.091 A 
ATOM     89  F   UNL A   1      43.772  26.088  34.989  1.00  0.00    -0.205 F 
ATOM     90  C   UNL A   1      47.058  27.447  35.866  1.00  0.00     0.022 A 
BRANCH  88  91
ATOM     91  S   UNL A   1      45.891  25.283  37.077  1.00  0.00     0.127 S 
ATOM     92  O   UNL A   1      47.198  25.426  37.717  1.00  0.00    -0.237 OA
ATOM     93  O   UNL A   1      44.754  25.647  37.924  1.00  0.00    -0.237 OA
ATOM     94  O   UNL A   1      45.699  24.062  36.306  1.00  0.00    -0.744 OA
ENDBRANCH  88  91
ENDBRANCH  61  84
ENDBRANCH  35  36
ENDBRANCH  27  30
ENDBRANCH  25  26
ENDBRANCH  24  25
ENDBRANCH   1  24
TORSDOF 18
ENDMDL
