MODEL 1
REMARK VINA RESULT:     -12.0      0.000      0.000
REMARK SMILES Cc1ccc(Cl)c(Nc2ccccc2C(=O)N[C@@H](C)C(=O)NCCCCNC(=O)c2ccc(-c3c4nc(c(-c5cccc(S(=O)(=O)[O-])c5F)c5ccc([nH]5)c(-c5cccc(S(=O)(=O)[O-])c5F)c5nc(c(-c6cccc(S(=O)(=O)[O-])c6F)c6ccc3[nH]6)C=C5)C=C4)cc2)c1Cl
REMARK SMILES IDX 24 1 23 2 22 3 20 4 21 5 18 7 19 8 17 9 15 10 16 11 14 13
REMARK SMILES IDX 9 14 10 15 11 16 13 17 12 18 8 19 7 21 1 22 2 23 3 24 93 25
REMARK SMILES IDX 4 26 94 27 5 28 6 29 25 30 26 31 27 32 28 33 29 35 30 36
REMARK SMILES IDX 31 37 92 38 32 39 91 40 33 41 34 42 35 43 85 44 36 45 90 46
REMARK SMILES IDX 84 47 86 48 37 49 89 50 83 51 82 52 38 54 70 55 50 56 69 57
REMARK SMILES IDX 51 58 54 59 68 60 87 61 52 62 53 63 67 65 88 66 55 67 39 68
REMARK SMILES IDX 40 69 48 70 41 71 43 72 49 73 42 74 44 75 45 76 46 77 47 78
REMARK SMILES IDX 71 79 72 80 80 81 73 82 75 83 81 84 74 85 76 86 77 87 78 88
REMARK SMILES IDX 79 89 56 90 57 91 65 92 58 93 60 94 66 95 59 96 61 97 62 98
REMARK SMILES IDX 63 99 64 100
REMARK H PARENT 22 6 17 12 8 20 27 34 86 53 54 64
REMARK Flexibility Score: inf
ROOT
ATOM      1  C   UNL A   1      31.829  30.975  26.473  1.00  0.00     0.023 C 
ENDROOT
BRANCH   1   2
ATOM      2  C   UNL A   1      32.568  29.687  26.079  1.00  0.00     0.116 C 
BRANCH   2   3
ATOM      3  N   UNL A   1      32.882  28.842  27.213  1.00  0.00    -0.354 N 
ATOM      4  C   UNL A   1      32.017  27.818  27.470  1.00  0.00     0.242 C 
ATOM      5  O   UNL A   1      31.027  28.077  28.150  1.00  0.00    -0.273 OA
ATOM      6  H   UNL A   1      33.678  28.998  27.772  1.00  0.00     0.163 HD
BRANCH   4   7
ATOM      7  C   UNL A   1      32.279  26.423  26.855  1.00  0.00     0.168 C 
ATOM      8  C   UNL A   1      33.179  26.384  25.630  1.00  0.00     0.041 C 
BRANCH   7   9
ATOM      9  N   UNL A   1      30.946  25.913  26.586  1.00  0.00    -0.340 N 
ATOM     10  C   UNL A   1      30.584  24.604  26.348  1.00  0.00     0.254 C 
ATOM     11  O   UNL A   1      29.508  24.254  26.844  1.00  0.00    -0.269 OA
ATOM     12  H   UNL A   1      30.218  26.576  26.572  1.00  0.00     0.164 HD
BRANCH  10  13
ATOM     13  C   UNL A   1      31.224  23.722  25.315  1.00  0.00     0.063 A 
ATOM     14  C   UNL A   1      31.149  23.720  23.905  1.00  0.00     0.051 A 
ATOM     15  C   UNL A   1      31.764  22.649  23.207  1.00  0.00     0.027 A 
ATOM     16  C   UNL A   1      32.503  21.657  23.852  1.00  0.00     0.002 A 
ATOM     17  C   UNL A   1      32.007  22.714  25.941  1.00  0.00     0.016 A 
ATOM     18  C   UNL A   1      32.647  21.706  25.225  1.00  0.00     0.001 A 
BRANCH  14  19
ATOM     19  N   UNL A   1      30.630  24.715  23.054  1.00  0.00    -0.352 N 
ATOM     20  H   UNL A   1      29.952  24.368  22.430  1.00  0.00     0.167 HD
BRANCH  19  21
ATOM     21  C   UNL A   1      30.864  26.109  22.896  1.00  0.00     0.077 A 
ATOM     22  C   UNL A   1      33.650  28.690  22.358  1.00  0.00     0.046 C 
ATOM     23  C   UNL A   1      32.289  28.087  22.587  1.00  0.00    -0.030 A 
ATOM     24  C   UNL A   1      31.256  28.915  23.054  1.00  0.00     0.006 A 
ATOM     25  C   UNL A   1      32.069  26.693  22.451  1.00  0.00     0.069 A 
ATOM     26  C   UNL A   1      30.026  28.374  23.402  1.00  0.00     0.023 A 
ATOM     27  Cl  UNL A   1      33.294  25.747  21.662  1.00  0.00    -0.082 Cl
ATOM     28  C   UNL A   1      29.843  26.992  23.339  1.00  0.00     0.066 A 
ATOM     29  Cl  UNL A   1      28.317  26.370  23.895  1.00  0.00    -0.082 Cl
ENDBRANCH  19  21
ENDBRANCH  14  19
ENDBRANCH  10  13
ENDBRANCH   7   9
ENDBRANCH   4   7
ENDBRANCH   2   3
ENDBRANCH   1   2
BRANCH   1  30
ATOM     30  C   UNL A   1      32.456  31.764  27.624  1.00  0.00     0.023 C 
BRANCH  30  31
ATOM     31  C   UNL A   1      33.287  32.965  27.192  1.00  0.00     0.116 C 
BRANCH  31  32
ATOM     32  N   UNL A   1      32.803  34.210  27.771  1.00  0.00    -0.352 N 
ATOM     33  C   UNL A   1      33.191  34.857  28.915  1.00  0.00     0.251 C 
ATOM     34  H   UNL A   1      32.089  34.657  27.261  1.00  0.00     0.163 HD
ATOM     35  O   UNL A   1      32.568  35.829  29.312  1.00  0.00    -0.269 OA
BRANCH  33  36
ATOM     36  C   UNL A   1      34.349  34.346  29.666  1.00  0.00     0.039 A 
ATOM     37  C   UNL A   1      34.118  33.531  30.775  1.00  0.00     0.014 A 
ATOM     38  C   UNL A   1      35.649  34.654  29.257  1.00  0.00     0.014 A 
ATOM     39  C   UNL A   1      35.203  32.977  31.451  1.00  0.00     0.010 A 
ATOM     40  C   UNL A   1      36.723  34.039  29.884  1.00  0.00     0.010 A 
ATOM     41  C   UNL A   1      36.511  33.205  30.992  1.00  0.00    -0.014 A 
BRANCH  41  42
ATOM     42  C   UNL A   1      37.677  32.585  31.660  1.00  0.00     0.031 A 
ATOM     43  C   UNL A   1      38.398  31.447  30.995  1.00  0.00     0.074 A 
ATOM     44  C   UNL A   1      38.020  32.986  32.899  1.00  0.00     0.049 A 
ATOM     45  N   UNL A   1      39.374  30.712  31.455  1.00  0.00    -0.248 NA
ATOM     46  C   UNL A   1      37.938  31.063  29.649  1.00  0.00     0.031 C 
ATOM     47  C   UNL A   1      37.346  34.036  33.668  1.00  0.00     0.029 A 
ATOM     48  N   UNL A   1      39.004  32.537  33.743  1.00  0.00    -0.354 N 
ATOM     49  C   UNL A   1      39.620  29.757  30.476  1.00  0.00     0.074 A 
ATOM     50  C   UNL A   1      38.666  29.983  29.412  1.00  0.00     0.031 C 
ATOM     51  C   UNL A   1      37.936  34.149  34.869  1.00  0.00     0.029 A 
ATOM     52  C   UNL A   1      39.001  33.157  34.970  1.00  0.00     0.049 A 
ATOM     53  H   UNL A   1      39.649  31.836  33.494  1.00  0.00     0.167 HD
ATOM     54  C   UNL A   1      40.571  28.795  30.454  1.00  0.00     0.034 A 
ATOM     55  C   UNL A   1      39.762  32.938  36.060  1.00  0.00     0.034 A 
ATOM     56  C   UNL A   1      41.539  28.604  31.500  1.00  0.00     0.049 A 
ATOM     57  C   UNL A   1      40.832  31.882  35.997  1.00  0.00     0.074 A 
ATOM     58  C   UNL A   1      42.597  27.715  31.541  1.00  0.00     0.029 A 
ATOM     59  N   UNL A   1      41.562  29.311  32.693  1.00  0.00    -0.354 N 
ATOM     60  N   UNL A   1      41.143  31.082  35.007  1.00  0.00    -0.248 NA
ATOM     61  C   UNL A   1      41.680  31.723  37.187  1.00  0.00     0.031 C 
ATOM     62  C   UNL A   1      43.240  27.861  32.773  1.00  0.00     0.029 A 
ATOM     63  C   UNL A   1      42.609  28.871  33.482  1.00  0.00     0.049 A 
ATOM     64  H   UNL A   1      40.926  30.020  32.941  1.00  0.00     0.167 HD
ATOM     65  C   UNL A   1      42.248  30.357  35.435  1.00  0.00     0.074 A 
ATOM     66  C   UNL A   1      42.559  30.822  36.772  1.00  0.00     0.031 C 
ATOM     67  C   UNL A   1      42.937  29.387  34.786  1.00  0.00     0.034 A 
BRANCH  54  68
ATOM     68  C   UNL A   1      40.637  27.900  29.245  1.00  0.00     0.023 A 
ATOM     69  C   UNL A   1      39.772  26.790  29.147  1.00  0.00     0.012 A 
ATOM     70  C   UNL A   1      41.517  28.184  28.182  1.00  0.00     0.148 A 
ATOM     71  C   UNL A   1      39.806  25.958  28.030  1.00  0.00     0.002 A 
ATOM     72  C   UNL A   1      41.511  27.378  27.050  1.00  0.00     0.091 A 
ATOM     73  F   UNL A   1      42.349  29.228  28.303  1.00  0.00    -0.205 F 
ATOM     74  C   UNL A   1      40.667  26.258  26.977  1.00  0.00     0.022 A 
BRANCH  72  75
ATOM     75  S   UNL A   1      42.522  27.727  25.608  1.00  0.00     0.127 S 
ATOM     76  O   UNL A   1      43.852  27.847  26.203  1.00  0.00    -0.237 OA
ATOM     77  O   UNL A   1      42.323  26.526  24.796  1.00  0.00    -0.237 OA
ATOM     78  O   UNL A   1      41.987  28.950  25.027  1.00  0.00    -0.744 OA
ENDBRANCH  72  75
ENDBRANCH  54  68
BRANCH  55  79
ATOM     79  C   UNL A   1      39.574  33.772  37.280  1.00  0.00     0.023 A 
ATOM     80  C   UNL A   1      40.122  35.069  37.325  1.00  0.00     0.012 A 
ATOM     81  C   UNL A   1      38.837  33.299  38.382  1.00  0.00     0.148 A 
ATOM     82  C   UNL A   1      39.970  35.866  38.460  1.00  0.00     0.002 A 
ATOM     83  C   UNL A   1      38.641  34.119  39.486  1.00  0.00     0.091 A 
ATOM     84  F   UNL A   1      38.330  32.060  38.321  1.00  0.00    -0.205 F 
ATOM     85  C   UNL A   1      39.222  35.396  39.536  1.00  0.00     0.022 A 
BRANCH  83  86
ATOM     86  S   UNL A   1      37.586  33.647  40.861  1.00  0.00     0.127 S 
ATOM     87  O   UNL A   1      38.441  32.707  41.584  1.00  0.00    -0.237 OA
ATOM     88  O   UNL A   1      37.375  34.930  41.532  1.00  0.00    -0.237 OA
ATOM     89  O   UNL A   1      36.387  33.078  40.260  1.00  0.00    -0.744 OA
ENDBRANCH  83  86
ENDBRANCH  55  79
BRANCH  67  90
ATOM     90  C   UNL A   1      44.139  28.798  35.478  1.00  0.00     0.023 A 
ATOM     91  C   UNL A   1      45.420  29.336  35.253  1.00  0.00     0.012 A 
ATOM     92  C   UNL A   1      43.975  27.765  36.422  1.00  0.00     0.148 A 
ATOM     93  C   UNL A   1      46.527  28.833  35.936  1.00  0.00     0.002 A 
ATOM     94  C   UNL A   1      45.074  27.306  37.138  1.00  0.00     0.091 A 
ATOM     95  F   UNL A   1      42.748  27.257  36.607  1.00  0.00    -0.205 F 
ATOM     96  C   UNL A   1      46.352  27.830  36.886  1.00  0.00     0.022 A 
BRANCH  94  97
ATOM     97  S   UNL A   1      44.928  26.092  38.452  1.00  0.00     0.127 S 
ATOM     98  O   UNL A   1      44.280  24.980  37.760  1.00  0.00    -0.237 OA
ATOM     99  O   UNL A   1      46.327  25.856  38.810  1.00  0.00    -0.237 OA
ATOM    100  O   UNL A   1      44.134  26.722  39.498  1.00  0.00    -0.744 OA
ENDBRANCH  94  97
ENDBRANCH  67  90
ENDBRANCH  41  42
ENDBRANCH  33  36
ENDBRANCH  31  32
ENDBRANCH  30  31
ENDBRANCH   1  30
TORSDOF 18
ENDMDL
MODEL 2
REMARK VINA RESULT:     -11.8      2.609      8.399
REMARK SMILES Cc1ccc(Cl)c(Nc2ccccc2C(=O)N[C@@H](C)C(=O)NCCCCNC(=O)c2ccc(-c3c4nc(c(-c5cccc(S(=O)(=O)[O-])c5F)c5ccc([nH]5)c(-c5cccc(S(=O)(=O)[O-])c5F)c5nc(c(-c6cccc(S(=O)(=O)[O-])c6F)c6ccc3[nH]6)C=C5)C=C4)cc2)c1Cl
REMARK SMILES IDX 24 1 23 2 22 3 20 4 21 5 18 7 19 8 17 9 15 10 16 11 14 13
REMARK SMILES IDX 9 14 10 15 11 16 13 17 12 18 8 19 7 21 1 22 2 23 3 24 93 25
REMARK SMILES IDX 4 26 94 27 5 28 6 29 25 30 26 31 27 32 28 33 29 35 30 36
REMARK SMILES IDX 31 37 92 38 32 39 91 40 33 41 34 42 35 43 85 44 36 45 90 46
REMARK SMILES IDX 84 47 86 48 37 49 89 50 83 51 82 52 38 54 70 55 50 56 69 57
REMARK SMILES IDX 51 58 54 59 68 60 87 61 52 62 53 63 67 65 88 66 55 67 39 68
REMARK SMILES IDX 40 69 48 70 41 71 43 72 49 73 42 74 44 75 45 76 46 77 47 78
REMARK SMILES IDX 71 79 72 80 80 81 73 82 75 83 81 84 74 85 76 86 77 87 78 88
REMARK SMILES IDX 79 89 56 90 57 91 65 92 58 93 60 94 66 95 59 96 61 97 62 98
REMARK SMILES IDX 63 99 64 100
REMARK H PARENT 22 6 17 12 8 20 27 34 86 53 54 64
REMARK Flexibility Score: inf
ROOT
ATOM      1  C   UNL A   1      31.490  30.029  24.969  1.00  0.00     0.023 C 
ENDROOT
BRANCH   1   2
ATOM      2  C   UNL A   1      31.186  28.656  24.351  1.00  0.00     0.116 C 
BRANCH   2   3
ATOM      3  N   UNL A   1      31.863  27.567  25.024  1.00  0.00    -0.354 N 
ATOM      4  C   UNL A   1      31.077  26.552  25.487  1.00  0.00     0.242 C 
ATOM      5  O   UNL A   1      30.567  26.699  26.597  1.00  0.00    -0.273 OA
ATOM      6  H   UNL A   1      32.841  27.559  25.143  1.00  0.00     0.163 HD
BRANCH   4   7
ATOM      7  C   UNL A   1      30.815  25.318  24.593  1.00  0.00     0.168 C 
ATOM      8  C   UNL A   1      29.730  25.467  23.539  1.00  0.00     0.041 C 
BRANCH   7   9
ATOM      9  N   UNL A   1      30.526  24.260  25.546  1.00  0.00    -0.340 N 
ATOM     10  C   UNL A   1      31.390  23.707  26.467  1.00  0.00     0.254 C 
ATOM     11  O   UNL A   1      30.890  23.432  27.563  1.00  0.00    -0.269 OA
ATOM     12  H   UNL A   1      29.611  23.898  25.533  1.00  0.00     0.164 HD
BRANCH  10  13
ATOM     13  C   UNL A   1      32.745  23.155  26.134  1.00  0.00     0.063 A 
ATOM     14  C   UNL A   1      33.181  21.842  25.854  1.00  0.00     0.051 A 
ATOM     15  C   UNL A   1      34.576  21.618  25.719  1.00  0.00     0.027 A 
ATOM     16  C   UNL A   1      35.511  22.651  25.766  1.00  0.00     0.002 A 
ATOM     17  C   UNL A   1      33.720  24.190  26.149  1.00  0.00     0.016 A 
ATOM     18  C   UNL A   1      35.077  23.948  25.956  1.00  0.00     0.001 A 
BRANCH  14  19
ATOM     19  N   UNL A   1      32.403  20.702  25.574  1.00  0.00    -0.352 N 
ATOM     20  H   UNL A   1      31.716  20.531  26.257  1.00  0.00     0.167 HD
BRANCH  19  21
ATOM     21  C   UNL A   1      32.387  19.744  24.523  1.00  0.00     0.077 A 
ATOM     22  C   UNL A   1      33.508  16.186  23.624  1.00  0.00     0.046 C 
ATOM     23  C   UNL A   1      32.923  17.570  23.509  1.00  0.00    -0.030 A 
ATOM     24  C   UNL A   1      32.700  18.101  22.229  1.00  0.00     0.006 A 
ATOM     25  C   UNL A   1      32.706  18.375  24.656  1.00  0.00     0.069 A 
ATOM     26  C   UNL A   1      32.287  19.418  22.079  1.00  0.00     0.023 A 
ATOM     27  Cl  UNL A   1      32.777  17.611  26.214  1.00  0.00    -0.082 Cl
ATOM     28  C   UNL A   1      32.151  20.227  23.208  1.00  0.00     0.066 A 
ATOM     29  Cl  UNL A   1      31.740  21.896  22.941  1.00  0.00    -0.082 Cl
ENDBRANCH  19  21
ENDBRANCH  14  19
ENDBRANCH  10  13
ENDBRANCH   7   9
ENDBRANCH   4   7
ENDBRANCH   2   3
ENDBRANCH   1   2
BRANCH   1  30
ATOM     30  C   UNL A   1      32.768  30.101  25.808  1.00  0.00     0.023 C 
BRANCH  30  31
ATOM     31  C   UNL A   1      32.588  30.722  27.186  1.00  0.00     0.116 C 
BRANCH  31  32
ATOM     32  N   UNL A   1      32.802  32.162  27.178  1.00  0.00    -0.352 N 
ATOM     33  C   UNL A   1      33.837  32.900  27.689  1.00  0.00     0.251 C 
ATOM     34  H   UNL A   1      32.095  32.686  26.737  1.00  0.00     0.163 HD
ATOM     35  O   UNL A   1      33.773  34.119  27.707  1.00  0.00    -0.269 OA
BRANCH  33  36
ATOM     36  C   UNL A   1      35.010  32.199  28.238  1.00  0.00     0.039 A 
ATOM     37  C   UNL A   1      36.239  32.861  28.245  1.00  0.00     0.014 A 
ATOM     38  C   UNL A   1      34.883  30.911  28.762  1.00  0.00     0.014 A 
ATOM     39  C   UNL A   1      37.342  32.243  28.830  1.00  0.00     0.010 A 
ATOM     40  C   UNL A   1      35.963  30.331  29.413  1.00  0.00     0.010 A 
ATOM     41  C   UNL A   1      37.204  30.986  29.442  1.00  0.00    -0.014 A 
BRANCH  41  42
ATOM     42  C   UNL A   1      38.347  30.332  30.117  1.00  0.00     0.031 A 
ATOM     43  C   UNL A   1      38.722  30.743  31.512  1.00  0.00     0.074 A 
ATOM     44  C   UNL A   1      39.096  29.442  29.437  1.00  0.00     0.049 A 
ATOM     45  N   UNL A   1      39.741  30.361  32.236  1.00  0.00    -0.248 NA
ATOM     46  C   UNL A   1      37.857  31.737  32.169  1.00  0.00     0.031 C 
ATOM     47  C   UNL A   1      38.864  29.021  28.053  1.00  0.00     0.029 A 
ATOM     48  N   UNL A   1      40.224  28.756  29.809  1.00  0.00    -0.354 N 
ATOM     49  C   UNL A   1      39.663  31.096  33.413  1.00  0.00     0.074 A 
ATOM     50  C   UNL A   1      38.518  31.971  33.293  1.00  0.00     0.031 C 
ATOM     51  C   UNL A   1      39.819  28.149  27.693  1.00  0.00     0.029 A 
ATOM     52  C   UNL A   1      40.751  27.980  28.803  1.00  0.00     0.049 A 
ATOM     53  H   UNL A   1      40.619  28.813  30.708  1.00  0.00     0.167 HD
ATOM     54  C   UNL A   1      40.458  31.028  34.505  1.00  0.00     0.034 A 
ATOM     55  C   UNL A   1      41.868  27.229  28.775  1.00  0.00     0.034 A 
ATOM     56  C   UNL A   1      41.570  30.126  34.629  1.00  0.00     0.049 A 
ATOM     57  C   UNL A   1      42.718  27.148  30.015  1.00  0.00     0.074 A 
ATOM     58  C   UNL A   1      42.391  29.916  35.722  1.00  0.00     0.029 A 
ATOM     59  N   UNL A   1      42.023  29.288  33.620  1.00  0.00    -0.354 N 
ATOM     60  N   UNL A   1      42.550  27.742  31.171  1.00  0.00    -0.248 NA
ATOM     61  C   UNL A   1      43.892  26.266  29.959  1.00  0.00     0.031 C 
ATOM     62  C   UNL A   1      43.360  28.976  35.364  1.00  0.00     0.029 A 
ATOM     63  C   UNL A   1      43.118  28.567  34.062  1.00  0.00     0.049 A 
ATOM     64  H   UNL A   1      41.625  29.217  32.723  1.00  0.00     0.167 HD
ATOM     65  C   UNL A   1      43.566  27.273  31.993  1.00  0.00     0.074 A 
ATOM     66  C   UNL A   1      44.341  26.336  31.205  1.00  0.00     0.031 C 
ATOM     67  C   UNL A   1      43.840  27.596  33.281  1.00  0.00     0.034 A 
BRANCH  54  68
ATOM     68  C   UNL A   1      40.131  31.925  35.669  1.00  0.00     0.023 A 
ATOM     69  C   UNL A   1      40.898  33.088  35.894  1.00  0.00     0.012 A 
ATOM     70  C   UNL A   1      39.035  31.648  36.510  1.00  0.00     0.148 A 
ATOM     71  C   UNL A   1      40.603  33.940  36.957  1.00  0.00     0.002 A 
ATOM     72  C   UNL A   1      38.717  32.529  37.537  1.00  0.00     0.091 A 
ATOM     73  F   UNL A   1      38.332  30.527  36.295  1.00  0.00    -0.205 F 
ATOM     74  C   UNL A   1      39.506  33.667  37.770  1.00  0.00     0.022 A 
BRANCH  72  75
ATOM     75  S   UNL A   1      37.277  32.311  38.588  1.00  0.00     0.127 S 
ATOM     76  O   UNL A   1      36.232  32.952  37.792  1.00  0.00    -0.237 OA
ATOM     77  O   UNL A   1      37.174  30.853  38.670  1.00  0.00    -0.237 OA
ATOM     78  O   UNL A   1      37.594  32.970  39.847  1.00  0.00    -0.744 OA
ENDBRANCH  72  75
ENDBRANCH  54  68
BRANCH  55  79
ATOM     79  C   UNL A   1      42.216  26.453  27.553  1.00  0.00     0.023 A 
ATOM     80  C   UNL A   1      42.865  27.099  26.482  1.00  0.00     0.012 A 
ATOM     81  C   UNL A   1      41.931  25.078  27.454  1.00  0.00     0.148 A 
ATOM     82  C   UNL A   1      43.192  26.398  25.321  1.00  0.00     0.002 A 
ATOM     83  C   UNL A   1      42.310  24.372  26.318  1.00  0.00     0.091 A 
ATOM     84  F   UNL A   1      41.307  24.484  28.480  1.00  0.00    -0.205 F 
ATOM     85  C   UNL A   1      42.924  25.034  25.242  1.00  0.00     0.022 A 
BRANCH  83  86
ATOM     86  S   UNL A   1      42.122  22.591  26.182  1.00  0.00     0.127 S 
ATOM     87  O   UNL A   1      42.820  22.312  24.930  1.00  0.00    -0.237 OA
ATOM     88  O   UNL A   1      42.807  22.124  27.388  1.00  0.00    -0.237 OA
ATOM     89  O   UNL A   1      40.685  22.348  26.175  1.00  0.00    -0.744 OA
ENDBRANCH  83  86
ENDBRANCH  55  79
BRANCH  67  90
ATOM     90  C   UNL A   1      44.990  26.889  33.951  1.00  0.00     0.023 A 
ATOM     91  C   UNL A   1      46.283  27.442  33.905  1.00  0.00     0.012 A 
ATOM     92  C   UNL A   1      44.760  25.719  34.701  1.00  0.00     0.148 A 
ATOM     93  C   UNL A   1      47.340  26.823  34.573  1.00  0.00     0.002 A 
ATOM     94  C   UNL A   1      45.806  25.138  35.408  1.00  0.00     0.091 A 
ATOM     95  F   UNL A   1      43.523  25.201  34.716  1.00  0.00    -0.205 F 
ATOM     96  C   UNL A   1      47.098  25.681  35.334  1.00  0.00     0.022 A 
BRANCH  94  97
ATOM     97  S   UNL A   1      45.568  23.730  36.495  1.00  0.00     0.127 S 
ATOM     98  O   UNL A   1      46.945  23.379  36.835  1.00  0.00    -0.237 OA
ATOM     99  O   UNL A   1      44.798  24.315  37.593  1.00  0.00    -0.237 OA
ATOM    100  O   UNL A   1      44.846  22.735  35.714  1.00  0.00    -0.744 OA
ENDBRANCH  94  97
ENDBRANCH  67  90
ENDBRANCH  41  42
ENDBRANCH  33  36
ENDBRANCH  31  32
ENDBRANCH  30  31
ENDBRANCH   1  30
TORSDOF 18
ENDMDL
MODEL 3
REMARK VINA RESULT:     -11.6      1.942      3.300
REMARK SMILES Cc1ccc(Cl)c(Nc2ccccc2C(=O)N[C@@H](C)C(=O)NCCCCNC(=O)c2ccc(-c3c4nc(c(-c5cccc(S(=O)(=O)[O-])c5F)c5ccc([nH]5)c(-c5cccc(S(=O)(=O)[O-])c5F)c5nc(c(-c6cccc(S(=O)(=O)[O-])c6F)c6ccc3[nH]6)C=C5)C=C4)cc2)c1Cl
REMARK SMILES IDX 24 1 23 2 22 3 20 4 21 5 18 7 19 8 17 9 15 10 16 11 14 13
REMARK SMILES IDX 9 14 10 15 11 16 13 17 12 18 8 19 7 21 1 22 2 23 3 24 93 25
REMARK SMILES IDX 4 26 94 27 5 28 6 29 25 30 26 31 27 32 28 33 29 35 30 36
REMARK SMILES IDX 31 37 92 38 32 39 91 40 33 41 34 42 35 43 85 44 36 45 90 46
REMARK SMILES IDX 84 47 86 48 37 49 89 50 83 51 82 52 38 54 70 55 50 56 69 57
REMARK SMILES IDX 51 58 54 59 68 60 87 61 52 62 53 63 67 65 88 66 55 67 39 68
REMARK SMILES IDX 40 69 48 70 41 71 43 72 49 73 42 74 44 75 45 76 46 77 47 78
REMARK SMILES IDX 71 79 72 80 80 81 73 82 75 83 81 84 74 85 76 86 77 87 78 88
REMARK SMILES IDX 79 89 56 90 57 91 65 92 58 93 60 94 66 95 59 96 61 97 62 98
REMARK SMILES IDX 63 99 64 100
REMARK H PARENT 22 6 17 12 8 20 27 34 86 53 54 64
REMARK Flexibility Score: inf
ROOT
ATOM      1  C   UNL A   1      30.659  31.428  25.365  1.00  0.00     0.023 C 
ENDROOT
BRANCH   1   2
ATOM      2  C   UNL A   1      30.863  30.034  24.754  1.00  0.00     0.116 C 
BRANCH   2   3
ATOM      3  N   UNL A   1      30.007  29.783  23.613  1.00  0.00    -0.354 N 
ATOM      4  C   UNL A   1      30.546  29.057  22.591  1.00  0.00     0.242 C 
ATOM      5  O   UNL A   1      31.202  29.671  21.752  1.00  0.00    -0.273 OA
ATOM      6  H   UNL A   1      29.082  30.119  23.575  1.00  0.00     0.163 HD
BRANCH   4   7
ATOM      7  C   UNL A   1      30.371  27.521  22.568  1.00  0.00     0.168 C 
ATOM      8  C   UNL A   1      29.821  26.885  23.834  1.00  0.00     0.041 C 
BRANCH   7   9
ATOM      9  N   UNL A   1      31.695  27.030  22.226  1.00  0.00    -0.340 N 
ATOM     10  C   UNL A   1      32.640  26.508  23.083  1.00  0.00     0.254 C 
ATOM     11  O   UNL A   1      33.290  25.556  22.637  1.00  0.00    -0.269 OA
ATOM     12  H   UNL A   1      31.946  27.076  21.275  1.00  0.00     0.164 HD
BRANCH  10  13
ATOM     13  C   UNL A   1      33.119  27.187  24.332  1.00  0.00     0.063 A 
ATOM     14  C   UNL A   1      32.943  26.875  25.698  1.00  0.00     0.051 A 
ATOM     15  C   UNL A   1      33.405  27.810  26.660  1.00  0.00     0.027 A 
ATOM     16  C   UNL A   1      34.094  28.970  26.310  1.00  0.00     0.002 A 
ATOM     17  C   UNL A   1      33.849  28.363  24.009  1.00  0.00     0.016 A 
ATOM     18  C   UNL A   1      34.341  29.234  24.977  1.00  0.00     0.001 A 
BRANCH  14  19
ATOM     19  N   UNL A   1      32.456  25.682  26.268  1.00  0.00    -0.352 N 
ATOM     20  H   UNL A   1      31.910  25.838  27.072  1.00  0.00     0.167 HD
BRANCH  19  21
ATOM     21  C   UNL A   1      32.576  24.303  25.941  1.00  0.00     0.077 A 
ATOM     22  C   UNL A   1      34.868  21.775  24.189  1.00  0.00     0.046 C 
ATOM     23  C   UNL A   1      33.692  22.365  24.921  1.00  0.00    -0.030 A 
ATOM     24  C   UNL A   1      32.487  21.645  24.952  1.00  0.00     0.006 A 
ATOM     25  C   UNL A   1      33.747  23.670  25.472  1.00  0.00     0.069 A 
ATOM     26  C   UNL A   1      31.345  22.211  25.501  1.00  0.00     0.023 A 
ATOM     27  Cl  UNL A   1      35.303  24.430  25.614  1.00  0.00    -0.082 Cl
ATOM     28  C   UNL A   1      31.388  23.524  25.971  1.00  0.00     0.066 A 
ATOM     29  Cl  UNL A   1      29.896  24.210  26.543  1.00  0.00    -0.082 Cl
ENDBRANCH  19  21
ENDBRANCH  14  19
ENDBRANCH  10  13
ENDBRANCH   7   9
ENDBRANCH   4   7
ENDBRANCH   2   3
ENDBRANCH   1   2
BRANCH   1  30
ATOM     30  C   UNL A   1      31.321  31.648  26.728  1.00  0.00     0.023 C 
BRANCH  30  31
ATOM     31  C   UNL A   1      32.584  32.497  26.691  1.00  0.00     0.116 C 
BRANCH  31  32
ATOM     32  N   UNL A   1      32.394  33.802  27.307  1.00  0.00    -0.352 N 
ATOM     33  C   UNL A   1      33.068  34.392  28.344  1.00  0.00     0.251 C 
ATOM     34  H   UNL A   1      31.669  34.344  26.920  1.00  0.00     0.163 HD
ATOM     35  O   UNL A   1      32.671  35.446  28.815  1.00  0.00    -0.269 OA
BRANCH  33  36
ATOM     36  C   UNL A   1      34.259  33.722  28.893  1.00  0.00     0.039 A 
ATOM     37  C   UNL A   1      35.508  34.311  28.691  1.00  0.00     0.014 A 
ATOM     38  C   UNL A   1      34.131  32.538  29.622  1.00  0.00     0.014 A 
ATOM     39  C   UNL A   1      36.635  33.733  29.269  1.00  0.00     0.010 A 
ATOM     40  C   UNL A   1      35.243  32.009  30.261  1.00  0.00     0.010 A 
ATOM     41  C   UNL A   1      36.506  32.594  30.081  1.00  0.00    -0.014 A 
BRANCH  41  42
ATOM     42  C   UNL A   1      37.681  31.991  30.750  1.00  0.00     0.031 A 
ATOM     43  C   UNL A   1      38.491  30.948  30.033  1.00  0.00     0.074 A 
ATOM     44  C   UNL A   1      37.953  32.314  32.028  1.00  0.00     0.049 A 
ATOM     45  N   UNL A   1      39.491  30.235  30.478  1.00  0.00    -0.248 NA
ATOM     46  C   UNL A   1      38.106  30.644  28.644  1.00  0.00     0.031 C 
ATOM     47  C   UNL A   1      37.190  33.263  32.844  1.00  0.00     0.029 A 
ATOM     48  N   UNL A   1      38.928  31.856  32.877  1.00  0.00    -0.354 N 
ATOM     49  C   UNL A   1      39.829  29.373  29.442  1.00  0.00     0.074 A 
ATOM     50  C   UNL A   1      38.905  29.626  28.359  1.00  0.00     0.031 C 
ATOM     51  C   UNL A   1      37.726  33.316  34.073  1.00  0.00     0.029 A 
ATOM     52  C   UNL A   1      38.842  32.380  34.146  1.00  0.00     0.049 A 
ATOM     53  H   UNL A   1      39.622  31.214  32.605  1.00  0.00     0.167 HD
ATOM     54  C   UNL A   1      40.834  28.470  29.389  1.00  0.00     0.034 A 
ATOM     55  C   UNL A   1      39.573  32.121  35.248  1.00  0.00     0.034 A 
ATOM     56  C   UNL A   1      41.772  28.254  30.457  1.00  0.00     0.049 A 
ATOM     57  C   UNL A   1      40.704  31.134  35.152  1.00  0.00     0.074 A 
ATOM     58  C   UNL A   1      42.877  27.423  30.477  1.00  0.00     0.029 A 
ATOM     59  N   UNL A   1      41.708  28.867  31.700  1.00  0.00    -0.354 N 
ATOM     60  N   UNL A   1      41.099  30.429  34.119  1.00  0.00    -0.248 NA
ATOM     61  C   UNL A   1      41.514  30.931  36.361  1.00  0.00     0.031 C 
ATOM     62  C   UNL A   1      43.464  27.510  31.742  1.00  0.00     0.029 A 
ATOM     63  C   UNL A   1      42.748  28.426  32.497  1.00  0.00     0.049 A 
ATOM     64  H   UNL A   1      41.023  29.519  31.973  1.00  0.00     0.167 HD
ATOM     65  C   UNL A   1      42.227  29.736  34.539  1.00  0.00     0.074 A 
ATOM     66  C   UNL A   1      42.459  30.114  35.918  1.00  0.00     0.031 C 
ATOM     67  C   UNL A   1      42.996  28.859  33.849  1.00  0.00     0.034 A 
BRANCH  54  68
ATOM     68  C   UNL A   1      40.999  27.675  28.121  1.00  0.00     0.023 A 
ATOM     69  C   UNL A   1      41.566  28.283  26.981  1.00  0.00     0.012 A 
ATOM     70  C   UNL A   1      40.640  26.313  28.069  1.00  0.00     0.148 A 
ATOM     71  C   UNL A   1      41.741  27.561  25.802  1.00  0.00     0.002 A 
ATOM     72  C   UNL A   1      40.862  25.587  26.906  1.00  0.00     0.091 A 
ATOM     73  F   UNL A   1      40.080  25.759  29.153  1.00  0.00    -0.205 F 
ATOM     74  C   UNL A   1      41.400  26.211  25.768  1.00  0.00     0.022 A 
BRANCH  72  75
ATOM     75  S   UNL A   1      40.535  23.826  26.786  1.00  0.00     0.127 S 
ATOM     76  O   UNL A   1      39.144  23.816  26.333  1.00  0.00    -0.237 OA
ATOM     77  O   UNL A   1      41.507  23.400  25.779  1.00  0.00    -0.237 OA
ATOM     78  O   UNL A   1      40.760  23.282  28.118  1.00  0.00    -0.744 OA
ENDBRANCH  72  75
ENDBRANCH  54  68
BRANCH  55  79
ATOM     79  C   UNL A   1      39.291  32.847  36.517  1.00  0.00     0.023 A 
ATOM     80  C   UNL A   1      39.884  34.105  36.743  1.00  0.00     0.012 A 
ATOM     81  C   UNL A   1      38.421  32.313  37.487  1.00  0.00     0.148 A 
ATOM     82  C   UNL A   1      39.645  34.801  37.929  1.00  0.00     0.002 A 
ATOM     83  C   UNL A   1      38.142  33.037  38.640  1.00  0.00     0.091 A 
ATOM     84  F   UNL A   1      37.872  31.113  37.255  1.00  0.00    -0.205 F 
ATOM     85  C   UNL A   1      38.768  34.273  38.872  1.00  0.00     0.022 A 
BRANCH  83  86
ATOM     86  S   UNL A   1      36.928  32.495  39.847  1.00  0.00     0.127 S 
ATOM     87  O   UNL A   1      37.429  31.168  40.200  1.00  0.00    -0.237 OA
ATOM     88  O   UNL A   1      37.073  33.507  40.894  1.00  0.00    -0.237 OA
ATOM     89  O   UNL A   1      35.646  32.524  39.156  1.00  0.00    -0.744 OA
ENDBRANCH  83  86
ENDBRANCH  55  79
BRANCH  67  90
ATOM     90  C   UNL A   1      44.203  28.286  34.546  1.00  0.00     0.023 A 
ATOM     91  C   UNL A   1      45.429  28.977  34.522  1.00  0.00     0.012 A 
ATOM     92  C   UNL A   1      44.088  27.101  35.300  1.00  0.00     0.148 A 
ATOM     93  C   UNL A   1      46.533  28.481  35.214  1.00  0.00     0.002 A 
ATOM     94  C   UNL A   1      45.176  26.642  36.031  1.00  0.00     0.091 A 
ATOM     95  F   UNL A   1      42.915  26.451  35.294  1.00  0.00    -0.205 F 
ATOM     96  C   UNL A   1      46.403  27.324  35.978  1.00  0.00     0.022 A 
BRANCH  94  97
ATOM     97  S   UNL A   1      45.072  25.221  37.122  1.00  0.00     0.127 S 
ATOM     98  O   UNL A   1      44.688  24.159  36.194  1.00  0.00    -0.237 OA
ATOM     99  O   UNL A   1      46.441  25.122  37.630  1.00  0.00    -0.237 OA
ATOM    100  O   UNL A   1      44.077  25.558  38.130  1.00  0.00    -0.744 OA
ENDBRANCH  94  97
ENDBRANCH  67  90
ENDBRANCH  41  42
ENDBRANCH  33  36
ENDBRANCH  31  32
ENDBRANCH  30  31
ENDBRANCH   1  30
TORSDOF 18
ENDMDL
