MODEL 1
REMARK VINA RESULT:     -11.8      0.000      0.000
REMARK SMILES C[C@@H](C(=O)NCc1ccc(F)cc1)n1cc(C(=O)NCCCCNC(=O)c2ccc(-c3c4nc(c(-c5cccc(S(=O)(=O)[O-])c5F)c5ccc([nH]5)c(-c5cccc(S(=O)(=O)[O-])c5F)c5nc(c(-c6cccc(S(=O)(=O)[O-])c6F)c6ccc3[nH]6)C=C5)C=C4)cc2)cn1
REMARK SMILES IDX 21 1 20 2 19 3 17 4 18 5 16 7 14 8 15 9 91 10 90 11 2 12
REMARK SMILES IDX 1 13 3 14 4 15 5 16 6 18 7 19 8 20 13 21 9 22 12 23 10 24
REMARK SMILES IDX 11 25 22 26 23 27 24 28 25 29 26 31 27 32 28 33 89 34 29 35
REMARK SMILES IDX 88 36 30 37 31 38 32 39 82 40 33 41 87 42 81 43 83 44 34 45
REMARK SMILES IDX 86 46 80 47 79 48 35 50 67 51 47 52 66 53 48 54 51 55 65 56
REMARK SMILES IDX 84 57 49 58 50 59 64 61 85 62 52 63 36 64 37 65 45 66 38 67
REMARK SMILES IDX 40 68 46 69 39 70 41 71 42 72 43 73 44 74 68 75 69 76 77 77
REMARK SMILES IDX 70 78 72 79 78 80 71 81 73 82 74 83 75 84 76 85 53 86 54 87
REMARK SMILES IDX 62 88 55 89 57 90 63 91 56 92 58 93 59 94 60 95 61 96
REMARK H PARENT 19 6 5 17 24 30 83 49 51 60
REMARK Flexibility Score: inf
ROOT
ATOM      1  C   UNL A   1      36.369  21.222  24.756  1.00  0.00     0.023 C 
ENDROOT
BRANCH   1   2
ATOM      2  C   UNL A   1      34.892  20.915  25.030  1.00  0.00     0.116 C 
BRANCH   2   3
ATOM      3  N   UNL A   1      34.544  21.182  26.410  1.00  0.00    -0.352 N 
ATOM      4  C   UNL A   1      34.124  22.321  27.044  1.00  0.00     0.254 C 
ATOM      5  O   UNL A   1      33.911  22.246  28.262  1.00  0.00    -0.269 OA
ATOM      6  H   UNL A   1      34.625  20.401  27.002  1.00  0.00     0.163 HD
BRANCH   4   7
ATOM      7  C   UNL A   1      33.904  23.567  26.338  1.00  0.00     0.077 A 
ATOM      8  N   UNL A   1      33.172  25.473  25.478  1.00  0.00    -0.260 N 
ATOM      9  C   UNL A   1      32.785  24.365  26.192  1.00  0.00     0.123 A 
ATOM     10  N   UNL A   1      34.461  25.424  25.100  1.00  0.00    -0.180 NA
ATOM     11  C   UNL A   1      34.887  24.253  25.579  1.00  0.00     0.149 A 
BRANCH   8  12
ATOM     12  C   UNL A   1      32.402  26.718  25.363  1.00  0.00     0.193 C 
ATOM     13  C   UNL A   1      32.265  27.352  26.747  1.00  0.00     0.044 C 
BRANCH  12  14
ATOM     14  C   UNL A   1      32.941  27.653  24.277  1.00  0.00     0.244 C 
ATOM     15  O   UNL A   1      33.841  28.481  24.437  1.00  0.00    -0.273 OA
ATOM     16  N   UNL A   1      32.491  27.543  22.989  1.00  0.00    -0.350 N 
ATOM     17  H   UNL A   1      32.951  28.127  22.345  1.00  0.00     0.163 HD
BRANCH  16  18
ATOM     18  C   UNL A   1      31.457  26.713  22.412  1.00  0.00     0.151 C 
BRANCH  18  19
ATOM     19  C   UNL A   1      31.724  25.231  22.565  1.00  0.00    -0.029 A 
ATOM     20  C   UNL A   1      30.808  24.355  23.176  1.00  0.00     0.008 A 
ATOM     21  C   UNL A   1      32.917  24.699  22.044  1.00  0.00     0.008 A 
ATOM     22  C   UNL A   1      31.084  22.989  23.271  1.00  0.00     0.039 A 
ATOM     23  C   UNL A   1      33.190  23.333  22.142  1.00  0.00     0.039 A 
ATOM     24  C   UNL A   1      32.270  22.490  22.754  1.00  0.00     0.123 A 
ATOM     25  F   UNL A   1      32.529  21.179  22.839  1.00  0.00    -0.207 F 
ENDBRANCH  18  19
ENDBRANCH  16  18
ENDBRANCH  12  14
ENDBRANCH   8  12
ENDBRANCH   4   7
ENDBRANCH   2   3
ENDBRANCH   1   2
BRANCH   1  26
ATOM     26  C   UNL A   1      37.344  20.068  25.054  1.00  0.00     0.023 C 
BRANCH  26  27
ATOM     27  C   UNL A   1      38.804  20.482  25.194  1.00  0.00     0.116 C 
BRANCH  27  28
ATOM     28  N   UNL A   1      39.684  19.364  25.555  1.00  0.00    -0.352 N 
ATOM     29  C   UNL A   1      40.999  19.420  25.978  1.00  0.00     0.251 C 
ATOM     30  H   UNL A   1      39.289  18.464  25.487  1.00  0.00     0.163 HD
ATOM     31  O   UNL A   1      41.739  18.448  25.875  1.00  0.00    -0.269 OA
BRANCH  29  32
ATOM     32  C   UNL A   1      41.484  20.671  26.584  1.00  0.00     0.039 A 
ATOM     33  C   UNL A   1      42.211  21.620  25.859  1.00  0.00     0.014 A 
ATOM     34  C   UNL A   1      41.144  20.892  27.915  1.00  0.00     0.014 A 
ATOM     35  C   UNL A   1      42.521  22.831  26.473  1.00  0.00     0.010 A 
ATOM     36  C   UNL A   1      41.288  22.141  28.451  1.00  0.00     0.010 A 
ATOM     37  C   UNL A   1      42.039  23.087  27.767  1.00  0.00    -0.014 A 
BRANCH  37  38
ATOM     38  C   UNL A   1      42.212  24.387  28.400  1.00  0.00     0.031 A 
ATOM     39  C   UNL A   1      41.064  25.314  28.212  1.00  0.00     0.074 A 
ATOM     40  C   UNL A   1      43.212  24.630  29.276  1.00  0.00     0.049 A 
ATOM     41  N   UNL A   1      41.040  26.401  27.515  1.00  0.00    -0.248 NA
ATOM     42  C   UNL A   1      39.744  24.907  28.723  1.00  0.00     0.031 C 
ATOM     43  C   UNL A   1      44.200  23.680  29.810  1.00  0.00     0.029 A 
ATOM     44  N   UNL A   1      43.460  25.749  30.007  1.00  0.00    -0.354 N 
ATOM     45  C   UNL A   1      39.774  26.945  27.717  1.00  0.00     0.074 A 
ATOM     46  C   UNL A   1      38.965  25.888  28.261  1.00  0.00     0.031 C 
ATOM     47  C   UNL A   1      44.730  24.175  30.950  1.00  0.00     0.029 A 
ATOM     48  C   UNL A   1      44.261  25.535  31.126  1.00  0.00     0.049 A 
ATOM     49  H   UNL A   1      43.104  26.635  29.765  1.00  0.00     0.167 HD
ATOM     50  C   UNL A   1      39.573  28.293  27.678  1.00  0.00     0.034 A 
ATOM     51  C   UNL A   1      44.459  26.397  32.155  1.00  0.00     0.034 A 
ATOM     52  C   UNL A   1      40.709  28.972  27.105  1.00  0.00     0.049 A 
ATOM     53  C   UNL A   1      44.099  27.746  31.657  1.00  0.00     0.074 A 
ATOM     54  C   UNL A   1      41.388  28.893  25.904  1.00  0.00     0.029 A 
ATOM     55  N   UNL A   1      41.564  29.595  27.982  1.00  0.00    -0.354 N 
ATOM     56  N   UNL A   1      44.753  28.360  30.711  1.00  0.00    -0.248 NA
ATOM     57  C   UNL A   1      42.742  28.208  31.891  1.00  0.00     0.031 C 
ATOM     58  C   UNL A   1      42.764  29.006  26.261  1.00  0.00     0.029 A 
ATOM     59  C   UNL A   1      42.839  29.238  27.636  1.00  0.00     0.049 A 
ATOM     60  H   UNL A   1      41.308  30.190  28.724  1.00  0.00     0.167 HD
ATOM     61  C   UNL A   1      43.757  28.930  29.929  1.00  0.00     0.074 A 
ATOM     62  C   UNL A   1      42.552  28.891  30.759  1.00  0.00     0.031 C 
ATOM     63  C   UNL A   1      43.922  29.097  28.585  1.00  0.00     0.034 A 
BRANCH  50  64
ATOM     64  C   UNL A   1      38.539  29.049  28.482  1.00  0.00     0.023 A 
ATOM     65  C   UNL A   1      37.736  29.982  27.785  1.00  0.00     0.012 A 
ATOM     66  C   UNL A   1      38.486  29.093  29.893  1.00  0.00     0.148 A 
ATOM     67  C   UNL A   1      36.963  30.936  28.456  1.00  0.00     0.002 A 
ATOM     68  C   UNL A   1      37.649  29.984  30.555  1.00  0.00     0.091 A 
ATOM     69  F   UNL A   1      39.343  28.373  30.619  1.00  0.00    -0.205 F 
ATOM     70  C   UNL A   1      36.911  30.931  29.843  1.00  0.00     0.022 A 
BRANCH  68  71
ATOM     71  S   UNL A   1      37.493  29.977  32.345  1.00  0.00     0.127 S 
ATOM     72  O   UNL A   1      37.227  28.567  32.611  1.00  0.00    -0.237 OA
ATOM     73  O   UNL A   1      38.815  30.449  32.761  1.00  0.00    -0.237 OA
ATOM     74  O   UNL A   1      36.410  30.904  32.646  1.00  0.00    -0.744 OA
ENDBRANCH  68  71
ENDBRANCH  50  64
BRANCH  51  75
ATOM     75  C   UNL A   1      44.593  26.119  33.608  1.00  0.00     0.023 A 
ATOM     76  C   UNL A   1      45.854  26.260  34.225  1.00  0.00     0.012 A 
ATOM     77  C   UNL A   1      43.454  26.040  34.437  1.00  0.00     0.148 A 
ATOM     78  C   UNL A   1      45.969  26.374  35.617  1.00  0.00     0.002 A 
ATOM     79  C   UNL A   1      43.573  26.157  35.819  1.00  0.00     0.091 A 
ATOM     80  F   UNL A   1      42.245  25.950  33.868  1.00  0.00    -0.205 F 
ATOM     81  C   UNL A   1      44.828  26.338  36.413  1.00  0.00     0.022 A 
BRANCH  79  82
ATOM     82  S   UNL A   1      42.138  26.172  36.903  1.00  0.00     0.127 S 
ATOM     83  O   UNL A   1      42.754  26.363  38.215  1.00  0.00    -0.237 OA
ATOM     84  O   UNL A   1      41.396  27.323  36.397  1.00  0.00    -0.237 OA
ATOM     85  O   UNL A   1      41.495  24.876  36.723  1.00  0.00    -0.744 OA
ENDBRANCH  79  82
ENDBRANCH  51  75
BRANCH  63  86
ATOM     86  C   UNL A   1      45.293  28.882  27.992  1.00  0.00     0.023 A 
ATOM     87  C   UNL A   1      46.322  29.845  28.067  1.00  0.00     0.012 A 
ATOM     88  C   UNL A   1      45.607  27.590  27.537  1.00  0.00     0.148 A 
ATOM     89  C   UNL A   1      47.631  29.526  27.691  1.00  0.00     0.002 A 
ATOM     90  C   UNL A   1      46.917  27.261  27.219  1.00  0.00     0.091 A 
ATOM     91  F   UNL A   1      44.617  26.688  27.465  1.00  0.00    -0.205 F 
ATOM     92  C   UNL A   1      47.933  28.228  27.284  1.00  0.00     0.022 A 
BRANCH  90  93
ATOM     93  S   UNL A   1      47.383  25.572  26.836  1.00  0.00     0.127 S 
ATOM     94  O   UNL A   1      46.573  25.293  25.653  1.00  0.00    -0.237 OA
ATOM     95  O   UNL A   1      48.820  25.691  26.580  1.00  0.00    -0.237 OA
ATOM     96  O   UNL A   1      47.057  24.788  28.021  1.00  0.00    -0.744 OA
ENDBRANCH  90  93
ENDBRANCH  63  86
ENDBRANCH  37  38
ENDBRANCH  29  32
ENDBRANCH  27  28
ENDBRANCH  26  27
ENDBRANCH   1  26
TORSDOF 18
ENDMDL
MODEL 2
REMARK VINA RESULT:     -11.6      2.235      2.931
REMARK SMILES C[C@@H](C(=O)NCc1ccc(F)cc1)n1cc(C(=O)NCCCCNC(=O)c2ccc(-c3c4nc(c(-c5cccc(S(=O)(=O)[O-])c5F)c5ccc([nH]5)c(-c5cccc(S(=O)(=O)[O-])c5F)c5nc(c(-c6cccc(S(=O)(=O)[O-])c6F)c6ccc3[nH]6)C=C5)C=C4)cc2)cn1
REMARK SMILES IDX 21 1 20 2 19 3 17 4 18 5 16 7 14 8 15 9 91 10 90 11 2 12
REMARK SMILES IDX 1 13 3 14 4 15 5 16 6 18 7 19 8 20 13 21 9 22 12 23 10 24
REMARK SMILES IDX 11 25 22 26 23 27 24 28 25 29 26 31 27 32 28 33 89 34 29 35
REMARK SMILES IDX 88 36 30 37 31 38 32 39 82 40 33 41 87 42 81 43 83 44 34 45
REMARK SMILES IDX 86 46 80 47 79 48 35 50 67 51 47 52 66 53 48 54 51 55 65 56
REMARK SMILES IDX 84 57 49 58 50 59 64 61 85 62 52 63 36 64 37 65 45 66 38 67
REMARK SMILES IDX 40 68 46 69 39 70 41 71 42 72 43 73 44 74 68 75 69 76 77 77
REMARK SMILES IDX 70 78 72 79 78 80 71 81 73 82 74 83 75 84 76 85 53 86 54 87
REMARK SMILES IDX 62 88 55 89 57 90 63 91 56 92 58 93 59 94 60 95 61 96
REMARK H PARENT 19 6 5 17 24 30 83 49 51 60
REMARK Flexibility Score: inf
ROOT
ATOM      1  C   UNL A   1      38.851  22.236  26.297  1.00  0.00     0.023 C 
ENDROOT
BRANCH   1   2
ATOM      2  C   UNL A   1      37.441  22.022  25.736  1.00  0.00     0.116 C 
BRANCH   2   3
ATOM      3  N   UNL A   1      37.380  22.339  24.324  1.00  0.00    -0.352 N 
ATOM      4  C   UNL A   1      36.404  22.916  23.557  1.00  0.00     0.254 C 
ATOM      5  O   UNL A   1      36.638  23.048  22.347  1.00  0.00    -0.269 OA
ATOM      6  H   UNL A   1      38.190  22.093  23.822  1.00  0.00     0.163 HD
BRANCH   4   7
ATOM      7  C   UNL A   1      35.152  23.384  24.116  1.00  0.00     0.077 A 
ATOM      8  N   UNL A   1      33.070  23.718  24.795  1.00  0.00    -0.260 N 
ATOM      9  C   UNL A   1      33.848  22.948  23.966  1.00  0.00     0.123 A 
ATOM     10  N   UNL A   1      33.774  24.666  25.438  1.00  0.00    -0.180 NA
ATOM     11  C   UNL A   1      35.019  24.493  24.991  1.00  0.00     0.149 A 
BRANCH   8  12
ATOM     12  C   UNL A   1      31.692  23.405  25.194  1.00  0.00     0.193 C 
ATOM     13  C   UNL A   1      31.534  21.889  25.302  1.00  0.00     0.044 C 
BRANCH  12  14
ATOM     14  C   UNL A   1      31.237  24.190  26.428  1.00  0.00     0.244 C 
ATOM     15  O   UNL A   1      31.418  23.840  27.597  1.00  0.00    -0.273 OA
ATOM     16  N   UNL A   1      30.663  25.424  26.285  1.00  0.00    -0.350 N 
ATOM     17  H   UNL A   1      30.477  25.888  27.132  1.00  0.00     0.163 HD
BRANCH  16  18
ATOM     18  C   UNL A   1      30.283  26.163  25.102  1.00  0.00     0.151 C 
BRANCH  18  19
ATOM     19  C   UNL A   1      31.435  26.916  24.472  1.00  0.00    -0.029 A 
ATOM     20  C   UNL A   1      32.174  27.891  25.167  1.00  0.00     0.008 A 
ATOM     21  C   UNL A   1      31.811  26.604  23.153  1.00  0.00     0.008 A 
ATOM     22  C   UNL A   1      33.248  28.542  24.556  1.00  0.00     0.039 A 
ATOM     23  C   UNL A   1      32.884  27.257  22.544  1.00  0.00     0.039 A 
ATOM     24  C   UNL A   1      33.593  28.219  23.251  1.00  0.00     0.123 A 
ATOM     25  F   UNL A   1      34.629  28.838  22.669  1.00  0.00    -0.207 F 
ENDBRANCH  18  19
ENDBRANCH  16  18
ENDBRANCH  12  14
ENDBRANCH   8  12
ENDBRANCH   4   7
ENDBRANCH   2   3
ENDBRANCH   1   2
BRANCH   1  26
ATOM     26  C   UNL A   1      39.935  21.311  25.714  1.00  0.00     0.023 C 
BRANCH  26  27
ATOM     27  C   UNL A   1      39.891  19.873  26.219  1.00  0.00     0.116 C 
BRANCH  27  28
ATOM     28  N   UNL A   1      41.140  19.142  25.976  1.00  0.00    -0.352 N 
ATOM     29  C   UNL A   1      42.417  19.659  25.857  1.00  0.00     0.251 C 
ATOM     30  H   UNL A   1      41.059  18.165  25.886  1.00  0.00     0.163 HD
ATOM     31  O   UNL A   1      43.302  19.035  25.281  1.00  0.00    -0.269 OA
BRANCH  29  32
ATOM     32  C   UNL A   1      42.699  20.969  26.467  1.00  0.00     0.039 A 
ATOM     33  C   UNL A   1      43.094  22.076  25.710  1.00  0.00     0.014 A 
ATOM     34  C   UNL A   1      42.508  21.072  27.841  1.00  0.00     0.014 A 
ATOM     35  C   UNL A   1      43.217  23.309  26.348  1.00  0.00     0.010 A 
ATOM     36  C   UNL A   1      42.451  22.306  28.425  1.00  0.00     0.010 A 
ATOM     37  C   UNL A   1      42.876  23.414  27.706  1.00  0.00    -0.014 A 
BRANCH  37  38
ATOM     38  C   UNL A   1      42.849  24.702  28.385  1.00  0.00     0.031 A 
ATOM     39  C   UNL A   1      41.604  25.484  28.160  1.00  0.00     0.074 A 
ATOM     40  C   UNL A   1      43.763  25.037  29.323  1.00  0.00     0.049 A 
ATOM     41  N   UNL A   1      41.479  26.584  27.495  1.00  0.00    -0.248 NA
ATOM     42  C   UNL A   1      40.321  24.897  28.583  1.00  0.00     0.031 C 
ATOM     43  C   UNL A   1      44.834  24.199  29.884  1.00  0.00     0.029 A 
ATOM     44  N   UNL A   1      43.828  26.150  30.099  1.00  0.00    -0.354 N 
ATOM     45  C   UNL A   1      40.145  26.958  27.640  1.00  0.00     0.074 A 
ATOM     46  C   UNL A   1      39.449  25.789  28.107  1.00  0.00     0.031 C 
ATOM     47  C   UNL A   1      45.236  24.715  31.066  1.00  0.00     0.029 A 
ATOM     48  C   UNL A   1      44.590  25.997  31.255  1.00  0.00     0.049 A 
ATOM     49  H   UNL A   1      43.376  26.993  29.864  1.00  0.00     0.167 HD
ATOM     50  C   UNL A   1      39.777  28.270  27.630  1.00  0.00     0.034 A 
ATOM     51  C   UNL A   1      44.623  26.841  32.318  1.00  0.00     0.034 A 
ATOM     52  C   UNL A   1      40.846  29.106  27.142  1.00  0.00     0.049 A 
ATOM     53  C   UNL A   1      44.121  28.150  31.841  1.00  0.00     0.074 A 
ATOM     54  C   UNL A   1      41.591  29.157  25.980  1.00  0.00     0.029 A 
ATOM     55  N   UNL A   1      41.568  29.800  28.084  1.00  0.00    -0.354 N 
ATOM     56  N   UNL A   1      44.740  28.875  30.951  1.00  0.00    -0.248 NA
ATOM     57  C   UNL A   1      42.706  28.430  32.011  1.00  0.00     0.031 C 
ATOM     58  C   UNL A   1      42.921  29.429  26.417  1.00  0.00     0.029 A 
ATOM     59  C   UNL A   1      42.895  29.618  27.800  1.00  0.00     0.049 A 
ATOM     60  H   UNL A   1      41.200  30.330  28.827  1.00  0.00     0.167 HD
ATOM     61  C   UNL A   1      43.722  29.344  30.131  1.00  0.00     0.074 A 
ATOM     62  C   UNL A   1      42.490  29.125  30.891  1.00  0.00     0.031 C 
ATOM     63  C   UNL A   1      43.935  29.579  28.804  1.00  0.00     0.034 A 
BRANCH  50  64
ATOM     64  C   UNL A   1      38.614  28.861  28.395  1.00  0.00     0.023 A 
ATOM     65  C   UNL A   1      37.676  29.620  27.659  1.00  0.00     0.012 A 
ATOM     66  C   UNL A   1      38.530  28.939  29.804  1.00  0.00     0.148 A 
ATOM     67  C   UNL A   1      36.739  30.448  28.289  1.00  0.00     0.002 A 
ATOM     68  C   UNL A   1      37.541  29.693  30.426  1.00  0.00     0.091 A 
ATOM     69  F   UNL A   1      39.485  28.400  30.564  1.00  0.00    -0.205 F 
ATOM     70  C   UNL A   1      36.664  30.477  29.674  1.00  0.00     0.022 A 
BRANCH  68  71
ATOM     71  S   UNL A   1      37.358  29.714  32.214  1.00  0.00     0.127 S 
ATOM     72  O   UNL A   1      36.030  30.302  32.365  1.00  0.00    -0.237 OA
ATOM     73  O   UNL A   1      37.448  28.289  32.539  1.00  0.00    -0.237 OA
ATOM     74  O   UNL A   1      38.474  30.508  32.711  1.00  0.00    -0.744 OA
ENDBRANCH  68  71
ENDBRANCH  50  64
BRANCH  51  75
ATOM     75  C   UNL A   1      44.715  26.529  33.768  1.00  0.00     0.023 A 
ATOM     76  C   UNL A   1      45.918  26.789  34.456  1.00  0.00     0.012 A 
ATOM     77  C   UNL A   1      43.552  26.293  34.532  1.00  0.00     0.148 A 
ATOM     78  C   UNL A   1      45.950  26.867  35.855  1.00  0.00     0.002 A 
ATOM     79  C   UNL A   1      43.587  26.374  35.921  1.00  0.00     0.091 A 
ATOM     80  F   UNL A   1      42.391  26.087  33.897  1.00  0.00    -0.205 F 
ATOM     81  C   UNL A   1      44.782  26.675  36.586  1.00  0.00     0.022 A 
BRANCH  79  82
ATOM     82  S   UNL A   1      42.107  26.190  36.926  1.00  0.00     0.127 S 
ATOM     83  O   UNL A   1      41.669  24.841  36.571  1.00  0.00    -0.237 OA
ATOM     84  O   UNL A   1      42.645  26.327  38.276  1.00  0.00    -0.237 OA
ATOM     85  O   UNL A   1      41.204  27.249  36.494  1.00  0.00    -0.744 OA
ENDBRANCH  79  82
ENDBRANCH  51  75
BRANCH  63  86
ATOM     86  C   UNL A   1      45.352  29.559  28.284  1.00  0.00     0.023 A 
ATOM     87  C   UNL A   1      45.961  28.398  27.762  1.00  0.00     0.012 A 
ATOM     88  C   UNL A   1      46.002  30.794  28.125  1.00  0.00     0.148 A 
ATOM     89  C   UNL A   1      47.193  28.470  27.102  1.00  0.00     0.002 A 
ATOM     90  C   UNL A   1      47.196  30.870  27.422  1.00  0.00     0.091 A 
ATOM     91  F   UNL A   1      45.413  31.887  28.633  1.00  0.00    -0.205 F 
ATOM     92  C   UNL A   1      47.802  29.709  26.916  1.00  0.00     0.022 A 
BRANCH  90  93
ATOM     93  S   UNL A   1      47.940  32.453  27.025  1.00  0.00     0.127 S 
ATOM     94  O   UNL A   1      48.115  33.048  28.348  1.00  0.00    -0.237 OA
ATOM     95  O   UNL A   1      49.185  32.058  26.362  1.00  0.00    -0.237 OA
ATOM     96  O   UNL A   1      46.994  33.133  26.149  1.00  0.00    -0.744 OA
ENDBRANCH  90  93
ENDBRANCH  63  86
ENDBRANCH  37  38
ENDBRANCH  29  32
ENDBRANCH  27  28
ENDBRANCH  26  27
ENDBRANCH   1  26
TORSDOF 18
ENDMDL
MODEL 3
REMARK VINA RESULT:     -11.6      2.330      2.948
REMARK SMILES C[C@@H](C(=O)NCc1ccc(F)cc1)n1cc(C(=O)NCCCCNC(=O)c2ccc(-c3c4nc(c(-c5cccc(S(=O)(=O)[O-])c5F)c5ccc([nH]5)c(-c5cccc(S(=O)(=O)[O-])c5F)c5nc(c(-c6cccc(S(=O)(=O)[O-])c6F)c6ccc3[nH]6)C=C5)C=C4)cc2)cn1
REMARK SMILES IDX 21 1 20 2 19 3 17 4 18 5 16 7 14 8 15 9 91 10 90 11 2 12
REMARK SMILES IDX 1 13 3 14 4 15 5 16 6 18 7 19 8 20 13 21 9 22 12 23 10 24
REMARK SMILES IDX 11 25 22 26 23 27 24 28 25 29 26 31 27 32 28 33 89 34 29 35
REMARK SMILES IDX 88 36 30 37 31 38 32 39 82 40 33 41 87 42 81 43 83 44 34 45
REMARK SMILES IDX 86 46 80 47 79 48 35 50 67 51 47 52 66 53 48 54 51 55 65 56
REMARK SMILES IDX 84 57 49 58 50 59 64 61 85 62 52 63 36 64 37 65 45 66 38 67
REMARK SMILES IDX 40 68 46 69 39 70 41 71 42 72 43 73 44 74 68 75 69 76 77 77
REMARK SMILES IDX 70 78 72 79 78 80 71 81 73 82 74 83 75 84 76 85 53 86 54 87
REMARK SMILES IDX 62 88 55 89 57 90 63 91 56 92 58 93 59 94 60 95 61 96
REMARK H PARENT 19 6 5 17 24 30 83 49 51 60
REMARK Flexibility Score: inf
ROOT
ATOM      1  C   UNL A   1      36.540  19.409  25.033  1.00  0.00     0.023 C 
ENDROOT
BRANCH   1   2
ATOM      2  C   UNL A   1      35.341  20.360  24.961  1.00  0.00     0.116 C 
BRANCH   2   3
ATOM      3  N   UNL A   1      34.110  19.642  24.701  1.00  0.00    -0.352 N 
ATOM      4  C   UNL A   1      32.840  20.073  24.428  1.00  0.00     0.254 C 
ATOM      5  O   UNL A   1      31.971  19.205  24.262  1.00  0.00    -0.269 OA
ATOM      6  H   UNL A   1      34.205  18.663  24.728  1.00  0.00     0.163 HD
BRANCH   4   7
ATOM      7  C   UNL A   1      32.505  21.477  24.307  1.00  0.00     0.077 A 
ATOM      8  N   UNL A   1      31.878  23.586  24.558  1.00  0.00    -0.260 N 
ATOM      9  C   UNL A   1      31.840  22.348  25.151  1.00  0.00     0.123 A 
ATOM     10  N   UNL A   1      32.477  23.571  23.355  1.00  0.00    -0.180 NA
ATOM     11  C   UNL A   1      32.811  22.290  23.186  1.00  0.00     0.149 A 
BRANCH   8  12
ATOM     12  C   UNL A   1      31.579  24.857  25.233  1.00  0.00     0.193 C 
ATOM     13  C   UNL A   1      31.850  24.704  26.729  1.00  0.00     0.044 C 
BRANCH  12  14
ATOM     14  C   UNL A   1      32.266  26.056  24.573  1.00  0.00     0.244 C 
ATOM     15  O   UNL A   1      33.427  26.412  24.783  1.00  0.00    -0.273 OA
ATOM     16  N   UNL A   1      31.619  26.768  23.600  1.00  0.00    -0.350 N 
ATOM     17  H   UNL A   1      32.164  27.469  23.176  1.00  0.00     0.163 HD
BRANCH  16  18
ATOM     18  C   UNL A   1      30.271  26.668  23.086  1.00  0.00     0.151 C 
BRANCH  18  19
ATOM     19  C   UNL A   1      29.507  27.972  23.153  1.00  0.00    -0.029 A 
ATOM     20  C   UNL A   1      28.105  28.037  23.052  1.00  0.00     0.008 A 
ATOM     21  C   UNL A   1      30.220  29.167  23.362  1.00  0.00     0.008 A 
ATOM     22  C   UNL A   1      27.438  29.260  23.147  1.00  0.00     0.039 A 
ATOM     23  C   UNL A   1      29.550  30.389  23.456  1.00  0.00     0.039 A 
ATOM     24  C   UNL A   1      28.166  30.424  23.348  1.00  0.00     0.123 A 
ATOM     25  F   UNL A   1      27.524  31.596  23.448  1.00  0.00    -0.207 F 
ENDBRANCH  18  19
ENDBRANCH  16  18
ENDBRANCH  12  14
ENDBRANCH   8  12
ENDBRANCH   4   7
ENDBRANCH   2   3
ENDBRANCH   1   2
BRANCH   1  26
ATOM     26  C   UNL A   1      37.869  19.989  24.517  1.00  0.00     0.023 C 
BRANCH  26  27
ATOM     27  C   UNL A   1      38.889  20.321  25.601  1.00  0.00     0.116 C 
BRANCH  27  28
ATOM     28  N   UNL A   1      39.930  19.298  25.741  1.00  0.00    -0.352 N 
ATOM     29  C   UNL A   1      41.285  19.486  25.945  1.00  0.00     0.251 C 
ATOM     30  H   UNL A   1      39.628  18.362  25.681  1.00  0.00     0.163 HD
ATOM     31  O   UNL A   1      42.096  18.612  25.661  1.00  0.00    -0.269 OA
BRANCH  29  32
ATOM     32  C   UNL A   1      41.730  20.756  26.542  1.00  0.00     0.039 A 
ATOM     33  C   UNL A   1      42.281  21.788  25.777  1.00  0.00     0.014 A 
ATOM     34  C   UNL A   1      41.534  20.904  27.911  1.00  0.00     0.014 A 
ATOM     35  C   UNL A   1      42.558  23.003  26.401  1.00  0.00     0.010 A 
ATOM     36  C   UNL A   1      41.634  22.144  28.478  1.00  0.00     0.010 A 
ATOM     37  C   UNL A   1      42.214  23.174  27.751  1.00  0.00    -0.014 A 
BRANCH  37  38
ATOM     38  C   UNL A   1      42.349  24.464  28.413  1.00  0.00     0.031 A 
ATOM     39  C   UNL A   1      41.188  25.373  28.220  1.00  0.00     0.074 A 
ATOM     40  C   UNL A   1      43.327  24.709  29.313  1.00  0.00     0.049 A 
ATOM     41  N   UNL A   1      41.157  26.473  27.544  1.00  0.00    -0.248 NA
ATOM     42  C   UNL A   1      39.866  24.932  28.696  1.00  0.00     0.031 C 
ATOM     43  C   UNL A   1      44.322  23.766  29.849  1.00  0.00     0.029 A 
ATOM     44  N   UNL A   1      43.539  25.816  30.071  1.00  0.00    -0.354 N 
ATOM     45  C   UNL A   1      39.877  26.990  27.731  1.00  0.00     0.074 A 
ATOM     46  C   UNL A   1      39.078  25.907  28.238  1.00  0.00     0.031 C 
ATOM     47  C   UNL A   1      44.820  24.248  31.009  1.00  0.00     0.029 A 
ATOM     48  C   UNL A   1      44.322  25.595  31.202  1.00  0.00     0.049 A 
ATOM     49  H   UNL A   1      43.171  26.700  29.840  1.00  0.00     0.167 HD
ATOM     50  C   UNL A   1      39.652  28.334  27.715  1.00  0.00     0.034 A 
ATOM     51  C   UNL A   1      44.483  26.440  32.252  1.00  0.00     0.034 A 
ATOM     52  C   UNL A   1      40.785  29.045  27.178  1.00  0.00     0.049 A 
ATOM     53  C   UNL A   1      44.107  27.791  31.774  1.00  0.00     0.074 A 
ATOM     54  C   UNL A   1      41.489  29.004  25.991  1.00  0.00     0.029 A 
ATOM     55  N   UNL A   1      41.611  29.667  28.085  1.00  0.00    -0.354 N 
ATOM     56  N   UNL A   1      44.768  28.436  30.853  1.00  0.00    -0.248 NA
ATOM     57  C   UNL A   1      42.737  28.224  31.989  1.00  0.00     0.031 C 
ATOM     58  C   UNL A   1      42.856  29.135  26.377  1.00  0.00     0.029 A 
ATOM     59  C   UNL A   1      42.900  29.340  27.757  1.00  0.00     0.049 A 
ATOM     60  H   UNL A   1      41.328  30.241  28.833  1.00  0.00     0.167 HD
ATOM     61  C   UNL A   1      43.777  29.003  30.062  1.00  0.00     0.074 A 
ATOM     62  C   UNL A   1      42.556  28.926  30.867  1.00  0.00     0.031 C 
ATOM     63  C   UNL A   1      43.966  29.201  28.725  1.00  0.00     0.034 A 
BRANCH  50  64
ATOM     64  C   UNL A   1      38.587  29.054  28.512  1.00  0.00     0.023 A 
ATOM     65  C   UNL A   1      37.757  29.959  27.811  1.00  0.00     0.012 A 
ATOM     66  C   UNL A   1      38.524  29.096  29.923  1.00  0.00     0.148 A 
ATOM     67  C   UNL A   1      36.948  30.886  28.477  1.00  0.00     0.002 A 
ATOM     68  C   UNL A   1      37.654  29.959  30.580  1.00  0.00     0.091 A 
ATOM     69  F   UNL A   1      39.402  28.406  30.654  1.00  0.00    -0.205 F 
ATOM     70  C   UNL A   1      36.888  30.880  29.863  1.00  0.00     0.022 A 
BRANCH  68  71
ATOM     71  S   UNL A   1      37.488  29.946  32.369  1.00  0.00     0.127 S 
ATOM     72  O   UNL A   1      36.328  30.812  32.562  1.00  0.00    -0.237 OA
ATOM     73  O   UNL A   1      37.255  28.526  32.637  1.00  0.00    -0.237 OA
ATOM     74  O   UNL A   1      38.757  30.447  32.882  1.00  0.00    -0.744 OA
ENDBRANCH  68  71
ENDBRANCH  50  64
BRANCH  51  75
ATOM     75  C   UNL A   1      44.593  26.136  33.701  1.00  0.00     0.023 A 
ATOM     76  C   UNL A   1      45.844  26.263  34.341  1.00  0.00     0.012 A 
ATOM     77  C   UNL A   1      43.440  26.043  34.511  1.00  0.00     0.148 A 
ATOM     78  C   UNL A   1      45.937  26.351  35.736  1.00  0.00     0.002 A 
ATOM     79  C   UNL A   1      43.538  26.135  35.896  1.00  0.00     0.091 A 
ATOM     80  F   UNL A   1      42.241  25.966  33.921  1.00  0.00    -0.205 F 
ATOM     81  C   UNL A   1      44.784  26.302  36.513  1.00  0.00     0.022 A 
BRANCH  79  82
ATOM     82  S   UNL A   1      42.086  26.133  36.957  1.00  0.00     0.127 S 
ATOM     83  O   UNL A   1      41.485  24.837  36.643  1.00  0.00    -0.237 OA
ATOM     84  O   UNL A   1      42.686  26.228  38.284  1.00  0.00    -0.237 OA
ATOM     85  O   UNL A   1      41.291  27.281  36.538  1.00  0.00    -0.744 OA
ENDBRANCH  79  82
ENDBRANCH  51  75
BRANCH  63  86
ATOM     86  C   UNL A   1      45.352  29.023  28.156  1.00  0.00     0.023 A 
ATOM     87  C   UNL A   1      45.767  27.845  27.499  1.00  0.00     0.012 A 
ATOM     88  C   UNL A   1      46.180  30.157  28.100  1.00  0.00     0.148 A 
ATOM     89  C   UNL A   1      46.982  27.800  26.808  1.00  0.00     0.002 A 
ATOM     90  C   UNL A   1      47.357  30.126  27.366  1.00  0.00     0.091 A 
ATOM     91  F   UNL A   1      45.774  31.266  28.735  1.00  0.00    -0.205 F 
ATOM     92  C   UNL A   1      47.769  28.947  26.725  1.00  0.00     0.022 A 
BRANCH  90  93
ATOM     93  S   UNL A   1      48.327  31.612  27.104  1.00  0.00     0.127 S 
ATOM     94  O   UNL A   1      48.492  32.112  28.468  1.00  0.00    -0.237 OA
ATOM     95  O   UNL A   1      49.550  31.088  26.493  1.00  0.00    -0.237 OA
ATOM     96  O   UNL A   1      47.536  32.456  26.217  1.00  0.00    -0.744 OA
ENDBRANCH  90  93
ENDBRANCH  63  86
ENDBRANCH  37  38
ENDBRANCH  29  32
ENDBRANCH  27  28
ENDBRANCH  26  27
ENDBRANCH   1  26
TORSDOF 18
ENDMDL
