MODEL 1
REMARK VINA RESULT:     -11.2      0.000      0.000
REMARK SMILES CC1(C)CCC(CCCO)(C(=O)NCCCCNC(=O)c2ccc(-c3c4nc(c(-c5cccc(S(=O)(=O)[O-])c5F)c5ccc([nH]5)c(-c5cccc(S(=O)(=O)[O-])c5F)c5nc(c(-c6cccc(S(=O)(=O)[O-])c6F)c6ccc3[nH]6)C=C5)C=C4)cc2)CC1
REMARK SMILES IDX 15 1 14 2 13 3 11 4 12 5 6 7 1 8 2 9 3 10 4 11 85 12 5 13
REMARK SMILES IDX 84 14 7 15 8 16 9 17 10 18 16 20 17 21 18 22 19 23 20 25
REMARK SMILES IDX 21 26 22 27 83 28 23 29 82 30 24 31 25 32 26 33 76 34 27 35
REMARK SMILES IDX 81 36 75 37 77 38 28 39 80 40 74 41 73 42 29 44 61 45 41 46
REMARK SMILES IDX 60 47 42 48 45 49 59 50 78 51 43 52 44 53 58 55 79 56 46 57
REMARK SMILES IDX 30 58 31 59 39 60 32 61 34 62 40 63 33 64 35 65 36 66 37 67
REMARK SMILES IDX 38 68 62 69 63 70 71 71 64 72 66 73 72 74 65 75 67 76 68 77
REMARK SMILES IDX 69 78 70 79 47 80 48 81 56 82 49 83 51 84 57 85 50 86 52 87
REMARK SMILES IDX 53 88 54 89 55 90
REMARK H PARENT 13 6 10 19 18 24 77 43 45 54
REMARK Flexibility Score: inf
ROOT
ATOM      1  C   UNL A   1      31.954  27.796  26.402  1.00  0.00     0.023 C 
ENDROOT
BRANCH   1   2
ATOM      2  C   UNL A   1      33.374  27.393  26.034  1.00  0.00     0.116 C 
BRANCH   2   3
ATOM      3  N   UNL A   1      33.552  27.066  24.631  1.00  0.00    -0.356 N 
ATOM      4  C   UNL A   1      33.161  25.986  23.895  1.00  0.00     0.226 C 
ATOM      5  O   UNL A   1      33.106  26.157  22.673  1.00  0.00    -0.274 OA
ATOM      6  H   UNL A   1      34.044  27.747  24.118  1.00  0.00     0.163 HD
BRANCH   4   7
ATOM      7  C   UNL A   1      32.762  24.629  24.526  1.00  0.00     0.049 C 
ATOM      8  C   UNL A   1      35.065  21.508  24.624  1.00  0.00     0.011 C 
ATOM      9  C   UNL A   1      35.267  22.892  23.965  1.00  0.00    -0.035 C 
ATOM     10  C   UNL A   1      36.658  22.914  23.301  1.00  0.00     0.011 C 
ATOM     11  C   UNL A   1      34.204  23.160  22.877  1.00  0.00     0.007 C 
ATOM     12  C   UNL A   1      35.191  23.998  25.034  1.00  0.00     0.007 C 
ATOM     13  C   UNL A   1      32.811  23.511  23.417  1.00  0.00     0.017 C 
ATOM     14  C   UNL A   1      33.771  24.152  25.602  1.00  0.00     0.017 C 
BRANCH   7  15
ATOM     15  C   UNL A   1      31.273  24.613  25.015  1.00  0.00     0.019 C 
BRANCH  15  16
ATOM     16  C   UNL A   1      30.810  23.912  26.300  1.00  0.00     0.029 C 
BRANCH  16  17
ATOM     17  C   UNL A   1      30.563  22.404  26.213  1.00  0.00     0.156 C 
BRANCH  17  18
ATOM     18  O   UNL A   1      29.298  22.069  26.763  1.00  0.00    -0.396 OA
ATOM     19  H   UNL A   1      29.392  21.908  27.715  1.00  0.00     0.210 HD
ENDBRANCH  17  18
ENDBRANCH  16  17
ENDBRANCH  15  16
ENDBRANCH   7  15
ENDBRANCH   4   7
ENDBRANCH   2   3
ENDBRANCH   1   2
BRANCH   1  20
ATOM     20  C   UNL A   1      31.795  29.251  26.836  1.00  0.00     0.023 C 
BRANCH  20  21
ATOM     21  C   UNL A   1      32.687  30.260  26.117  1.00  0.00     0.116 C 
BRANCH  21  22
ATOM     22  N   UNL A   1      32.530  31.627  26.599  1.00  0.00    -0.352 N 
ATOM     23  C   UNL A   1      33.359  32.351  27.428  1.00  0.00     0.251 C 
ATOM     24  H   UNL A   1      31.723  32.098  26.290  1.00  0.00     0.163 HD
ATOM     25  O   UNL A   1      33.037  33.468  27.808  1.00  0.00    -0.269 OA
BRANCH  23  26
ATOM     26  C   UNL A   1      34.621  31.735  27.885  1.00  0.00     0.039 A 
ATOM     27  C   UNL A   1      35.766  32.530  27.971  1.00  0.00     0.014 A 
ATOM     28  C   UNL A   1      34.646  30.403  28.302  1.00  0.00     0.014 A 
ATOM     29  C   UNL A   1      36.920  32.008  28.559  1.00  0.00     0.010 A 
ATOM     30  C   UNL A   1      35.769  29.913  28.959  1.00  0.00     0.010 A 
ATOM     31  C   UNL A   1      36.915  30.711  29.099  1.00  0.00    -0.014 A 
BRANCH  31  32
ATOM     32  C   UNL A   1      38.087  30.173  29.834  1.00  0.00     0.031 A 
ATOM     33  C   UNL A   1      38.379  30.641  31.232  1.00  0.00     0.074 A 
ATOM     34  C   UNL A   1      38.943  29.340  29.208  1.00  0.00     0.049 A 
ATOM     35  N   UNL A   1      39.386  30.341  32.010  1.00  0.00    -0.248 NA
ATOM     36  C   UNL A   1      37.427  31.597  31.825  1.00  0.00     0.031 C 
ATOM     37  C   UNL A   1      38.815  28.873  27.826  1.00  0.00     0.029 A 
ATOM     38  N   UNL A   1      40.105  28.754  29.647  1.00  0.00    -0.354 N 
ATOM     39  C   UNL A   1      39.210  31.093  33.164  1.00  0.00     0.074 A 
ATOM     40  C   UNL A   1      38.024  31.898  32.969  1.00  0.00     0.031 C 
ATOM     41  C   UNL A   1      39.847  28.064  27.537  1.00  0.00     0.029 A 
ATOM     42  C   UNL A   1      40.725  27.976  28.698  1.00  0.00     0.049 A 
ATOM     43  H   UNL A   1      40.461  28.881  30.557  1.00  0.00     0.167 HD
ATOM     44  C   UNL A   1      39.946  31.090  34.302  1.00  0.00     0.034 A 
ATOM     45  C   UNL A   1      41.871  27.269  28.759  1.00  0.00     0.034 A 
ATOM     46  C   UNL A   1      41.098  30.256  34.510  1.00  0.00     0.049 A 
ATOM     47  C   UNL A   1      42.655  27.258  30.044  1.00  0.00     0.074 A 
ATOM     48  C   UNL A   1      41.864  30.117  35.654  1.00  0.00     0.029 A 
ATOM     49  N   UNL A   1      41.651  29.419  33.554  1.00  0.00    -0.354 N 
ATOM     50  N   UNL A   1      42.386  27.855  31.180  1.00  0.00    -0.248 NA
ATOM     51  C   UNL A   1      43.881  26.447  30.068  1.00  0.00     0.031 C 
ATOM     52  C   UNL A   1      42.890  29.204  35.383  1.00  0.00     0.029 A 
ATOM     53  C   UNL A   1      42.751  28.763  34.077  1.00  0.00     0.049 A 
ATOM     54  H   UNL A   1      41.311  29.307  32.636  1.00  0.00     0.167 HD
ATOM     55  C   UNL A   1      43.385  27.461  32.063  1.00  0.00     0.074 A 
ATOM     56  C   UNL A   1      44.255  26.561  31.334  1.00  0.00     0.031 C 
ATOM     57  C   UNL A   1      43.573  27.823  33.357  1.00  0.00     0.034 A 
BRANCH  44  58
ATOM     58  C   UNL A   1      39.480  31.974  35.430  1.00  0.00     0.023 A 
ATOM     59  C   UNL A   1      38.593  31.453  36.394  1.00  0.00     0.012 A 
ATOM     60  C   UNL A   1      39.934  33.301  35.555  1.00  0.00     0.148 A 
ATOM     61  C   UNL A   1      38.132  32.249  37.441  1.00  0.00     0.002 A 
ATOM     62  C   UNL A   1      39.505  34.075  36.627  1.00  0.00     0.091 A 
ATOM     63  F   UNL A   1      40.757  33.789  34.616  1.00  0.00    -0.205 F 
ATOM     64  C   UNL A   1      38.594  33.556  37.563  1.00  0.00     0.022 A 
BRANCH  62  65
ATOM     65  S   UNL A   1      40.105  35.744  36.913  1.00  0.00     0.127 S 
ATOM     66  O   UNL A   1      39.610  36.443  35.729  1.00  0.00    -0.237 OA
ATOM     67  O   UNL A   1      39.432  36.107  38.161  1.00  0.00    -0.237 OA
ATOM     68  O   UNL A   1      41.553  35.630  37.020  1.00  0.00    -0.744 OA
ENDBRANCH  62  65
ENDBRANCH  44  58
BRANCH  45  69
ATOM     69  C   UNL A   1      42.298  26.438  27.597  1.00  0.00     0.023 A 
ATOM     70  C   UNL A   1      43.086  27.028  26.589  1.00  0.00     0.012 A 
ATOM     71  C   UNL A   1      41.961  25.074  27.497  1.00  0.00     0.148 A 
ATOM     72  C   UNL A   1      43.507  26.283  25.487  1.00  0.00     0.002 A 
ATOM     73  C   UNL A   1      42.427  24.325  26.422  1.00  0.00     0.091 A 
ATOM     74  F   UNL A   1      41.202  24.534  28.460  1.00  0.00    -0.205 F 
ATOM     75  C   UNL A   1      43.186  24.931  25.408  1.00  0.00     0.022 A 
BRANCH  73  76
ATOM     76  S   UNL A   1      42.172  22.551  26.299  1.00  0.00     0.127 S 
ATOM     77  O   UNL A   1      40.717  22.464  26.204  1.00  0.00    -0.237 OA
ATOM     78  O   UNL A   1      42.891  22.227  25.066  1.00  0.00    -0.237 OA
ATOM     79  O   UNL A   1      42.764  21.985  27.503  1.00  0.00    -0.744 OA
ENDBRANCH  73  76
ENDBRANCH  45  69
BRANCH  57  80
ATOM     80  C   UNL A   1      44.743  27.219  34.088  1.00  0.00     0.023 A 
ATOM     81  C   UNL A   1      45.989  27.877  34.078  1.00  0.00     0.012 A 
ATOM     82  C   UNL A   1      44.588  26.044  34.848  1.00  0.00     0.148 A 
ATOM     83  C   UNL A   1      47.070  27.358  34.790  1.00  0.00     0.002 A 
ATOM     84  C   UNL A   1      45.656  25.558  35.593  1.00  0.00     0.091 A 
ATOM     85  F   UNL A   1      43.399  25.421  34.828  1.00  0.00    -0.205 F 
ATOM     86  C   UNL A   1      46.901  26.208  35.556  1.00  0.00     0.022 A 
BRANCH  84  87
ATOM     87  S   UNL A   1      45.501  24.138  36.682  1.00  0.00     0.127 S 
ATOM     88  O   UNL A   1      46.873  23.976  37.158  1.00  0.00    -0.237 OA
ATOM     89  O   UNL A   1      44.558  24.620  37.691  1.00  0.00    -0.237 OA
ATOM     90  O   UNL A   1      44.994  23.052  35.853  1.00  0.00    -0.744 OA
ENDBRANCH  84  87
ENDBRANCH  57  80
ENDBRANCH  31  32
ENDBRANCH  23  26
ENDBRANCH  21  22
ENDBRANCH  20  21
ENDBRANCH   1  20
TORSDOF 18
ENDMDL
MODEL 2
REMARK VINA RESULT:     -11.2      1.264      2.075
REMARK SMILES CC1(C)CCC(CCCO)(C(=O)NCCCCNC(=O)c2ccc(-c3c4nc(c(-c5cccc(S(=O)(=O)[O-])c5F)c5ccc([nH]5)c(-c5cccc(S(=O)(=O)[O-])c5F)c5nc(c(-c6cccc(S(=O)(=O)[O-])c6F)c6ccc3[nH]6)C=C5)C=C4)cc2)CC1
REMARK SMILES IDX 15 1 14 2 13 3 11 4 12 5 6 7 1 8 2 9 3 10 4 11 85 12 5 13
REMARK SMILES IDX 84 14 7 15 8 16 9 17 10 18 16 20 17 21 18 22 19 23 20 25
REMARK SMILES IDX 21 26 22 27 83 28 23 29 82 30 24 31 25 32 26 33 76 34 27 35
REMARK SMILES IDX 81 36 75 37 77 38 28 39 80 40 74 41 73 42 29 44 61 45 41 46
REMARK SMILES IDX 60 47 42 48 45 49 59 50 78 51 43 52 44 53 58 55 79 56 46 57
REMARK SMILES IDX 30 58 31 59 39 60 32 61 34 62 40 63 33 64 35 65 36 66 37 67
REMARK SMILES IDX 38 68 62 69 63 70 71 71 64 72 66 73 72 74 65 75 67 76 68 77
REMARK SMILES IDX 69 78 70 79 47 80 48 81 56 82 49 83 51 84 57 85 50 86 52 87
REMARK SMILES IDX 53 88 54 89 55 90
REMARK H PARENT 13 6 10 19 18 24 77 43 45 54
REMARK Flexibility Score: inf
ROOT
ATOM      1  C   UNL A   1      33.382  29.230  24.780  1.00  0.00     0.023 C 
ENDROOT
BRANCH   1   2
ATOM      2  C   UNL A   1      33.480  29.054  23.273  1.00  0.00     0.116 C 
BRANCH   2   3
ATOM      3  N   UNL A   1      33.954  27.746  22.859  1.00  0.00    -0.356 N 
ATOM      4  C   UNL A   1      33.289  26.595  22.555  1.00  0.00     0.226 C 
ATOM      5  O   UNL A   1      33.912  25.777  21.870  1.00  0.00    -0.274 OA
ATOM      6  H   UNL A   1      34.933  27.678  22.785  1.00  0.00     0.163 HD
BRANCH   4   7
ATOM      7  C   UNL A   1      31.829  26.319  22.989  1.00  0.00     0.049 C 
ATOM      8  C   UNL A   1      30.776  23.501  25.440  1.00  0.00     0.011 C 
ATOM      9  C   UNL A   1      32.156  23.854  24.839  1.00  0.00    -0.035 C 
ATOM     10  C   UNL A   1      33.199  22.872  25.410  1.00  0.00     0.011 C 
ATOM     11  C   UNL A   1      32.153  23.720  23.300  1.00  0.00     0.007 C 
ATOM     12  C   UNL A   1      32.543  25.294  25.224  1.00  0.00     0.007 C 
ATOM     13  C   UNL A   1      31.432  24.855  22.561  1.00  0.00     0.017 C 
ATOM     14  C   UNL A   1      31.650  26.334  24.528  1.00  0.00     0.017 C 
BRANCH   7  15
ATOM     15  C   UNL A   1      30.800  27.227  22.232  1.00  0.00     0.019 C 
BRANCH  15  16
ATOM     16  C   UNL A   1      29.841  28.194  22.940  1.00  0.00     0.029 C 
BRANCH  16  17
ATOM     17  C   UNL A   1      29.492  29.488  22.201  1.00  0.00     0.156 C 
BRANCH  17  18
ATOM     18  O   UNL A   1      30.615  29.978  21.486  1.00  0.00    -0.396 OA
ATOM     19  H   UNL A   1      30.587  30.947  21.464  1.00  0.00     0.210 HD
ENDBRANCH  17  18
ENDBRANCH  16  17
ENDBRANCH  15  16
ENDBRANCH   7  15
ENDBRANCH   4   7
ENDBRANCH   2   3
ENDBRANCH   1   2
BRANCH   1  20
ATOM     20  C   UNL A   1      32.094  29.894  25.264  1.00  0.00     0.023 C 
BRANCH  20  21
ATOM     21  C   UNL A   1      32.077  30.319  26.730  1.00  0.00     0.116 C 
BRANCH  21  22
ATOM     22  N   UNL A   1      32.046  31.765  26.919  1.00  0.00    -0.352 N 
ATOM     23  C   UNL A   1      33.001  32.583  27.482  1.00  0.00     0.251 C 
ATOM     24  H   UNL A   1      31.231  32.218  26.603  1.00  0.00     0.163 HD
ATOM     25  O   UNL A   1      32.781  33.774  27.644  1.00  0.00    -0.269 OA
BRANCH  23  26
ATOM     26  C   UNL A   1      34.277  31.985  27.924  1.00  0.00     0.039 A 
ATOM     27  C   UNL A   1      35.389  32.814  28.085  1.00  0.00     0.014 A 
ATOM     28  C   UNL A   1      34.345  30.630  28.255  1.00  0.00     0.014 A 
ATOM     29  C   UNL A   1      36.551  32.297  28.663  1.00  0.00     0.010 A 
ATOM     30  C   UNL A   1      35.472  30.140  28.903  1.00  0.00     0.010 A 
ATOM     31  C   UNL A   1      36.585  30.968  29.118  1.00  0.00    -0.014 A 
BRANCH  31  32
ATOM     32  C   UNL A   1      37.763  30.427  29.841  1.00  0.00     0.031 A 
ATOM     33  C   UNL A   1      38.067  30.891  31.238  1.00  0.00     0.074 A 
ATOM     34  C   UNL A   1      38.612  29.594  29.206  1.00  0.00     0.049 A 
ATOM     35  N   UNL A   1      39.081  30.588  32.006  1.00  0.00    -0.248 NA
ATOM     36  C   UNL A   1      37.123  31.848  31.842  1.00  0.00     0.031 C 
ATOM     37  C   UNL A   1      38.471  29.131  27.824  1.00  0.00     0.029 A 
ATOM     38  N   UNL A   1      39.776  29.006  29.633  1.00  0.00    -0.354 N 
ATOM     39  C   UNL A   1      38.917  31.338  33.163  1.00  0.00     0.074 A 
ATOM     40  C   UNL A   1      37.730  32.145  32.980  1.00  0.00     0.031 C 
ATOM     41  C   UNL A   1      39.499  28.320  27.523  1.00  0.00     0.029 A 
ATOM     42  C   UNL A   1      40.388  28.229  28.677  1.00  0.00     0.049 A 
ATOM     43  H   UNL A   1      40.141  29.130  30.540  1.00  0.00     0.167 HD
ATOM     44  C   UNL A   1      39.663  31.331  34.295  1.00  0.00     0.034 A 
ATOM     45  C   UNL A   1      41.532  27.520  28.726  1.00  0.00     0.034 A 
ATOM     46  C   UNL A   1      40.815  30.494  34.491  1.00  0.00     0.049 A 
ATOM     47  C   UNL A   1      42.328  27.504  30.004  1.00  0.00     0.074 A 
ATOM     48  C   UNL A   1      41.591  30.352  35.627  1.00  0.00     0.029 A 
ATOM     49  N   UNL A   1      41.358  29.659  33.527  1.00  0.00    -0.354 N 
ATOM     50  N   UNL A   1      42.070  28.099  31.144  1.00  0.00    -0.248 NA
ATOM     51  C   UNL A   1      43.553  26.692  30.015  1.00  0.00     0.031 C 
ATOM     52  C   UNL A   1      42.613  29.438  35.345  1.00  0.00     0.029 A 
ATOM     53  C   UNL A   1      42.462  29.000  34.039  1.00  0.00     0.049 A 
ATOM     54  H   UNL A   1      41.010  29.550  32.613  1.00  0.00     0.167 HD
ATOM     55  C   UNL A   1      43.076  27.702  32.017  1.00  0.00     0.074 A 
ATOM     56  C   UNL A   1      43.938  26.802  31.278  1.00  0.00     0.031 C 
ATOM     57  C   UNL A   1      43.276  28.061  33.309  1.00  0.00     0.034 A 
BRANCH  44  58
ATOM     58  C   UNL A   1      39.209  32.213  35.428  1.00  0.00     0.023 A 
ATOM     59  C   UNL A   1      38.238  31.732  36.331  1.00  0.00     0.012 A 
ATOM     60  C   UNL A   1      39.753  33.497  35.620  1.00  0.00     0.148 A 
ATOM     61  C   UNL A   1      37.785  32.528  37.381  1.00  0.00     0.002 A 
ATOM     62  C   UNL A   1      39.329  34.268  36.697  1.00  0.00     0.091 A 
ATOM     63  F   UNL A   1      40.656  33.950  34.739  1.00  0.00    -0.205 F 
ATOM     64  C   UNL A   1      38.337  33.792  37.570  1.00  0.00     0.022 A 
BRANCH  62  65
ATOM     65  S   UNL A   1      40.037  35.878  37.067  1.00  0.00     0.127 S 
ATOM     66  O   UNL A   1      41.450  35.547  37.238  1.00  0.00    -0.237 OA
ATOM     67  O   UNL A   1      39.732  36.637  35.853  1.00  0.00    -0.237 OA
ATOM     68  O   UNL A   1      39.350  36.347  38.262  1.00  0.00    -0.744 OA
ENDBRANCH  62  65
ENDBRANCH  44  58
BRANCH  45  69
ATOM     69  C   UNL A   1      41.948  26.690  27.558  1.00  0.00     0.023 A 
ATOM     70  C   UNL A   1      42.655  27.302  26.505  1.00  0.00     0.012 A 
ATOM     71  C   UNL A   1      41.679  25.310  27.496  1.00  0.00     0.148 A 
ATOM     72  C   UNL A   1      43.063  26.560  25.395  1.00  0.00     0.002 A 
ATOM     73  C   UNL A   1      42.133  24.566  26.412  1.00  0.00     0.091 A 
ATOM     74  F   UNL A   1      40.996  24.749  28.503  1.00  0.00    -0.205 F 
ATOM     75  C   UNL A   1      42.811  25.192  25.353  1.00  0.00     0.022 A 
BRANCH  73  76
ATOM     76  S   UNL A   1      41.966  22.780  26.330  1.00  0.00     0.127 S 
ATOM     77  O   UNL A   1      40.516  22.613  26.360  1.00  0.00    -0.237 OA
ATOM     78  O   UNL A   1      42.595  22.476  25.043  1.00  0.00    -0.237 OA
ATOM     79  O   UNL A   1      42.689  22.265  27.485  1.00  0.00    -0.744 OA
ENDBRANCH  73  76
ENDBRANCH  45  69
BRANCH  57  80
ATOM     80  C   UNL A   1      44.452  27.453  34.029  1.00  0.00     0.023 A 
ATOM     81  C   UNL A   1      45.715  28.072  33.950  1.00  0.00     0.012 A 
ATOM     82  C   UNL A   1      44.288  26.317  34.844  1.00  0.00     0.148 A 
ATOM     83  C   UNL A   1      46.804  27.551  34.649  1.00  0.00     0.002 A 
ATOM     84  C   UNL A   1      45.365  25.831  35.575  1.00  0.00     0.091 A 
ATOM     85  F   UNL A   1      43.081  25.731  34.890  1.00  0.00    -0.205 F 
ATOM     86  C   UNL A   1      46.626  26.440  35.471  1.00  0.00     0.022 A 
BRANCH  84  87
ATOM     87  S   UNL A   1      45.206  24.464  36.730  1.00  0.00     0.127 S 
ATOM     88  O   UNL A   1      44.222  24.986  37.676  1.00  0.00    -0.237 OA
ATOM     89  O   UNL A   1      44.714  23.386  35.871  1.00  0.00    -0.237 OA
ATOM     90  O   UNL A   1      46.540  24.242  37.272  1.00  0.00    -0.744 OA
ENDBRANCH  84  87
ENDBRANCH  57  80
ENDBRANCH  31  32
ENDBRANCH  23  26
ENDBRANCH  21  22
ENDBRANCH  20  21
ENDBRANCH   1  20
TORSDOF 18
ENDMDL
MODEL 3
REMARK VINA RESULT:     -10.9      1.735      8.026
REMARK SMILES CC1(C)CCC(CCCO)(C(=O)NCCCCNC(=O)c2ccc(-c3c4nc(c(-c5cccc(S(=O)(=O)[O-])c5F)c5ccc([nH]5)c(-c5cccc(S(=O)(=O)[O-])c5F)c5nc(c(-c6cccc(S(=O)(=O)[O-])c6F)c6ccc3[nH]6)C=C5)C=C4)cc2)CC1
REMARK SMILES IDX 15 1 14 2 13 3 11 4 12 5 6 7 1 8 2 9 3 10 4 11 85 12 5 13
REMARK SMILES IDX 84 14 7 15 8 16 9 17 10 18 16 20 17 21 18 22 19 23 20 25
REMARK SMILES IDX 21 26 22 27 83 28 23 29 82 30 24 31 25 32 26 33 76 34 27 35
REMARK SMILES IDX 81 36 75 37 77 38 28 39 80 40 74 41 73 42 29 44 61 45 41 46
REMARK SMILES IDX 60 47 42 48 45 49 59 50 78 51 43 52 44 53 58 55 79 56 46 57
REMARK SMILES IDX 30 58 31 59 39 60 32 61 34 62 40 63 33 64 35 65 36 66 37 67
REMARK SMILES IDX 38 68 62 69 63 70 71 71 64 72 66 73 72 74 65 75 67 76 68 77
REMARK SMILES IDX 69 78 70 79 47 80 48 81 56 82 49 83 51 84 57 85 50 86 52 87
REMARK SMILES IDX 53 88 54 89 55 90
REMARK H PARENT 13 6 10 19 18 24 77 43 45 54
REMARK Flexibility Score: inf
ROOT
ATOM      1  C   UNL A   1      31.632  27.456  26.748  1.00  0.00     0.023 C 
ENDROOT
BRANCH   1   2
ATOM      2  C   UNL A   1      32.394  26.154  26.561  1.00  0.00     0.116 C 
BRANCH   2   3
ATOM      3  N   UNL A   1      31.754  25.217  25.657  1.00  0.00    -0.356 N 
ATOM      4  C   UNL A   1      32.244  24.478  24.620  1.00  0.00     0.226 C 
ATOM      5  O   UNL A   1      31.571  23.497  24.291  1.00  0.00    -0.274 OA
ATOM      6  H   UNL A   1      30.792  25.092  25.822  1.00  0.00     0.163 HD
BRANCH   4   7
ATOM      7  C   UNL A   1      33.580  24.800  23.906  1.00  0.00     0.049 C 
ATOM      8  C   UNL A   1      36.659  22.440  23.873  1.00  0.00     0.011 C 
ATOM      9  C   UNL A   1      35.300  22.317  24.599  1.00  0.00    -0.035 C 
ATOM     10  C   UNL A   1      35.283  20.984  25.374  1.00  0.00     0.011 C 
ATOM     11  C   UNL A   1      35.092  23.468  25.608  1.00  0.00     0.007 C 
ATOM     12  C   UNL A   1      34.153  22.328  23.571  1.00  0.00     0.007 C 
ATOM     13  C   UNL A   1      34.741  24.820  24.971  1.00  0.00     0.017 C 
ATOM     14  C   UNL A   1      33.998  23.700  22.897  1.00  0.00     0.017 C 
BRANCH   7  15
ATOM     15  C   UNL A   1      33.599  26.245  23.298  1.00  0.00     0.019 C 
BRANCH  15  16
ATOM     16  C   UNL A   1      33.141  26.569  21.869  1.00  0.00     0.029 C 
BRANCH  16  17
ATOM     17  C   UNL A   1      31.733  26.117  21.474  1.00  0.00     0.156 C 
BRANCH  17  18
ATOM     18  O   UNL A   1      31.660  25.856  20.082  1.00  0.00    -0.396 OA
ATOM     19  H   UNL A   1      31.451  24.920  19.939  1.00  0.00     0.210 HD
ENDBRANCH  17  18
ENDBRANCH  16  17
ENDBRANCH  15  16
ENDBRANCH   7  15
ENDBRANCH   4   7
ENDBRANCH   2   3
ENDBRANCH   1   2
BRANCH   1  20
ATOM     20  C   UNL A   1      31.637  28.380  25.532  1.00  0.00     0.023 C 
BRANCH  20  21
ATOM     21  C   UNL A   1      32.695  29.479  25.538  1.00  0.00     0.116 C 
BRANCH  21  22
ATOM     22  N   UNL A   1      32.221  30.746  26.083  1.00  0.00    -0.352 N 
ATOM     23  C   UNL A   1      32.824  31.566  27.011  1.00  0.00     0.251 C 
ATOM     24  H   UNL A   1      31.352  31.057  25.743  1.00  0.00     0.163 HD
ATOM     25  O   UNL A   1      32.248  32.561  27.428  1.00  0.00    -0.269 OA
BRANCH  23  26
ATOM     26  C   UNL A   1      34.159  31.199  27.524  1.00  0.00     0.039 A 
ATOM     27  C   UNL A   1      35.104  32.207  27.729  1.00  0.00     0.014 A 
ATOM     28  C   UNL A   1      34.441  29.876  27.875  1.00  0.00     0.014 A 
ATOM     29  C   UNL A   1      36.306  31.899  28.370  1.00  0.00     0.010 A 
ATOM     30  C   UNL A   1      35.602  29.590  28.584  1.00  0.00     0.010 A 
ATOM     31  C   UNL A   1      36.544  30.598  28.843  1.00  0.00    -0.014 A 
BRANCH  31  32
ATOM     32  C   UNL A   1      37.759  30.270  29.630  1.00  0.00     0.031 A 
ATOM     33  C   UNL A   1      38.793  29.337  29.065  1.00  0.00     0.074 A 
ATOM     34  C   UNL A   1      37.883  30.733  30.890  1.00  0.00     0.049 A 
ATOM     35  N   UNL A   1      39.883  28.878  29.623  1.00  0.00    -0.248 NA
ATOM     36  C   UNL A   1      38.556  28.826  27.704  1.00  0.00     0.031 C 
ATOM     37  C   UNL A   1      36.911  31.583  31.582  1.00  0.00     0.029 A 
ATOM     38  N   UNL A   1      38.870  30.535  31.823  1.00  0.00    -0.354 N 
ATOM     39  C   UNL A   1      40.441  28.003  28.700  1.00  0.00     0.074 A 
ATOM     40  C   UNL A   1      39.547  27.960  27.563  1.00  0.00     0.031 C 
ATOM     41  C   UNL A   1      37.357  31.844  32.821  1.00  0.00     0.029 A 
ATOM     42  C   UNL A   1      38.629  31.160  33.025  1.00  0.00     0.049 A 
ATOM     43  H   UNL A   1      39.676  29.996  31.649  1.00  0.00     0.167 HD
ATOM     44  C   UNL A   1      41.611  27.323  28.771  1.00  0.00     0.034 A 
ATOM     45  C   UNL A   1      39.353  31.180  34.162  1.00  0.00     0.034 A 
ATOM     46  C   UNL A   1      42.519  27.403  29.883  1.00  0.00     0.049 A 
ATOM     47  C   UNL A   1      40.664  30.442  34.206  1.00  0.00     0.074 A 
ATOM     48  C   UNL A   1      43.766  26.820  30.019  1.00  0.00     0.029 A 
ATOM     49  N   UNL A   1      42.279  28.111  31.050  1.00  0.00    -0.354 N 
ATOM     50  N   UNL A   1      41.252  29.745  33.263  1.00  0.00    -0.248 NA
ATOM     51  C   UNL A   1      41.430  30.521  35.458  1.00  0.00     0.031 C 
ATOM     52  C   UNL A   1      44.274  27.165  31.276  1.00  0.00     0.029 A 
ATOM     53  C   UNL A   1      43.351  27.977  31.915  1.00  0.00     0.049 A 
ATOM     54  H   UNL A   1      41.464  28.632  31.237  1.00  0.00     0.167 HD
ATOM     55  C   UNL A   1      42.470  29.337  33.792  1.00  0.00     0.074 A 
ATOM     56  C   UNL A   1      42.544  29.880  35.134  1.00  0.00     0.031 C 
ATOM     57  C   UNL A   1      43.435  28.572  33.225  1.00  0.00     0.034 A 
BRANCH  44  58
ATOM     58  C   UNL A   1      41.999  26.486  27.580  1.00  0.00     0.023 A 
ATOM     59  C   UNL A   1      42.647  27.097  26.488  1.00  0.00     0.012 A 
ATOM     60  C   UNL A   1      41.751  25.100  27.549  1.00  0.00     0.148 A 
ATOM     61  C   UNL A   1      43.004  26.353  25.364  1.00  0.00     0.002 A 
ATOM     62  C   UNL A   1      42.151  24.357  26.444  1.00  0.00     0.091 A 
ATOM     63  F   UNL A   1      41.111  24.538  28.584  1.00  0.00    -0.205 F 
ATOM     64  C   UNL A   1      42.765  24.983  25.346  1.00  0.00     0.022 A 
BRANCH  62  65
ATOM     65  S   UNL A   1      41.957  22.572  26.361  1.00  0.00     0.127 S 
ATOM     66  O   UNL A   1      40.502  22.433  26.354  1.00  0.00    -0.237 OA
ATOM     67  O   UNL A   1      42.606  22.248  25.089  1.00  0.00    -0.237 OA
ATOM     68  O   UNL A   1      42.636  22.045  27.537  1.00  0.00    -0.744 OA
ENDBRANCH  62  65
ENDBRANCH  44  58
BRANCH  45  69
ATOM     69  C   UNL A   1      38.901  32.003  35.320  1.00  0.00     0.023 A 
ATOM     70  C   UNL A   1      39.019  33.405  35.248  1.00  0.00     0.012 A 
ATOM     71  C   UNL A   1      38.333  31.419  36.468  1.00  0.00     0.148 A 
ATOM     72  C   UNL A   1      38.606  34.211  36.309  1.00  0.00     0.002 A 
ATOM     73  C   UNL A   1      37.876  32.230  37.502  1.00  0.00     0.091 A 
ATOM     74  F   UNL A   1      38.241  30.083  36.522  1.00  0.00    -0.205 F 
ATOM     75  C   UNL A   1      38.026  33.624  37.431  1.00  0.00     0.022 A 
BRANCH  73  76
ATOM     76  S   UNL A   1      37.004  31.575  38.928  1.00  0.00     0.127 S 
ATOM     77  O   UNL A   1      37.981  31.774  39.995  1.00  0.00    -0.237 OA
ATOM     78  O   UNL A   1      35.832  32.450  38.994  1.00  0.00    -0.237 OA
ATOM     79  O   UNL A   1      36.698  30.190  38.599  1.00  0.00    -0.744 OA
ENDBRANCH  73  76
ENDBRANCH  45  69
BRANCH  57  80
ATOM     80  C   UNL A   1      44.677  28.300  34.033  1.00  0.00     0.023 A 
ATOM     81  C   UNL A   1      45.808  29.125  33.874  1.00  0.00     0.012 A 
ATOM     82  C   UNL A   1      44.695  27.280  35.003  1.00  0.00     0.148 A 
ATOM     83  C   UNL A   1      46.950  28.919  34.649  1.00  0.00     0.002 A 
ATOM     84  C   UNL A   1      45.818  27.110  35.804  1.00  0.00     0.091 A 
ATOM     85  F   UNL A   1      43.615  26.493  35.124  1.00  0.00    -0.205 F 
ATOM     86  C   UNL A   1      46.950  27.921  35.621  1.00  0.00     0.022 A 
BRANCH  84  87
ATOM     87  S   UNL A   1      45.872  25.914  37.143  1.00  0.00     0.127 S 
ATOM     88  O   UNL A   1      44.745  26.340  37.970  1.00  0.00    -0.237 OA
ATOM     89  O   UNL A   1      45.668  24.648  36.439  1.00  0.00    -0.237 OA
ATOM     90  O   UNL A   1      47.187  26.058  37.755  1.00  0.00    -0.744 OA
ENDBRANCH  84  87
ENDBRANCH  57  80
ENDBRANCH  31  32
ENDBRANCH  23  26
ENDBRANCH  21  22
ENDBRANCH  20  21
ENDBRANCH   1  20
TORSDOF 18
ENDMDL
