MODEL 1
REMARK VINA RESULT:     -12.5      0.000      0.000
REMARK SMILES CCc1n[nH]c(C(=O)N[C@@]2(C(=O)NCCCCNC(=O)c3ccc(-c4c5nc(c(-c6cccc(S(=O)(=O)[O-])c6F)c6ccc([nH]6)c(-c6cccc(S(=O)(=O)[O-])c6F)c6nc(c(-c7cccc(S(=O)(=O)[O-])c7F)c7ccc4[nH]7)C=C6)C=C5)cc3)CCCC[C@H]2C)n1
REMARK SMILES IDX 15 1 14 2 13 3 11 4 12 5 10 7 84 8 88 9 85 10 87 11 89 12
REMARK SMILES IDX 86 13 9 14 7 15 8 16 6 18 3 19 4 20 90 21 5 22 2 24 1 25
REMARK SMILES IDX 16 26 17 27 18 28 19 29 20 31 21 32 22 33 83 34 23 35 82 36
REMARK SMILES IDX 24 37 25 38 26 39 76 40 27 41 81 42 75 43 77 44 28 45 80 46
REMARK SMILES IDX 74 47 73 48 29 50 61 51 41 52 60 53 42 54 45 55 59 56 78 57
REMARK SMILES IDX 43 58 44 59 58 61 79 62 46 63 30 64 31 65 39 66 32 67 34 68
REMARK SMILES IDX 40 69 33 70 35 71 36 72 37 73 38 74 62 75 63 76 71 77 64 78
REMARK SMILES IDX 66 79 72 80 65 81 67 82 68 83 69 84 70 85 47 86 48 87 56 88
REMARK SMILES IDX 49 89 51 90 57 91 50 92 52 93 53 94 54 95 55 96
REMARK H PARENT 13 6 9 17 5 23 18 30 77 49 45 60
REMARK Flexibility Score: inf
ROOT
ATOM      1  C   UNL A   1      32.476  30.407  25.901  1.00  0.00     0.023 C 
ENDROOT
BRANCH   1   2
ATOM      2  C   UNL A   1      31.415  29.412  25.442  1.00  0.00     0.116 C 
BRANCH   2   3
ATOM      3  N   UNL A   1      31.029  29.531  24.045  1.00  0.00    -0.354 N 
ATOM      4  C   UNL A   1      31.157  28.633  23.011  1.00  0.00     0.246 C 
ATOM      5  O   UNL A   1      30.648  28.930  21.923  1.00  0.00    -0.272 OA
ATOM      6  H   UNL A   1      30.610  30.388  23.800  1.00  0.00     0.163 HD
BRANCH   4   7
ATOM      7  C   UNL A   1      31.981  27.287  23.168  1.00  0.00     0.122 C 
ATOM      8  C   UNL A   1      31.076  26.281  23.913  1.00  0.00     0.039 C 
ATOM      9  C   UNL A   1      33.303  27.719  23.866  1.00  0.00     0.021 C 
ATOM     10  C   UNL A   1      31.621  25.652  25.200  1.00  0.00     0.003 C 
ATOM     11  C   UNL A   1      33.990  26.578  24.589  1.00  0.00     0.006 C 
ATOM     12  C   UNL A   1      34.269  28.491  22.952  1.00  0.00     0.011 C 
ATOM     13  C   UNL A   1      33.056  25.973  25.632  1.00  0.00     0.000 C 
BRANCH   7  14
ATOM     14  N   UNL A   1      32.243  26.808  21.768  1.00  0.00    -0.335 N 
ATOM     15  C   UNL A   1      32.720  25.658  21.175  1.00  0.00     0.289 C 
ATOM     16  O   UNL A   1      32.820  25.671  19.945  1.00  0.00    -0.266 OA
ATOM     17  H   UNL A   1      32.013  27.494  21.099  1.00  0.00     0.165 HD
BRANCH  15  18
ATOM     18  C   UNL A   1      33.022  24.443  21.909  1.00  0.00     0.214 A 
ATOM     19  C   UNL A   1      33.866  22.928  23.151  1.00  0.00     0.151 A 
ATOM     20  N   UNL A   1      32.579  22.570  23.087  1.00  0.00    -0.158 NA
ATOM     21  N   UNL A   1      34.170  24.037  22.403  1.00  0.00    -0.207 NA
ATOM     22  N   UNL A   1      32.077  23.519  22.265  1.00  0.00    -0.255 N 
ATOM     23  H   UNL A   1      31.142  23.544  21.959  1.00  0.00     0.192 HD
BRANCH  19  24
ATOM     24  C   UNL A   1      34.863  22.375  24.112  1.00  0.00     0.076 C 
ATOM     25  C   UNL A   1      34.620  22.640  25.582  1.00  0.00     0.012 C 
ENDBRANCH  19  24
ENDBRANCH  15  18
ENDBRANCH   7  14
ENDBRANCH   4   7
ENDBRANCH   2   3
ENDBRANCH   1   2
BRANCH   1  26
ATOM     26  C   UNL A   1      31.992  31.436  26.910  1.00  0.00     0.023 C 
BRANCH  26  27
ATOM     27  C   UNL A   1      33.068  32.362  27.463  1.00  0.00     0.116 C 
BRANCH  27  28
ATOM     28  N   UNL A   1      32.638  33.744  27.633  1.00  0.00    -0.352 N 
ATOM     29  C   UNL A   1      33.133  34.687  28.511  1.00  0.00     0.251 C 
ATOM     30  H   UNL A   1      31.903  34.042  27.048  1.00  0.00     0.163 HD
ATOM     31  O   UNL A   1      32.618  35.788  28.601  1.00  0.00    -0.269 OA
BRANCH  29  32
ATOM     32  C   UNL A   1      34.276  34.314  29.375  1.00  0.00     0.039 A 
ATOM     33  C   UNL A   1      34.028  33.648  30.576  1.00  0.00     0.014 A 
ATOM     34  C   UNL A   1      35.586  34.542  28.946  1.00  0.00     0.014 A 
ATOM     35  C   UNL A   1      35.100  33.130  31.306  1.00  0.00     0.010 A 
ATOM     36  C   UNL A   1      36.642  33.950  29.629  1.00  0.00     0.010 A 
ATOM     37  C   UNL A   1      36.412  33.236  30.814  1.00  0.00    -0.014 A 
BRANCH  37  38
ATOM     38  C   UNL A   1      37.554  32.588  31.509  1.00  0.00     0.031 A 
ATOM     39  C   UNL A   1      38.278  31.437  30.863  1.00  0.00     0.074 A 
ATOM     40  C   UNL A   1      37.875  32.966  32.763  1.00  0.00     0.049 A 
ATOM     41  N   UNL A   1      39.255  30.708  31.336  1.00  0.00    -0.248 NA
ATOM     42  C   UNL A   1      37.825  31.033  29.521  1.00  0.00     0.031 C 
ATOM     43  C   UNL A   1      37.189  34.004  33.537  1.00  0.00     0.029 A 
ATOM     44  N   UNL A   1      38.843  32.502  33.620  1.00  0.00    -0.354 N 
ATOM     45  C   UNL A   1      39.506  29.740  30.372  1.00  0.00     0.074 A 
ATOM     46  C   UNL A   1      38.555  29.948  29.304  1.00  0.00     0.031 C 
ATOM     47  C   UNL A   1      37.762  34.103  34.747  1.00  0.00     0.029 A 
ATOM     48  C   UNL A   1      38.835  33.119  34.850  1.00  0.00     0.049 A 
ATOM     49  H   UNL A   1      39.482  31.794  33.377  1.00  0.00     0.167 HD
ATOM     50  C   UNL A   1      40.466  28.784  30.358  1.00  0.00     0.034 A 
ATOM     51  C   UNL A   1      39.603  32.913  35.937  1.00  0.00     0.034 A 
ATOM     52  C   UNL A   1      41.443  28.611  31.399  1.00  0.00     0.049 A 
ATOM     53  C   UNL A   1      40.695  31.880  35.877  1.00  0.00     0.074 A 
ATOM     54  C   UNL A   1      42.515  27.738  31.434  1.00  0.00     0.029 A 
ATOM     55  N   UNL A   1      41.464  29.320  32.590  1.00  0.00    -0.354 N 
ATOM     56  N   UNL A   1      41.028  31.088  34.886  1.00  0.00    -0.248 NA
ATOM     57  C   UNL A   1      41.542  31.736  37.070  1.00  0.00     0.031 C 
ATOM     58  C   UNL A   1      43.173  27.904  32.657  1.00  0.00     0.029 A 
ATOM     59  C   UNL A   1      42.525  28.898  33.372  1.00  0.00     0.049 A 
ATOM     60  H   UNL A   1      40.820  30.019  32.842  1.00  0.00     0.167 HD
ATOM     61  C   UNL A   1      42.142  30.380  35.321  1.00  0.00     0.074 A 
ATOM     62  C   UNL A   1      42.441  30.852  36.657  1.00  0.00     0.031 C 
ATOM     63  C   UNL A   1      42.844  29.413  34.678  1.00  0.00     0.034 A 
BRANCH  50  64
ATOM     64  C   UNL A   1      40.543  27.889  29.150  1.00  0.00     0.023 A 
ATOM     65  C   UNL A   1      39.645  26.808  29.028  1.00  0.00     0.012 A 
ATOM     66  C   UNL A   1      41.462  28.144  28.113  1.00  0.00     0.148 A 
ATOM     67  C   UNL A   1      39.682  25.975  27.912  1.00  0.00     0.002 A 
ATOM     68  C   UNL A   1      41.463  27.336  26.982  1.00  0.00     0.091 A 
ATOM     69  F   UNL A   1      42.323  29.161  28.258  1.00  0.00    -0.205 F 
ATOM     70  C   UNL A   1      40.583  26.245  26.885  1.00  0.00     0.022 A 
BRANCH  68  71
ATOM     71  S   UNL A   1      42.529  27.648  25.570  1.00  0.00     0.127 S 
ATOM     72  O   UNL A   1      42.288  26.459  24.752  1.00  0.00    -0.237 OA
ATOM     73  O   UNL A   1      41.967  28.885  25.028  1.00  0.00    -0.237 OA
ATOM     74  O   UNL A   1      43.876  27.776  26.106  1.00  0.00    -0.744 OA
ENDBRANCH  68  71
ENDBRANCH  50  64
BRANCH  51  75
ATOM     75  C   UNL A   1      39.414  33.755  37.154  1.00  0.00     0.023 A 
ATOM     76  C   UNL A   1      39.892  35.081  37.158  1.00  0.00     0.012 A 
ATOM     77  C   UNL A   1      38.744  33.265  38.290  1.00  0.00     0.148 A 
ATOM     78  C   UNL A   1      39.735  35.891  38.283  1.00  0.00     0.002 A 
ATOM     79  C   UNL A   1      38.542  34.095  39.388  1.00  0.00     0.091 A 
ATOM     80  F   UNL A   1      38.306  31.997  38.273  1.00  0.00    -0.205 F 
ATOM     81  C   UNL A   1      39.053  35.402  39.393  1.00  0.00     0.022 A 
BRANCH  79  82
ATOM     82  S   UNL A   1      37.559  33.594  40.805  1.00  0.00     0.127 S 
ATOM     83  O   UNL A   1      37.417  34.854  41.530  1.00  0.00    -0.237 OA
ATOM     84  O   UNL A   1      36.334  33.109  40.167  1.00  0.00    -0.237 OA
ATOM     85  O   UNL A   1      38.336  32.560  41.475  1.00  0.00    -0.744 OA
ENDBRANCH  79  82
ENDBRANCH  51  75
BRANCH  63  86
ATOM     86  C   UNL A   1      44.030  28.819  35.393  1.00  0.00     0.023 A 
ATOM     87  C   UNL A   1      45.314  29.359  35.188  1.00  0.00     0.012 A 
ATOM     88  C   UNL A   1      43.858  27.778  36.326  1.00  0.00     0.148 A 
ATOM     89  C   UNL A   1      46.415  28.850  35.875  1.00  0.00     0.002 A 
ATOM     90  C   UNL A   1      44.951  27.309  37.045  1.00  0.00     0.091 A 
ATOM     91  F   UNL A   1      42.630  27.266  36.495  1.00  0.00    -0.205 F 
ATOM     92  C   UNL A   1      46.232  27.834  36.811  1.00  0.00     0.022 A 
BRANCH  90  93
ATOM     93  S   UNL A   1      44.793  26.073  38.338  1.00  0.00     0.127 S 
ATOM     94  O   UNL A   1      44.202  24.953  37.609  1.00  0.00    -0.237 OA
ATOM     95  O   UNL A   1      46.184  25.871  38.746  1.00  0.00    -0.237 OA
ATOM     96  O   UNL A   1      43.947  26.671  39.362  1.00  0.00    -0.744 OA
ENDBRANCH  90  93
ENDBRANCH  63  86
ENDBRANCH  37  38
ENDBRANCH  29  32
ENDBRANCH  27  28
ENDBRANCH  26  27
ENDBRANCH   1  26
TORSDOF 17
ENDMDL
MODEL 2
REMARK VINA RESULT:     -11.9      6.582     11.788
REMARK SMILES CCc1n[nH]c(C(=O)N[C@@]2(C(=O)NCCCCNC(=O)c3ccc(-c4c5nc(c(-c6cccc(S(=O)(=O)[O-])c6F)c6ccc([nH]6)c(-c6cccc(S(=O)(=O)[O-])c6F)c6nc(c(-c7cccc(S(=O)(=O)[O-])c7F)c7ccc4[nH]7)C=C6)C=C5)cc3)CCCC[C@H]2C)n1
REMARK SMILES IDX 15 1 14 2 13 3 11 4 12 5 10 7 84 8 88 9 85 10 87 11 89 12
REMARK SMILES IDX 86 13 9 14 7 15 8 16 6 18 3 19 4 20 90 21 5 22 2 24 1 25
REMARK SMILES IDX 16 26 17 27 18 28 19 29 20 31 21 32 22 33 83 34 23 35 82 36
REMARK SMILES IDX 24 37 25 38 26 39 76 40 27 41 81 42 75 43 77 44 28 45 80 46
REMARK SMILES IDX 74 47 73 48 29 50 61 51 41 52 60 53 42 54 45 55 59 56 78 57
REMARK SMILES IDX 43 58 44 59 58 61 79 62 46 63 30 64 31 65 39 66 32 67 34 68
REMARK SMILES IDX 40 69 33 70 35 71 36 72 37 73 38 74 62 75 63 76 71 77 64 78
REMARK SMILES IDX 66 79 72 80 65 81 67 82 68 83 69 84 70 85 47 86 48 87 56 88
REMARK SMILES IDX 49 89 51 90 57 91 50 92 52 93 53 94 54 95 55 96
REMARK H PARENT 13 6 9 17 5 23 18 30 77 49 45 60
REMARK Flexibility Score: inf
ROOT
ATOM      1  C   UNL A   1      36.987  21.452  25.291  1.00  0.00     0.023 C 
ENDROOT
BRANCH   1   2
ATOM      2  C   UNL A   1      35.751  21.298  24.412  1.00  0.00     0.116 C 
BRANCH   2   3
ATOM      3  N   UNL A   1      34.715  20.435  24.960  1.00  0.00    -0.354 N 
ATOM      4  C   UNL A   1      33.434  20.734  25.363  1.00  0.00     0.246 C 
ATOM      5  O   UNL A   1      32.701  19.796  25.698  1.00  0.00    -0.272 OA
ATOM      6  H   UNL A   1      34.970  19.489  25.057  1.00  0.00     0.163 HD
BRANCH   4   7
ATOM      7  C   UNL A   1      32.918  22.231  25.466  1.00  0.00     0.122 C 
ATOM      8  C   UNL A   1      32.670  22.729  24.025  1.00  0.00     0.039 C 
ATOM      9  C   UNL A   1      34.005  22.962  26.304  1.00  0.00     0.021 C 
ATOM     10  C   UNL A   1      33.388  24.009  23.583  1.00  0.00     0.003 C 
ATOM     11  C   UNL A   1      34.013  24.461  26.082  1.00  0.00     0.006 C 
ATOM     12  C   UNL A   1      33.995  22.596  27.798  1.00  0.00     0.011 C 
ATOM     13  C   UNL A   1      34.231  24.778  24.606  1.00  0.00     0.000 C 
BRANCH   7  14
ATOM     14  N   UNL A   1      31.618  22.157  26.218  1.00  0.00    -0.335 N 
ATOM     15  C   UNL A   1      30.621  23.037  26.582  1.00  0.00     0.289 C 
ATOM     16  O   UNL A   1      29.693  22.574  27.253  1.00  0.00    -0.266 OA
ATOM     17  H   UNL A   1      31.429  21.242  26.530  1.00  0.00     0.165 HD
BRANCH  15  18
ATOM     18  C   UNL A   1      30.577  24.423  26.154  1.00  0.00     0.214 A 
ATOM     19  C   UNL A   1      30.891  26.512  25.861  1.00  0.00     0.151 A 
ATOM     20  N   UNL A   1      30.329  26.137  24.707  1.00  0.00    -0.158 NA
ATOM     21  N   UNL A   1      31.008  25.497  26.775  1.00  0.00    -0.207 NA
ATOM     22  N   UNL A   1      30.104  24.823  24.933  1.00  0.00    -0.255 N 
ATOM     23  H   UNL A   1      29.653  24.224  24.295  1.00  0.00     0.192 HD
BRANCH  19  24
ATOM     24  C   UNL A   1      31.570  27.818  26.099  1.00  0.00     0.076 C 
ATOM     25  C   UNL A   1      32.908  28.031  25.424  1.00  0.00     0.012 C 
ENDBRANCH  19  24
ENDBRANCH  15  18
ENDBRANCH   7  14
ENDBRANCH   4   7
ENDBRANCH   2   3
ENDBRANCH   1   2
BRANCH   1  26
ATOM     26  C   UNL A   1      37.962  20.287  25.231  1.00  0.00     0.023 C 
BRANCH  26  27
ATOM     27  C   UNL A   1      39.252  20.476  26.019  1.00  0.00     0.116 C 
BRANCH  27  28
ATOM     28  N   UNL A   1      40.147  19.326  25.986  1.00  0.00    -0.352 N 
ATOM     29  C   UNL A   1      41.520  19.313  26.125  1.00  0.00     0.251 C 
ATOM     30  H   UNL A   1      39.718  18.450  25.847  1.00  0.00     0.163 HD
ATOM     31  O   UNL A   1      42.152  18.278  25.993  1.00  0.00    -0.269 OA
BRANCH  29  32
ATOM     32  C   UNL A   1      42.214  20.593  26.395  1.00  0.00     0.039 A 
ATOM     33  C   UNL A   1      42.561  21.414  25.320  1.00  0.00     0.014 A 
ATOM     34  C   UNL A   1      42.429  21.014  27.709  1.00  0.00     0.014 A 
ATOM     35  C   UNL A   1      43.046  22.699  25.569  1.00  0.00     0.010 A 
ATOM     36  C   UNL A   1      42.828  22.323  27.952  1.00  0.00     0.010 A 
ATOM     37  C   UNL A   1      43.139  23.181  26.886  1.00  0.00    -0.014 A 
BRANCH  37  38
ATOM     38  C   UNL A   1      43.534  24.585  27.171  1.00  0.00     0.031 A 
ATOM     39  C   UNL A   1      42.546  25.538  27.789  1.00  0.00     0.074 A 
ATOM     40  C   UNL A   1      44.745  25.030  26.781  1.00  0.00     0.049 A 
ATOM     41  N   UNL A   1      42.686  26.810  28.057  1.00  0.00    -0.248 NA
ATOM     42  C   UNL A   1      41.217  24.998  28.123  1.00  0.00     0.031 C 
ATOM     43  C   UNL A   1      45.758  24.232  26.086  1.00  0.00     0.029 A 
ATOM     44  N   UNL A   1      45.322  26.272  26.889  1.00  0.00    -0.354 N 
ATOM     45  C   UNL A   1      41.457  27.230  28.552  1.00  0.00     0.074 A 
ATOM     46  C   UNL A   1      40.572  26.089  28.512  1.00  0.00     0.031 C 
ATOM     47  C   UNL A   1      46.832  24.999  25.838  1.00  0.00     0.029 A 
ATOM     48  C   UNL A   1      46.576  26.351  26.327  1.00  0.00     0.049 A 
ATOM     49  H   UNL A   1      44.879  27.034  27.326  1.00  0.00     0.167 HD
ATOM     50  C   UNL A   1      41.106  28.447  29.030  1.00  0.00     0.034 A 
ATOM     51  C   UNL A   1      47.422  27.393  26.217  1.00  0.00     0.034 A 
ATOM     52  C   UNL A   1      42.003  29.567  29.116  1.00  0.00     0.049 A 
ATOM     53  C   UNL A   1      47.026  28.721  26.803  1.00  0.00     0.074 A 
ATOM     54  C   UNL A   1      41.774  30.812  29.674  1.00  0.00     0.029 A 
ATOM     55  N   UNL A   1      43.299  29.582  28.624  1.00  0.00    -0.354 N 
ATOM     56  N   UNL A   1      45.920  29.053  27.423  1.00  0.00    -0.248 NA
ATOM     57  C   UNL A   1      48.010  29.810  26.707  1.00  0.00     0.031 C 
ATOM     58  C   UNL A   1      42.925  31.587  29.502  1.00  0.00     0.029 A 
ATOM     59  C   UNL A   1      43.879  30.817  28.858  1.00  0.00     0.049 A 
ATOM     60  H   UNL A   1      43.741  28.826  28.176  1.00  0.00     0.167 HD
ATOM     61  C   UNL A   1      46.088  30.373  27.823  1.00  0.00     0.074 A 
ATOM     62  C   UNL A   1      47.411  30.775  27.394  1.00  0.00     0.031 C 
ATOM     63  C   UNL A   1      45.217  31.186  28.473  1.00  0.00     0.034 A 
BRANCH  50  64
ATOM     64  C   UNL A   1      39.704  28.613  29.557  1.00  0.00     0.023 A 
ATOM     65  C   UNL A   1      39.396  28.171  30.860  1.00  0.00     0.012 A 
ATOM     66  C   UNL A   1      38.710  29.250  28.790  1.00  0.00     0.148 A 
ATOM     67  C   UNL A   1      38.113  28.328  31.380  1.00  0.00     0.002 A 
ATOM     68  C   UNL A   1      37.445  29.445  29.332  1.00  0.00     0.091 A 
ATOM     69  F   UNL A   1      39.015  29.642  27.546  1.00  0.00    -0.205 F 
ATOM     70  C   UNL A   1      37.141  28.974  30.620  1.00  0.00     0.022 A 
BRANCH  68  71
ATOM     71  S   UNL A   1      36.147  30.335  28.466  1.00  0.00     0.127 S 
ATOM     72  O   UNL A   1      35.560  29.276  27.646  1.00  0.00    -0.237 OA
ATOM     73  O   UNL A   1      35.300  30.793  29.568  1.00  0.00    -0.237 OA
ATOM     74  O   UNL A   1      36.813  31.399  27.729  1.00  0.00    -0.744 OA
ENDBRANCH  68  71
ENDBRANCH  50  64
BRANCH  51  75
ATOM     75  C   UNL A   1      48.760  27.204  25.586  1.00  0.00     0.023 A 
ATOM     76  C   UNL A   1      49.834  26.739  26.371  1.00  0.00     0.012 A 
ATOM     77  C   UNL A   1      48.970  27.453  24.217  1.00  0.00     0.148 A 
ATOM     78  C   UNL A   1      51.099  26.557  25.812  1.00  0.00     0.002 A 
ATOM     79  C   UNL A   1      50.219  27.217  23.653  1.00  0.00     0.091 A 
ATOM     80  F   UNL A   1      47.939  27.906  23.488  1.00  0.00    -0.205 F 
ATOM     81  C   UNL A   1      51.289  26.787  24.452  1.00  0.00     0.022 A 
BRANCH  79  82
ATOM     82  S   UNL A   1      50.520  27.357  21.888  1.00  0.00     0.127 S 
ATOM     83  O   UNL A   1      49.585  26.375  21.346  1.00  0.00    -0.237 OA
ATOM     84  O   UNL A   1      50.165  28.754  21.631  1.00  0.00    -0.237 OA
ATOM     85  O   UNL A   1      51.933  27.056  21.707  1.00  0.00    -0.744 OA
ENDBRANCH  79  82
ENDBRANCH  51  75
BRANCH  63  86
ATOM     86  C   UNL A   1      45.675  32.585  28.794  1.00  0.00     0.023 A 
ATOM     87  C   UNL A   1      46.398  32.831  29.977  1.00  0.00     0.012 A 
ATOM     88  C   UNL A   1      45.455  33.639  27.886  1.00  0.00     0.148 A 
ATOM     89  C   UNL A   1      46.867  34.112  30.268  1.00  0.00     0.002 A 
ATOM     90  C   UNL A   1      45.969  34.901  28.157  1.00  0.00     0.091 A 
ATOM     91  F   UNL A   1      44.749  33.388  26.773  1.00  0.00    -0.205 F 
ATOM     92  C   UNL A   1      46.663  35.143  29.354  1.00  0.00     0.022 A 
BRANCH  90  93
ATOM     93  S   UNL A   1      45.838  36.263  26.993  1.00  0.00     0.127 S 
ATOM     94  O   UNL A   1      44.396  36.497  26.968  1.00  0.00    -0.237 OA
ATOM     95  O   UNL A   1      46.615  37.312  27.655  1.00  0.00    -0.237 OA
ATOM     96  O   UNL A   1      46.417  35.781  25.747  1.00  0.00    -0.744 OA
ENDBRANCH  90  93
ENDBRANCH  63  86
ENDBRANCH  37  38
ENDBRANCH  29  32
ENDBRANCH  27  28
ENDBRANCH  26  27
ENDBRANCH   1  26
TORSDOF 17
ENDMDL
MODEL 3
REMARK VINA RESULT:     -11.7      5.408      8.575
REMARK SMILES CCc1n[nH]c(C(=O)N[C@@]2(C(=O)NCCCCNC(=O)c3ccc(-c4c5nc(c(-c6cccc(S(=O)(=O)[O-])c6F)c6ccc([nH]6)c(-c6cccc(S(=O)(=O)[O-])c6F)c6nc(c(-c7cccc(S(=O)(=O)[O-])c7F)c7ccc4[nH]7)C=C6)C=C5)cc3)CCCC[C@H]2C)n1
REMARK SMILES IDX 15 1 14 2 13 3 11 4 12 5 10 7 84 8 88 9 85 10 87 11 89 12
REMARK SMILES IDX 86 13 9 14 7 15 8 16 6 18 3 19 4 20 90 21 5 22 2 24 1 25
REMARK SMILES IDX 16 26 17 27 18 28 19 29 20 31 21 32 22 33 83 34 23 35 82 36
REMARK SMILES IDX 24 37 25 38 26 39 76 40 27 41 81 42 75 43 77 44 28 45 80 46
REMARK SMILES IDX 74 47 73 48 29 50 61 51 41 52 60 53 42 54 45 55 59 56 78 57
REMARK SMILES IDX 43 58 44 59 58 61 79 62 46 63 30 64 31 65 39 66 32 67 34 68
REMARK SMILES IDX 40 69 33 70 35 71 36 72 37 73 38 74 62 75 63 76 71 77 64 78
REMARK SMILES IDX 66 79 72 80 65 81 67 82 68 83 69 84 70 85 47 86 48 87 56 88
REMARK SMILES IDX 49 89 51 90 57 91 50 92 52 93 53 94 54 95 55 96
REMARK H PARENT 13 6 9 17 5 23 18 30 77 49 45 60
REMARK Flexibility Score: inf
ROOT
ATOM      1  C   UNL A   1      35.062  21.822  23.829  1.00  0.00     0.023 C 
ENDROOT
BRANCH   1   2
ATOM      2  C   UNL A   1      33.687  22.443  23.602  1.00  0.00     0.116 C 
BRANCH   2   3
ATOM      3  N   UNL A   1      33.513  23.085  22.308  1.00  0.00    -0.354 N 
ATOM      4  C   UNL A   1      33.099  24.360  22.000  1.00  0.00     0.246 C 
ATOM      5  O   UNL A   1      33.134  24.706  20.813  1.00  0.00    -0.272 OA
ATOM      6  H   UNL A   1      33.724  22.518  21.531  1.00  0.00     0.163 HD
BRANCH   4   7
ATOM      7  C   UNL A   1      32.529  25.345  23.105  1.00  0.00     0.122 C 
ATOM      8  C   UNL A   1      33.735  26.080  23.728  1.00  0.00     0.039 C 
ATOM      9  C   UNL A   1      31.681  24.434  24.039  1.00  0.00     0.021 C 
ATOM     10  C   UNL A   1      33.911  25.997  25.248  1.00  0.00     0.003 C 
ATOM     11  C   UNL A   1      31.491  25.021  25.423  1.00  0.00     0.006 C 
ATOM     12  C   UNL A   1      30.353  23.967  23.419  1.00  0.00     0.011 C 
ATOM     13  C   UNL A   1      32.843  25.279  26.080  1.00  0.00     0.000 C 
BRANCH   7  14
ATOM     14  N   UNL A   1      31.656  26.319  22.364  1.00  0.00    -0.335 N 
ATOM     15  C   UNL A   1      31.162  27.588  22.583  1.00  0.00     0.289 C 
ATOM     16  O   UNL A   1      30.420  28.050  21.711  1.00  0.00    -0.266 OA
ATOM     17  H   UNL A   1      31.360  25.957  21.498  1.00  0.00     0.165 HD
BRANCH  15  18
ATOM     18  C   UNL A   1      31.533  28.409  23.721  1.00  0.00     0.214 A 
ATOM     19  C   UNL A   1      31.895  29.221  25.660  1.00  0.00     0.151 A 
ATOM     20  N   UNL A   1      32.783  29.872  24.900  1.00  0.00    -0.158 NA
ATOM     21  N   UNL A   1      31.090  28.361  24.957  1.00  0.00    -0.207 NA
ATOM     22  N   UNL A   1      32.506  29.370  23.676  1.00  0.00    -0.255 N 
ATOM     23  H   UNL A   1      32.953  29.661  22.848  1.00  0.00     0.192 HD
BRANCH  19  24
ATOM     24  C   UNL A   1      31.896  29.198  27.150  1.00  0.00     0.076 C 
ATOM     25  C   UNL A   1      33.150  28.693  27.830  1.00  0.00     0.012 C 
ENDBRANCH  19  24
ENDBRANCH  15  18
ENDBRANCH   7  14
ENDBRANCH   4   7
ENDBRANCH   2   3
ENDBRANCH   1   2
BRANCH   1  26
ATOM     26  C   UNL A   1      36.073  22.739  24.500  1.00  0.00     0.023 C 
BRANCH  26  27
ATOM     27  C   UNL A   1      36.595  22.257  25.847  1.00  0.00     0.116 C 
BRANCH  27  28
ATOM     28  N   UNL A   1      37.673  21.281  25.757  1.00  0.00    -0.352 N 
ATOM     29  C   UNL A   1      39.002  21.448  26.092  1.00  0.00     0.251 C 
ATOM     30  H   UNL A   1      37.422  20.392  25.415  1.00  0.00     0.163 HD
ATOM     31  O   UNL A   1      39.814  20.563  25.885  1.00  0.00    -0.269 OA
BRANCH  29  32
ATOM     32  C   UNL A   1      39.427  22.745  26.666  1.00  0.00     0.039 A 
ATOM     33  C   UNL A   1      40.444  22.762  27.621  1.00  0.00     0.014 A 
ATOM     34  C   UNL A   1      38.882  23.939  26.188  1.00  0.00     0.014 A 
ATOM     35  C   UNL A   1      40.978  23.985  28.033  1.00  0.00     0.010 A 
ATOM     36  C   UNL A   1      39.474  25.148  26.533  1.00  0.00     0.010 A 
ATOM     37  C   UNL A   1      40.529  25.185  27.457  1.00  0.00    -0.014 A 
BRANCH  37  38
ATOM     38  C   UNL A   1      41.165  26.488  27.787  1.00  0.00     0.031 A 
ATOM     39  C   UNL A   1      42.591  26.755  27.388  1.00  0.00     0.074 A 
ATOM     40  C   UNL A   1      40.493  27.388  28.533  1.00  0.00     0.049 A 
ATOM     41  N   UNL A   1      43.333  27.802  27.638  1.00  0.00    -0.248 NA
ATOM     42  C   UNL A   1      43.284  25.695  26.638  1.00  0.00     0.031 C 
ATOM     43  C   UNL A   1      39.140  27.210  29.062  1.00  0.00     0.029 A 
ATOM     44  N   UNL A   1      40.869  28.624  28.999  1.00  0.00    -0.354 N 
ATOM     45  C   UNL A   1      44.587  27.513  27.111  1.00  0.00     0.074 A 
ATOM     46  C   UNL A   1      44.517  26.177  26.563  1.00  0.00     0.031 C 
ATOM     47  C   UNL A   1      38.795  28.296  29.771  1.00  0.00     0.029 A 
ATOM     48  C   UNL A   1      39.911  29.238  29.774  1.00  0.00     0.049 A 
ATOM     49  H   UNL A   1      41.741  29.033  28.798  1.00  0.00     0.167 HD
ATOM     50  C   UNL A   1      45.687  28.299  27.057  1.00  0.00     0.034 A 
ATOM     51  C   UNL A   1      39.931  30.422  30.416  1.00  0.00     0.034 A 
ATOM     52  C   UNL A   1      45.739  29.646  27.559  1.00  0.00     0.049 A 
ATOM     53  C   UNL A   1      41.148  31.299  30.296  1.00  0.00     0.074 A 
ATOM     54  C   UNL A   1      46.773  30.560  27.464  1.00  0.00     0.029 A 
ATOM     55  N   UNL A   1      44.715  30.271  28.255  1.00  0.00    -0.354 N 
ATOM     56  N   UNL A   1      42.264  31.076  29.645  1.00  0.00    -0.248 NA
ATOM     57  C   UNL A   1      41.096  32.606  30.968  1.00  0.00     0.031 C 
ATOM     58  C   UNL A   1      46.383  31.730  28.122  1.00  0.00     0.029 A 
ATOM     59  C   UNL A   1      45.096  31.555  28.604  1.00  0.00     0.049 A 
ATOM     60  H   UNL A   1      43.846  29.862  28.468  1.00  0.00     0.167 HD
ATOM     61  C   UNL A   1      43.030  32.226  29.798  1.00  0.00     0.074 A 
ATOM     62  C   UNL A   1      42.242  33.152  30.584  1.00  0.00     0.031 C 
ATOM     63  C   UNL A   1      44.281  32.485  29.341  1.00  0.00     0.034 A 
BRANCH  50  64
ATOM     64  C   UNL A   1      46.910  27.744  26.376  1.00  0.00     0.023 A 
ATOM     65  C   UNL A   1      47.818  26.956  27.114  1.00  0.00     0.012 A 
ATOM     66  C   UNL A   1      47.136  27.953  25.002  1.00  0.00     0.148 A 
ATOM     67  C   UNL A   1      48.948  26.414  26.505  1.00  0.00     0.002 A 
ATOM     68  C   UNL A   1      48.241  27.372  24.391  1.00  0.00     0.091 A 
ATOM     69  F   UNL A   1      46.276  28.724  24.322  1.00  0.00    -0.205 F 
ATOM     70  C   UNL A   1      49.154  26.613  25.143  1.00  0.00     0.022 A 
BRANCH  68  71
ATOM     71  S   UNL A   1      48.553  27.502  22.626  1.00  0.00     0.127 S 
ATOM     72  O   UNL A   1      47.353  28.200  22.167  1.00  0.00    -0.237 OA
ATOM     73  O   UNL A   1      49.776  28.303  22.588  1.00  0.00    -0.237 OA
ATOM     74  O   UNL A   1      48.705  26.137  22.145  1.00  0.00    -0.744 OA
ENDBRANCH  68  71
ENDBRANCH  50  64
BRANCH  51  75
ATOM     75  C   UNL A   1      38.730  30.881  31.172  1.00  0.00     0.023 A 
ATOM     76  C   UNL A   1      38.709  30.759  32.576  1.00  0.00     0.012 A 
ATOM     77  C   UNL A   1      37.626  31.458  30.518  1.00  0.00     0.148 A 
ATOM     78  C   UNL A   1      37.598  31.173  33.310  1.00  0.00     0.002 A 
ATOM     79  C   UNL A   1      36.545  31.920  31.260  1.00  0.00     0.091 A 
ATOM     80  F   UNL A   1      37.659  31.555  29.180  1.00  0.00    -0.205 F 
ATOM     81  C   UNL A   1      36.521  31.762  32.654  1.00  0.00     0.022 A 
BRANCH  79  82
ATOM     82  S   UNL A   1      35.175  32.812  30.513  1.00  0.00     0.127 S 
ATOM     83  O   UNL A   1      35.833  34.026  30.038  1.00  0.00    -0.237 OA
ATOM     84  O   UNL A   1      34.752  31.887  29.460  1.00  0.00    -0.237 OA
ATOM     85  O   UNL A   1      34.199  32.993  31.579  1.00  0.00    -0.744 OA
ENDBRANCH  79  82
ENDBRANCH  51  75
BRANCH  63  86
ATOM     86  C   UNL A   1      44.870  33.837  29.648  1.00  0.00     0.023 A 
ATOM     87  C   UNL A   1      45.613  34.026  30.830  1.00  0.00     0.012 A 
ATOM     88  C   UNL A   1      44.752  34.898  28.728  1.00  0.00     0.148 A 
ATOM     89  C   UNL A   1      46.202  35.260  31.107  1.00  0.00     0.002 A 
ATOM     90  C   UNL A   1      45.384  36.108  28.987  1.00  0.00     0.091 A 
ATOM     91  F   UNL A   1      44.026  34.704  27.617  1.00  0.00    -0.205 F 
ATOM     92  C   UNL A   1      46.097  36.296  30.182  1.00  0.00     0.022 A 
BRANCH  90  93
ATOM     93  S   UNL A   1      45.385  37.464  27.809  1.00  0.00     0.127 S 
ATOM     94  O   UNL A   1      46.115  38.496  28.543  1.00  0.00    -0.237 OA
ATOM     95  O   UNL A   1      46.112  36.891  26.675  1.00  0.00    -0.237 OA
ATOM     96  O   UNL A   1      43.985  37.760  27.539  1.00  0.00    -0.744 OA
ENDBRANCH  90  93
ENDBRANCH  63  86
ENDBRANCH  37  38
ENDBRANCH  29  32
ENDBRANCH  27  28
ENDBRANCH  26  27
ENDBRANCH   1  26
TORSDOF 17
ENDMDL
