MODEL 1
REMARK VINA RESULT:     -12.8      0.000      0.000
REMARK SMILES Cc1ccnc(-n2c(C)nc3c(C(=O)NCCCCNC(=O)c4ccc(-c5c6nc(c(-c7cccc(S(=O)(=O)[O-])c7F)c7ccc([nH]7)c(-c7cccc(S(=O)(=O)[O-])c7F)c7nc(c(-c8cccc(S(=O)(=O)[O-])c8F)c8ccc5[nH]8)C=C7)C=C6)cc4)cccc32)c1
REMARK SMILES IDX 18 1 17 2 16 3 15 4 13 5 14 6 12 8 7 9 8 10 89 11 9 12 10 13
REMARK SMILES IDX 11 14 88 15 87 16 86 17 6 18 1 19 2 20 3 21 90 22 4 23 5 24
REMARK SMILES IDX 19 25 20 26 21 27 22 29 23 30 24 31 85 32 25 33 84 34 26 35
REMARK SMILES IDX 27 36 28 37 78 38 29 39 83 40 77 41 79 42 30 43 82 44 76 45
REMARK SMILES IDX 75 46 31 48 63 49 43 50 62 51 44 52 47 53 61 54 80 55 45 56
REMARK SMILES IDX 46 57 60 59 81 60 48 61 32 62 33 63 41 64 34 65 36 66 42 67
REMARK SMILES IDX 35 68 37 69 38 70 39 71 40 72 64 73 65 74 73 75 66 76 68 77
REMARK SMILES IDX 74 78 67 79 69 80 70 81 71 82 72 83 49 84 50 85 58 86 51 87
REMARK SMILES IDX 53 88 59 89 52 90 54 91 55 92 56 93 57 94
REMARK H PARENT 15 7 20 28 79 47 47 58
REMARK Flexibility Score: inf
ROOT
ATOM      1  C   UNL A   1      33.163  28.831  27.434  1.00  0.00     0.023 C 
ENDROOT
BRANCH   1   2
ATOM      2  C   UNL A   1      31.850  28.798  26.633  1.00  0.00     0.023 C 
BRANCH   2   3
ATOM      3  C   UNL A   1      32.036  29.066  25.136  1.00  0.00     0.116 C 
BRANCH   3   4
ATOM      4  N   UNL A   1      30.814  28.790  24.413  1.00  0.00    -0.352 N 
ATOM      5  C   UNL A   1      30.420  27.815  23.531  1.00  0.00     0.253 C 
ATOM      6  O   UNL A   1      29.256  27.905  23.143  1.00  0.00    -0.269 OA
ATOM      7  H   UNL A   1      30.106  29.449  24.595  1.00  0.00     0.163 HD
BRANCH   5   8
ATOM      8  C   UNL A   1      31.297  26.690  23.088  1.00  0.00     0.067 A 
ATOM      9  N   UNL A   1      32.244  23.606  24.596  1.00  0.00    -0.281 N 
ATOM     10  C   UNL A   1      31.291  24.061  25.485  1.00  0.00     0.112 A 
ATOM     11  C   UNL A   1      32.355  24.555  23.586  1.00  0.00     0.075 A 
ATOM     12  C   UNL A   1      30.831  23.339  26.699  1.00  0.00     0.088 C 
ATOM     13  N   UNL A   1      30.907  25.281  25.168  1.00  0.00    -0.232 NA
ATOM     14  C   UNL A   1      31.484  25.582  23.955  1.00  0.00     0.102 A 
ATOM     15  C   UNL A   1      33.056  24.553  22.370  1.00  0.00     0.029 A 
ATOM     16  C   UNL A   1      32.799  25.592  21.485  1.00  0.00     0.003 A 
ATOM     17  C   UNL A   1      31.907  26.611  21.821  1.00  0.00     0.016 A 
BRANCH   9  18
ATOM     18  C   UNL A   1      32.926  22.365  24.625  1.00  0.00     0.138 A 
ATOM     19  C   UNL A   1      32.363  18.822  23.424  1.00  0.00     0.044 C 
ATOM     20  C   UNL A   1      32.946  20.023  24.104  1.00  0.00    -0.046 A 
ATOM     21  C   UNL A   1      34.124  19.921  24.845  1.00  0.00     0.023 A 
ATOM     22  C   UNL A   1      32.323  21.267  24.016  1.00  0.00     0.051 A 
ATOM     23  C   UNL A   1      34.659  21.071  25.409  1.00  0.00     0.114 A 
ATOM     24  N   UNL A   1      34.107  22.295  25.286  1.00  0.00    -0.239 NA
ENDBRANCH   9  18
ENDBRANCH   5   8
ENDBRANCH   3   4
ENDBRANCH   2   3
ENDBRANCH   1   2
BRANCH   1  25
ATOM     25  C   UNL A   1      34.112  29.960  27.020  1.00  0.00     0.116 C 
BRANCH  25  26
ATOM     26  N   UNL A   1      34.084  31.087  27.933  1.00  0.00    -0.352 N 
ATOM     27  C   UNL A   1      34.973  31.644  28.808  1.00  0.00     0.251 C 
ATOM     28  H   UNL A   1      33.222  31.562  27.917  1.00  0.00     0.163 HD
ATOM     29  O   UNL A   1      34.610  32.694  29.345  1.00  0.00    -0.269 OA
BRANCH  27  30
ATOM     30  C   UNL A   1      36.272  31.040  29.197  1.00  0.00     0.039 A 
ATOM     31  C   UNL A   1      37.505  31.686  29.124  1.00  0.00     0.014 A 
ATOM     32  C   UNL A   1      36.239  29.682  29.569  1.00  0.00     0.014 A 
ATOM     33  C   UNL A   1      38.679  30.972  29.279  1.00  0.00     0.010 A 
ATOM     34  C   UNL A   1      37.413  28.964  29.749  1.00  0.00     0.010 A 
ATOM     35  C   UNL A   1      38.627  29.602  29.532  1.00  0.00    -0.014 A 
BRANCH  35  36
ATOM     36  C   UNL A   1      39.900  28.905  29.571  1.00  0.00     0.031 A 
ATOM     37  C   UNL A   1      40.500  28.769  30.927  1.00  0.00     0.074 A 
ATOM     38  C   UNL A   1      40.482  28.411  28.463  1.00  0.00     0.049 A 
ATOM     39  N   UNL A   1      41.599  29.291  31.371  1.00  0.00    -0.248 NA
ATOM     40  C   UNL A   1      39.702  28.081  31.951  1.00  0.00     0.031 C 
ATOM     41  C   UNL A   1      39.919  28.264  27.119  1.00  0.00     0.029 A 
ATOM     42  N   UNL A   1      41.695  27.813  28.355  1.00  0.00    -0.354 N 
ATOM     43  C   UNL A   1      41.730  28.833  32.681  1.00  0.00     0.074 A 
ATOM     44  C   UNL A   1      40.477  28.215  33.028  1.00  0.00     0.031 C 
ATOM     45  C   UNL A   1      40.675  27.389  26.419  1.00  0.00     0.029 A 
ATOM     46  C   UNL A   1      41.840  27.039  27.211  1.00  0.00     0.049 A 
ATOM     47  H   UNL A   1      42.408  27.917  29.026  1.00  0.00     0.167 HD
ATOM     48  C   UNL A   1      42.924  28.816  33.335  1.00  0.00     0.034 A 
ATOM     49  C   UNL A   1      42.810  26.118  26.996  1.00  0.00     0.034 A 
ATOM     50  C   UNL A   1      43.903  29.660  32.715  1.00  0.00     0.049 A 
ATOM     51  C   UNL A   1      43.932  26.459  27.907  1.00  0.00     0.074 A 
ATOM     52  C   UNL A   1      44.009  31.015  32.475  1.00  0.00     0.029 A 
ATOM     53  N   UNL A   1      44.829  29.060  31.898  1.00  0.00    -0.354 N 
ATOM     54  N   UNL A   1      44.642  27.548  27.796  1.00  0.00    -0.248 NA
ATOM     55  C   UNL A   1      43.987  25.801  29.203  1.00  0.00     0.031 C 
ATOM     56  C   UNL A   1      44.618  31.110  31.192  1.00  0.00     0.029 A 
ATOM     57  C   UNL A   1      44.885  29.811  30.753  1.00  0.00     0.049 A 
ATOM     58  H   UNL A   1      45.351  28.249  32.095  1.00  0.00     0.167 HD
ATOM     59  C   UNL A   1      44.884  27.942  29.105  1.00  0.00     0.074 A 
ATOM     60  C   UNL A   1      44.543  26.780  29.923  1.00  0.00     0.031 C 
ATOM     61  C   UNL A   1      45.064  29.256  29.431  1.00  0.00     0.034 A 
BRANCH  48  62
ATOM     62  C   UNL A   1      43.301  27.789  34.368  1.00  0.00     0.023 A 
ATOM     63  C   UNL A   1      43.643  28.230  35.663  1.00  0.00     0.012 A 
ATOM     64  C   UNL A   1      43.588  26.444  34.044  1.00  0.00     0.148 A 
ATOM     65  C   UNL A   1      44.256  27.374  36.585  1.00  0.00     0.002 A 
ATOM     66  C   UNL A   1      44.130  25.579  34.985  1.00  0.00     0.091 A 
ATOM     67  F   UNL A   1      43.462  26.026  32.779  1.00  0.00    -0.205 F 
ATOM     68  C   UNL A   1      44.488  26.044  36.252  1.00  0.00     0.022 A 
BRANCH  66  69
ATOM     69  S   UNL A   1      44.418  23.848  34.604  1.00  0.00     0.127 S 
ATOM     70  O   UNL A   1      45.383  23.944  33.515  1.00  0.00    -0.237 OA
ATOM     71  O   UNL A   1      44.952  23.345  35.868  1.00  0.00    -0.237 OA
ATOM     72  O   UNL A   1      43.105  23.310  34.258  1.00  0.00    -0.744 OA
ENDBRANCH  66  69
ENDBRANCH  48  62
BRANCH  49  73
ATOM     73  C   UNL A   1      42.737  24.825  26.274  1.00  0.00     0.023 A 
ATOM     74  C   UNL A   1      43.770  24.476  25.380  1.00  0.00     0.012 A 
ATOM     75  C   UNL A   1      41.820  23.817  26.652  1.00  0.00     0.148 A 
ATOM     76  C   UNL A   1      43.908  23.164  24.911  1.00  0.00     0.002 A 
ATOM     77  C   UNL A   1      41.953  22.517  26.170  1.00  0.00     0.091 A 
ATOM     78  F   UNL A   1      40.875  24.104  27.556  1.00  0.00    -0.205 F 
ATOM     79  C   UNL A   1      43.006  22.183  25.312  1.00  0.00     0.022 A 
BRANCH  77  80
ATOM     80  S   UNL A   1      40.828  21.197  26.650  1.00  0.00     0.127 S 
ATOM     81  O   UNL A   1      39.578  21.617  26.016  1.00  0.00    -0.237 OA
ATOM     82  O   UNL A   1      41.458  20.027  26.046  1.00  0.00    -0.237 OA
ATOM     83  O   UNL A   1      40.793  21.216  28.108  1.00  0.00    -0.744 OA
ENDBRANCH  77  80
ENDBRANCH  49  73
BRANCH  61  84
ATOM     84  C   UNL A   1      45.162  30.261  28.311  1.00  0.00     0.023 A 
ATOM     85  C   UNL A   1      44.006  30.817  27.720  1.00  0.00     0.012 A 
ATOM     86  C   UNL A   1      46.414  30.824  28.020  1.00  0.00     0.148 A 
ATOM     87  C   UNL A   1      44.099  31.911  26.856  1.00  0.00     0.002 A 
ATOM     88  C   UNL A   1      46.499  31.936  27.191  1.00  0.00     0.091 A 
ATOM     89  F   UNL A   1      47.496  30.294  28.610  1.00  0.00    -0.205 F 
ATOM     90  C   UNL A   1      45.344  32.480  26.604  1.00  0.00     0.022 A 
BRANCH  88  91
ATOM     91  S   UNL A   1      48.048  32.798  26.916  1.00  0.00     0.127 S 
ATOM     92  O   UNL A   1      47.676  33.778  25.897  1.00  0.00    -0.237 OA
ATOM     93  O   UNL A   1      48.325  33.366  28.237  1.00  0.00    -0.237 OA
ATOM     94  O   UNL A   1      49.005  31.788  26.485  1.00  0.00    -0.744 OA
ENDBRANCH  88  91
ENDBRANCH  61  84
ENDBRANCH  35  36
ENDBRANCH  27  30
ENDBRANCH  25  26
ENDBRANCH   1  25
TORSDOF 15
ENDMDL
MODEL 2
REMARK VINA RESULT:     -12.3      3.183      8.745
REMARK SMILES Cc1ccnc(-n2c(C)nc3c(C(=O)NCCCCNC(=O)c4ccc(-c5c6nc(c(-c7cccc(S(=O)(=O)[O-])c7F)c7ccc([nH]7)c(-c7cccc(S(=O)(=O)[O-])c7F)c7nc(c(-c8cccc(S(=O)(=O)[O-])c8F)c8ccc5[nH]8)C=C7)C=C6)cc4)cccc32)c1
REMARK SMILES IDX 18 1 17 2 16 3 15 4 13 5 14 6 12 8 7 9 8 10 89 11 9 12 10 13
REMARK SMILES IDX 11 14 88 15 87 16 86 17 6 18 1 19 2 20 3 21 90 22 4 23 5 24
REMARK SMILES IDX 19 25 20 26 21 27 22 29 23 30 24 31 85 32 25 33 84 34 26 35
REMARK SMILES IDX 27 36 28 37 78 38 29 39 83 40 77 41 79 42 30 43 82 44 76 45
REMARK SMILES IDX 75 46 31 48 63 49 43 50 62 51 44 52 47 53 61 54 80 55 45 56
REMARK SMILES IDX 46 57 60 59 81 60 48 61 32 62 33 63 41 64 34 65 36 66 42 67
REMARK SMILES IDX 35 68 37 69 38 70 39 71 40 72 64 73 65 74 73 75 66 76 68 77
REMARK SMILES IDX 74 78 67 79 69 80 70 81 71 82 72 83 49 84 50 85 58 86 51 87
REMARK SMILES IDX 53 88 59 89 52 90 54 91 55 92 56 93 57 94
REMARK H PARENT 15 7 20 28 79 47 47 58
REMARK Flexibility Score: inf
ROOT
ATOM      1  C   UNL A   1      37.417  21.471  24.668  1.00  0.00     0.023 C 
ENDROOT
BRANCH   1   2
ATOM      2  C   UNL A   1      36.297  20.470  25.002  1.00  0.00     0.023 C 
BRANCH   2   3
ATOM      3  C   UNL A   1      34.944  21.132  25.280  1.00  0.00     0.116 C 
BRANCH   3   4
ATOM      4  N   UNL A   1      33.937  20.635  24.367  1.00  0.00    -0.352 N 
ATOM      5  C   UNL A   1      32.665  21.029  24.036  1.00  0.00     0.253 C 
ATOM      6  O   UNL A   1      32.119  20.349  23.168  1.00  0.00    -0.269 OA
ATOM      7  H   UNL A   1      34.229  19.835  23.874  1.00  0.00     0.163 HD
BRANCH   5   8
ATOM      8  C   UNL A   1      31.979  22.214  24.631  1.00  0.00     0.067 A 
ATOM      9  N   UNL A   1      31.606  25.594  23.570  1.00  0.00    -0.281 N 
ATOM     10  C   UNL A   1      32.202  25.027  22.462  1.00  0.00     0.112 A 
ATOM     11  C   UNL A   1      31.456  24.589  24.520  1.00  0.00     0.075 A 
ATOM     12  C   UNL A   1      32.516  25.736  21.195  1.00  0.00     0.088 C 
ATOM     13  N   UNL A   1      32.551  23.781  22.712  1.00  0.00    -0.232 NA
ATOM     14  C   UNL A   1      32.032  23.455  23.944  1.00  0.00     0.102 A 
ATOM     15  C   UNL A   1      30.798  24.561  25.760  1.00  0.00     0.029 A 
ATOM     16  C   UNL A   1      30.668  23.327  26.384  1.00  0.00     0.003 A 
ATOM     17  C   UNL A   1      31.207  22.177  25.809  1.00  0.00     0.016 A 
BRANCH   9  18
ATOM     18  C   UNL A   1      31.133  26.921  23.709  1.00  0.00     0.138 A 
ATOM     19  C   UNL A   1      28.041  28.910  22.815  1.00  0.00     0.044 C 
ATOM     20  C   UNL A   1      29.417  28.544  23.280  1.00  0.00    -0.046 A 
ATOM     21  C   UNL A   1      30.284  29.516  23.780  1.00  0.00     0.023 A 
ATOM     22  C   UNL A   1      29.863  27.224  23.221  1.00  0.00     0.051 A 
ATOM     23  C   UNL A   1      31.527  29.122  24.254  1.00  0.00     0.114 A 
ATOM     24  N   UNL A   1      31.957  27.843  24.263  1.00  0.00    -0.239 NA
ENDBRANCH   9  18
ENDBRANCH   5   8
ENDBRANCH   3   4
ENDBRANCH   2   3
ENDBRANCH   1   2
BRANCH   1  25
ATOM     25  C   UNL A   1      38.174  21.985  25.896  1.00  0.00     0.116 C 
BRANCH  25  26
ATOM     26  N   UNL A   1      39.614  21.918  25.743  1.00  0.00    -0.352 N 
ATOM     27  C   UNL A   1      40.674  22.601  26.268  1.00  0.00     0.251 C 
ATOM     28  H   UNL A   1      39.893  21.215  25.113  1.00  0.00     0.163 HD
ATOM     29  O   UNL A   1      41.791  22.169  25.969  1.00  0.00    -0.269 OA
BRANCH  27  30
ATOM     30  C   UNL A   1      40.568  23.835  27.086  1.00  0.00     0.039 A 
ATOM     31  C   UNL A   1      39.580  24.807  26.940  1.00  0.00     0.014 A 
ATOM     32  C   UNL A   1      41.613  24.064  28.002  1.00  0.00     0.014 A 
ATOM     33  C   UNL A   1      39.698  26.027  27.578  1.00  0.00     0.010 A 
ATOM     34  C   UNL A   1      41.726  25.279  28.665  1.00  0.00     0.010 A 
ATOM     35  C   UNL A   1      40.802  26.278  28.390  1.00  0.00    -0.014 A 
BRANCH  35  36
ATOM     36  C   UNL A   1      40.910  27.620  28.936  1.00  0.00     0.031 A 
ATOM     37  C   UNL A   1      42.044  28.425  28.404  1.00  0.00     0.074 A 
ATOM     38  C   UNL A   1      40.040  28.097  29.845  1.00  0.00     0.049 A 
ATOM     39  N   UNL A   1      43.080  28.866  29.043  1.00  0.00    -0.248 NA
ATOM     40  C   UNL A   1      42.094  28.642  26.951  1.00  0.00     0.031 C 
ATOM     41  C   UNL A   1      38.766  27.523  30.284  1.00  0.00     0.029 A 
ATOM     42  N   UNL A   1      40.075  29.293  30.484  1.00  0.00    -0.354 N 
ATOM     43  C   UNL A   1      43.820  29.588  28.107  1.00  0.00     0.074 A 
ATOM     44  C   UNL A   1      43.246  29.300  26.819  1.00  0.00     0.031 C 
ATOM     45  C   UNL A   1      38.039  28.484  30.898  1.00  0.00     0.029 A 
ATOM     46  C   UNL A   1      38.854  29.679  31.020  1.00  0.00     0.049 A 
ATOM     47  H   UNL A   1      40.891  29.838  30.561  1.00  0.00     0.167 HD
ATOM     48  C   UNL A   1      44.735  30.529  28.467  1.00  0.00     0.034 A 
ATOM     49  C   UNL A   1      38.534  30.926  31.443  1.00  0.00     0.034 A 
ATOM     50  C   UNL A   1      45.138  30.412  29.838  1.00  0.00     0.049 A 
ATOM     51  C   UNL A   1      39.814  31.622  31.727  1.00  0.00     0.074 A 
ATOM     52  C   UNL A   1      45.781  29.445  30.584  1.00  0.00     0.029 A 
ATOM     53  N   UNL A   1      44.548  31.258  30.745  1.00  0.00    -0.354 N 
ATOM     54  N   UNL A   1      40.626  31.271  32.687  1.00  0.00    -0.248 NA
ATOM     55  C   UNL A   1      40.400  32.435  30.674  1.00  0.00     0.031 C 
ATOM     56  C   UNL A   1      45.131  29.474  31.851  1.00  0.00     0.029 A 
ATOM     57  C   UNL A   1      44.167  30.484  31.809  1.00  0.00     0.049 A 
ATOM     58  H   UNL A   1      44.422  32.229  30.649  1.00  0.00     0.167 HD
ATOM     59  C   UNL A   1      41.896  31.449  32.153  1.00  0.00     0.074 A 
ATOM     60  C   UNL A   1      41.695  32.258  30.952  1.00  0.00     0.031 C 
ATOM     61  C   UNL A   1      42.954  30.693  32.567  1.00  0.00     0.034 A 
BRANCH  48  62
ATOM     62  C   UNL A   1      45.039  31.758  27.653  1.00  0.00     0.023 A 
ATOM     63  C   UNL A   1      46.322  31.888  27.083  1.00  0.00     0.012 A 
ATOM     64  C   UNL A   1      44.209  32.901  27.651  1.00  0.00     0.148 A 
ATOM     65  C   UNL A   1      46.762  33.105  26.549  1.00  0.00     0.002 A 
ATOM     66  C   UNL A   1      44.622  34.087  27.057  1.00  0.00     0.091 A 
ATOM     67  F   UNL A   1      43.065  32.891  28.344  1.00  0.00    -0.205 F 
ATOM     68  C   UNL A   1      45.908  34.202  26.523  1.00  0.00     0.022 A 
BRANCH  66  69
ATOM     69  S   UNL A   1      43.540  35.516  26.977  1.00  0.00     0.127 S 
ATOM     70  O   UNL A   1      42.755  35.224  25.783  1.00  0.00    -0.237 OA
ATOM     71  O   UNL A   1      42.812  35.417  28.240  1.00  0.00    -0.237 OA
ATOM     72  O   UNL A   1      44.434  36.669  26.896  1.00  0.00    -0.744 OA
ENDBRANCH  66  69
ENDBRANCH  48  62
BRANCH  49  73
ATOM     73  C   UNL A   1      37.240  31.645  31.363  1.00  0.00     0.023 A 
ATOM     74  C   UNL A   1      36.819  32.431  32.456  1.00  0.00     0.012 A 
ATOM     75  C   UNL A   1      36.549  31.791  30.138  1.00  0.00     0.148 A 
ATOM     76  C   UNL A   1      35.777  33.356  32.323  1.00  0.00     0.002 A 
ATOM     77  C   UNL A   1      35.503  32.702  30.015  1.00  0.00     0.091 A 
ATOM     78  F   UNL A   1      36.975  31.111  29.066  1.00  0.00    -0.205 F 
ATOM     79  C   UNL A   1      35.124  33.498  31.102  1.00  0.00     0.022 A 
BRANCH  77  80
ATOM     80  S   UNL A   1      34.618  32.943  28.467  1.00  0.00     0.127 S 
ATOM     81  O   UNL A   1      33.597  33.920  28.848  1.00  0.00    -0.237 OA
ATOM     82  O   UNL A   1      35.667  33.462  27.596  1.00  0.00    -0.237 OA
ATOM     83  O   UNL A   1      34.085  31.634  28.107  1.00  0.00    -0.744 OA
ENDBRANCH  77  80
ENDBRANCH  49  73
BRANCH  61  84
ATOM     84  C   UNL A   1      42.753  29.769  33.742  1.00  0.00     0.023 A 
ATOM     85  C   UNL A   1      42.085  28.532  33.598  1.00  0.00     0.012 A 
ATOM     86  C   UNL A   1      43.447  30.034  34.933  1.00  0.00     0.148 A 
ATOM     87  C   UNL A   1      42.109  27.583  34.623  1.00  0.00     0.002 A 
ATOM     88  C   UNL A   1      43.500  29.071  35.934  1.00  0.00     0.091 A 
ATOM     89  F   UNL A   1      44.093  31.204  35.039  1.00  0.00    -0.205 F 
ATOM     90  C   UNL A   1      42.829  27.846  35.784  1.00  0.00     0.022 A 
BRANCH  88  91
ATOM     91  S   UNL A   1      44.505  29.286  37.404  1.00  0.00     0.127 S 
ATOM     92  O   UNL A   1      45.823  29.568  36.837  1.00  0.00    -0.237 OA
ATOM     93  O   UNL A   1      43.862  30.431  38.053  1.00  0.00    -0.237 OA
ATOM     94  O   UNL A   1      44.406  28.039  38.152  1.00  0.00    -0.744 OA
ENDBRANCH  88  91
ENDBRANCH  61  84
ENDBRANCH  35  36
ENDBRANCH  27  30
ENDBRANCH  25  26
ENDBRANCH   1  25
TORSDOF 15
ENDMDL
MODEL 3
REMARK VINA RESULT:     -12.2      2.968      8.742
REMARK SMILES Cc1ccnc(-n2c(C)nc3c(C(=O)NCCCCNC(=O)c4ccc(-c5c6nc(c(-c7cccc(S(=O)(=O)[O-])c7F)c7ccc([nH]7)c(-c7cccc(S(=O)(=O)[O-])c7F)c7nc(c(-c8cccc(S(=O)(=O)[O-])c8F)c8ccc5[nH]8)C=C7)C=C6)cc4)cccc32)c1
REMARK SMILES IDX 18 1 17 2 16 3 15 4 13 5 14 6 12 8 7 9 8 10 89 11 9 12 10 13
REMARK SMILES IDX 11 14 88 15 87 16 86 17 6 18 1 19 2 20 3 21 90 22 4 23 5 24
REMARK SMILES IDX 19 25 20 26 21 27 22 29 23 30 24 31 85 32 25 33 84 34 26 35
REMARK SMILES IDX 27 36 28 37 78 38 29 39 83 40 77 41 79 42 30 43 82 44 76 45
REMARK SMILES IDX 75 46 31 48 63 49 43 50 62 51 44 52 47 53 61 54 80 55 45 56
REMARK SMILES IDX 46 57 60 59 81 60 48 61 32 62 33 63 41 64 34 65 36 66 42 67
REMARK SMILES IDX 35 68 37 69 38 70 39 71 40 72 64 73 65 74 73 75 66 76 68 77
REMARK SMILES IDX 74 78 67 79 69 80 70 81 71 82 72 83 49 84 50 85 58 86 51 87
REMARK SMILES IDX 53 88 59 89 52 90 54 91 55 92 56 93 57 94
REMARK H PARENT 15 7 20 28 79 47 47 58
REMARK Flexibility Score: inf
ROOT
ATOM      1  C   UNL A   1      38.722  23.436  26.399  1.00  0.00     0.023 C 
ENDROOT
BRANCH   1   2
ATOM      2  C   UNL A   1      37.487  22.991  25.596  1.00  0.00     0.023 C 
BRANCH   2   3
ATOM      3  C   UNL A   1      36.173  23.591  26.107  1.00  0.00     0.116 C 
BRANCH   3   4
ATOM      4  N   UNL A   1      35.328  22.560  26.670  1.00  0.00    -0.352 N 
ATOM      5  C   UNL A   1      34.074  22.084  26.380  1.00  0.00     0.253 C 
ATOM      6  O   UNL A   1      33.696  21.150  27.086  1.00  0.00    -0.269 OA
ATOM      7  H   UNL A   1      35.746  22.096  27.430  1.00  0.00     0.163 HD
BRANCH   5   8
ATOM      8  C   UNL A   1      33.220  22.607  25.272  1.00  0.00     0.067 A 
ATOM      9  N   UNL A   1      31.224  25.534  24.915  1.00  0.00    -0.281 N 
ATOM     10  C   UNL A   1      31.858  25.784  26.115  1.00  0.00     0.112 A 
ATOM     11  C   UNL A   1      31.668  24.298  24.461  1.00  0.00     0.075 A 
ATOM     12  C   UNL A   1      31.701  27.014  26.934  1.00  0.00     0.088 C 
ATOM     13  N   UNL A   1      32.555  24.733  26.497  1.00  0.00    -0.232 NA
ATOM     14  C   UNL A   1      32.526  23.830  25.459  1.00  0.00     0.102 A 
ATOM     15  C   UNL A   1      31.469  23.617  23.250  1.00  0.00     0.029 A 
ATOM     16  C   UNL A   1      32.221  22.470  23.033  1.00  0.00     0.003 A 
ATOM     17  C   UNL A   1      33.107  22.004  24.004  1.00  0.00     0.016 A 
BRANCH   9  18
ATOM     18  C   UNL A   1      30.355  26.398  24.205  1.00  0.00     0.138 A 
ATOM     19  C   UNL A   1      30.626  29.440  21.972  1.00  0.00     0.044 C 
ATOM     20  C   UNL A   1      30.070  28.339  22.822  1.00  0.00    -0.046 A 
ATOM     21  C   UNL A   1      28.694  28.196  22.995  1.00  0.00     0.023 A 
ATOM     22  C   UNL A   1      30.917  27.434  23.462  1.00  0.00     0.051 A 
ATOM     23  C   UNL A   1      28.222  27.127  23.743  1.00  0.00     0.114 A 
ATOM     24  N   UNL A   1      29.019  26.205  24.321  1.00  0.00    -0.239 NA
ENDBRANCH   9  18
ENDBRANCH   5   8
ENDBRANCH   3   4
ENDBRANCH   2   3
ENDBRANCH   1   2
BRANCH   1  25
ATOM     25  C   UNL A   1      39.683  22.293  26.739  1.00  0.00     0.116 C 
BRANCH  25  26
ATOM     26  N   UNL A   1      40.869  22.283  25.906  1.00  0.00    -0.352 N 
ATOM     27  C   UNL A   1      41.953  23.101  25.758  1.00  0.00     0.251 C 
ATOM     28  H   UNL A   1      40.901  21.504  25.306  1.00  0.00     0.163 HD
ATOM     29  O   UNL A   1      42.836  22.690  24.999  1.00  0.00    -0.269 OA
BRANCH  27  30
ATOM     30  C   UNL A   1      42.093  24.445  26.374  1.00  0.00     0.039 A 
ATOM     31  C   UNL A   1      42.756  24.708  27.571  1.00  0.00     0.014 A 
ATOM     32  C   UNL A   1      41.411  25.496  25.731  1.00  0.00     0.014 A 
ATOM     33  C   UNL A   1      42.631  25.942  28.183  1.00  0.00     0.010 A 
ATOM     34  C   UNL A   1      41.299  26.744  26.329  1.00  0.00     0.010 A 
ATOM     35  C   UNL A   1      41.853  26.933  27.588  1.00  0.00    -0.014 A 
BRANCH  35  36
ATOM     36  C   UNL A   1      41.680  28.159  28.347  1.00  0.00     0.031 A 
ATOM     37  C   UNL A   1      42.681  29.223  28.058  1.00  0.00     0.074 A 
ATOM     38  C   UNL A   1      40.681  28.319  29.234  1.00  0.00     0.049 A 
ATOM     39  N   UNL A   1      43.577  29.716  28.853  1.00  0.00    -0.248 NA
ATOM     40  C   UNL A   1      42.784  29.693  26.669  1.00  0.00     0.031 C 
ATOM     41  C   UNL A   1      39.507  27.472  29.456  1.00  0.00     0.029 A 
ATOM     42  N   UNL A   1      40.457  29.376  30.055  1.00  0.00    -0.354 N 
ATOM     43  C   UNL A   1      44.231  30.702  28.117  1.00  0.00     0.074 A 
ATOM     44  C   UNL A   1      43.803  30.548  26.751  1.00  0.00     0.031 C 
ATOM     45  C   UNL A   1      38.580  28.177  30.143  1.00  0.00     0.029 A 
ATOM     46  C   UNL A   1      39.154  29.453  30.529  1.00  0.00     0.049 A 
ATOM     47  H   UNL A   1      41.154  30.029  30.294  1.00  0.00     0.167 HD
ATOM     48  C   UNL A   1      44.935  31.708  28.705  1.00  0.00     0.034 A 
ATOM     49  C   UNL A   1      38.587  30.536  31.112  1.00  0.00     0.034 A 
ATOM     50  C   UNL A   1      45.263  31.425  30.072  1.00  0.00     0.049 A 
ATOM     51  C   UNL A   1      39.698  31.379  31.621  1.00  0.00     0.074 A 
ATOM     52  C   UNL A   1      46.022  30.467  30.713  1.00  0.00     0.029 A 
ATOM     53  N   UNL A   1      44.472  31.991  31.042  1.00  0.00    -0.354 N 
ATOM     54  N   UNL A   1      40.497  31.009  32.585  1.00  0.00    -0.248 NA
ATOM     55  C   UNL A   1      40.193  32.448  30.769  1.00  0.00     0.031 C 
ATOM     56  C   UNL A   1      45.297  30.167  31.902  1.00  0.00     0.029 A 
ATOM     57  C   UNL A   1      44.171  30.992  31.930  1.00  0.00     0.049 A 
ATOM     58  H   UNL A   1      44.179  32.929  31.089  1.00  0.00     0.167 HD
ATOM     59  C   UNL A   1      41.745  31.488  32.207  1.00  0.00     0.074 A 
ATOM     60  C   UNL A   1      41.478  32.446  31.136  1.00  0.00     0.031 C 
ATOM     61  C   UNL A   1      42.894  30.860  32.594  1.00  0.00     0.034 A 
BRANCH  48  62
ATOM     62  C   UNL A   1      45.063  33.091  28.128  1.00  0.00     0.023 A 
ATOM     63  C   UNL A   1      43.890  33.850  27.930  1.00  0.00     0.012 A 
ATOM     64  C   UNL A   1      46.251  33.567  27.530  1.00  0.00     0.148 A 
ATOM     65  C   UNL A   1      43.900  35.019  27.161  1.00  0.00     0.002 A 
ATOM     66  C   UNL A   1      46.272  34.765  26.827  1.00  0.00     0.091 A 
ATOM     67  F   UNL A   1      47.344  32.796  27.522  1.00  0.00    -0.205 F 
ATOM     68  C   UNL A   1      45.093  35.485  26.619  1.00  0.00     0.022 A 
BRANCH  66  69
ATOM     69  S   UNL A   1      47.796  35.416  26.137  1.00  0.00     0.127 S 
ATOM     70  O   UNL A   1      47.396  36.769  25.768  1.00  0.00    -0.237 OA
ATOM     71  O   UNL A   1      48.707  35.324  27.276  1.00  0.00    -0.237 OA
ATOM     72  O   UNL A   1      48.131  34.518  25.035  1.00  0.00    -0.744 OA
ENDBRANCH  66  69
ENDBRANCH  48  62
BRANCH  49  73
ATOM     73  C   UNL A   1      37.191  31.030  31.026  1.00  0.00     0.023 A 
ATOM     74  C   UNL A   1      36.515  31.393  32.208  1.00  0.00     0.012 A 
ATOM     75  C   UNL A   1      36.614  31.406  29.790  1.00  0.00     0.148 A 
ATOM     76  C   UNL A   1      35.329  32.137  32.163  1.00  0.00     0.002 A 
ATOM     77  C   UNL A   1      35.427  32.133  29.752  1.00  0.00     0.091 A 
ATOM     78  F   UNL A   1      37.274  31.137  28.656  1.00  0.00    -0.205 F 
ATOM     79  C   UNL A   1      34.790  32.514  30.937  1.00  0.00     0.022 A 
BRANCH  77  80
ATOM     80  S   UNL A   1      34.676  32.660  28.204  1.00  0.00     0.127 S 
ATOM     81  O   UNL A   1      35.769  33.396  27.569  1.00  0.00    -0.237 OA
ATOM     82  O   UNL A   1      34.351  31.384  27.575  1.00  0.00    -0.237 OA
ATOM     83  O   UNL A   1      33.537  33.490  28.578  1.00  0.00    -0.744 OA
ENDBRANCH  77  80
ENDBRANCH  49  73
BRANCH  61  84
ATOM     84  C   UNL A   1      42.789  29.727  33.584  1.00  0.00     0.023 A 
ATOM     85  C   UNL A   1      42.342  28.447  33.190  1.00  0.00     0.012 A 
ATOM     86  C   UNL A   1      43.368  29.886  34.853  1.00  0.00     0.148 A 
ATOM     87  C   UNL A   1      42.470  27.349  34.045  1.00  0.00     0.002 A 
ATOM     88  C   UNL A   1      43.529  28.785  35.685  1.00  0.00     0.091 A 
ATOM     89  F   UNL A   1      43.806  31.106  35.197  1.00  0.00    -0.205 F 
ATOM     90  C   UNL A   1      43.077  27.515  35.286  1.00  0.00     0.022 A 
BRANCH  88  91
ATOM     91  S   UNL A   1      44.409  28.895  37.244  1.00  0.00     0.127 S 
ATOM     92  O   UNL A   1      44.165  27.576  37.827  1.00  0.00    -0.237 OA
ATOM     93  O   UNL A   1      45.787  29.124  36.806  1.00  0.00    -0.237 OA
ATOM     94  O   UNL A   1      43.817  30.012  37.968  1.00  0.00    -0.744 OA
ENDBRANCH  88  91
ENDBRANCH  61  84
ENDBRANCH  35  36
ENDBRANCH  27  30
ENDBRANCH  25  26
ENDBRANCH   1  25
TORSDOF 15
ENDMDL
