MODEL 1
REMARK VINA RESULT:     -13.5      0.000      0.000
REMARK SMILES Cc1ccc(C)c(-c2cc(C(=O)NCCCCNC(=O)c3ccc(-c4c5nc(c(-c6cccc(S(=O)(=O)[O-])c6F)c6ccc([nH]6)c(-c6cccc(S(=O)(=O)[O-])c6F)c6nc(c(-c7cccc(S(=O)(=O)[O-])c7F)c7ccc4[nH]7)C=C6)C=C5)cc3)c3cc(C)ccc3n2)c1
REMARK SMILES IDX 16 1 15 2 14 3 13 4 11 5 12 6 10 8 8 9 9 10 91 11 90 12
REMARK SMILES IDX 84 13 89 14 85 15 88 16 86 17 87 18 7 19 1 20 2 21 3 22
REMARK SMILES IDX 92 23 4 24 5 25 6 26 17 27 18 28 19 29 20 31 21 32 22 33
REMARK SMILES IDX 83 34 23 35 82 36 24 37 25 38 26 39 76 40 27 41 81 42 75 43
REMARK SMILES IDX 77 44 28 45 80 46 74 47 73 48 29 50 61 51 41 52 60 53 42 54
REMARK SMILES IDX 45 55 59 56 78 57 43 58 44 59 58 61 79 62 46 63 30 64 31 65
REMARK SMILES IDX 39 66 32 67 34 68 40 69 33 70 35 71 36 72 37 73 38 74 62 75
REMARK SMILES IDX 63 76 71 77 64 78 66 79 72 80 65 81 67 82 68 83 69 84 70 85
REMARK SMILES IDX 47 86 48 87 56 88 49 89 51 90 57 91 50 92 52 93 53 94 54 95
REMARK SMILES IDX 55 96
REMARK H PARENT 13 7 18 30 77 49 45 60
REMARK Flexibility Score: inf
ROOT
ATOM      1  C   UNL A   1      38.699  19.712  25.005  1.00  0.00     0.023 C 
ENDROOT
BRANCH   1   2
ATOM      2  C   UNL A   1      37.765  20.922  24.909  1.00  0.00     0.023 C 
BRANCH   2   3
ATOM      3  C   UNL A   1      36.268  20.768  25.146  1.00  0.00     0.116 C 
BRANCH   3   4
ATOM      4  N   UNL A   1      35.685  21.242  26.384  1.00  0.00    -0.352 N 
ATOM      5  C   UNL A   1      34.494  21.916  26.632  1.00  0.00     0.252 C 
ATOM      6  O   UNL A   1      34.260  22.193  27.806  1.00  0.00    -0.269 OA
ATOM      7  H   UNL A   1      36.224  21.057  27.186  1.00  0.00     0.163 HD
BRANCH   5   8
ATOM      8  C   UNL A   1      33.560  22.447  25.576  1.00  0.00     0.051 A 
ATOM      9  C   UNL A   1      32.805  24.423  24.430  1.00  0.00     0.072 A 
ATOM     10  C   UNL A   1      33.450  23.846  25.514  1.00  0.00     0.043 A 
ATOM     11  N   UNL A   1      32.400  23.687  23.368  1.00  0.00    -0.248 NA
ATOM     12  C   UNL A   1      32.443  22.351  23.458  1.00  0.00     0.072 A 
ATOM     13  C   UNL A   1      32.877  21.677  24.610  1.00  0.00     0.013 A 
ATOM     14  C   UNL A   1      32.071  21.602  22.351  1.00  0.00     0.029 A 
ATOM     15  C   UNL A   1      32.635  20.292  24.698  1.00  0.00     0.014 A 
ATOM     16  C   UNL A   1      32.092  20.206  22.367  1.00  0.00     0.005 A 
ATOM     17  C   UNL A   1      32.353  19.536  23.558  1.00  0.00    -0.050 A 
ATOM     18  C   UNL A   1      32.525  18.046  23.593  1.00  0.00     0.044 C 
BRANCH   9  19
ATOM     19  C   UNL A   1      32.488  25.859  24.354  1.00  0.00     0.003 A 
ATOM     20  C   UNL A   1      34.043  29.043  22.887  1.00  0.00     0.044 C 
ATOM     21  C   UNL A   1      33.096  28.115  23.586  1.00  0.00    -0.050 A 
ATOM     22  C   UNL A   1      31.933  28.624  24.168  1.00  0.00     0.004 A 
ATOM     23  C   UNL A   1      33.362  26.739  23.680  1.00  0.00     0.014 A 
ATOM     24  C   UNL A   1      31.056  27.777  24.839  1.00  0.00     0.004 A 
ATOM     25  C   UNL A   1      31.322  26.400  24.948  1.00  0.00    -0.042 A 
ATOM     26  C   UNL A   1      30.329  25.569  25.722  1.00  0.00     0.045 C 
ENDBRANCH   9  19
ENDBRANCH   5   8
ENDBRANCH   3   4
ENDBRANCH   2   3
ENDBRANCH   1   2
BRANCH   1  27
ATOM     27  C   UNL A   1      39.613  19.578  26.222  1.00  0.00     0.116 C 
BRANCH  27  28
ATOM     28  N   UNL A   1      40.959  19.033  25.957  1.00  0.00    -0.352 N 
ATOM     29  C   UNL A   1      42.155  19.707  25.713  1.00  0.00     0.251 C 
ATOM     30  H   UNL A   1      41.021  18.050  25.951  1.00  0.00     0.163 HD
ATOM     31  O   UNL A   1      43.051  19.152  25.067  1.00  0.00    -0.269 OA
BRANCH  29  32
ATOM     32  C   UNL A   1      42.377  21.069  26.251  1.00  0.00     0.039 A 
ATOM     33  C   UNL A   1      42.687  22.202  25.491  1.00  0.00     0.014 A 
ATOM     34  C   UNL A   1      42.264  21.210  27.615  1.00  0.00     0.014 A 
ATOM     35  C   UNL A   1      42.886  23.418  26.161  1.00  0.00     0.010 A 
ATOM     36  C   UNL A   1      41.956  22.427  28.121  1.00  0.00     0.010 A 
ATOM     37  C   UNL A   1      42.544  23.503  27.516  1.00  0.00    -0.014 A 
BRANCH  37  38
ATOM     38  C   UNL A   1      42.572  24.714  28.320  1.00  0.00     0.031 A 
ATOM     39  C   UNL A   1      41.353  25.515  28.113  1.00  0.00     0.074 A 
ATOM     40  C   UNL A   1      43.433  24.942  29.341  1.00  0.00     0.049 A 
ATOM     41  N   UNL A   1      41.215  26.483  27.272  1.00  0.00    -0.248 NA
ATOM     42  C   UNL A   1      40.086  25.013  28.667  1.00  0.00     0.031 C 
ATOM     43  C   UNL A   1      44.432  24.034  29.923  1.00  0.00     0.029 A 
ATOM     44  N   UNL A   1      43.519  26.028  30.161  1.00  0.00    -0.354 N 
ATOM     45  C   UNL A   1      39.910  26.914  27.460  1.00  0.00     0.074 A 
ATOM     46  C   UNL A   1      39.214  25.792  28.023  1.00  0.00     0.031 C 
ATOM     47  C   UNL A   1      44.862  24.527  31.110  1.00  0.00     0.029 A 
ATOM     48  C   UNL A   1      44.287  25.844  31.313  1.00  0.00     0.049 A 
ATOM     49  H   UNL A   1      43.072  26.881  29.956  1.00  0.00     0.167 HD
ATOM     50  C   UNL A   1      39.629  28.246  27.506  1.00  0.00     0.034 A 
ATOM     51  C   UNL A   1      44.394  26.703  32.364  1.00  0.00     0.034 A 
ATOM     52  C   UNL A   1      40.780  29.014  27.070  1.00  0.00     0.049 A 
ATOM     53  C   UNL A   1      43.951  28.031  31.878  1.00  0.00     0.074 A 
ATOM     54  C   UNL A   1      41.580  29.031  25.944  1.00  0.00     0.029 A 
ATOM     55  N   UNL A   1      41.506  29.630  28.063  1.00  0.00    -0.354 N 
ATOM     56  N   UNL A   1      44.607  28.734  30.999  1.00  0.00    -0.248 NA
ATOM     57  C   UNL A   1      42.550  28.379  32.043  1.00  0.00     0.031 C 
ATOM     58  C   UNL A   1      42.903  29.252  26.432  1.00  0.00     0.029 A 
ATOM     59  C   UNL A   1      42.838  29.456  27.811  1.00  0.00     0.049 A 
ATOM     60  H   UNL A   1      41.128  30.115  28.832  1.00  0.00     0.167 HD
ATOM     61  C   UNL A   1      43.616  29.244  30.172  1.00  0.00     0.074 A 
ATOM     62  C   UNL A   1      42.375  29.098  30.931  1.00  0.00     0.031 C 
ATOM     63  C   UNL A   1      43.854  29.440  28.842  1.00  0.00     0.034 A 
BRANCH  50  64
ATOM     64  C   UNL A   1      38.537  28.894  28.342  1.00  0.00     0.023 A 
ATOM     65  C   UNL A   1      37.680  29.787  27.658  1.00  0.00     0.012 A 
ATOM     66  C   UNL A   1      38.449  28.897  29.754  1.00  0.00     0.148 A 
ATOM     67  C   UNL A   1      36.861  30.694  28.336  1.00  0.00     0.002 A 
ATOM     68  C   UNL A   1      37.579  29.749  30.425  1.00  0.00     0.091 A 
ATOM     69  F   UNL A   1      39.277  28.160  30.492  1.00  0.00    -0.205 F 
ATOM     70  C   UNL A   1      36.811  30.676  29.722  1.00  0.00     0.022 A 
BRANCH  68  71
ATOM     71  S   UNL A   1      37.435  29.735  32.219  1.00  0.00     0.127 S 
ATOM     72  O   UNL A   1      37.348  28.303  32.493  1.00  0.00    -0.237 OA
ATOM     73  O   UNL A   1      38.690  30.370  32.619  1.00  0.00    -0.237 OA
ATOM     74  O   UNL A   1      36.244  30.513  32.533  1.00  0.00    -0.744 OA
ENDBRANCH  68  71
ENDBRANCH  50  64
BRANCH  51  75
ATOM     75  C   UNL A   1      44.629  26.478  33.815  1.00  0.00     0.023 A 
ATOM     76  C   UNL A   1      45.885  26.805  34.377  1.00  0.00     0.012 A 
ATOM     77  C   UNL A   1      43.550  26.261  34.697  1.00  0.00     0.148 A 
ATOM     78  C   UNL A   1      46.047  26.963  35.760  1.00  0.00     0.002 A 
ATOM     79  C   UNL A   1      43.718  26.421  36.073  1.00  0.00     0.091 A 
ATOM     80  F   UNL A   1      42.344  25.997  34.181  1.00  0.00    -0.205 F 
ATOM     81  C   UNL A   1      44.961  26.783  36.606  1.00  0.00     0.022 A 
BRANCH  79  82
ATOM     82  S   UNL A   1      42.348  26.258  37.229  1.00  0.00     0.127 S 
ATOM     83  O   UNL A   1      41.886  24.892  36.953  1.00  0.00    -0.237 OA
ATOM     84  O   UNL A   1      43.029  26.415  38.519  1.00  0.00    -0.237 OA
ATOM     85  O   UNL A   1      41.409  27.297  36.882  1.00  0.00    -0.744 OA
ENDBRANCH  79  82
ENDBRANCH  51  75
BRANCH  63  86
ATOM     86  C   UNL A   1      45.285  29.434  28.366  1.00  0.00     0.023 A 
ATOM     87  C   UNL A   1      46.141  30.550  28.462  1.00  0.00     0.012 A 
ATOM     88  C   UNL A   1      45.819  28.200  27.960  1.00  0.00     0.148 A 
ATOM     89  C   UNL A   1      47.499  30.436  28.143  1.00  0.00     0.002 A 
ATOM     90  C   UNL A   1      47.176  28.077  27.698  1.00  0.00     0.091 A 
ATOM     91  F   UNL A   1      44.987  27.152  27.862  1.00  0.00    -0.205 F 
ATOM     92  C   UNL A   1      48.020  29.195  27.778  1.00  0.00     0.022 A 
BRANCH  90  93
ATOM     93  S   UNL A   1      47.912  26.477  27.359  1.00  0.00     0.127 S 
ATOM     94  O   UNL A   1      47.483  25.694  28.516  1.00  0.00    -0.237 OA
ATOM     95  O   UNL A   1      47.277  26.101  26.095  1.00  0.00    -0.237 OA
ATOM     96  O   UNL A   1      49.347  26.712  27.254  1.00  0.00    -0.744 OA
ENDBRANCH  90  93
ENDBRANCH  63  86
ENDBRANCH  37  38
ENDBRANCH  29  32
ENDBRANCH  27  28
ENDBRANCH   1  27
TORSDOF 15
ENDMDL
MODEL 2
REMARK VINA RESULT:     -13.4      3.044      8.210
REMARK SMILES Cc1ccc(C)c(-c2cc(C(=O)NCCCCNC(=O)c3ccc(-c4c5nc(c(-c6cccc(S(=O)(=O)[O-])c6F)c6ccc([nH]6)c(-c6cccc(S(=O)(=O)[O-])c6F)c6nc(c(-c7cccc(S(=O)(=O)[O-])c7F)c7ccc4[nH]7)C=C6)C=C5)cc3)c3cc(C)ccc3n2)c1
REMARK SMILES IDX 16 1 15 2 14 3 13 4 11 5 12 6 10 8 8 9 9 10 91 11 90 12
REMARK SMILES IDX 84 13 89 14 85 15 88 16 86 17 87 18 7 19 1 20 2 21 3 22
REMARK SMILES IDX 92 23 4 24 5 25 6 26 17 27 18 28 19 29 20 31 21 32 22 33
REMARK SMILES IDX 83 34 23 35 82 36 24 37 25 38 26 39 76 40 27 41 81 42 75 43
REMARK SMILES IDX 77 44 28 45 80 46 74 47 73 48 29 50 61 51 41 52 60 53 42 54
REMARK SMILES IDX 45 55 59 56 78 57 43 58 44 59 58 61 79 62 46 63 30 64 31 65
REMARK SMILES IDX 39 66 32 67 34 68 40 69 33 70 35 71 36 72 37 73 38 74 62 75
REMARK SMILES IDX 63 76 71 77 64 78 66 79 72 80 65 81 67 82 68 83 69 84 70 85
REMARK SMILES IDX 47 86 48 87 56 88 49 89 51 90 57 91 50 92 52 93 53 94 54 95
REMARK SMILES IDX 55 96
REMARK H PARENT 13 7 18 30 77 49 45 60
REMARK Flexibility Score: inf
ROOT
ATOM      1  C   UNL A   1      34.409  31.981  28.011  1.00  0.00     0.023 C 
ENDROOT
BRANCH   1   2
ATOM      2  C   UNL A   1      35.096  30.670  27.619  1.00  0.00     0.023 C 
BRANCH   2   3
ATOM      3  C   UNL A   1      34.292  29.520  27.024  1.00  0.00     0.116 C 
BRANCH   3   4
ATOM      4  N   UNL A   1      33.068  29.093  27.669  1.00  0.00    -0.352 N 
ATOM      5  C   UNL A   1      32.119  28.149  27.291  1.00  0.00     0.252 C 
ATOM      6  O   UNL A   1      31.169  27.997  28.055  1.00  0.00    -0.269 OA
ATOM      7  H   UNL A   1      32.875  29.547  28.521  1.00  0.00     0.163 HD
BRANCH   5   8
ATOM      8  C   UNL A   1      32.096  27.419  25.974  1.00  0.00     0.051 A 
ATOM      9  C   UNL A   1      32.526  25.321  24.879  1.00  0.00     0.072 A 
ATOM     10  C   UNL A   1      32.708  26.156  25.971  1.00  0.00     0.043 A 
ATOM     11  N   UNL A   1      31.669  25.634  23.878  1.00  0.00    -0.248 NA
ATOM     12  C   UNL A   1      31.140  26.864  23.847  1.00  0.00     0.072 A 
ATOM     13  C   UNL A   1      31.445  27.851  24.798  1.00  0.00     0.013 A 
ATOM     14  C   UNL A   1      30.227  27.166  22.847  1.00  0.00     0.029 A 
ATOM     15  C   UNL A   1      31.049  29.176  24.527  1.00  0.00     0.014 A 
ATOM     16  C   UNL A   1      29.631  28.426  22.750  1.00  0.00     0.005 A 
ATOM     17  C   UNL A   1      30.060  29.455  23.582  1.00  0.00    -0.050 A 
ATOM     18  C   UNL A   1      29.356  30.779  23.611  1.00  0.00     0.044 C 
BRANCH   9  19
ATOM     19  C   UNL A   1      33.257  24.054  24.703  1.00  0.00     0.003 A 
ATOM     20  C   UNL A   1      36.602  22.874  23.245  1.00  0.00     0.044 C 
ATOM     21  C   UNL A   1      35.259  22.866  23.911  1.00  0.00    -0.050 A 
ATOM     22  C   UNL A   1      34.710  21.657  24.343  1.00  0.00     0.004 A 
ATOM     23  C   UNL A   1      34.531  24.052  24.097  1.00  0.00     0.014 A 
ATOM     24  C   UNL A   1      33.454  21.632  24.943  1.00  0.00     0.004 A 
ATOM     25  C   UNL A   1      32.714  22.815  25.121  1.00  0.00    -0.042 A 
ATOM     26  C   UNL A   1      31.350  22.683  25.751  1.00  0.00     0.045 C 
ENDBRANCH   9  19
ENDBRANCH   5   8
ENDBRANCH   3   4
ENDBRANCH   2   3
ENDBRANCH   1   2
BRANCH   1  27
ATOM     27  C   UNL A   1      35.255  33.119  28.580  1.00  0.00     0.116 C 
BRANCH  27  28
ATOM     28  N   UNL A   1      35.109  33.367  30.027  1.00  0.00    -0.352 N 
ATOM     29  C   UNL A   1      35.454  32.552  31.105  1.00  0.00     0.251 C 
ATOM     30  H   UNL A   1      34.708  34.234  30.267  1.00  0.00     0.163 HD
ATOM     31  O   UNL A   1      34.864  32.679  32.184  1.00  0.00    -0.269 OA
BRANCH  29  32
ATOM     32  C   UNL A   1      36.546  31.559  30.981  1.00  0.00     0.039 A 
ATOM     33  C   UNL A   1      36.376  30.179  30.833  1.00  0.00     0.014 A 
ATOM     34  C   UNL A   1      37.828  32.058  31.016  1.00  0.00     0.014 A 
ATOM     35  C   UNL A   1      37.522  29.373  30.748  1.00  0.00     0.010 A 
ATOM     36  C   UNL A   1      38.820  31.348  30.430  1.00  0.00     0.010 A 
ATOM     37  C   UNL A   1      38.767  29.990  30.582  1.00  0.00    -0.014 A 
BRANCH  37  38
ATOM     38  C   UNL A   1      40.027  29.301  30.356  1.00  0.00     0.031 A 
ATOM     39  C   UNL A   1      40.711  29.016  31.629  1.00  0.00     0.074 A 
ATOM     40  C   UNL A   1      40.392  28.726  29.185  1.00  0.00     0.049 A 
ATOM     41  N   UNL A   1      41.606  29.755  32.192  1.00  0.00    -0.248 NA
ATOM     42  C   UNL A   1      40.145  27.980  32.508  1.00  0.00     0.031 C 
ATOM     43  C   UNL A   1      39.608  28.576  27.949  1.00  0.00     0.029 A 
ATOM     44  N   UNL A   1      41.533  28.042  28.886  1.00  0.00    -0.354 N 
ATOM     45  C   UNL A   1      41.941  29.064  33.347  1.00  0.00     0.074 A 
ATOM     46  C   UNL A   1      40.806  28.235  33.639  1.00  0.00     0.031 C 
ATOM     47  C   UNL A   1      40.213  27.681  27.130  1.00  0.00     0.029 A 
ATOM     48  C   UNL A   1      41.489  27.298  27.705  1.00  0.00     0.049 A 
ATOM     49  H   UNL A   1      42.331  28.071  29.461  1.00  0.00     0.167 HD
ATOM     50  C   UNL A   1      43.246  28.944  33.718  1.00  0.00     0.034 A 
ATOM     51  C   UNL A   1      42.422  26.406  27.272  1.00  0.00     0.034 A 
ATOM     52  C   UNL A   1      44.075  29.832  32.925  1.00  0.00     0.049 A 
ATOM     53  C   UNL A   1      43.674  26.706  28.005  1.00  0.00     0.074 A 
ATOM     54  C   UNL A   1      44.082  31.186  32.652  1.00  0.00     0.029 A 
ATOM     55  N   UNL A   1      44.812  29.238  31.927  1.00  0.00    -0.354 N 
ATOM     56  N   UNL A   1      44.368  27.795  27.833  1.00  0.00    -0.248 NA
ATOM     57  C   UNL A   1      43.918  25.994  29.249  1.00  0.00     0.031 C 
ATOM     58  C   UNL A   1      44.441  31.286  31.275  1.00  0.00     0.029 A 
ATOM     59  C   UNL A   1      44.731  30.006  30.799  1.00  0.00     0.049 A 
ATOM     60  H   UNL A   1      45.315  28.396  32.011  1.00  0.00     0.167 HD
ATOM     61  C   UNL A   1      44.740  28.161  29.120  1.00  0.00     0.074 A 
ATOM     62  C   UNL A   1      44.544  26.958  29.928  1.00  0.00     0.031 C 
ATOM     63  C   UNL A   1      44.866  29.477  29.458  1.00  0.00     0.034 A 
BRANCH  50  64
ATOM     64  C   UNL A   1      43.857  27.755  34.441  1.00  0.00     0.023 A 
ATOM     65  C   UNL A   1      44.688  28.059  35.544  1.00  0.00     0.012 A 
ATOM     66  C   UNL A   1      43.890  26.417  33.980  1.00  0.00     0.148 A 
ATOM     67  C   UNL A   1      45.567  27.120  36.091  1.00  0.00     0.002 A 
ATOM     68  C   UNL A   1      44.712  25.466  34.573  1.00  0.00     0.091 A 
ATOM     69  F   UNL A   1      43.214  26.052  32.893  1.00  0.00    -0.205 F 
ATOM     70  C   UNL A   1      45.581  25.822  35.604  1.00  0.00     0.022 A 
BRANCH  68  71
ATOM     71  S   UNL A   1      44.735  23.754  34.017  1.00  0.00     0.127 S 
ATOM     72  O   UNL A   1      45.824  23.202  34.819  1.00  0.00    -0.237 OA
ATOM     73  O   UNL A   1      43.395  23.305  34.395  1.00  0.00    -0.237 OA
ATOM     74  O   UNL A   1      44.967  23.800  32.580  1.00  0.00    -0.744 OA
ENDBRANCH  68  71
ENDBRANCH  50  64
BRANCH  51  75
ATOM     75  C   UNL A   1      42.314  25.170  26.451  1.00  0.00     0.023 A 
ATOM     76  C   UNL A   1      43.300  24.893  25.475  1.00  0.00     0.012 A 
ATOM     77  C   UNL A   1      41.454  24.120  26.834  1.00  0.00     0.148 A 
ATOM     78  C   UNL A   1      43.458  23.607  24.942  1.00  0.00     0.002 A 
ATOM     79  C   UNL A   1      41.617  22.841  26.301  1.00  0.00     0.091 A 
ATOM     80  F   UNL A   1      40.546  24.352  27.789  1.00  0.00    -0.205 F 
ATOM     81  C   UNL A   1      42.625  22.579  25.365  1.00  0.00     0.022 A 
BRANCH  79  82
ATOM     82  S   UNL A   1      40.614  21.447  26.836  1.00  0.00     0.127 S 
ATOM     83  O   UNL A   1      39.284  21.831  26.349  1.00  0.00    -0.237 OA
ATOM     84  O   UNL A   1      41.230  20.338  26.097  1.00  0.00    -0.237 OA
ATOM     85  O   UNL A   1      40.741  21.394  28.272  1.00  0.00    -0.744 OA
ENDBRANCH  79  82
ENDBRANCH  51  75
BRANCH  63  86
ATOM     86  C   UNL A   1      44.944  30.495  28.348  1.00  0.00     0.023 A 
ATOM     87  C   UNL A   1      43.810  31.067  27.736  1.00  0.00     0.012 A 
ATOM     88  C   UNL A   1      46.215  31.004  28.035  1.00  0.00     0.148 A 
ATOM     89  C   UNL A   1      43.948  32.115  26.819  1.00  0.00     0.002 A 
ATOM     90  C   UNL A   1      46.344  32.079  27.167  1.00  0.00     0.091 A 
ATOM     91  F   UNL A   1      47.284  30.439  28.616  1.00  0.00    -0.205 F 
ATOM     92  C   UNL A   1      45.213  32.633  26.548  1.00  0.00     0.022 A 
BRANCH  90  93
ATOM     93  S   UNL A   1      47.934  32.863  26.896  1.00  0.00     0.127 S 
ATOM     94  O   UNL A   1      48.222  33.431  28.211  1.00  0.00    -0.237 OA
ATOM     95  O   UNL A   1      48.782  31.731  26.517  1.00  0.00    -0.237 OA
ATOM     96  O   UNL A   1      47.725  33.829  25.824  1.00  0.00    -0.744 OA
ENDBRANCH  90  93
ENDBRANCH  63  86
ENDBRANCH  37  38
ENDBRANCH  29  32
ENDBRANCH  27  28
ENDBRANCH   1  27
TORSDOF 15
ENDMDL
MODEL 3
REMARK VINA RESULT:     -13.0      2.795      7.677
REMARK SMILES Cc1ccc(C)c(-c2cc(C(=O)NCCCCNC(=O)c3ccc(-c4c5nc(c(-c6cccc(S(=O)(=O)[O-])c6F)c6ccc([nH]6)c(-c6cccc(S(=O)(=O)[O-])c6F)c6nc(c(-c7cccc(S(=O)(=O)[O-])c7F)c7ccc4[nH]7)C=C6)C=C5)cc3)c3cc(C)ccc3n2)c1
REMARK SMILES IDX 16 1 15 2 14 3 13 4 11 5 12 6 10 8 8 9 9 10 91 11 90 12
REMARK SMILES IDX 84 13 89 14 85 15 88 16 86 17 87 18 7 19 1 20 2 21 3 22
REMARK SMILES IDX 92 23 4 24 5 25 6 26 17 27 18 28 19 29 20 31 21 32 22 33
REMARK SMILES IDX 83 34 23 35 82 36 24 37 25 38 26 39 76 40 27 41 81 42 75 43
REMARK SMILES IDX 77 44 28 45 80 46 74 47 73 48 29 50 61 51 41 52 60 53 42 54
REMARK SMILES IDX 45 55 59 56 78 57 43 58 44 59 58 61 79 62 46 63 30 64 31 65
REMARK SMILES IDX 39 66 32 67 34 68 40 69 33 70 35 71 36 72 37 73 38 74 62 75
REMARK SMILES IDX 63 76 71 77 64 78 66 79 72 80 65 81 67 82 68 83 69 84 70 85
REMARK SMILES IDX 47 86 48 87 56 88 49 89 51 90 57 91 50 92 52 93 53 94 54 95
REMARK SMILES IDX 55 96
REMARK H PARENT 13 7 18 30 77 49 45 60
REMARK Flexibility Score: inf
ROOT
ATOM      1  C   UNL A   1      32.796  28.380  25.345  1.00  0.00     0.023 C 
ENDROOT
BRANCH   1   2
ATOM      2  C   UNL A   1      32.776  28.641  23.836  1.00  0.00     0.023 C 
BRANCH   2   3
ATOM      3  C   UNL A   1      33.948  28.219  22.960  1.00  0.00     0.116 C 
BRANCH   3   4
ATOM      4  N   UNL A   1      33.702  27.460  21.751  1.00  0.00    -0.352 N 
ATOM      5  C   UNL A   1      33.132  26.205  21.562  1.00  0.00     0.252 C 
ATOM      6  O   UNL A   1      33.051  25.814  20.400  1.00  0.00    -0.269 OA
ATOM      7  H   UNL A   1      33.986  27.908  20.922  1.00  0.00     0.163 HD
BRANCH   5   8
ATOM      8  C   UNL A   1      32.746  25.251  22.661  1.00  0.00     0.051 A 
ATOM      9  C   UNL A   1      33.538  23.523  24.136  1.00  0.00     0.072 A 
ATOM     10  C   UNL A   1      33.709  24.283  22.987  1.00  0.00     0.043 A 
ATOM     11  N   UNL A   1      32.545  23.781  25.019  1.00  0.00    -0.248 NA
ATOM     12  C   UNL A   1      31.591  24.656  24.676  1.00  0.00     0.072 A 
ATOM     13  C   UNL A   1      31.566  25.310  23.433  1.00  0.00     0.013 A 
ATOM     14  C   UNL A   1      30.601  24.952  25.601  1.00  0.00     0.029 A 
ATOM     15  C   UNL A   1      30.390  25.998  23.071  1.00  0.00     0.014 A 
ATOM     16  C   UNL A   1      29.574  25.855  25.317  1.00  0.00     0.005 A 
ATOM     17  C   UNL A   1      29.447  26.370  24.031  1.00  0.00    -0.050 A 
ATOM     18  C   UNL A   1      28.451  27.446  23.716  1.00  0.00     0.044 C 
BRANCH   9  19
ATOM     19  C   UNL A   1      34.395  22.374  24.475  1.00  0.00     0.003 A 
ATOM     20  C   UNL A   1      34.121  18.551  24.577  1.00  0.00     0.044 C 
ATOM     21  C   UNL A   1      34.676  19.940  24.678  1.00  0.00    -0.050 A 
ATOM     22  C   UNL A   1      35.991  20.129  25.106  1.00  0.00     0.004 A 
ATOM     23  C   UNL A   1      33.891  21.061  24.363  1.00  0.00     0.014 A 
ATOM     24  C   UNL A   1      36.511  21.415  25.225  1.00  0.00     0.004 A 
ATOM     25  C   UNL A   1      35.727  22.543  24.924  1.00  0.00    -0.042 A 
ATOM     26  C   UNL A   1      36.369  23.894  25.115  1.00  0.00     0.045 C 
ENDBRANCH   9  19
ENDBRANCH   5   8
ENDBRANCH   3   4
ENDBRANCH   2   3
ENDBRANCH   1   2
BRANCH   1  27
ATOM     27  C   UNL A   1      33.872  29.050  26.199  1.00  0.00     0.116 C 
BRANCH  27  28
ATOM     28  N   UNL A   1      33.612  30.454  26.572  1.00  0.00    -0.352 N 
ATOM     29  C   UNL A   1      34.240  31.245  27.534  1.00  0.00     0.251 C 
ATOM     30  H   UNL A   1      32.891  30.897  26.069  1.00  0.00     0.163 HD
ATOM     31  O   UNL A   1      33.630  32.194  28.040  1.00  0.00    -0.269 OA
BRANCH  29  32
ATOM     32  C   UNL A   1      35.642  30.981  27.930  1.00  0.00     0.039 A 
ATOM     33  C   UNL A   1      36.529  31.925  28.458  1.00  0.00     0.014 A 
ATOM     34  C   UNL A   1      36.091  29.692  27.756  1.00  0.00     0.014 A 
ATOM     35  C   UNL A   1      37.835  31.513  28.765  1.00  0.00     0.010 A 
ATOM     36  C   UNL A   1      37.120  29.252  28.518  1.00  0.00     0.010 A 
ATOM     37  C   UNL A   1      38.129  30.145  28.751  1.00  0.00    -0.014 A 
BRANCH  37  38
ATOM     38  C   UNL A   1      39.389  29.548  29.161  1.00  0.00     0.031 A 
ATOM     39  C   UNL A   1      39.622  29.738  30.602  1.00  0.00     0.074 A 
ATOM     40  C   UNL A   1      40.110  28.678  28.412  1.00  0.00     0.049 A 
ATOM     41  N   UNL A   1      40.292  30.699  31.143  1.00  0.00    -0.248 NA
ATOM     42  C   UNL A   1      38.794  28.973  31.549  1.00  0.00     0.031 C 
ATOM     43  C   UNL A   1      39.768  28.077  27.113  1.00  0.00     0.029 A 
ATOM     44  N   UNL A   1      41.281  28.052  28.719  1.00  0.00    -0.354 N 
ATOM     45  C   UNL A   1      40.229  30.434  32.503  1.00  0.00     0.074 A 
ATOM     46  C   UNL A   1      39.055  29.629  32.683  1.00  0.00     0.031 C 
ATOM     47  C   UNL A   1      40.599  27.037  26.857  1.00  0.00     0.029 A 
ATOM     48  C   UNL A   1      41.617  26.978  27.890  1.00  0.00     0.049 A 
ATOM     49  H   UNL A   1      41.850  28.335  29.470  1.00  0.00     0.167 HD
ATOM     50  C   UNL A   1      41.343  30.565  33.277  1.00  0.00     0.034 A 
ATOM     51  C   UNL A   1      42.633  26.093  28.079  1.00  0.00     0.034 A 
ATOM     52  C   UNL A   1      42.390  31.242  32.536  1.00  0.00     0.049 A 
ATOM     53  C   UNL A   1      43.583  26.726  29.024  1.00  0.00     0.074 A 
ATOM     54  C   UNL A   1      42.494  32.440  31.855  1.00  0.00     0.029 A 
ATOM     55  N   UNL A   1      43.406  30.444  32.063  1.00  0.00    -0.354 N 
ATOM     56  N   UNL A   1      44.303  27.772  28.732  1.00  0.00    -0.248 NA
ATOM     57  C   UNL A   1      43.405  26.461  30.442  1.00  0.00     0.031 C 
ATOM     58  C   UNL A   1      43.281  32.144  30.702  1.00  0.00     0.029 A 
ATOM     59  C   UNL A   1      43.701  30.815  30.780  1.00  0.00     0.049 A 
ATOM     60  H   UNL A   1      43.849  29.723  32.566  1.00  0.00     0.167 HD
ATOM     61  C   UNL A   1      44.240  28.552  29.879  1.00  0.00     0.074 A 
ATOM     62  C   UNL A   1      43.785  27.644  30.931  1.00  0.00     0.031 C 
ATOM     63  C   UNL A   1      44.259  29.915  29.794  1.00  0.00     0.034 A 
BRANCH  50  64
ATOM     64  C   UNL A   1      41.679  29.723  34.497  1.00  0.00     0.023 A 
ATOM     65  C   UNL A   1      42.250  30.415  35.590  1.00  0.00     0.012 A 
ATOM     66  C   UNL A   1      41.717  28.310  34.558  1.00  0.00     0.148 A 
ATOM     67  C   UNL A   1      42.906  29.747  36.628  1.00  0.00     0.002 A 
ATOM     68  C   UNL A   1      42.306  27.647  35.629  1.00  0.00     0.091 A 
ATOM     69  F   UNL A   1      41.288  27.569  33.539  1.00  0.00    -0.205 F 
ATOM     70  C   UNL A   1      42.935  28.361  36.647  1.00  0.00     0.022 A 
BRANCH  68  71
ATOM     71  S   UNL A   1      42.330  25.849  35.734  1.00  0.00     0.127 S 
ATOM     72  O   UNL A   1      42.979  25.642  37.026  1.00  0.00    -0.237 OA
ATOM     73  O   UNL A   1      40.902  25.535  35.697  1.00  0.00    -0.237 OA
ATOM     74  O   UNL A   1      43.074  25.388  34.570  1.00  0.00    -0.744 OA
ENDBRANCH  68  71
ENDBRANCH  50  64
BRANCH  51  75
ATOM     75  C   UNL A   1      42.789  24.660  27.712  1.00  0.00     0.023 A 
ATOM     76  C   UNL A   1      41.738  23.753  27.983  1.00  0.00     0.012 A 
ATOM     77  C   UNL A   1      43.801  24.248  26.820  1.00  0.00     0.148 A 
ATOM     78  C   UNL A   1      41.670  22.505  27.348  1.00  0.00     0.002 A 
ATOM     79  C   UNL A   1      43.726  23.005  26.190  1.00  0.00     0.091 A 
ATOM     80  F   UNL A   1      44.777  25.111  26.516  1.00  0.00    -0.205 F 
ATOM     81  C   UNL A   1      42.657  22.138  26.443  1.00  0.00     0.022 A 
BRANCH  79  82
ATOM     82  S   UNL A   1      44.936  22.479  24.966  1.00  0.00     0.127 S 
ATOM     83  O   UNL A   1      46.123  22.252  25.798  1.00  0.00    -0.237 OA
ATOM     84  O   UNL A   1      44.318  21.252  24.449  1.00  0.00    -0.237 OA
ATOM     85  O   UNL A   1      45.052  23.569  24.029  1.00  0.00    -0.744 OA
ENDBRANCH  79  82
ENDBRANCH  51  75
BRANCH  63  86
ATOM     86  C   UNL A   1      44.700  30.542  28.496  1.00  0.00     0.023 A 
ATOM     87  C   UNL A   1      43.802  31.023  27.520  1.00  0.00     0.012 A 
ATOM     88  C   UNL A   1      46.072  30.798  28.342  1.00  0.00     0.148 A 
ATOM     89  C   UNL A   1      44.272  31.731  26.408  1.00  0.00     0.002 A 
ATOM     90  C   UNL A   1      46.528  31.548  27.267  1.00  0.00     0.091 A 
ATOM     91  F   UNL A   1      46.912  30.322  29.273  1.00  0.00    -0.205 F 
ATOM     92  C   UNL A   1      45.632  32.009  26.290  1.00  0.00     0.022 A 
BRANCH  90  93
ATOM     93  S   UNL A   1      48.248  32.044  27.149  1.00  0.00     0.127 S 
ATOM     94  O   UNL A   1      48.501  32.585  28.482  1.00  0.00    -0.237 OA
ATOM     95  O   UNL A   1      48.921  30.776  26.862  1.00  0.00    -0.237 OA
ATOM     96  O   UNL A   1      48.311  33.007  26.056  1.00  0.00    -0.744 OA
ENDBRANCH  90  93
ENDBRANCH  63  86
ENDBRANCH  37  38
ENDBRANCH  29  32
ENDBRANCH  27  28
ENDBRANCH   1  27
TORSDOF 15
ENDMDL
