MODEL 1
REMARK VINA RESULT:     -13.2      0.000      0.000
REMARK SMILES C[C@H]1CS(=O)(=O)N(c2cccc(C(=O)Nc3ccc(O)c(C(=O)NCCCCNC(=O)c4ccc(-c5c6nc(c(-c7cccc(S(=O)(=O)[O-])c7F)c7ccc([nH]7)c(-c7cccc(S(=O)(=O)[O-])c7F)c7nc(c(-c8cccc(S(=O)(=O)[O-])c8F)c8ccc5[nH]8)C=C7)C=C6)cc4)c3)c2)C1=O
REMARK SMILES IDX 26 1 25 2 24 3 22 4 23 5 21 7 16 8 17 9 95 10 18 11 19 12
REMARK SMILES IDX 15 13 13 14 14 15 12 17 8 18 9 19 96 20 10 21 11 22 7 23
REMARK SMILES IDX 1 24 2 25 3 26 97 27 4 28 98 29 5 30 6 31 20 32 27 34 28 35
REMARK SMILES IDX 29 36 30 37 31 39 32 40 33 41 94 42 34 43 93 44 35 45 36 46
REMARK SMILES IDX 37 47 87 48 38 49 92 50 86 51 88 52 39 53 91 54 85 55 84 56
REMARK SMILES IDX 40 58 72 59 52 60 71 61 53 62 56 63 70 64 89 65 54 66 55 67
REMARK SMILES IDX 69 69 90 70 57 71 41 72 42 73 50 74 43 75 45 76 51 77 44 78
REMARK SMILES IDX 46 79 47 80 48 81 49 82 73 83 74 84 82 85 75 86 77 87 83 88
REMARK SMILES IDX 76 89 78 90 79 91 80 92 81 93 58 94 59 95 67 96 60 97 62 98
REMARK SMILES IDX 68 99 61 100 63 101 64 102 65 103 66 104
REMARK H PARENT 24 6 15 16 20 33 29 38 88 57 56 68
REMARK Flexibility Score: inf
ROOT
ATOM      1  C   UNL A   1      31.433  31.003  25.998  1.00  0.00     0.023 C 
ENDROOT
BRANCH   1   2
ATOM      2  C   UNL A   1      31.276  29.780  25.110  1.00  0.00     0.116 C 
BRANCH   2   3
ATOM      3  N   UNL A   1      32.432  29.606  24.236  1.00  0.00    -0.352 N 
ATOM      4  C   UNL A   1      33.052  28.557  23.604  1.00  0.00     0.255 C 
ATOM      5  O   UNL A   1      33.989  28.837  22.849  1.00  0.00    -0.269 OA
ATOM      6  H   UNL A   1      32.884  30.461  24.053  1.00  0.00     0.163 HD
BRANCH   4   7
ATOM      7  C   UNL A   1      32.625  27.132  23.650  1.00  0.00     0.083 A 
ATOM      8  C   UNL A   1      32.179  25.160  24.952  1.00  0.00     0.042 A 
ATOM      9  C   UNL A   1      31.384  24.618  23.950  1.00  0.00     0.030 A 
ATOM     10  C   UNL A   1      32.943  26.295  24.706  1.00  0.00     0.043 A 
ATOM     11  C   UNL A   1      31.180  25.357  22.789  1.00  0.00     0.049 A 
ATOM     12  C   UNL A   1      31.742  26.632  22.672  1.00  0.00     0.128 A 
BRANCH   8  13
ATOM     13  N   UNL A   1      32.114  24.624  26.239  1.00  0.00    -0.322 N 
ATOM     14  C   UNL A   1      32.571  23.402  26.710  1.00  0.00     0.255 C 
ATOM     15  O   UNL A   1      32.160  23.045  27.818  1.00  0.00    -0.269 OA
ATOM     16  H   UNL A   1      31.679  25.198  26.911  1.00  0.00     0.170 HD
BRANCH  14  17
ATOM     17  C   UNL A   1      33.598  22.531  26.012  1.00  0.00     0.042 A 
ATOM     18  C   UNL A   1      34.425  20.489  24.908  1.00  0.00     0.061 A 
ATOM     19  C   UNL A   1      35.685  21.078  24.784  1.00  0.00     0.027 A 
ATOM     20  C   UNL A   1      33.371  21.257  25.448  1.00  0.00     0.041 A 
ATOM     21  C   UNL A   1      35.914  22.370  25.257  1.00  0.00     0.003 A 
ATOM     22  C   UNL A   1      34.888  23.074  25.890  1.00  0.00     0.014 A 
BRANCH  18  23
ATOM     23  N   UNL A   1      34.285  19.088  24.615  1.00  0.00    -0.207 N 
ATOM     24  C   UNL A   1      35.680  15.784  25.360  1.00  0.00     0.019 C 
ATOM     25  C   UNL A   1      34.973  16.761  24.427  1.00  0.00     0.094 C 
ATOM     26  C   UNL A   1      33.452  16.696  24.563  1.00  0.00     0.173 C 
ATOM     27  C   UNL A   1      35.389  18.201  24.690  1.00  0.00     0.244 C 
ATOM     28  S   UNL A   1      32.833  18.340  24.263  1.00  0.00     0.242 S 
ATOM     29  O   UNL A   1      36.551  18.529  24.893  1.00  0.00    -0.273 OA
ATOM     30  O   UNL A   1      32.566  18.492  22.854  1.00  0.00    -0.206 OA
ATOM     31  O   UNL A   1      31.841  18.654  25.271  1.00  0.00    -0.206 OA
ENDBRANCH  18  23
ENDBRANCH  14  17
ENDBRANCH   8  13
BRANCH  12  32
ATOM     32  O   UNL A   1      31.341  27.351  21.575  1.00  0.00    -0.507 OA
ATOM     33  H   UNL A   1      31.523  27.031  20.713  1.00  0.00     0.293 HD
ENDBRANCH  12  32
ENDBRANCH   4   7
ENDBRANCH   2   3
ENDBRANCH   1   2
BRANCH   1  34
ATOM     34  C   UNL A   1      32.433  30.780  27.133  1.00  0.00     0.023 C 
BRANCH  34  35
ATOM     35  C   UNL A   1      33.509  31.857  27.273  1.00  0.00     0.116 C 
BRANCH  35  36
ATOM     36  N   UNL A   1      32.967  33.187  27.528  1.00  0.00    -0.352 N 
ATOM     37  C   UNL A   1      33.329  34.089  28.499  1.00  0.00     0.251 C 
ATOM     38  H   UNL A   1      32.248  33.477  26.923  1.00  0.00     0.163 HD
ATOM     39  O   UNL A   1      32.697  35.129  28.653  1.00  0.00    -0.269 OA
BRANCH  37  40
ATOM     40  C   UNL A   1      34.476  33.773  29.373  1.00  0.00     0.039 A 
ATOM     41  C   UNL A   1      34.279  32.944  30.479  1.00  0.00     0.014 A 
ATOM     42  C   UNL A   1      35.752  34.244  29.052  1.00  0.00     0.014 A 
ATOM     43  C   UNL A   1      35.382  32.520  31.222  1.00  0.00     0.010 A 
ATOM     44  C   UNL A   1      36.854  33.757  29.746  1.00  0.00     0.010 A 
ATOM     45  C   UNL A   1      36.681  32.887  30.835  1.00  0.00    -0.014 A 
BRANCH  45  46
ATOM     46  C   UNL A   1      37.882  32.365  31.536  1.00  0.00     0.031 A 
ATOM     47  C   UNL A   1      38.680  31.248  30.922  1.00  0.00     0.074 A 
ATOM     48  C   UNL A   1      38.189  32.820  32.769  1.00  0.00     0.049 A 
ATOM     49  N   UNL A   1      39.682  30.577  31.426  1.00  0.00    -0.248 NA
ATOM     50  C   UNL A   1      38.279  30.807  29.575  1.00  0.00     0.031 C 
ATOM     51  C   UNL A   1      37.457  33.859  33.496  1.00  0.00     0.029 A 
ATOM     52  N   UNL A   1      39.181  32.442  33.641  1.00  0.00    -0.354 N 
ATOM     53  C   UNL A   1      40.007  29.614  30.479  1.00  0.00     0.074 A 
ATOM     54  C   UNL A   1      39.074  29.764  29.385  1.00  0.00     0.031 C 
ATOM     55  C   UNL A   1      38.020  34.033  34.702  1.00  0.00     0.029 A 
ATOM     56  C   UNL A   1      39.126  33.093  34.853  1.00  0.00     0.049 A 
ATOM     57  H   UNL A   1      39.864  31.770  33.422  1.00  0.00     0.167 HD
ATOM     58  C   UNL A   1      41.009  28.703  30.506  1.00  0.00     0.034 A 
ATOM     59  C   UNL A   1      39.869  32.936  35.966  1.00  0.00     0.034 A 
ATOM     60  C   UNL A   1      41.953  28.579  31.582  1.00  0.00     0.049 A 
ATOM     61  C   UNL A   1      40.980  31.919  35.968  1.00  0.00     0.074 A 
ATOM     62  C   UNL A   1      43.047  27.737  31.670  1.00  0.00     0.029 A 
ATOM     63  N   UNL A   1      41.911  29.309  32.760  1.00  0.00    -0.354 N 
ATOM     64  N   UNL A   1      41.356  31.108  35.009  1.00  0.00    -0.248 NA
ATOM     65  C   UNL A   1      41.789  31.814  37.191  1.00  0.00     0.031 C 
ATOM     66  C   UNL A   1      43.648  27.933  32.917  1.00  0.00     0.029 A 
ATOM     67  C   UNL A   1      42.954  28.930  33.586  1.00  0.00     0.049 A 
ATOM     68  H   UNL A   1      41.240  29.995  32.975  1.00  0.00     0.167 HD
ATOM     69  C   UNL A   1      42.472  30.436  35.494  1.00  0.00     0.074 A 
ATOM     70  C   UNL A   1      42.715  30.937  36.829  1.00  0.00     0.031 C 
ATOM     71  C   UNL A   1      43.224  29.485  34.887  1.00  0.00     0.034 A 
BRANCH  58  72
ATOM     72  C   UNL A   1      41.160  27.792  29.316  1.00  0.00     0.023 A 
ATOM     73  C   UNL A   1      40.532  26.529  29.317  1.00  0.00     0.012 A 
ATOM     74  C   UNL A   1      41.869  28.208  28.172  1.00  0.00     0.148 A 
ATOM     75  C   UNL A   1      40.639  25.680  28.217  1.00  0.00     0.002 A 
ATOM     76  C   UNL A   1      41.929  27.377  27.059  1.00  0.00     0.091 A 
ATOM     77  F   UNL A   1      42.474  29.404  28.195  1.00  0.00    -0.205 F 
ATOM     78  C   UNL A   1      41.327  26.108  27.086  1.00  0.00     0.022 A 
BRANCH  76  79
ATOM     79  S   UNL A   1      42.720  27.868  25.523  1.00  0.00     0.127 S 
ATOM     80  O   UNL A   1      42.541  26.671  24.704  1.00  0.00    -0.237 OA
ATOM     81  O   UNL A   1      41.908  29.015  25.114  1.00  0.00    -0.237 OA
ATOM     82  O   UNL A   1      44.099  28.189  25.865  1.00  0.00    -0.744 OA
ENDBRANCH  76  79
ENDBRANCH  58  72
BRANCH  59  83
ATOM     83  C   UNL A   1      39.621  33.793  37.162  1.00  0.00     0.023 A 
ATOM     84  C   UNL A   1      40.086  35.124  37.168  1.00  0.00     0.012 A 
ATOM     85  C   UNL A   1      38.921  33.306  38.282  1.00  0.00     0.148 A 
ATOM     86  C   UNL A   1      39.893  35.940  38.283  1.00  0.00     0.002 A 
ATOM     87  C   UNL A   1      38.683  34.142  39.367  1.00  0.00     0.091 A 
ATOM     88  F   UNL A   1      38.494  32.036  38.261  1.00  0.00    -0.205 F 
ATOM     89  C   UNL A   1      39.185  35.453  39.378  1.00  0.00     0.022 A 
BRANCH  87  90
ATOM     90  S   UNL A   1      37.673  33.643  40.766  1.00  0.00     0.127 S 
ATOM     91  O   UNL A   1      38.555  32.702  41.451  1.00  0.00    -0.237 OA
ATOM     92  O   UNL A   1      37.470  34.915  41.459  1.00  0.00    -0.237 OA
ATOM     93  O   UNL A   1      36.462  33.070  40.193  1.00  0.00    -0.744 OA
ENDBRANCH  87  90
ENDBRANCH  59  83
BRANCH  71  94
ATOM     94  C   UNL A   1      44.430  28.960  35.620  1.00  0.00     0.023 A 
ATOM     95  C   UNL A   1      45.678  29.597  35.479  1.00  0.00     0.012 A 
ATOM     96  C   UNL A   1      44.290  27.900  36.539  1.00  0.00     0.148 A 
ATOM     97  C   UNL A   1      46.775  29.171  36.228  1.00  0.00     0.002 A 
ATOM     98  C   UNL A   1      45.373  27.518  37.319  1.00  0.00     0.091 A 
ATOM     99  F   UNL A   1      43.096  27.300  36.642  1.00  0.00    -0.205 F 
ATOM    100  C   UNL A   1      46.619  28.144  37.157  1.00  0.00     0.022 A 
BRANCH  98 101
ATOM    101  S   UNL A   1      45.242  26.278  38.612  1.00  0.00     0.127 S 
ATOM    102  O   UNL A   1      44.172  26.826  39.442  1.00  0.00    -0.237 OA
ATOM    103  O   UNL A   1      44.876  25.082  37.852  1.00  0.00    -0.237 OA
ATOM    104  O   UNL A   1      46.551  26.215  39.248  1.00  0.00    -0.744 OA
ENDBRANCH  98 101
ENDBRANCH  71  94
ENDBRANCH  45  46
ENDBRANCH  37  40
ENDBRANCH  35  36
ENDBRANCH  34  35
ENDBRANCH   1  34
TORSDOF 18
ENDMDL
MODEL 2
REMARK VINA RESULT:     -12.7      3.602      8.135
REMARK SMILES C[C@H]1CS(=O)(=O)N(c2cccc(C(=O)Nc3ccc(O)c(C(=O)NCCCCNC(=O)c4ccc(-c5c6nc(c(-c7cccc(S(=O)(=O)[O-])c7F)c7ccc([nH]7)c(-c7cccc(S(=O)(=O)[O-])c7F)c7nc(c(-c8cccc(S(=O)(=O)[O-])c8F)c8ccc5[nH]8)C=C7)C=C6)cc4)c3)c2)C1=O
REMARK SMILES IDX 26 1 25 2 24 3 22 4 23 5 21 7 16 8 17 9 95 10 18 11 19 12
REMARK SMILES IDX 15 13 13 14 14 15 12 17 8 18 9 19 96 20 10 21 11 22 7 23
REMARK SMILES IDX 1 24 2 25 3 26 97 27 4 28 98 29 5 30 6 31 20 32 27 34 28 35
REMARK SMILES IDX 29 36 30 37 31 39 32 40 33 41 94 42 34 43 93 44 35 45 36 46
REMARK SMILES IDX 37 47 87 48 38 49 92 50 86 51 88 52 39 53 91 54 85 55 84 56
REMARK SMILES IDX 40 58 72 59 52 60 71 61 53 62 56 63 70 64 89 65 54 66 55 67
REMARK SMILES IDX 69 69 90 70 57 71 41 72 42 73 50 74 43 75 45 76 51 77 44 78
REMARK SMILES IDX 46 79 47 80 48 81 49 82 73 83 74 84 82 85 75 86 77 87 83 88
REMARK SMILES IDX 76 89 78 90 79 91 80 92 81 93 58 94 59 95 67 96 60 97 62 98
REMARK SMILES IDX 68 99 61 100 63 101 64 102 65 103 66 104
REMARK H PARENT 24 6 15 16 20 33 29 38 88 57 56 68
REMARK Flexibility Score: inf
ROOT
ATOM      1  C   UNL A   1      32.505  29.491  27.255  1.00  0.00     0.023 C 
ENDROOT
BRANCH   1   2
ATOM      2  C   UNL A   1      31.889  30.233  26.081  1.00  0.00     0.116 C 
BRANCH   2   3
ATOM      3  N   UNL A   1      32.471  29.800  24.815  1.00  0.00    -0.352 N 
ATOM      4  C   UNL A   1      32.195  28.845  23.868  1.00  0.00     0.255 C 
ATOM      5  O   UNL A   1      32.897  28.850  22.850  1.00  0.00    -0.269 OA
ATOM      6  H   UNL A   1      33.267  30.329  24.578  1.00  0.00     0.163 HD
BRANCH   4   7
ATOM      7  C   UNL A   1      31.058  27.886  23.899  1.00  0.00     0.083 A 
ATOM      8  C   UNL A   1      29.926  26.074  25.004  1.00  0.00     0.042 A 
ATOM      9  C   UNL A   1      28.733  26.356  24.350  1.00  0.00     0.030 A 
ATOM     10  C   UNL A   1      31.104  26.702  24.618  1.00  0.00     0.043 A 
ATOM     11  C   UNL A   1      28.692  27.438  23.477  1.00  0.00     0.049 A 
ATOM     12  C   UNL A   1      29.828  28.235  23.308  1.00  0.00     0.128 A 
BRANCH   8  13
ATOM     13  N   UNL A   1      29.910  25.244  26.125  1.00  0.00    -0.322 N 
ATOM     14  C   UNL A   1      30.376  23.946  26.270  1.00  0.00     0.255 C 
ATOM     15  O   UNL A   1      30.008  23.332  27.275  1.00  0.00    -0.269 OA
ATOM     16  H   UNL A   1      29.507  25.638  26.933  1.00  0.00     0.170 HD
BRANCH  14  17
ATOM     17  C   UNL A   1      31.367  23.271  25.342  1.00  0.00     0.042 A 
ATOM     18  C   UNL A   1      33.535  22.280  24.715  1.00  0.00     0.061 A 
ATOM     19  C   UNL A   1      33.052  22.065  23.422  1.00  0.00     0.027 A 
ATOM     20  C   UNL A   1      32.655  22.806  25.685  1.00  0.00     0.041 A 
ATOM     21  C   UNL A   1      31.753  22.436  23.079  1.00  0.00     0.003 A 
ATOM     22  C   UNL A   1      30.932  23.059  24.022  1.00  0.00     0.014 A 
BRANCH  18  23
ATOM     23  N   UNL A   1      34.938  22.092  24.969  1.00  0.00    -0.207 N 
ATOM     24  C   UNL A   1      37.677  19.681  24.653  1.00  0.00     0.019 C 
ATOM     25  C   UNL A   1      36.996  20.851  25.354  1.00  0.00     0.094 C 
ATOM     26  C   UNL A   1      37.464  22.202  24.814  1.00  0.00     0.173 C 
ATOM     27  C   UNL A   1      35.483  20.803  25.201  1.00  0.00     0.244 C 
ATOM     28  S   UNL A   1      36.075  23.314  24.925  1.00  0.00     0.242 S 
ATOM     29  O   UNL A   1      34.837  19.769  25.315  1.00  0.00    -0.273 OA
ATOM     30  O   UNL A   1      36.099  23.970  26.209  1.00  0.00    -0.206 OA
ATOM     31  O   UNL A   1      35.975  24.057  23.685  1.00  0.00    -0.206 OA
ENDBRANCH  18  23
ENDBRANCH  14  17
ENDBRANCH   8  13
BRANCH  12  32
ATOM     32  O   UNL A   1      29.639  29.377  22.570  1.00  0.00    -0.507 OA
ATOM     33  H   UNL A   1      29.516  30.198  23.004  1.00  0.00     0.293 HD
ENDBRANCH  12  32
ENDBRANCH   4   7
ENDBRANCH   2   3
ENDBRANCH   1   2
BRANCH   1  34
ATOM     34  C   UNL A   1      33.939  29.039  26.977  1.00  0.00     0.023 C 
BRANCH  34  35
ATOM     35  C   UNL A   1      35.026  30.021  27.414  1.00  0.00     0.116 C 
BRANCH  35  36
ATOM     36  N   UNL A   1      34.510  31.160  28.165  1.00  0.00    -0.352 N 
ATOM     37  C   UNL A   1      34.996  31.715  29.324  1.00  0.00     0.251 C 
ATOM     38  H   UNL A   1      33.707  31.588  27.791  1.00  0.00     0.163 HD
ATOM     39  O   UNL A   1      34.380  32.608  29.896  1.00  0.00    -0.269 OA
BRANCH  37  40
ATOM     40  C   UNL A   1      36.261  31.200  29.884  1.00  0.00     0.039 A 
ATOM     41  C   UNL A   1      36.221  30.129  30.779  1.00  0.00     0.014 A 
ATOM     42  C   UNL A   1      37.482  31.735  29.467  1.00  0.00     0.014 A 
ATOM     43  C   UNL A   1      37.416  29.540  31.196  1.00  0.00     0.010 A 
ATOM     44  C   UNL A   1      38.665  31.098  29.823  1.00  0.00     0.010 A 
ATOM     45  C   UNL A   1      38.644  29.991  30.687  1.00  0.00    -0.014 A 
BRANCH  45  46
ATOM     46  C   UNL A   1      39.925  29.318  31.024  1.00  0.00     0.031 A 
ATOM     47  C   UNL A   1      40.742  29.806  32.189  1.00  0.00     0.074 A 
ATOM     48  C   UNL A   1      40.401  28.344  30.222  1.00  0.00     0.049 A 
ATOM     49  N   UNL A   1      41.936  29.435  32.571  1.00  0.00    -0.248 NA
ATOM     50  C   UNL A   1      40.152  30.874  33.014  1.00  0.00     0.031 C 
ATOM     51  C   UNL A   1      39.731  27.824  29.029  1.00  0.00     0.029 A 
ATOM     52  N   UNL A   1      41.580  27.640  30.272  1.00  0.00    -0.354 N 
ATOM     53  C   UNL A   1      42.255  30.245  33.654  1.00  0.00     0.074 A 
ATOM     54  C   UNL A   1      41.145  31.151  33.847  1.00  0.00     0.031 C 
ATOM     55  C   UNL A   1      40.506  26.888  28.459  1.00  0.00     0.029 A 
ATOM     56  C   UNL A   1      41.746  26.769  29.219  1.00  0.00     0.049 A 
ATOM     57  H   UNL A   1      42.243  27.748  30.991  1.00  0.00     0.167 HD
ATOM     58  C   UNL A   1      43.361  30.219  34.435  1.00  0.00     0.034 A 
ATOM     59  C   UNL A   1      42.788  25.979  28.891  1.00  0.00     0.034 A 
ATOM     60  C   UNL A   1      44.447  29.294  34.258  1.00  0.00     0.049 A 
ATOM     61  C   UNL A   1      44.005  25.966  29.779  1.00  0.00     0.074 A 
ATOM     62  C   UNL A   1      45.578  29.140  35.040  1.00  0.00     0.029 A 
ATOM     63  N   UNL A   1      44.544  28.375  33.225  1.00  0.00    -0.354 N 
ATOM     64  N   UNL A   1      44.231  26.646  30.877  1.00  0.00    -0.248 NA
ATOM     65  C   UNL A   1      45.098  25.057  29.402  1.00  0.00     0.031 C 
ATOM     66  C   UNL A   1      46.376  28.151  34.460  1.00  0.00     0.029 A 
ATOM     67  C   UNL A   1      45.720  27.657  33.343  1.00  0.00     0.049 A 
ATOM     68  H   UNL A   1      43.875  28.252  32.515  1.00  0.00     0.167 HD
ATOM     69  C   UNL A   1      45.464  26.211  31.347  1.00  0.00     0.074 A 
ATOM     70  C   UNL A   1      45.936  25.206  30.420  1.00  0.00     0.031 C 
ATOM     71  C   UNL A   1      46.147  26.613  32.448  1.00  0.00     0.034 A 
BRANCH  58  72
ATOM     72  C   UNL A   1      43.435  31.196  35.579  1.00  0.00     0.023 A 
ATOM     73  C   UNL A   1      42.948  30.824  36.849  1.00  0.00     0.012 A 
ATOM     74  C   UNL A   1      44.041  32.458  35.415  1.00  0.00     0.148 A 
ATOM     75  C   UNL A   1      43.028  31.704  37.927  1.00  0.00     0.002 A 
ATOM     76  C   UNL A   1      44.162  33.309  36.506  1.00  0.00     0.091 A 
ATOM     77  F   UNL A   1      44.481  32.802  34.197  1.00  0.00    -0.205 F 
ATOM     78  C   UNL A   1      43.644  32.940  37.759  1.00  0.00     0.022 A 
BRANCH  76  79
ATOM     79  S   UNL A   1      45.012  34.889  36.414  1.00  0.00     0.127 S 
ATOM     80  O   UNL A   1      46.347  34.481  35.982  1.00  0.00    -0.237 OA
ATOM     81  O   UNL A   1      44.231  35.598  35.399  1.00  0.00    -0.237 OA
ATOM     82  O   UNL A   1      44.938  35.465  37.750  1.00  0.00    -0.744 OA
ENDBRANCH  76  79
ENDBRANCH  58  72
BRANCH  59  83
ATOM     83  C   UNL A   1      42.713  25.097  27.691  1.00  0.00     0.023 A 
ATOM     84  C   UNL A   1      43.187  25.574  26.452  1.00  0.00     0.012 A 
ATOM     85  C   UNL A   1      42.189  23.793  27.769  1.00  0.00     0.148 A 
ATOM     86  C   UNL A   1      43.104  24.782  25.305  1.00  0.00     0.002 A 
ATOM     87  C   UNL A   1      42.161  22.989  26.635  1.00  0.00     0.091 A 
ATOM     88  F   UNL A   1      41.736  23.361  28.954  1.00  0.00    -0.205 F 
ATOM     89  C   UNL A   1      42.599  23.488  25.398  1.00  0.00     0.022 A 
BRANCH  87  90
ATOM     90  S   UNL A   1      41.647  21.268  26.685  1.00  0.00     0.127 S 
ATOM     91  O   UNL A   1      42.422  20.758  27.813  1.00  0.00    -0.237 OA
ATOM     92  O   UNL A   1      40.210  21.390  26.928  1.00  0.00    -0.237 OA
ATOM     93  O   UNL A   1      41.992  20.716  25.382  1.00  0.00    -0.744 OA
ENDBRANCH  87  90
ENDBRANCH  59  83
BRANCH  71  94
ATOM     94  C   UNL A   1      47.448  25.926  32.765  1.00  0.00     0.023 A 
ATOM     95  C   UNL A   1      48.665  26.462  32.300  1.00  0.00     0.012 A 
ATOM     96  C   UNL A   1      47.465  24.809  33.624  1.00  0.00     0.148 A 
ATOM     97  C   UNL A   1      49.878  25.882  32.670  1.00  0.00     0.002 A 
ATOM     98  C   UNL A   1      48.679  24.270  34.030  1.00  0.00     0.091 A 
ATOM     99  F   UNL A   1      46.293  24.307  34.040  1.00  0.00    -0.205 F 
ATOM    100  C   UNL A   1      49.886  24.797  33.545  1.00  0.00     0.022 A 
BRANCH  98 101
ATOM    101  S   UNL A   1      48.791  22.942  35.234  1.00  0.00     0.127 S 
ATOM    102  O   UNL A   1      48.277  23.588  36.440  1.00  0.00    -0.237 OA
ATOM    103  O   UNL A   1      47.904  21.931  34.657  1.00  0.00    -0.237 OA
ATOM    104  O   UNL A   1      50.195  22.558  35.286  1.00  0.00    -0.744 OA
ENDBRANCH  98 101
ENDBRANCH  71  94
ENDBRANCH  45  46
ENDBRANCH  37  40
ENDBRANCH  35  36
ENDBRANCH  34  35
ENDBRANCH   1  34
TORSDOF 18
ENDMDL
MODEL 3
REMARK VINA RESULT:     -12.6      3.758      8.532
REMARK SMILES C[C@H]1CS(=O)(=O)N(c2cccc(C(=O)Nc3ccc(O)c(C(=O)NCCCCNC(=O)c4ccc(-c5c6nc(c(-c7cccc(S(=O)(=O)[O-])c7F)c7ccc([nH]7)c(-c7cccc(S(=O)(=O)[O-])c7F)c7nc(c(-c8cccc(S(=O)(=O)[O-])c8F)c8ccc5[nH]8)C=C7)C=C6)cc4)c3)c2)C1=O
REMARK SMILES IDX 26 1 25 2 24 3 22 4 23 5 21 7 16 8 17 9 95 10 18 11 19 12
REMARK SMILES IDX 15 13 13 14 14 15 12 17 8 18 9 19 96 20 10 21 11 22 7 23
REMARK SMILES IDX 1 24 2 25 3 26 97 27 4 28 98 29 5 30 6 31 20 32 27 34 28 35
REMARK SMILES IDX 29 36 30 37 31 39 32 40 33 41 94 42 34 43 93 44 35 45 36 46
REMARK SMILES IDX 37 47 87 48 38 49 92 50 86 51 88 52 39 53 91 54 85 55 84 56
REMARK SMILES IDX 40 58 72 59 52 60 71 61 53 62 56 63 70 64 89 65 54 66 55 67
REMARK SMILES IDX 69 69 90 70 57 71 41 72 42 73 50 74 43 75 45 76 51 77 44 78
REMARK SMILES IDX 46 79 47 80 48 81 49 82 73 83 74 84 82 85 75 86 77 87 83 88
REMARK SMILES IDX 76 89 78 90 79 91 80 92 81 93 58 94 59 95 67 96 60 97 62 98
REMARK SMILES IDX 68 99 61 100 63 101 64 102 65 103 66 104
REMARK H PARENT 24 6 15 16 20 33 29 38 88 57 56 68
REMARK Flexibility Score: inf
ROOT
ATOM      1  C   UNL A   1      32.864  30.778  27.013  1.00  0.00     0.023 C 
ENDROOT
BRANCH   1   2
ATOM      2  C   UNL A   1      31.786  30.064  26.215  1.00  0.00     0.116 C 
BRANCH   2   3
ATOM      3  N   UNL A   1      32.200  29.855  24.831  1.00  0.00    -0.352 N 
ATOM      4  C   UNL A   1      31.851  29.013  23.804  1.00  0.00     0.255 C 
ATOM      5  O   UNL A   1      32.390  29.214  22.711  1.00  0.00    -0.269 OA
ATOM      6  H   UNL A   1      32.913  30.479  24.565  1.00  0.00     0.163 HD
BRANCH   4   7
ATOM      7  C   UNL A   1      30.800  27.961  23.856  1.00  0.00     0.083 A 
ATOM      8  C   UNL A   1      29.833  26.074  24.990  1.00  0.00     0.042 A 
ATOM      9  C   UNL A   1      28.616  26.245  24.342  1.00  0.00     0.030 A 
ATOM     10  C   UNL A   1      30.951  26.794  24.588  1.00  0.00     0.043 A 
ATOM     11  C   UNL A   1      28.477  27.308  23.457  1.00  0.00     0.049 A 
ATOM     12  C   UNL A   1      29.540  28.197  23.270  1.00  0.00     0.128 A 
BRANCH   8  13
ATOM     13  N   UNL A   1      29.895  25.259  26.121  1.00  0.00    -0.322 N 
ATOM     14  C   UNL A   1      30.398  23.974  26.258  1.00  0.00     0.255 C 
ATOM     15  O   UNL A   1      30.097  23.365  27.289  1.00  0.00    -0.269 OA
ATOM     16  H   UNL A   1      29.524  25.654  26.944  1.00  0.00     0.170 HD
BRANCH  14  17
ATOM     17  C   UNL A   1      31.356  23.308  25.288  1.00  0.00     0.042 A 
ATOM     18  C   UNL A   1      33.502  22.330  24.572  1.00  0.00     0.061 A 
ATOM     19  C   UNL A   1      32.970  22.122  23.296  1.00  0.00     0.027 A 
ATOM     20  C   UNL A   1      32.657  22.846  25.578  1.00  0.00     0.041 A 
ATOM     21  C   UNL A   1      31.657  22.492  23.006  1.00  0.00     0.003 A 
ATOM     22  C   UNL A   1      30.871  23.105  23.984  1.00  0.00     0.014 A 
BRANCH  18  23
ATOM     23  N   UNL A   1      34.913  22.145  24.771  1.00  0.00    -0.207 N 
ATOM     24  C   UNL A   1      37.573  19.627  24.743  1.00  0.00     0.019 C 
ATOM     25  C   UNL A   1      36.965  20.928  25.254  1.00  0.00     0.094 C 
ATOM     26  C   UNL A   1      37.426  22.140  24.446  1.00  0.00     0.173 C 
ATOM     27  C   UNL A   1      35.445  20.904  25.205  1.00  0.00     0.244 C 
ATOM     28  S   UNL A   1      36.072  23.300  24.432  1.00  0.00     0.242 S 
ATOM     29  O   UNL A   1      34.785  19.931  25.548  1.00  0.00    -0.273 OA
ATOM     30  O   UNL A   1      36.194  24.180  25.568  1.00  0.00    -0.206 OA
ATOM     31  O   UNL A   1      35.907  23.805  23.084  1.00  0.00    -0.206 OA
ENDBRANCH  18  23
ENDBRANCH  14  17
ENDBRANCH   8  13
BRANCH  12  32
ATOM     32  O   UNL A   1      29.251  29.309  22.521  1.00  0.00    -0.507 OA
ATOM     33  H   UNL A   1      28.988  29.215  21.626  1.00  0.00     0.293 HD
ENDBRANCH  12  32
ENDBRANCH   4   7
ENDBRANCH   2   3
ENDBRANCH   1   2
BRANCH   1  34
ATOM     34  C   UNL A   1      34.119  29.924  27.200  1.00  0.00     0.023 C 
BRANCH  34  35
ATOM     35  C   UNL A   1      35.169  30.510  28.145  1.00  0.00     0.116 C 
BRANCH  35  36
ATOM     36  N   UNL A   1      34.628  31.495  29.073  1.00  0.00    -0.352 N 
ATOM     37  C   UNL A   1      35.151  31.925  30.269  1.00  0.00     0.251 C 
ATOM     38  H   UNL A   1      33.775  31.907  28.808  1.00  0.00     0.163 HD
ATOM     39  O   UNL A   1      34.514  32.683  30.993  1.00  0.00    -0.269 OA
BRANCH  37  40
ATOM     40  C   UNL A   1      36.481  31.437  30.681  1.00  0.00     0.039 A 
ATOM     41  C   UNL A   1      36.568  30.310  31.501  1.00  0.00     0.014 A 
ATOM     42  C   UNL A   1      37.636  32.057  30.196  1.00  0.00     0.014 A 
ATOM     43  C   UNL A   1      37.820  29.755  31.772  1.00  0.00     0.010 A 
ATOM     44  C   UNL A   1      38.872  31.456  30.403  1.00  0.00     0.010 A 
ATOM     45  C   UNL A   1      38.977  30.297  31.189  1.00  0.00    -0.014 A 
BRANCH  45  46
ATOM     46  C   UNL A   1      40.310  29.666  31.367  1.00  0.00     0.031 A 
ATOM     47  C   UNL A   1      41.247  30.185  32.423  1.00  0.00     0.074 A 
ATOM     48  C   UNL A   1      40.717  28.706  30.512  1.00  0.00     0.049 A 
ATOM     49  N   UNL A   1      42.490  29.853  32.657  1.00  0.00    -0.248 NA
ATOM     50  C   UNL A   1      40.728  31.235  33.315  1.00  0.00     0.031 C 
ATOM     51  C   UNL A   1      39.922  28.160  29.409  1.00  0.00     0.029 A 
ATOM     52  N   UNL A   1      41.914  28.040  30.417  1.00  0.00    -0.354 N 
ATOM     53  C   UNL A   1      42.912  30.676  33.693  1.00  0.00     0.074 A 
ATOM     54  C   UNL A   1      41.806  31.547  34.021  1.00  0.00     0.031 C 
ATOM     55  C   UNL A   1      40.653  27.248  28.749  1.00  0.00     0.029 A 
ATOM     56  C   UNL A   1      41.980  27.171  29.351  1.00  0.00     0.049 A 
ATOM     57  H   UNL A   1      42.656  28.172  31.050  1.00  0.00     0.167 HD
ATOM     58  C   UNL A   1      44.106  30.689  34.333  1.00  0.00     0.034 A 
ATOM     59  C   UNL A   1      42.999  26.414  28.898  1.00  0.00     0.034 A 
ATOM     60  C   UNL A   1      45.191  29.799  34.025  1.00  0.00     0.049 A 
ATOM     61  C   UNL A   1      44.314  26.444  29.631  1.00  0.00     0.074 A 
ATOM     62  C   UNL A   1      46.414  29.684  34.663  1.00  0.00     0.029 A 
ATOM     63  N   UNL A   1      45.191  28.881  32.987  1.00  0.00    -0.354 N 
ATOM     64  N   UNL A   1      44.650  27.134  30.694  1.00  0.00    -0.248 NA
ATOM     65  C   UNL A   1      45.382  25.569  29.123  1.00  0.00     0.031 C 
ATOM     66  C   UNL A   1      47.167  28.719  33.989  1.00  0.00     0.029 A 
ATOM     67  C   UNL A   1      46.396  28.202  32.960  1.00  0.00     0.049 A 
ATOM     68  H   UNL A   1      44.445  28.733  32.363  1.00  0.00     0.167 HD
ATOM     69  C   UNL A   1      45.946  26.741  31.009  1.00  0.00     0.074 A 
ATOM     70  C   UNL A   1      46.333  25.749  30.030  1.00  0.00     0.031 C 
ATOM     71  C   UNL A   1      46.744  27.168  32.019  1.00  0.00     0.034 A 
BRANCH  58  72
ATOM     72  C   UNL A   1      44.287  31.672  35.460  1.00  0.00     0.023 A 
ATOM     73  C   UNL A   1      44.845  32.941  35.199  1.00  0.00     0.012 A 
ATOM     74  C   UNL A   1      43.849  31.367  36.764  1.00  0.00     0.148 A 
ATOM     75  C   UNL A   1      45.000  33.874  36.222  1.00  0.00     0.002 A 
ATOM     76  C   UNL A   1      43.960  32.321  37.768  1.00  0.00     0.091 A 
ATOM     77  F   UNL A   1      43.338  30.150  36.998  1.00  0.00    -0.205 F 
ATOM     78  C   UNL A   1      44.548  33.569  37.502  1.00  0.00     0.022 A 
BRANCH  76  79
ATOM     79  S   UNL A   1      43.334  32.057  39.430  1.00  0.00     0.127 S 
ATOM     80  O   UNL A   1      43.652  33.332  40.071  1.00  0.00    -0.237 OA
ATOM     81  O   UNL A   1      41.908  31.834  39.189  1.00  0.00    -0.237 OA
ATOM     82  O   UNL A   1      44.051  30.902  39.953  1.00  0.00    -0.744 OA
ENDBRANCH  76  79
ENDBRANCH  58  72
BRANCH  59  83
ATOM     83  C   UNL A   1      42.806  25.527  27.715  1.00  0.00     0.023 A 
ATOM     84  C   UNL A   1      43.193  25.982  26.438  1.00  0.00     0.012 A 
ATOM     85  C   UNL A   1      42.256  24.237  27.846  1.00  0.00     0.148 A 
ATOM     86  C   UNL A   1      42.999  25.186  25.309  1.00  0.00     0.002 A 
ATOM     87  C   UNL A   1      42.118  23.427  26.725  1.00  0.00     0.091 A 
ATOM     88  F   UNL A   1      41.887  23.825  29.067  1.00  0.00    -0.205 F 
ATOM     89  C   UNL A   1      42.470  23.906  25.453  1.00  0.00     0.022 A 
BRANCH  87  90
ATOM     90  S   UNL A   1      41.566  21.721  26.831  1.00  0.00     0.127 S 
ATOM     91  O   UNL A   1      41.986  21.190  25.536  1.00  0.00    -0.237 OA
ATOM     92  O   UNL A   1      42.329  21.228  27.977  1.00  0.00    -0.237 OA
ATOM     93  O   UNL A   1      40.127  21.785  27.049  1.00  0.00    -0.744 OA
ENDBRANCH  87  90
ENDBRANCH  59  83
BRANCH  71  94
ATOM     94  C   UNL A   1      48.096  26.525  32.174  1.00  0.00     0.023 A 
ATOM     95  C   UNL A   1      48.253  25.394  32.999  1.00  0.00     0.012 A 
ATOM     96  C   UNL A   1      49.186  26.982  31.406  1.00  0.00     0.148 A 
ATOM     97  C   UNL A   1      49.483  24.741  33.072  1.00  0.00     0.002 A 
ATOM     98  C   UNL A   1      50.392  26.294  31.443  1.00  0.00     0.091 A 
ATOM     99  F   UNL A   1      49.016  28.070  30.642  1.00  0.00    -0.205 F 
ATOM    100  C   UNL A   1      50.546  25.180  32.284  1.00  0.00     0.022 A 
BRANCH  98 101
ATOM    101  S   UNL A   1      51.781  26.722  30.389  1.00  0.00     0.127 S 
ATOM    102  O   UNL A   1      52.840  25.874  30.932  1.00  0.00    -0.237 OA
ATOM    103  O   UNL A   1      51.296  26.325  29.067  1.00  0.00    -0.237 OA
ATOM    104  O   UNL A   1      51.989  28.155  30.554  1.00  0.00    -0.744 OA
ENDBRANCH  98 101
ENDBRANCH  71  94
ENDBRANCH  45  46
ENDBRANCH  37  40
ENDBRANCH  35  36
ENDBRANCH  34  35
ENDBRANCH   1  34
TORSDOF 18
ENDMDL
