MODEL 1
REMARK VINA RESULT:     -13.6      0.000      0.000
REMARK SMILES O=C(NCCCCNC(=O)c1ccc(-c2c3nc(c(-c4cccc(S(=O)(=O)[O-])c4F)c4ccc([nH]4)c(-c4cccc(S(=O)(=O)[O-])c4F)c4nc(c(-c5cccc(S(=O)(=O)[O-])c5F)c5ccc2[nH]5)C=C4)C=C3)cc1)C1=Cc2cc(S(F)(F)(F)(F)F)cc(Br)c2O[C@@H]1C(F)(F)F
REMARK SMILES IDX 6 1 5 2 4 3 3 4 1 5 2 6 74 8 75 9 90 10 76 11 89 12 77 13
REMARK SMILES IDX 88 14 78 15 86 16 85 17 87 18 91 19 92 20 93 21 94 22 79 23
REMARK SMILES IDX 80 24 81 25 82 26 83 27 84 28 7 29 8 30 9 31 10 33 11 34
REMARK SMILES IDX 12 35 73 36 13 37 72 38 14 39 15 40 16 41 66 42 17 43 71 44
REMARK SMILES IDX 65 45 67 46 18 47 70 48 64 49 63 50 19 52 51 53 31 54 50 55
REMARK SMILES IDX 32 56 35 57 49 58 68 59 33 60 34 61 48 63 69 64 36 65 20 66
REMARK SMILES IDX 21 67 29 68 22 69 24 70 30 71 23 72 25 73 26 74 27 75 28 76
REMARK SMILES IDX 52 77 53 78 61 79 54 80 56 81 62 82 55 83 57 84 58 85 59 86
REMARK SMILES IDX 60 87 37 88 38 89 46 90 39 91 41 92 47 93 40 94 42 95 43 96
REMARK SMILES IDX 44 97 45 98
REMARK H PARENT 3 7 8 32 67 51 35 62
REMARK Flexibility Score: inf
ROOT
ATOM      1  C   UNL A   1      34.417  21.956  26.099  1.00  0.00     0.023 C 
ENDROOT
BRANCH   1   2
ATOM      2  C   UNL A   1      33.752  23.032  26.940  1.00  0.00     0.023 C 
BRANCH   2   3
ATOM      3  C   UNL A   1      33.396  24.217  26.057  1.00  0.00     0.116 C 
BRANCH   3   4
ATOM      4  N   UNL A   1      32.182  24.867  26.573  1.00  0.00    -0.352 N 
ATOM      5  O   UNL A   1      30.050  25.799  26.098  1.00  0.00    -0.270 OA
ATOM      6  C   UNL A   1      31.098  25.238  25.652  1.00  0.00     0.251 C 
ATOM      7  H   UNL A   1      32.096  25.053  27.536  1.00  0.00     0.163 HD
BRANCH   6   8
ATOM      8  C   UNL A   1      31.232  24.949  24.166  1.00  0.00     0.067 C 
ATOM      9  C   UNL A   1      31.161  25.967  23.265  1.00  0.00     0.025 C 
ATOM     10  C   UNL A   1      31.442  23.522  23.685  1.00  0.00     0.314 C 
ATOM     11  C   UNL A   1      30.949  27.393  23.746  1.00  0.00     0.020 A 
ATOM     12  O   UNL A   1      32.538  27.127  25.494  1.00  0.00    -0.474 OA
ATOM     13  C   UNL A   1      29.929  28.086  23.115  1.00  0.00     0.036 A 
ATOM     14  C   UNL A   1      31.610  27.922  24.770  1.00  0.00     0.142 A 
ATOM     15  C   UNL A   1      29.871  29.458  23.456  1.00  0.00     0.109 A 
ATOM     16  C   UNL A   1      31.405  29.230  25.135  1.00  0.00     0.062 A 
ATOM     17  C   UNL A   1      30.453  29.991  24.514  1.00  0.00     0.044 A 
ATOM     18  Br  UNL A   1      32.490  30.018  26.563  1.00  0.00    -0.047 Br
BRANCH  10  19
ATOM     19  C   UNL A   1      32.756  23.433  22.925  1.00  0.00     0.429 C 
ATOM     20  F   UNL A   1      33.325  22.254  23.162  1.00  0.00    -0.167 F 
ATOM     21  F   UNL A   1      32.523  23.558  21.621  1.00  0.00    -0.167 F 
ATOM     22  F   UNL A   1      33.567  24.406  23.326  1.00  0.00    -0.167 F 
ENDBRANCH  10  19
BRANCH  15  23
ATOM     23  S   UNL A   1      28.933  30.556  22.365  1.00  0.00     0.310 S 
ATOM     24  F   UNL A   1      28.145  29.334  21.734  1.00  0.00    -0.094 F 
ATOM     25  F   UNL A   1      30.019  30.348  21.243  1.00  0.00    -0.094 F 
ATOM     26  F   UNL A   1      28.109  31.490  21.434  1.00  0.00    -0.094 F 
ATOM     27  F   UNL A   1      27.788  30.641  23.450  1.00  0.00    -0.094 F 
ATOM     28  F   UNL A   1      29.703  29.521  23.279  1.00  0.00    -0.094 F 
ENDBRANCH  15  23
ENDBRANCH   6   8
ENDBRANCH   3   4
ENDBRANCH   2   3
ENDBRANCH   1   2
BRANCH   1  29
ATOM     29  C   UNL A   1      35.911  22.225  26.021  1.00  0.00     0.116 C 
BRANCH  29  30
ATOM     30  N   UNL A   1      36.600  21.026  25.521  1.00  0.00    -0.352 N 
ATOM     31  C   UNL A   1      38.067  20.950  25.564  1.00  0.00     0.251 C 
ATOM     32  H   UNL A   1      36.078  20.275  25.158  1.00  0.00     0.163 HD
ATOM     33  O   UNL A   1      38.663  19.914  25.131  1.00  0.00    -0.269 OA
BRANCH  31  34
ATOM     34  C   UNL A   1      38.873  22.111  26.125  1.00  0.00     0.039 A 
ATOM     35  C   UNL A   1      40.001  21.936  26.909  1.00  0.00     0.014 A 
ATOM     36  C   UNL A   1      38.494  23.319  25.723  1.00  0.00     0.014 A 
ATOM     37  C   UNL A   1      40.507  23.136  27.462  1.00  0.00     0.010 A 
ATOM     38  C   UNL A   1      39.123  24.443  26.199  1.00  0.00     0.010 A 
ATOM     39  C   UNL A   1      40.208  24.345  27.024  1.00  0.00    -0.014 A 
BRANCH  39  40
ATOM     40  C   UNL A   1      41.026  25.565  27.419  1.00  0.00     0.031 A 
ATOM     41  C   UNL A   1      40.325  26.543  28.126  1.00  0.00     0.074 A 
ATOM     42  C   UNL A   1      42.342  25.701  27.009  1.00  0.00     0.049 A 
ATOM     43  N   UNL A   1      40.778  27.723  28.551  1.00  0.00    -0.248 NA
ATOM     44  C   UNL A   1      38.917  26.415  28.532  1.00  0.00     0.031 C 
ATOM     45  C   UNL A   1      43.059  24.715  26.303  1.00  0.00     0.029 A 
ATOM     46  N   UNL A   1      43.180  26.778  27.198  1.00  0.00    -0.354 N 
ATOM     47  C   UNL A   1      39.818  28.376  29.208  1.00  0.00     0.074 A 
ATOM     48  C   UNL A   1      38.606  27.547  29.201  1.00  0.00     0.031 C 
ATOM     49  C   UNL A   1      44.307  25.195  26.060  1.00  0.00     0.029 A 
ATOM     50  C   UNL A   1      44.391  26.489  26.611  1.00  0.00     0.049 A 
ATOM     51  H   UNL A   1      42.951  27.610  27.673  1.00  0.00     0.167 HD
ATOM     52  C   UNL A   1      39.908  29.630  29.816  1.00  0.00     0.034 A 
ATOM     53  C   UNL A   1      45.517  27.295  26.547  1.00  0.00     0.034 A 
ATOM     54  C   UNL A   1      41.047  30.418  29.789  1.00  0.00     0.049 A 
ATOM     55  C   UNL A   1      45.587  28.574  27.104  1.00  0.00     0.074 A 
ATOM     56  C   UNL A   1      41.155  31.680  30.402  1.00  0.00     0.029 A 
ATOM     57  N   UNL A   1      42.251  30.139  29.180  1.00  0.00    -0.354 N 
ATOM     58  N   UNL A   1      44.640  29.211  27.795  1.00  0.00    -0.248 NA
ATOM     59  C   UNL A   1      46.763  29.450  27.014  1.00  0.00     0.031 C 
ATOM     60  C   UNL A   1      42.404  32.162  30.160  1.00  0.00     0.029 A 
ATOM     61  C   UNL A   1      43.096  31.207  29.389  1.00  0.00     0.049 A 
ATOM     62  H   UNL A   1      42.469  29.319  28.681  1.00  0.00     0.167 HD
ATOM     63  C   UNL A   1      45.081  30.408  28.184  1.00  0.00     0.074 A 
ATOM     64  C   UNL A   1      46.451  30.582  27.680  1.00  0.00     0.031 C 
ATOM     65  C   UNL A   1      44.398  31.361  28.941  1.00  0.00     0.034 A 
BRANCH  52  66
ATOM     66  C   UNL A   1      38.685  30.160  30.548  1.00  0.00     0.023 A 
ATOM     67  C   UNL A   1      38.470  29.945  31.899  1.00  0.00     0.012 A 
ATOM     68  C   UNL A   1      37.903  30.973  29.847  1.00  0.00     0.148 A 
ATOM     69  C   UNL A   1      37.218  30.414  32.362  1.00  0.00     0.002 A 
ATOM     70  C   UNL A   1      36.766  31.504  30.406  1.00  0.00     0.091 A 
ATOM     71  F   UNL A   1      38.223  31.276  28.592  1.00  0.00    -0.205 F 
ATOM     72  C   UNL A   1      36.460  31.284  31.720  1.00  0.00     0.022 A 
BRANCH  70  73
ATOM     73  S   UNL A   1      35.657  32.509  29.389  1.00  0.00     0.127 S 
ATOM     74  O   UNL A   1      34.330  32.709  30.126  1.00  0.00    -0.237 OA
ATOM     75  O   UNL A   1      36.302  33.871  29.122  1.00  0.00    -0.237 OA
ATOM     76  O   UNL A   1      35.369  31.713  27.902  1.00  0.00    -0.744 OA
ENDBRANCH  70  73
ENDBRANCH  52  66
BRANCH  53  77
ATOM     77  C   UNL A   1      46.744  26.757  25.829  1.00  0.00     0.023 A 
ATOM     78  C   UNL A   1      47.672  26.007  26.532  1.00  0.00     0.012 A 
ATOM     79  C   UNL A   1      46.981  27.156  24.585  1.00  0.00     0.148 A 
ATOM     80  C   UNL A   1      48.953  25.970  25.933  1.00  0.00     0.002 A 
ATOM     81  C   UNL A   1      48.217  26.966  24.013  1.00  0.00     0.091 A 
ATOM     82  F   UNL A   1      46.015  27.743  23.886  1.00  0.00    -0.205 F 
ATOM     83  C   UNL A   1      49.200  26.284  24.674  1.00  0.00     0.022 A 
BRANCH  81  84
ATOM     84  S   UNL A   1      48.546  27.629  22.361  1.00  0.00     0.127 S 
ATOM     85  O   UNL A   1      47.412  28.575  21.956  1.00  0.00    -0.237 OA
ATOM     86  O   UNL A   1      49.870  28.396  22.374  1.00  0.00    -0.237 OA
ATOM     87  O   UNL A   1      48.644  26.342  21.240  1.00  0.00    -0.744 OA
ENDBRANCH  81  84
ENDBRANCH  53  77
BRANCH  65  88
ATOM     88  C   UNL A   1      45.128  32.647  29.297  1.00  0.00     0.023 A 
ATOM     89  C   UNL A   1      45.915  32.749  30.431  1.00  0.00     0.012 A 
ATOM     90  C   UNL A   1      45.036  33.648  28.429  1.00  0.00     0.148 A 
ATOM     91  C   UNL A   1      46.348  34.067  30.712  1.00  0.00     0.002 A 
ATOM     92  C   UNL A   1      45.599  34.870  28.709  1.00  0.00     0.091 A 
ATOM     93  F   UNL A   1      44.394  33.467  27.278  1.00  0.00    -0.205 F 
ATOM     94  C   UNL A   1      46.342  35.059  29.841  1.00  0.00     0.022 A 
BRANCH  92  95
ATOM     95  S   UNL A   1      45.353  36.248  27.562  1.00  0.00     0.127 S 
ATOM     96  O   UNL A   1      45.945  37.525  28.165  1.00  0.00    -0.237 OA
ATOM     97  O   UNL A   1      46.053  35.940  26.237  1.00  0.00    -0.237 OA
ATOM     98  O   UNL A   1      43.680  36.470  27.286  1.00  0.00    -0.744 OA
ENDBRANCH  92  95
ENDBRANCH  65  88
ENDBRANCH  39  40
ENDBRANCH  31  34
ENDBRANCH  29  30
ENDBRANCH   1  29
TORSDOF 16
ENDMDL
MODEL 2
REMARK VINA RESULT:     -13.6      2.172      3.046
REMARK SMILES O=C(NCCCCNC(=O)c1ccc(-c2c3nc(c(-c4cccc(S(=O)(=O)[O-])c4F)c4ccc([nH]4)c(-c4cccc(S(=O)(=O)[O-])c4F)c4nc(c(-c5cccc(S(=O)(=O)[O-])c5F)c5ccc2[nH]5)C=C4)C=C3)cc1)C1=Cc2cc(S(F)(F)(F)(F)F)cc(Br)c2O[C@@H]1C(F)(F)F
REMARK SMILES IDX 6 1 5 2 4 3 3 4 1 5 2 6 74 8 75 9 90 10 76 11 89 12 77 13
REMARK SMILES IDX 88 14 78 15 86 16 85 17 87 18 91 19 92 20 93 21 94 22 79 23
REMARK SMILES IDX 80 24 81 25 82 26 83 27 84 28 7 29 8 30 9 31 10 33 11 34
REMARK SMILES IDX 12 35 73 36 13 37 72 38 14 39 15 40 16 41 66 42 17 43 71 44
REMARK SMILES IDX 65 45 67 46 18 47 70 48 64 49 63 50 19 52 51 53 31 54 50 55
REMARK SMILES IDX 32 56 35 57 49 58 68 59 33 60 34 61 48 63 69 64 36 65 20 66
REMARK SMILES IDX 21 67 29 68 22 69 24 70 30 71 23 72 25 73 26 74 27 75 28 76
REMARK SMILES IDX 52 77 53 78 61 79 54 80 56 81 62 82 55 83 57 84 58 85 59 86
REMARK SMILES IDX 60 87 37 88 38 89 46 90 39 91 41 92 47 93 40 94 42 95 43 96
REMARK SMILES IDX 44 97 45 98
REMARK H PARENT 3 7 8 32 67 51 35 62
REMARK Flexibility Score: inf
ROOT
ATOM      1  C   UNL A   1      37.802  19.985  24.642  1.00  0.00     0.023 C 
ENDROOT
BRANCH   1   2
ATOM      2  C   UNL A   1      36.359  19.721  25.040  1.00  0.00     0.023 C 
BRANCH   2   3
ATOM      3  C   UNL A   1      35.726  21.013  25.534  1.00  0.00     0.116 C 
BRANCH   3   4
ATOM      4  N   UNL A   1      34.648  21.412  24.618  1.00  0.00    -0.352 N 
ATOM      5  O   UNL A   1      33.599  23.157  23.395  1.00  0.00    -0.270 OA
ATOM      6  C   UNL A   1      34.531  22.812  24.186  1.00  0.00     0.251 C 
ATOM      7  H   UNL A   1      34.005  20.741  24.293  1.00  0.00     0.163 HD
BRANCH   6   8
ATOM      8  C   UNL A   1      35.525  23.848  24.687  1.00  0.00     0.067 C 
ATOM      9  C   UNL A   1      35.079  25.003  25.250  1.00  0.00     0.025 C 
ATOM     10  C   UNL A   1      37.018  23.593  24.556  1.00  0.00     0.314 C 
ATOM     11  C   UNL A   1      33.586  25.259  25.380  1.00  0.00     0.020 A 
ATOM     12  O   UNL A   1      33.189  23.042  26.139  1.00  0.00    -0.474 OA
ATOM     13  C   UNL A   1      33.152  26.486  24.906  1.00  0.00     0.036 A 
ATOM     14  C   UNL A   1      32.726  24.344  25.812  1.00  0.00     0.142 A 
ATOM     15  C   UNL A   1      31.796  26.767  25.198  1.00  0.00     0.109 A 
ATOM     16  C   UNL A   1      31.392  24.645  25.945  1.00  0.00     0.062 A 
ATOM     17  C   UNL A   1      30.904  25.860  25.552  1.00  0.00     0.044 A 
ATOM     18  Br  UNL A   1      30.173  23.316  26.710  1.00  0.00    -0.047 Br
BRANCH  10  19
ATOM     19  C   UNL A   1      37.655  23.599  25.936  1.00  0.00     0.429 C 
ATOM     20  F   UNL A   1      36.742  23.271  26.847  1.00  0.00    -0.167 F 
ATOM     21  F   UNL A   1      38.650  22.717  25.969  1.00  0.00    -0.167 F 
ATOM     22  F   UNL A   1      38.129  24.812  26.200  1.00  0.00    -0.167 F 
ENDBRANCH  10  19
BRANCH  15  23
ATOM     23  S   UNL A   1      31.250  28.488  25.080  1.00  0.00     0.310 S 
ATOM     24  F   UNL A   1      32.732  28.991  24.831  1.00  0.00    -0.094 F 
ATOM     25  F   UNL A   1      31.521  28.666  26.622  1.00  0.00    -0.094 F 
ATOM     26  F   UNL A   1      30.791  29.969  24.960  1.00  0.00    -0.094 F 
ATOM     27  F   UNL A   1      31.117  28.328  23.514  1.00  0.00    -0.094 F 
ATOM     28  F   UNL A   1      31.819  27.016  25.168  1.00  0.00    -0.094 F 
ENDBRANCH  15  23
ENDBRANCH   6   8
ENDBRANCH   3   4
ENDBRANCH   2   3
ENDBRANCH   1   2
BRANCH   1  29
ATOM     29  C   UNL A   1      38.677  19.988  25.885  1.00  0.00     0.116 C 
BRANCH  29  30
ATOM     30  N   UNL A   1      39.704  18.943  25.764  1.00  0.00    -0.352 N 
ATOM     31  C   UNL A   1      41.108  19.254  26.068  1.00  0.00     0.251 C 
ATOM     32  H   UNL A   1      39.451  18.035  25.481  1.00  0.00     0.163 HD
ATOM     33  O   UNL A   1      41.996  18.350  25.964  1.00  0.00    -0.269 OA
BRANCH  31  34
ATOM     34  C   UNL A   1      41.499  20.656  26.507  1.00  0.00     0.039 A 
ATOM     35  C   UNL A   1      41.703  21.001  27.833  1.00  0.00     0.014 A 
ATOM     36  C   UNL A   1      41.747  21.515  25.525  1.00  0.00     0.014 A 
ATOM     37  C   UNL A   1      41.901  22.387  28.040  1.00  0.00     0.010 A 
ATOM     38  C   UNL A   1      42.068  22.822  25.803  1.00  0.00     0.010 A 
ATOM     39  C   UNL A   1      42.228  23.246  27.093  1.00  0.00    -0.014 A 
BRANCH  39  40
ATOM     40  C   UNL A   1      42.756  24.635  27.418  1.00  0.00     0.031 A 
ATOM     41  C   UNL A   1      41.829  25.494  28.012  1.00  0.00     0.074 A 
ATOM     42  C   UNL A   1      44.037  25.011  27.054  1.00  0.00     0.049 A 
ATOM     43  N   UNL A   1      42.006  26.770  28.355  1.00  0.00    -0.248 NA
ATOM     44  C   UNL A   1      40.457  25.106  28.367  1.00  0.00     0.031 C 
ATOM     45  C   UNL A   1      44.981  24.148  26.463  1.00  0.00     0.029 A 
ATOM     46  N   UNL A   1      44.625  26.250  27.188  1.00  0.00    -0.354 N 
ATOM     47  C   UNL A   1      40.897  27.255  28.915  1.00  0.00     0.074 A 
ATOM     48  C   UNL A   1      39.882  26.193  28.926  1.00  0.00     0.031 C 
ATOM     49  C   UNL A   1      46.116  24.858  26.234  1.00  0.00     0.029 A 
ATOM     50  C   UNL A   1      45.902  26.178  26.678  1.00  0.00     0.049 A 
ATOM     51  H   UNL A   1      44.204  27.048  27.581  1.00  0.00     0.167 HD
ATOM     52  C   UNL A   1      40.693  28.541  29.419  1.00  0.00     0.034 A 
ATOM     53  C   UNL A   1      46.841  27.194  26.595  1.00  0.00     0.034 A 
ATOM     54  C   UNL A   1      41.647  29.545  29.375  1.00  0.00     0.049 A 
ATOM     55  C   UNL A   1      46.616  28.496  27.045  1.00  0.00     0.074 A 
ATOM     56  C   UNL A   1      41.459  30.843  29.885  1.00  0.00     0.029 A 
ATOM     57  N   UNL A   1      42.916  29.480  28.842  1.00  0.00    -0.354 N 
ATOM     58  N   UNL A   1      45.521  28.971  27.641  1.00  0.00    -0.248 NA
ATOM     59  C   UNL A   1      47.592  29.589  26.933  1.00  0.00     0.031 C 
ATOM     60  C   UNL A   1      42.595  31.556  29.655  1.00  0.00     0.029 A 
ATOM     61  C   UNL A   1      43.511  30.712  28.996  1.00  0.00     0.049 A 
ATOM     62  H   UNL A   1      43.325  28.689  28.423  1.00  0.00     0.167 HD
ATOM     63  C   UNL A   1      45.684  30.259  27.947  1.00  0.00     0.074 A 
ATOM     64  C   UNL A   1      47.016  30.677  27.488  1.00  0.00     0.031 C 
ATOM     65  C   UNL A   1      44.778  31.101  28.593  1.00  0.00     0.034 A 
BRANCH  52  66
ATOM     66  C   UNL A   1      39.347  28.857  30.053  1.00  0.00     0.023 A 
ATOM     67  C   UNL A   1      39.065  28.592  31.382  1.00  0.00     0.012 A 
ATOM     68  C   UNL A   1      38.501  29.543  29.293  1.00  0.00     0.148 A 
ATOM     69  C   UNL A   1      37.721  28.846  31.745  1.00  0.00     0.002 A 
ATOM     70  C   UNL A   1      37.253  29.875  29.761  1.00  0.00     0.091 A 
ATOM     71  F   UNL A   1      38.865  29.911  28.068  1.00  0.00    -0.205 F 
ATOM     72  C   UNL A   1      36.885  29.591  31.046  1.00  0.00     0.022 A 
BRANCH  70  73
ATOM     73  S   UNL A   1      36.078  30.703  28.660  1.00  0.00     0.127 S 
ATOM     74  O   UNL A   1      34.887  31.213  29.475  1.00  0.00    -0.237 OA
ATOM     75  O   UNL A   1      36.768  31.883  27.972  1.00  0.00    -0.237 OA
ATOM     76  O   UNL A   1      35.527  29.596  27.478  1.00  0.00    -0.744 OA
ENDBRANCH  70  73
ENDBRANCH  52  66
BRANCH  53  77
ATOM     77  C   UNL A   1      48.192  26.872  25.976  1.00  0.00     0.023 A 
ATOM     78  C   UNL A   1      49.281  26.639  26.799  1.00  0.00     0.012 A 
ATOM     79  C   UNL A   1      48.334  26.983  24.660  1.00  0.00     0.148 A 
ATOM     80  C   UNL A   1      50.531  26.825  26.163  1.00  0.00     0.002 A 
ATOM     81  C   UNL A   1      49.585  27.023  24.092  1.00  0.00     0.091 A 
ATOM     82  F   UNL A   1      47.256  27.057  23.885  1.00  0.00    -0.205 F 
ATOM     83  C   UNL A   1      50.708  26.858  24.854  1.00  0.00     0.022 A 
BRANCH  81  84
ATOM     84  S   UNL A   1      49.747  27.297  22.311  1.00  0.00     0.127 S 
ATOM     85  O   UNL A   1      49.014  26.187  21.555  1.00  0.00    -0.237 OA
ATOM     86  O   UNL A   1      49.137  28.652  21.946  1.00  0.00    -0.237 OA
ATOM     87  O   UNL A   1      51.402  27.284  21.880  1.00  0.00    -0.744 OA
ENDBRANCH  81  84
ENDBRANCH  53  77
BRANCH  65  88
ATOM     88  C   UNL A   1      45.207  32.533  28.870  1.00  0.00     0.023 A 
ATOM     89  C   UNL A   1      45.845  32.888  30.046  1.00  0.00     0.012 A 
ATOM     90  C   UNL A   1      45.010  33.417  27.899  1.00  0.00     0.148 A 
ATOM     91  C   UNL A   1      45.986  34.286  30.224  1.00  0.00     0.002 A 
ATOM     92  C   UNL A   1      45.297  34.747  28.095  1.00  0.00     0.091 A 
ATOM     93  F   UNL A   1      44.531  33.012  26.725  1.00  0.00    -0.205 F 
ATOM     94  C   UNL A   1      45.874  35.178  29.256  1.00  0.00     0.022 A 
BRANCH  92  95
ATOM     95  S   UNL A   1      44.904  35.944  26.796  1.00  0.00     0.127 S 
ATOM     96  O   UNL A   1      45.054  37.364  27.348  1.00  0.00    -0.237 OA
ATOM     97  O   UNL A   1      45.862  35.752  25.619  1.00  0.00    -0.237 OA
ATOM     98  O   UNL A   1      43.295  35.705  26.267  1.00  0.00    -0.744 OA
ENDBRANCH  92  95
ENDBRANCH  65  88
ENDBRANCH  39  40
ENDBRANCH  31  34
ENDBRANCH  29  30
ENDBRANCH   1  29
TORSDOF 16
ENDMDL
MODEL 3
REMARK VINA RESULT:     -13.5      5.510      8.153
REMARK SMILES O=C(NCCCCNC(=O)c1ccc(-c2c3nc(c(-c4cccc(S(=O)(=O)[O-])c4F)c4ccc([nH]4)c(-c4cccc(S(=O)(=O)[O-])c4F)c4nc(c(-c5cccc(S(=O)(=O)[O-])c5F)c5ccc2[nH]5)C=C4)C=C3)cc1)C1=Cc2cc(S(F)(F)(F)(F)F)cc(Br)c2O[C@@H]1C(F)(F)F
REMARK SMILES IDX 6 1 5 2 4 3 3 4 1 5 2 6 74 8 75 9 90 10 76 11 89 12 77 13
REMARK SMILES IDX 88 14 78 15 86 16 85 17 87 18 91 19 92 20 93 21 94 22 79 23
REMARK SMILES IDX 80 24 81 25 82 26 83 27 84 28 7 29 8 30 9 31 10 33 11 34
REMARK SMILES IDX 12 35 73 36 13 37 72 38 14 39 15 40 16 41 66 42 17 43 71 44
REMARK SMILES IDX 65 45 67 46 18 47 70 48 64 49 63 50 19 52 51 53 31 54 50 55
REMARK SMILES IDX 32 56 35 57 49 58 68 59 33 60 34 61 48 63 69 64 36 65 20 66
REMARK SMILES IDX 21 67 29 68 22 69 24 70 30 71 23 72 25 73 26 74 27 75 28 76
REMARK SMILES IDX 52 77 53 78 61 79 54 80 56 81 62 82 55 83 57 84 58 85 59 86
REMARK SMILES IDX 60 87 37 88 38 89 46 90 39 91 41 92 47 93 40 94 42 95 43 96
REMARK SMILES IDX 44 97 45 98
REMARK H PARENT 3 7 8 32 67 51 35 62
REMARK Flexibility Score: inf
ROOT
ATOM      1  C   UNL A   1      32.948  27.789  25.360  1.00  0.00     0.023 C 
ENDROOT
BRANCH   1   2
ATOM      2  C   UNL A   1      33.330  26.855  24.224  1.00  0.00     0.023 C 
BRANCH   2   3
ATOM      3  C   UNL A   1      33.680  25.487  24.788  1.00  0.00     0.116 C 
BRANCH   3   4
ATOM      4  N   UNL A   1      33.992  24.566  23.686  1.00  0.00    -0.352 N 
ATOM      5  O   UNL A   1      33.424  22.584  22.507  1.00  0.00    -0.270 OA
ATOM      6  C   UNL A   1      33.154  23.380  23.460  1.00  0.00     0.251 C 
ATOM      7  H   UNL A   1      34.762  24.744  23.099  1.00  0.00     0.163 HD
BRANCH   6   8
ATOM      8  C   UNL A   1      31.965  23.105  24.365  1.00  0.00     0.067 C 
ATOM      9  C   UNL A   1      31.878  21.924  25.035  1.00  0.00     0.025 C 
ATOM     10  C   UNL A   1      30.871  24.150  24.521  1.00  0.00     0.314 C 
ATOM     11  C   UNL A   1      32.970  20.879  24.878  1.00  0.00     0.020 A 
ATOM     12  O   UNL A   1      34.680  22.519  25.071  1.00  0.00    -0.474 OA
ATOM     13  C   UNL A   1      32.529  19.601  24.575  1.00  0.00     0.036 A 
ATOM     14  C   UNL A   1      34.266  21.169  24.916  1.00  0.00     0.142 A 
ATOM     15  C   UNL A   1      33.547  18.620  24.610  1.00  0.00     0.109 A 
ATOM     16  C   UNL A   1      35.209  20.176  24.808  1.00  0.00     0.062 A 
ATOM     17  C   UNL A   1      34.841  18.881  24.567  1.00  0.00     0.044 A 
ATOM     18  Br  UNL A   1      37.107  20.620  25.000  1.00  0.00    -0.047 Br
BRANCH  10  19
ATOM     19  C   UNL A   1      30.769  24.562  25.981  1.00  0.00     0.429 C 
ATOM     20  F   UNL A   1      29.861  23.804  26.591  1.00  0.00    -0.167 F 
ATOM     21  F   UNL A   1      31.950  24.400  26.571  1.00  0.00    -0.167 F 
ATOM     22  F   UNL A   1      30.406  25.838  26.057  1.00  0.00    -0.167 F 
ENDBRANCH  10  19
BRANCH  15  23
ATOM     23  S   UNL A   1      33.040  16.886  24.720  1.00  0.00     0.310 S 
ATOM     24  F   UNL A   1      34.534  16.388  24.539  1.00  0.00    -0.094 F 
ATOM     25  F   UNL A   1      32.906  16.838  23.151  1.00  0.00    -0.094 F 
ATOM     26  F   UNL A   1      32.620  15.392  24.830  1.00  0.00    -0.094 F 
ATOM     27  F   UNL A   1      33.314  16.915  26.276  1.00  0.00    -0.094 F 
ATOM     28  F   UNL A   1      33.576  18.369  24.613  1.00  0.00    -0.094 F 
ENDBRANCH  15  23
ENDBRANCH   6   8
ENDBRANCH   3   4
ENDBRANCH   2   3
ENDBRANCH   1   2
BRANCH   1  29
ATOM     29  C   UNL A   1      33.547  29.163  25.108  1.00  0.00     0.116 C 
BRANCH  29  30
ATOM     30  N   UNL A   1      32.644  30.196  25.635  1.00  0.00    -0.352 N 
ATOM     31  C   UNL A   1      33.048  31.003  26.796  1.00  0.00     0.251 C 
ATOM     32  H   UNL A   1      31.768  30.346  25.212  1.00  0.00     0.163 HD
ATOM     33  O   UNL A   1      32.267  31.896  27.252  1.00  0.00    -0.269 OA
BRANCH  31  34
ATOM     34  C   UNL A   1      34.400  30.770  27.450  1.00  0.00     0.039 A 
ATOM     35  C   UNL A   1      35.335  31.777  27.626  1.00  0.00     0.014 A 
ATOM     36  C   UNL A   1      34.592  29.556  27.952  1.00  0.00     0.014 A 
ATOM     37  C   UNL A   1      36.585  31.320  28.105  1.00  0.00     0.010 A 
ATOM     38  C   UNL A   1      35.793  29.220  28.529  1.00  0.00     0.010 A 
ATOM     39  C   UNL A   1      36.783  30.149  28.683  1.00  0.00    -0.014 A 
BRANCH  39  40
ATOM     40  C   UNL A   1      38.046  29.849  29.475  1.00  0.00     0.031 A 
ATOM     41  C   UNL A   1      38.175  30.558  30.670  1.00  0.00     0.074 A 
ATOM     42  C   UNL A   1      39.015  28.998  28.971  1.00  0.00     0.049 A 
ATOM     43  N   UNL A   1      39.194  30.526  31.530  1.00  0.00    -0.248 NA
ATOM     44  C   UNL A   1      37.162  31.489  31.189  1.00  0.00     0.031 C 
ATOM     45  C   UNL A   1      38.888  28.272  27.771  1.00  0.00     0.029 A 
ATOM     46  N   UNL A   1      40.245  28.702  29.515  1.00  0.00    -0.354 N 
ATOM     47  C   UNL A   1      38.947  31.327  32.568  1.00  0.00     0.074 A 
ATOM     48  C   UNL A   1      37.639  31.962  32.361  1.00  0.00     0.031 C 
ATOM     49  C   UNL A   1      40.029  27.558  27.588  1.00  0.00     0.029 A 
ATOM     50  C   UNL A   1      40.889  27.824  28.671  1.00  0.00     0.049 A 
ATOM     51  H   UNL A   1      40.602  29.056  30.362  1.00  0.00     0.167 HD
ATOM     52  C   UNL A   1      39.761  31.550  33.680  1.00  0.00     0.034 A 
ATOM     53  C   UNL A   1      42.154  27.278  28.820  1.00  0.00     0.034 A 
ATOM     54  C   UNL A   1      41.008  30.969  33.850  1.00  0.00     0.049 A 
ATOM     55  C   UNL A   1      42.993  27.547  29.904  1.00  0.00     0.074 A 
ATOM     56  C   UNL A   1      41.837  31.178  34.968  1.00  0.00     0.029 A 
ATOM     57  N   UNL A   1      41.662  30.111  32.993  1.00  0.00    -0.354 N 
ATOM     58  N   UNL A   1      42.729  28.317  30.961  1.00  0.00    -0.248 NA
ATOM     59  C   UNL A   1      44.347  26.999  30.055  1.00  0.00     0.031 C 
ATOM     60  C   UNL A   1      42.980  30.464  34.785  1.00  0.00     0.029 A 
ATOM     61  C   UNL A   1      42.883  29.797  33.548  1.00  0.00     0.049 A 
ATOM     62  H   UNL A   1      41.316  29.780  32.133  1.00  0.00     0.167 HD
ATOM     63  C   UNL A   1      43.766  28.316  31.800  1.00  0.00     0.074 A 
ATOM     64  C   UNL A   1      44.826  27.475  31.225  1.00  0.00     0.031 C 
ATOM     65  C   UNL A   1      43.871  28.980  33.023  1.00  0.00     0.034 A 
BRANCH  52  66
ATOM     66  C   UNL A   1      39.250  32.482  34.767  1.00  0.00     0.023 A 
ATOM     67  C   UNL A   1      39.281  33.861  34.646  1.00  0.00     0.012 A 
ATOM     68  C   UNL A   1      38.631  31.894  35.784  1.00  0.00     0.148 A 
ATOM     69  C   UNL A   1      38.873  34.549  35.813  1.00  0.00     0.002 A 
ATOM     70  C   UNL A   1      38.137  32.640  36.827  1.00  0.00     0.091 A 
ATOM     71  F   UNL A   1      38.489  30.572  35.794  1.00  0.00    -0.205 F 
ATOM     72  C   UNL A   1      38.187  34.005  36.801  1.00  0.00     0.022 A 
BRANCH  70  73
ATOM     73  S   UNL A   1      37.408  31.801  38.256  1.00  0.00     0.127 S 
ATOM     74  O   UNL A   1      36.056  32.440  38.587  1.00  0.00    -0.237 OA
ATOM     75  O   UNL A   1      37.205  30.320  37.931  1.00  0.00    -0.237 OA
ATOM     76  O   UNL A   1      38.454  31.953  39.601  1.00  0.00    -0.744 OA
ENDBRANCH  70  73
ENDBRANCH  52  66
BRANCH  53  77
ATOM     77  C   UNL A   1      42.657  26.332  27.741  1.00  0.00     0.023 A 
ATOM     78  C   UNL A   1      43.387  26.837  26.678  1.00  0.00     0.012 A 
ATOM     79  C   UNL A   1      42.247  25.069  27.757  1.00  0.00     0.148 A 
ATOM     80  C   UNL A   1      43.389  26.003  25.535  1.00  0.00     0.002 A 
ATOM     81  C   UNL A   1      42.402  24.269  26.650  1.00  0.00     0.091 A 
ATOM     82  F   UNL A   1      41.680  24.574  28.853  1.00  0.00    -0.205 F 
ATOM     83  C   UNL A   1      43.062  24.723  25.542  1.00  0.00     0.022 A 
BRANCH  81  84
ATOM     84  S   UNL A   1      41.723  22.592  26.660  1.00  0.00     0.127 S 
ATOM     85  O   UNL A   1      40.196  22.660  26.736  1.00  0.00    -0.237 OA
ATOM     86  O   UNL A   1      42.138  21.866  25.378  1.00  0.00    -0.237 OA
ATOM     87  O   UNL A   1      42.325  21.741  28.016  1.00  0.00    -0.744 OA
ENDBRANCH  81  84
ENDBRANCH  53  77
BRANCH  65  88
ATOM     88  C   UNL A   1      45.148  28.796  33.829  1.00  0.00     0.023 A 
ATOM     89  C   UNL A   1      46.204  29.686  33.734  1.00  0.00     0.012 A 
ATOM     90  C   UNL A   1      45.176  27.782  34.686  1.00  0.00     0.148 A 
ATOM     91  C   UNL A   1      47.380  29.252  34.391  1.00  0.00     0.002 A 
ATOM     92  C   UNL A   1      46.317  27.498  35.396  1.00  0.00     0.091 A 
ATOM     93  F   UNL A   1      44.088  27.035  34.860  1.00  0.00    -0.205 F 
ATOM     94  C   UNL A   1      47.419  28.301  35.307  1.00  0.00     0.022 A 
BRANCH  92  95
ATOM     95  S   UNL A   1      46.362  26.038  36.465  1.00  0.00     0.127 S 
ATOM     96  O   UNL A   1      47.617  26.083  37.338  1.00  0.00    -0.237 OA
ATOM     97  O   UNL A   1      45.120  26.023  37.359  1.00  0.00    -0.237 OA
ATOM     98  O   UNL A   1      46.387  24.625  35.501  1.00  0.00    -0.744 OA
ENDBRANCH  92  95
ENDBRANCH  65  88
ENDBRANCH  39  40
ENDBRANCH  31  34
ENDBRANCH  29  30
ENDBRANCH   1  29
TORSDOF 16
ENDMDL
