MODEL 1
REMARK VINA RESULT:     -12.4      0.000      0.000
REMARK SMILES Cc1ccc(Nc2c(F)cccc2I)c(CC(=O)NCCCCNC(=O)c2ccc(-c3c4nc(c(-c5cccc(S(=O)(=O)[O-])c5F)c5ccc([nH]5)c(-c5cccc(S(=O)(=O)[O-])c5F)c5nc(c(-c6cccc(S(=O)(=O)[O-])c6F)c6ccc3[nH]6)C=C5)C=C4)cc2)c1
REMARK SMILES IDX 21 1 20 2 19 3 17 4 18 5 16 7 15 8 1 9 2 10 3 11 90 12 4 13
REMARK SMILES IDX 5 14 6 15 7 17 8 18 13 19 9 20 10 21 12 22 14 23 11 24 22 25
REMARK SMILES IDX 23 26 24 27 25 28 26 30 27 31 28 32 89 33 29 34 88 35 30 36
REMARK SMILES IDX 31 37 32 38 82 39 33 40 87 41 81 42 83 43 34 44 86 45 80 46
REMARK SMILES IDX 79 47 35 49 67 50 47 51 66 52 48 53 51 54 65 55 84 56 49 57
REMARK SMILES IDX 50 58 64 60 85 61 52 62 36 63 37 64 45 65 38 66 40 67 46 68
REMARK SMILES IDX 39 69 41 70 42 71 43 72 44 73 68 74 69 75 77 76 70 77 72 78
REMARK SMILES IDX 78 79 71 80 73 81 74 82 75 83 76 84 53 85 54 86 62 87 55 88
REMARK SMILES IDX 57 89 63 90 56 91 58 92 59 93 60 94 61 95
REMARK H PARENT 19 6 6 16 24 29 83 48 51 59
REMARK Flexibility Score: inf
ROOT
ATOM      1  C   UNL A   1      31.615  29.390  26.638  1.00  0.00     0.023 C 
ENDROOT
BRANCH   1   2
ATOM      2  C   UNL A   1      32.149  28.252  27.523  1.00  0.00     0.116 C 
BRANCH   2   3
ATOM      3  N   UNL A   1      31.392  27.016  27.400  1.00  0.00    -0.356 N 
ATOM      4  C   UNL A   1      31.650  25.902  26.659  1.00  0.00     0.224 C 
ATOM      5  O   UNL A   1      30.815  24.992  26.642  1.00  0.00    -0.275 OA
ATOM      6  H   UNL A   1      30.565  26.978  27.933  1.00  0.00     0.163 HD
BRANCH   4   7
ATOM      7  C   UNL A   1      32.919  25.774  25.841  1.00  0.00     0.137 C 
BRANCH   7   8
ATOM      8  C   UNL A   1      32.701  25.897  24.349  1.00  0.00    -0.015 A 
ATOM      9  C   UNL A   1      30.405  28.030  22.163  1.00  0.00     0.044 C 
ATOM     10  C   UNL A   1      31.449  27.038  22.580  1.00  0.00    -0.051 A 
ATOM     11  C   UNL A   1      31.987  26.146  21.655  1.00  0.00     0.005 A 
ATOM     12  C   UNL A   1      31.850  26.939  23.912  1.00  0.00     0.009 A 
ATOM     13  C   UNL A   1      32.880  25.150  22.065  1.00  0.00     0.026 A 
ATOM     14  C   UNL A   1      33.234  24.979  23.414  1.00  0.00     0.042 A 
BRANCH  14  15
ATOM     15  N   UNL A   1      34.081  23.922  23.817  1.00  0.00    -0.352 N 
ATOM     16  H   UNL A   1      35.040  24.143  23.830  1.00  0.00     0.167 HD
BRANCH  15  17
ATOM     17  C   UNL A   1      33.772  22.598  24.206  1.00  0.00     0.088 A 
ATOM     18  C   UNL A   1      32.446  22.165  24.372  1.00  0.00     0.147 A 
ATOM     19  C   UNL A   1      34.787  21.669  24.512  1.00  0.00     0.040 A 
ATOM     20  F   UNL A   1      31.421  22.983  24.082  1.00  0.00    -0.205 F 
ATOM     21  C   UNL A   1      32.134  20.877  24.812  1.00  0.00     0.041 A 
ATOM     22  C   UNL A   1      34.481  20.375  24.960  1.00  0.00     0.017 A 
ATOM     23  I   UNL A   1      36.827  22.149  24.378  1.00  0.00    -0.042 I 
ATOM     24  C   UNL A   1      33.154  19.980  25.110  1.00  0.00     0.004 A 
ENDBRANCH  15  17
ENDBRANCH  14  15
ENDBRANCH   7   8
ENDBRANCH   4   7
ENDBRANCH   2   3
ENDBRANCH   1   2
BRANCH   1  25
ATOM     25  C   UNL A   1      32.140  30.788  26.956  1.00  0.00     0.023 C 
BRANCH  25  26
ATOM     26  C   UNL A   1      33.645  30.917  26.834  1.00  0.00     0.116 C 
BRANCH  26  27
ATOM     27  N   UNL A   1      34.240  31.833  27.790  1.00  0.00    -0.352 N 
ATOM     28  C   UNL A   1      35.128  31.575  28.819  1.00  0.00     0.251 C 
ATOM     29  H   UNL A   1      33.974  32.776  27.692  1.00  0.00     0.163 HD
ATOM     30  O   UNL A   1      35.311  32.447  29.665  1.00  0.00    -0.269 OA
BRANCH  28  31
ATOM     31  C   UNL A   1      35.964  30.344  28.796  1.00  0.00     0.039 A 
ATOM     32  C   UNL A   1      36.218  29.724  30.027  1.00  0.00     0.014 A 
ATOM     33  C   UNL A   1      36.715  29.994  27.679  1.00  0.00     0.014 A 
ATOM     34  C   UNL A   1      37.404  29.020  30.209  1.00  0.00     0.010 A 
ATOM     35  C   UNL A   1      37.935  29.389  27.873  1.00  0.00     0.010 A 
ATOM     36  C   UNL A   1      38.311  28.990  29.159  1.00  0.00    -0.014 A 
BRANCH  36  37
ATOM     37  C   UNL A   1      39.707  28.623  29.277  1.00  0.00     0.031 A 
ATOM     38  C   UNL A   1      40.112  27.230  29.046  1.00  0.00     0.074 A 
ATOM     39  C   UNL A   1      40.618  29.624  29.310  1.00  0.00     0.049 A 
ATOM     40  N   UNL A   1      41.319  26.818  29.203  1.00  0.00    -0.248 NA
ATOM     41  C   UNL A   1      39.183  26.179  28.640  1.00  0.00     0.031 C 
ATOM     42  C   UNL A   1      42.028  29.566  28.941  1.00  0.00     0.029 A 
ATOM     43  N   UNL A   1      40.482  30.883  29.907  1.00  0.00    -0.354 N 
ATOM     44  C   UNL A   1      41.396  25.595  28.587  1.00  0.00     0.074 A 
ATOM     45  C   UNL A   1      40.032  25.171  28.408  1.00  0.00     0.031 C 
ATOM     46  C   UNL A   1      42.676  30.569  29.553  1.00  0.00     0.029 A 
ATOM     47  C   UNL A   1      41.736  31.158  30.488  1.00  0.00     0.049 A 
ATOM     48  H   UNL A   1      39.680  31.454  29.920  1.00  0.00     0.167 HD
ATOM     49  C   UNL A   1      42.613  25.175  28.154  1.00  0.00     0.034 A 
ATOM     50  C   UNL A   1      41.921  31.243  31.841  1.00  0.00     0.034 A 
ATOM     51  C   UNL A   1      43.694  25.987  28.737  1.00  0.00     0.049 A 
ATOM     52  C   UNL A   1      42.904  30.205  32.386  1.00  0.00     0.074 A 
ATOM     53  C   UNL A   1      44.601  26.916  28.260  1.00  0.00     0.029 A 
ATOM     54  N   UNL A   1      43.765  26.068  30.122  1.00  0.00    -0.354 N 
ATOM     55  N   UNL A   1      43.597  29.365  31.662  1.00  0.00    -0.248 NA
ATOM     56  C   UNL A   1      43.100  29.979  33.816  1.00  0.00     0.031 C 
ATOM     57  C   UNL A   1      45.163  27.604  29.387  1.00  0.00     0.029 A 
ATOM     58  C   UNL A   1      44.640  27.055  30.544  1.00  0.00     0.049 A 
ATOM     59  H   UNL A   1      43.251  25.492  30.732  1.00  0.00     0.167 HD
ATOM     60  C   UNL A   1      44.163  28.408  32.471  1.00  0.00     0.074 A 
ATOM     61  C   UNL A   1      43.849  28.864  33.817  1.00  0.00     0.031 C 
ATOM     62  C   UNL A   1      44.774  27.277  31.983  1.00  0.00     0.034 A 
BRANCH  49  63
ATOM     63  C   UNL A   1      42.836  24.103  27.106  1.00  0.00     0.023 A 
ATOM     64  C   UNL A   1      43.543  24.472  25.943  1.00  0.00     0.012 A 
ATOM     65  C   UNL A   1      42.314  22.784  27.129  1.00  0.00     0.148 A 
ATOM     66  C   UNL A   1      43.729  23.588  24.871  1.00  0.00     0.002 A 
ATOM     67  C   UNL A   1      42.570  21.877  26.096  1.00  0.00     0.091 A 
ATOM     68  F   UNL A   1      41.468  22.410  28.096  1.00  0.00    -0.205 F 
ATOM     69  C   UNL A   1      43.263  22.282  24.956  1.00  0.00     0.022 A 
BRANCH  67  70
ATOM     70  S   UNL A   1      42.053  20.151  26.186  1.00  0.00     0.127 S 
ATOM     71  O   UNL A   1      40.602  20.255  26.032  1.00  0.00    -0.237 OA
ATOM     72  O   UNL A   1      42.744  19.551  25.044  1.00  0.00    -0.237 OA
ATOM     73  O   UNL A   1      42.512  19.663  27.481  1.00  0.00    -0.744 OA
ENDBRANCH  67  70
ENDBRANCH  49  63
BRANCH  50  74
ATOM     74  C   UNL A   1      40.709  31.756  32.559  1.00  0.00     0.023 A 
ATOM     75  C   UNL A   1      39.664  30.827  32.792  1.00  0.00     0.012 A 
ATOM     76  C   UNL A   1      40.750  32.930  33.331  1.00  0.00     0.148 A 
ATOM     77  C   UNL A   1      38.794  30.982  33.873  1.00  0.00     0.002 A 
ATOM     78  C   UNL A   1      39.862  33.089  34.394  1.00  0.00     0.091 A 
ATOM     79  F   UNL A   1      41.700  33.836  33.076  1.00  0.00    -0.205 F 
ATOM     80  C   UNL A   1      38.919  32.094  34.699  1.00  0.00     0.022 A 
BRANCH  78  81
ATOM     81  S   UNL A   1      39.969  34.510  35.491  1.00  0.00     0.127 S 
ATOM     82  O   UNL A   1      39.528  35.588  34.612  1.00  0.00    -0.237 OA
ATOM     83  O   UNL A   1      39.031  34.161  36.556  1.00  0.00    -0.237 OA
ATOM     84  O   UNL A   1      41.361  34.546  35.912  1.00  0.00    -0.744 OA
ENDBRANCH  78  81
ENDBRANCH  50  74
BRANCH  62  85
ATOM     85  C   UNL A   1      45.463  26.215  32.845  1.00  0.00     0.023 A 
ATOM     86  C   UNL A   1      46.836  25.930  32.710  1.00  0.00     0.012 A 
ATOM     87  C   UNL A   1      44.749  25.391  33.760  1.00  0.00     0.148 A 
ATOM     88  C   UNL A   1      47.493  25.004  33.533  1.00  0.00     0.002 A 
ATOM     89  C   UNL A   1      45.395  24.450  34.559  1.00  0.00     0.091 A 
ATOM     90  F   UNL A   1      43.417  25.469  33.836  1.00  0.00    -0.205 F 
ATOM     91  C   UNL A   1      46.776  24.278  34.472  1.00  0.00     0.022 A 
BRANCH  89  92
ATOM     92  S   UNL A   1      44.508  23.386  35.710  1.00  0.00     0.127 S 
ATOM     93  O   UNL A   1      43.914  24.367  36.618  1.00  0.00    -0.237 OA
ATOM     94  O   UNL A   1      43.553  22.716  34.827  1.00  0.00    -0.237 OA
ATOM     95  O   UNL A   1      45.504  22.507  36.306  1.00  0.00    -0.744 OA
ENDBRANCH  89  92
ENDBRANCH  62  85
ENDBRANCH  36  37
ENDBRANCH  28  31
ENDBRANCH  26  27
ENDBRANCH  25  26
ENDBRANCH   1  25
TORSDOF 17
ENDMDL
MODEL 2
REMARK VINA RESULT:     -12.2      1.047      2.571
REMARK SMILES Cc1ccc(Nc2c(F)cccc2I)c(CC(=O)NCCCCNC(=O)c2ccc(-c3c4nc(c(-c5cccc(S(=O)(=O)[O-])c5F)c5ccc([nH]5)c(-c5cccc(S(=O)(=O)[O-])c5F)c5nc(c(-c6cccc(S(=O)(=O)[O-])c6F)c6ccc3[nH]6)C=C5)C=C4)cc2)c1
REMARK SMILES IDX 21 1 20 2 19 3 17 4 18 5 16 7 15 8 1 9 2 10 3 11 90 12 4 13
REMARK SMILES IDX 5 14 6 15 7 17 8 18 13 19 9 20 10 21 12 22 14 23 11 24 22 25
REMARK SMILES IDX 23 26 24 27 25 28 26 30 27 31 28 32 89 33 29 34 88 35 30 36
REMARK SMILES IDX 31 37 32 38 82 39 33 40 87 41 81 42 83 43 34 44 86 45 80 46
REMARK SMILES IDX 79 47 35 49 67 50 47 51 66 52 48 53 51 54 65 55 84 56 49 57
REMARK SMILES IDX 50 58 64 60 85 61 52 62 36 63 37 64 45 65 38 66 40 67 46 68
REMARK SMILES IDX 39 69 41 70 42 71 43 72 44 73 68 74 69 75 77 76 70 77 72 78
REMARK SMILES IDX 78 79 71 80 73 81 74 82 75 83 76 84 53 85 54 86 62 87 55 88
REMARK SMILES IDX 57 89 63 90 56 91 58 92 59 93 60 94 61 95
REMARK H PARENT 19 6 6 16 24 29 83 48 51 59
REMARK Flexibility Score: inf
ROOT
ATOM      1  C   UNL A   1      31.782  29.166  26.534  1.00  0.00     0.023 C 
ENDROOT
BRANCH   1   2
ATOM      2  C   UNL A   1      32.447  27.851  26.975  1.00  0.00     0.116 C 
BRANCH   2   3
ATOM      3  N   UNL A   1      31.528  26.726  27.036  1.00  0.00    -0.356 N 
ATOM      4  C   UNL A   1      31.684  25.444  26.605  1.00  0.00     0.224 C 
ATOM      5  O   UNL A   1      30.727  24.668  26.686  1.00  0.00    -0.275 OA
ATOM      6  H   UNL A   1      30.657  26.922  27.454  1.00  0.00     0.163 HD
BRANCH   4   7
ATOM      7  C   UNL A   1      32.992  24.966  26.006  1.00  0.00     0.137 C 
BRANCH   7   8
ATOM      8  C   UNL A   1      32.830  23.878  24.968  1.00  0.00    -0.015 A 
ATOM      9  C   UNL A   1      33.235  20.079  25.013  1.00  0.00     0.044 C 
ATOM     10  C   UNL A   1      32.954  21.471  24.532  1.00  0.00    -0.051 A 
ATOM     11  C   UNL A   1      32.794  21.731  23.174  1.00  0.00     0.005 A 
ATOM     12  C   UNL A   1      32.920  22.543  25.425  1.00  0.00     0.009 A 
ATOM     13  C   UNL A   1      32.640  23.045  22.715  1.00  0.00     0.026 A 
ATOM     14  C   UNL A   1      32.685  24.146  23.586  1.00  0.00     0.042 A 
BRANCH  14  15
ATOM     15  N   UNL A   1      32.601  25.469  23.096  1.00  0.00    -0.352 N 
ATOM     16  H   UNL A   1      33.382  25.768  22.578  1.00  0.00     0.167 HD
BRANCH  15  17
ATOM     17  C   UNL A   1      31.574  26.431  23.230  1.00  0.00     0.088 A 
ATOM     18  C   UNL A   1      30.232  26.061  23.427  1.00  0.00     0.147 A 
ATOM     19  C   UNL A   1      31.841  27.810  23.104  1.00  0.00     0.040 A 
ATOM     20  F   UNL A   1      29.898  24.770  23.578  1.00  0.00    -0.205 F 
ATOM     21  C   UNL A   1      29.205  27.004  23.502  1.00  0.00     0.041 A 
ATOM     22  C   UNL A   1      30.812  28.762  23.173  1.00  0.00     0.017 A 
ATOM     23  I   UNL A   1      33.774  28.551  22.752  1.00  0.00    -0.042 I 
ATOM     24  C   UNL A   1      29.494  28.358  23.371  1.00  0.00     0.004 A 
ENDBRANCH  15  17
ENDBRANCH  14  15
ENDBRANCH   7   8
ENDBRANCH   4   7
ENDBRANCH   2   3
ENDBRANCH   1   2
BRANCH   1  25
ATOM     25  C   UNL A   1      32.271  30.432  27.234  1.00  0.00     0.023 C 
BRANCH  25  26
ATOM     26  C   UNL A   1      33.666  30.856  26.820  1.00  0.00     0.116 C 
BRANCH  26  27
ATOM     27  N   UNL A   1      34.297  31.789  27.736  1.00  0.00    -0.352 N 
ATOM     28  C   UNL A   1      35.207  31.545  28.749  1.00  0.00     0.251 C 
ATOM     29  H   UNL A   1      34.041  32.732  27.620  1.00  0.00     0.163 HD
ATOM     30  O   UNL A   1      35.423  32.437  29.567  1.00  0.00    -0.269 OA
BRANCH  28  31
ATOM     31  C   UNL A   1      36.026  30.303  28.738  1.00  0.00     0.039 A 
ATOM     32  C   UNL A   1      36.275  29.693  29.975  1.00  0.00     0.014 A 
ATOM     33  C   UNL A   1      36.769  29.930  27.623  1.00  0.00     0.014 A 
ATOM     34  C   UNL A   1      37.452  28.975  30.162  1.00  0.00     0.010 A 
ATOM     35  C   UNL A   1      37.981  29.311  27.821  1.00  0.00     0.010 A 
ATOM     36  C   UNL A   1      38.355  28.921  29.110  1.00  0.00    -0.014 A 
BRANCH  36  37
ATOM     37  C   UNL A   1      39.747  28.536  29.228  1.00  0.00     0.031 A 
ATOM     38  C   UNL A   1      40.133  27.137  29.004  1.00  0.00     0.074 A 
ATOM     39  C   UNL A   1      40.670  29.525  29.256  1.00  0.00     0.049 A 
ATOM     40  N   UNL A   1      41.334  26.710  29.161  1.00  0.00    -0.248 NA
ATOM     41  C   UNL A   1      39.189  26.096  28.603  1.00  0.00     0.031 C 
ATOM     42  C   UNL A   1      42.079  29.447  28.885  1.00  0.00     0.029 A 
ATOM     43  N   UNL A   1      40.552  30.788  29.847  1.00  0.00    -0.354 N 
ATOM     44  C   UNL A   1      41.395  25.483  28.550  1.00  0.00     0.074 A 
ATOM     45  C   UNL A   1      40.025  25.076  28.375  1.00  0.00     0.031 C 
ATOM     46  C   UNL A   1      42.741  30.443  29.492  1.00  0.00     0.029 A 
ATOM     47  C   UNL A   1      41.810  31.050  30.425  1.00  0.00     0.049 A 
ATOM     48  H   UNL A   1      39.758  31.370  29.857  1.00  0.00     0.167 HD
ATOM     49  C   UNL A   1      42.606  25.045  28.118  1.00  0.00     0.034 A 
ATOM     50  C   UNL A   1      41.997  31.138  31.778  1.00  0.00     0.034 A 
ATOM     51  C   UNL A   1      43.697  25.845  28.696  1.00  0.00     0.049 A 
ATOM     52  C   UNL A   1      42.967  30.090  32.326  1.00  0.00     0.074 A 
ATOM     53  C   UNL A   1      44.617  26.760  28.214  1.00  0.00     0.029 A 
ATOM     54  N   UNL A   1      43.771  25.932  30.081  1.00  0.00    -0.354 N 
ATOM     55  N   UNL A   1      43.648  29.238  31.606  1.00  0.00    -0.248 NA
ATOM     56  C   UNL A   1      43.161  29.868  33.757  1.00  0.00     0.031 C 
ATOM     57  C   UNL A   1      45.189  27.446  29.337  1.00  0.00     0.029 A 
ATOM     58  C   UNL A   1      44.660  26.908  30.497  1.00  0.00     0.049 A 
ATOM     59  H   UNL A   1      43.251  25.366  30.695  1.00  0.00     0.167 HD
ATOM     60  C   UNL A   1      44.203  28.277  32.419  1.00  0.00     0.074 A 
ATOM     61  C   UNL A   1      43.896  28.743  33.763  1.00  0.00     0.031 C 
ATOM     62  C   UNL A   1      44.798  27.136  31.935  1.00  0.00     0.034 A 
BRANCH  49  63
ATOM     63  C   UNL A   1      42.813  23.965  27.075  1.00  0.00     0.023 A 
ATOM     64  C   UNL A   1      43.513  24.322  25.903  1.00  0.00     0.012 A 
ATOM     65  C   UNL A   1      42.284  22.649  27.111  1.00  0.00     0.148 A 
ATOM     66  C   UNL A   1      43.684  23.431  24.836  1.00  0.00     0.002 A 
ATOM     67  C   UNL A   1      42.525  21.735  26.082  1.00  0.00     0.091 A 
ATOM     68  F   UNL A   1      41.444  22.287  28.087  1.00  0.00    -0.205 F 
ATOM     69  C   UNL A   1      43.212  22.129  24.932  1.00  0.00     0.022 A 
BRANCH  67  70
ATOM     70  S   UNL A   1      41.999  20.012  26.186  1.00  0.00     0.127 S 
ATOM     71  O   UNL A   1      42.674  19.412  25.037  1.00  0.00    -0.237 OA
ATOM     72  O   UNL A   1      42.527  19.596  27.487  1.00  0.00    -0.237 OA
ATOM     73  O   UNL A   1      40.542  20.034  26.117  1.00  0.00    -0.744 OA
ENDBRANCH  67  70
ENDBRANCH  49  63
BRANCH  50  74
ATOM     74  C   UNL A   1      40.793  31.671  32.494  1.00  0.00     0.023 A 
ATOM     75  C   UNL A   1      39.705  30.777  32.666  1.00  0.00     0.012 A 
ATOM     76  C   UNL A   1      40.866  32.807  33.319  1.00  0.00     0.148 A 
ATOM     77  C   UNL A   1      38.820  30.922  33.736  1.00  0.00     0.002 A 
ATOM     78  C   UNL A   1      39.964  32.957  34.371  1.00  0.00     0.091 A 
ATOM     79  F   UNL A   1      41.859  33.683  33.122  1.00  0.00    -0.205 F 
ATOM     80  C   UNL A   1      38.974  31.991  34.612  1.00  0.00     0.022 A 
BRANCH  78  81
ATOM     81  S   UNL A   1      40.106  34.323  35.531  1.00  0.00     0.127 S 
ATOM     82  O   UNL A   1      40.243  35.460  34.626  1.00  0.00    -0.237 OA
ATOM     83  O   UNL A   1      38.838  34.260  36.254  1.00  0.00    -0.237 OA
ATOM     84  O   UNL A   1      41.270  33.997  36.342  1.00  0.00    -0.744 OA
ENDBRANCH  78  81
ENDBRANCH  50  74
BRANCH  62  85
ATOM     85  C   UNL A   1      45.474  26.069  32.801  1.00  0.00     0.023 A 
ATOM     86  C   UNL A   1      46.868  25.872  32.778  1.00  0.00     0.012 A 
ATOM     87  C   UNL A   1      44.735  25.154  33.604  1.00  0.00     0.148 A 
ATOM     88  C   UNL A   1      47.507  24.941  33.610  1.00  0.00     0.002 A 
ATOM     89  C   UNL A   1      45.366  24.209  34.410  1.00  0.00     0.091 A 
ATOM     90  F   UNL A   1      43.399  25.150  33.561  1.00  0.00    -0.205 F 
ATOM     91  C   UNL A   1      46.757  24.124  34.441  1.00  0.00     0.022 A 
BRANCH  89  92
ATOM     92  S   UNL A   1      44.450  23.032  35.419  1.00  0.00     0.127 S 
ATOM     93  O   UNL A   1      44.901  21.756  34.865  1.00  0.00    -0.237 OA
ATOM     94  O   UNL A   1      44.954  23.327  36.760  1.00  0.00    -0.237 OA
ATOM     95  O   UNL A   1      43.039  23.334  35.221  1.00  0.00    -0.744 OA
ENDBRANCH  89  92
ENDBRANCH  62  85
ENDBRANCH  36  37
ENDBRANCH  28  31
ENDBRANCH  26  27
ENDBRANCH  25  26
ENDBRANCH   1  25
TORSDOF 17
ENDMDL
MODEL 3
REMARK VINA RESULT:     -12.0      1.938      2.437
REMARK SMILES Cc1ccc(Nc2c(F)cccc2I)c(CC(=O)NCCCCNC(=O)c2ccc(-c3c4nc(c(-c5cccc(S(=O)(=O)[O-])c5F)c5ccc([nH]5)c(-c5cccc(S(=O)(=O)[O-])c5F)c5nc(c(-c6cccc(S(=O)(=O)[O-])c6F)c6ccc3[nH]6)C=C5)C=C4)cc2)c1
REMARK SMILES IDX 21 1 20 2 19 3 17 4 18 5 16 7 15 8 1 9 2 10 3 11 90 12 4 13
REMARK SMILES IDX 5 14 6 15 7 17 8 18 13 19 9 20 10 21 12 22 14 23 11 24 22 25
REMARK SMILES IDX 23 26 24 27 25 28 26 30 27 31 28 32 89 33 29 34 88 35 30 36
REMARK SMILES IDX 31 37 32 38 82 39 33 40 87 41 81 42 83 43 34 44 86 45 80 46
REMARK SMILES IDX 79 47 35 49 67 50 47 51 66 52 48 53 51 54 65 55 84 56 49 57
REMARK SMILES IDX 50 58 64 60 85 61 52 62 36 63 37 64 45 65 38 66 40 67 46 68
REMARK SMILES IDX 39 69 41 70 42 71 43 72 44 73 68 74 69 75 77 76 70 77 72 78
REMARK SMILES IDX 78 79 71 80 73 81 74 82 75 83 76 84 53 85 54 86 62 87 55 88
REMARK SMILES IDX 57 89 63 90 56 91 58 92 59 93 60 94 61 95
REMARK H PARENT 19 6 6 16 24 29 83 48 51 59
REMARK Flexibility Score: inf
ROOT
ATOM      1  C   UNL A   1      32.286  30.295  25.567  1.00  0.00     0.023 C 
ENDROOT
BRANCH   1   2
ATOM      2  C   UNL A   1      33.278  29.155  25.285  1.00  0.00     0.116 C 
BRANCH   2   3
ATOM      3  N   UNL A   1      33.656  29.047  23.884  1.00  0.00    -0.356 N 
ATOM      4  C   UNL A   1      33.399  28.060  22.982  1.00  0.00     0.224 C 
ATOM      5  O   UNL A   1      33.896  28.140  21.854  1.00  0.00    -0.275 OA
ATOM      6  H   UNL A   1      34.179  29.805  23.534  1.00  0.00     0.163 HD
BRANCH   4   7
ATOM      7  C   UNL A   1      32.546  26.861  23.345  1.00  0.00     0.137 C 
BRANCH   7   8
ATOM      8  C   UNL A   1      31.058  27.125  23.279  1.00  0.00    -0.015 A 
ATOM      9  C   UNL A   1      28.921  30.289  23.135  1.00  0.00     0.044 C 
ATOM     10  C   UNL A   1      29.316  28.843  23.167  1.00  0.00    -0.051 A 
ATOM     11  C   UNL A   1      28.357  27.852  23.362  1.00  0.00     0.005 A 
ATOM     12  C   UNL A   1      30.656  28.465  23.076  1.00  0.00     0.009 A 
ATOM     13  C   UNL A   1      28.738  26.513  23.501  1.00  0.00     0.026 A 
ATOM     14  C   UNL A   1      30.086  26.119  23.495  1.00  0.00     0.042 A 
BRANCH  14  15
ATOM     15  N   UNL A   1      30.454  24.771  23.709  1.00  0.00    -0.352 N 
ATOM     16  H   UNL A   1      30.190  24.152  22.992  1.00  0.00     0.167 HD
BRANCH  15  17
ATOM     17  C   UNL A   1      31.140  24.170  24.790  1.00  0.00     0.088 A 
ATOM     18  C   UNL A   1      30.744  24.369  26.122  1.00  0.00     0.147 A 
ATOM     19  C   UNL A   1      32.300  23.395  24.581  1.00  0.00     0.040 A 
ATOM     20  F   UNL A   1      29.638  25.077  26.405  1.00  0.00    -0.205 F 
ATOM     21  C   UNL A   1      31.451  23.826  27.197  1.00  0.00     0.041 A 
ATOM     22  C   UNL A   1      33.018  22.852  25.656  1.00  0.00     0.017 A 
ATOM     23  I   UNL A   1      33.079  23.034  22.664  1.00  0.00    -0.042 I 
ATOM     24  C   UNL A   1      32.593  23.068  26.965  1.00  0.00     0.004 A 
ENDBRANCH  15  17
ENDBRANCH  14  15
ENDBRANCH   7   8
ENDBRANCH   4   7
ENDBRANCH   2   3
ENDBRANCH   1   2
BRANCH   1  25
ATOM     25  C   UNL A   1      32.443  31.002  26.911  1.00  0.00     0.023 C 
BRANCH  25  26
ATOM     26  C   UNL A   1      33.674  30.573  27.685  1.00  0.00     0.116 C 
BRANCH  26  27
ATOM     27  N   UNL A   1      34.687  31.606  27.807  1.00  0.00    -0.352 N 
ATOM     28  C   UNL A   1      35.995  31.505  28.244  1.00  0.00     0.251 C 
ATOM     29  H   UNL A   1      34.401  32.509  27.537  1.00  0.00     0.163 HD
ATOM     30  O   UNL A   1      36.603  32.541  28.508  1.00  0.00    -0.269 OA
BRANCH  28  31
ATOM     31  C   UNL A   1      36.693  30.192  28.226  1.00  0.00     0.039 A 
ATOM     32  C   UNL A   1      36.648  29.430  29.402  1.00  0.00     0.014 A 
ATOM     33  C   UNL A   1      37.601  29.864  27.225  1.00  0.00     0.014 A 
ATOM     34  C   UNL A   1      37.703  28.575  29.706  1.00  0.00     0.010 A 
ATOM     35  C   UNL A   1      38.697  29.102  27.560  1.00  0.00     0.010 A 
ATOM     36  C   UNL A   1      38.782  28.539  28.836  1.00  0.00    -0.014 A 
BRANCH  36  37
ATOM     37  C   UNL A   1      40.088  27.998  29.155  1.00  0.00     0.031 A 
ATOM     38  C   UNL A   1      40.400  26.606  28.806  1.00  0.00     0.074 A 
ATOM     39  C   UNL A   1      41.063  28.873  29.496  1.00  0.00     0.049 A 
ATOM     40  N   UNL A   1      41.509  26.038  29.121  1.00  0.00    -0.248 NA
ATOM     41  C   UNL A   1      39.476  25.729  28.091  1.00  0.00     0.031 C 
ATOM     42  C   UNL A   1      42.507  28.694  29.386  1.00  0.00     0.029 A 
ATOM     43  N   UNL A   1      40.929  30.057  30.230  1.00  0.00    -0.354 N 
ATOM     44  C   UNL A   1      41.593  24.899  28.362  1.00  0.00     0.074 A 
ATOM     45  C   UNL A   1      40.257  24.664  27.878  1.00  0.00     0.031 C 
ATOM     46  C   UNL A   1      43.111  29.531  30.243  1.00  0.00     0.029 A 
ATOM     47  C   UNL A   1      42.064  30.109  31.064  1.00  0.00     0.049 A 
ATOM     48  H   UNL A   1      40.197  30.713  30.177  1.00  0.00     0.167 HD
ATOM     49  C   UNL A   1      42.827  24.394  28.104  1.00  0.00     0.034 A 
ATOM     50  C   UNL A   1      41.985  30.006  32.426  1.00  0.00     0.034 A 
ATOM     51  C   UNL A   1      43.842  24.995  28.985  1.00  0.00     0.049 A 
ATOM     52  C   UNL A   1      42.741  28.801  32.988  1.00  0.00     0.074 A 
ATOM     53  C   UNL A   1      44.908  25.862  28.819  1.00  0.00     0.029 A 
ATOM     54  N   UNL A   1      43.645  24.899  30.357  1.00  0.00    -0.354 N 
ATOM     55  N   UNL A   1      43.483  27.980  32.292  1.00  0.00    -0.248 NA
ATOM     56  C   UNL A   1      42.629  28.381  34.384  1.00  0.00     0.031 C 
ATOM     57  C   UNL A   1      45.298  26.337  30.116  1.00  0.00     0.029 A 
ATOM     58  C   UNL A   1      44.508  25.716  31.067  1.00  0.00     0.049 A 
ATOM     59  H   UNL A   1      42.971  24.317  30.774  1.00  0.00     0.167 HD
ATOM     60  C   UNL A   1      43.788  26.871  33.047  1.00  0.00     0.074 A 
ATOM     61  C   UNL A   1      43.258  27.194  34.363  1.00  0.00     0.031 C 
ATOM     62  C   UNL A   1      44.375  25.745  32.523  1.00  0.00     0.034 A 
BRANCH  49  63
ATOM     63  C   UNL A   1      43.152  23.439  26.973  1.00  0.00     0.023 A 
ATOM     64  C   UNL A   1      43.848  23.962  25.863  1.00  0.00     0.012 A 
ATOM     65  C   UNL A   1      42.737  22.086  26.870  1.00  0.00     0.148 A 
ATOM     66  C   UNL A   1      44.121  23.193  24.724  1.00  0.00     0.002 A 
ATOM     67  C   UNL A   1      43.081  21.296  25.769  1.00  0.00     0.091 A 
ATOM     68  F   UNL A   1      41.907  21.564  27.780  1.00  0.00    -0.205 F 
ATOM     69  C   UNL A   1      43.760  21.853  24.684  1.00  0.00     0.022 A 
BRANCH  67  70
ATOM     70  S   UNL A   1      42.701  19.534  25.697  1.00  0.00     0.127 S 
ATOM     71  O   UNL A   1      41.270  19.539  25.397  1.00  0.00    -0.237 OA
ATOM     72  O   UNL A   1      43.551  19.069  24.599  1.00  0.00    -0.237 OA
ATOM     73  O   UNL A   1      43.067  18.993  27.001  1.00  0.00    -0.744 OA
ENDBRANCH  67  70
ENDBRANCH  49  63
BRANCH  50  74
ATOM     74  C   UNL A   1      40.708  30.568  32.975  1.00  0.00     0.023 A 
ATOM     75  C   UNL A   1      39.542  29.778  32.813  1.00  0.00     0.012 A 
ATOM     76  C   UNL A   1      40.706  31.578  33.954  1.00  0.00     0.148 A 
ATOM     77  C   UNL A   1      38.476  29.880  33.709  1.00  0.00     0.002 A 
ATOM     78  C   UNL A   1      39.627  31.688  34.830  1.00  0.00     0.091 A 
ATOM     79  F   UNL A   1      41.783  32.363  34.072  1.00  0.00    -0.205 F 
ATOM     80  C   UNL A   1      38.537  30.808  34.743  1.00  0.00     0.022 A 
BRANCH  78  81
ATOM     81  S   UNL A   1      39.643  32.876  36.180  1.00  0.00     0.127 S 
ATOM     82  O   UNL A   1      38.466  32.466  36.940  1.00  0.00    -0.237 OA
ATOM     83  O   UNL A   1      40.923  32.601  36.830  1.00  0.00    -0.237 OA
ATOM     84  O   UNL A   1      39.574  34.175  35.528  1.00  0.00    -0.744 OA
ENDBRANCH  78  81
ENDBRANCH  50  74
BRANCH  62  85
ATOM     85  C   UNL A   1      44.779  24.511  33.337  1.00  0.00     0.023 A 
ATOM     86  C   UNL A   1      43.828  23.563  33.763  1.00  0.00     0.012 A 
ATOM     87  C   UNL A   1      46.112  24.296  33.790  1.00  0.00     0.148 A 
ATOM     88  C   UNL A   1      44.191  22.399  34.456  1.00  0.00     0.002 A 
ATOM     89  C   UNL A   1      46.469  23.153  34.502  1.00  0.00     0.091 A 
ATOM     90  F   UNL A   1      47.050  25.223  33.581  1.00  0.00    -0.205 F 
ATOM     91  C   UNL A   1      45.514  22.183  34.807  1.00  0.00     0.022 A 
BRANCH  89  92
ATOM     92  S   UNL A   1      48.144  22.869  35.099  1.00  0.00     0.127 S 
ATOM     93  O   UNL A   1      48.177  21.410  35.198  1.00  0.00    -0.237 OA
ATOM     94  O   UNL A   1      48.950  23.426  34.012  1.00  0.00    -0.237 OA
ATOM     95  O   UNL A   1      48.255  23.583  36.364  1.00  0.00    -0.744 OA
ENDBRANCH  89  92
ENDBRANCH  62  85
ENDBRANCH  36  37
ENDBRANCH  28  31
ENDBRANCH  26  27
ENDBRANCH  25  26
ENDBRANCH   1  25
TORSDOF 17
ENDMDL
