MODEL 1
REMARK VINA RESULT:     -12.6      0.000      0.000
REMARK SMILES Cc1ccc2c(c1C)O[C@@H](C(=O)NCCCCNC(=O)c1ccc(-c3c4nc(c(-c5cccc(S(=O)(=O)[O-])c5F)c5ccc([nH]5)c(-c5cccc(S(=O)(=O)[O-])c5F)c5nc(c(-c6cccc(S(=O)(=O)[O-])c6F)c6ccc3[nH]6)C=C5)C=C4)cc1)CC2=O
REMARK SMILES IDX 17 1 16 2 15 3 14 4 13 5 11 6 12 7 10 9 1 10 2 11 3 12 7 13
REMARK SMILES IDX 4 14 6 15 8 16 5 17 9 18 85 19 84 20 86 21 18 22 19 23 20 25
REMARK SMILES IDX 21 26 22 27 83 28 23 29 82 30 24 31 25 32 26 33 76 34 27 35
REMARK SMILES IDX 81 36 75 37 77 38 28 39 80 40 74 41 73 42 29 44 61 45 41 46
REMARK SMILES IDX 60 47 42 48 45 49 59 50 78 51 43 52 44 53 58 55 79 56 46 57
REMARK SMILES IDX 30 58 31 59 39 60 32 61 34 62 40 63 33 64 35 65 36 66 37 67
REMARK SMILES IDX 38 68 62 69 63 70 71 71 64 72 66 73 72 74 65 75 67 76 68 77
REMARK SMILES IDX 69 78 70 79 47 80 48 81 56 82 49 83 51 84 57 85 50 86 52 87
REMARK SMILES IDX 53 88 54 89 55 90
REMARK H PARENT 13 8 18 24 77 43 45 54
REMARK Flexibility Score: inf
ROOT
ATOM      1  C   UNL A   1      32.765  29.933  26.083  1.00  0.00     0.116 C 
ENDROOT
BRANCH   1   2
ATOM      2  C   UNL A   1      31.688  28.890  26.368  1.00  0.00     0.023 C 
BRANCH   2   3
ATOM      3  C   UNL A   1      32.188  27.446  26.442  1.00  0.00     0.023 C 
BRANCH   3   4
ATOM      4  C   UNL A   1      31.104  26.399  26.183  1.00  0.00     0.116 C 
BRANCH   4   5
ATOM      5  N   UNL A   1      31.364  25.155  26.877  1.00  0.00    -0.353 N 
ATOM      6  C   UNL A   1      32.146  24.085  26.586  1.00  0.00     0.261 C 
ATOM      7  O   UNL A   1      32.212  23.201  27.450  1.00  0.00    -0.271 OA
ATOM      8  H   UNL A   1      30.877  25.068  27.729  1.00  0.00     0.163 HD
BRANCH   6   9
ATOM      9  C   UNL A   1      32.880  23.883  25.238  1.00  0.00     0.269 C 
ATOM     10  C   UNL A   1      34.482  18.017  24.476  1.00  0.00     0.045 C 
ATOM     11  C   UNL A   1      34.696  19.499  24.621  1.00  0.00    -0.044 A 
ATOM     12  C   UNL A   1      35.966  19.961  25.001  1.00  0.00     0.005 A 
ATOM     13  C   UNL A   1      33.653  20.430  24.414  1.00  0.00    -0.005 A 
ATOM     14  C   UNL A   1      36.204  21.320  25.187  1.00  0.00     0.016 A 
ATOM     15  C   UNL A   1      33.889  21.797  24.671  1.00  0.00     0.134 A 
ATOM     16  C   UNL A   1      32.270  20.003  23.988  1.00  0.00     0.049 C 
ATOM     17  C   UNL A   1      35.159  22.233  25.033  1.00  0.00     0.060 A 
ATOM     18  O   UNL A   1      32.802  22.618  24.607  1.00  0.00    -0.479 OA
ATOM     19  C   UNL A   1      35.388  23.656  25.319  1.00  0.00     0.170 C 
ATOM     20  C   UNL A   1      34.226  24.588  25.199  1.00  0.00     0.136 C 
ATOM     21  O   UNL A   1      36.512  24.062  25.604  1.00  0.00    -0.294 OA
ENDBRANCH   6   9
ENDBRANCH   4   5
ENDBRANCH   3   4
ENDBRANCH   2   3
ENDBRANCH   1   2
BRANCH   1  22
ATOM     22  N   UNL A   1      32.412  31.282  26.508  1.00  0.00    -0.352 N 
ATOM     23  C   UNL A   1      33.166  32.124  27.293  1.00  0.00     0.251 C 
ATOM     24  H   UNL A   1      31.541  31.626  26.202  1.00  0.00     0.163 HD
ATOM     25  O   UNL A   1      32.751  33.230  27.627  1.00  0.00    -0.269 OA
BRANCH  23  26
ATOM     26  C   UNL A   1      34.481  31.640  27.759  1.00  0.00     0.039 A 
ATOM     27  C   UNL A   1      35.508  32.564  27.964  1.00  0.00     0.014 A 
ATOM     28  C   UNL A   1      34.638  30.299  28.120  1.00  0.00     0.014 A 
ATOM     29  C   UNL A   1      36.676  32.154  28.609  1.00  0.00     0.010 A 
ATOM     30  C   UNL A   1      35.782  29.907  28.806  1.00  0.00     0.010 A 
ATOM     31  C   UNL A   1      36.804  30.832  29.068  1.00  0.00    -0.014 A 
BRANCH  31  32
ATOM     32  C   UNL A   1      37.990  30.402  29.848  1.00  0.00     0.031 A 
ATOM     33  C   UNL A   1      38.961  29.423  29.258  1.00  0.00     0.074 A 
ATOM     34  C   UNL A   1      38.142  30.822  31.120  1.00  0.00     0.049 A 
ATOM     35  N   UNL A   1      40.025  28.892  29.802  1.00  0.00    -0.248 NA
ATOM     36  C   UNL A   1      38.690  28.958  27.888  1.00  0.00     0.031 C 
ATOM     37  C   UNL A   1      37.221  31.709  31.836  1.00  0.00     0.029 A 
ATOM     38  N   UNL A   1      39.115  30.538  32.045  1.00  0.00    -0.354 N 
ATOM     39  C   UNL A   1      40.528  28.007  28.860  1.00  0.00     0.074 A 
ATOM     40  C   UNL A   1      39.644  28.054  27.715  1.00  0.00     0.031 C 
ATOM     41  C   UNL A   1      37.679  31.902  33.084  1.00  0.00     0.029 A 
ATOM     42  C   UNL A   1      38.915  31.144  33.263  1.00  0.00     0.049 A 
ATOM     43  H   UNL A   1      39.885  29.954  31.854  1.00  0.00     0.167 HD
ATOM     44  C   UNL A   1      41.644  27.248  28.926  1.00  0.00     0.034 A 
ATOM     45  C   UNL A   1      39.648  31.104  34.393  1.00  0.00     0.034 A 
ATOM     46  C   UNL A   1      42.563  27.256  30.028  1.00  0.00     0.049 A 
ATOM     47  C   UNL A   1      40.923  30.306  34.417  1.00  0.00     0.074 A 
ATOM     48  C   UNL A   1      43.780  26.607  30.135  1.00  0.00     0.029 A 
ATOM     49  N   UNL A   1      42.371  27.950  31.211  1.00  0.00    -0.354 N 
ATOM     50  N   UNL A   1      41.465  29.597  33.457  1.00  0.00    -0.248 NA
ATOM     51  C   UNL A   1      41.702  30.324  35.665  1.00  0.00     0.031 C 
ATOM     52  C   UNL A   1      44.328  26.915  31.384  1.00  0.00     0.029 A 
ATOM     53  C   UNL A   1      43.447  27.747  32.055  1.00  0.00     0.049 A 
ATOM     54  H   UNL A   1      41.584  28.505  31.419  1.00  0.00     0.167 HD
ATOM     55  C   UNL A   1      42.657  29.103  33.974  1.00  0.00     0.074 A 
ATOM     56  C   UNL A   1      42.767  29.604  35.329  1.00  0.00     0.031 C 
ATOM     57  C   UNL A   1      43.569  28.296  33.381  1.00  0.00     0.034 A 
BRANCH  44  58
ATOM     58  C   UNL A   1      41.979  26.403  27.731  1.00  0.00     0.023 A 
ATOM     59  C   UNL A   1      42.638  27.001  26.638  1.00  0.00     0.012 A 
ATOM     60  C   UNL A   1      41.693  25.026  27.706  1.00  0.00     0.148 A 
ATOM     61  C   UNL A   1      42.994  26.242  25.526  1.00  0.00     0.002 A 
ATOM     62  C   UNL A   1      42.074  24.270  26.603  1.00  0.00     0.091 A 
ATOM     63  F   UNL A   1      41.047  24.487  28.749  1.00  0.00    -0.205 F 
ATOM     64  C   UNL A   1      42.720  24.877  25.512  1.00  0.00     0.022 A 
BRANCH  62  65
ATOM     65  S   UNL A   1      41.804  22.498  26.500  1.00  0.00     0.127 S 
ATOM     66  O   UNL A   1      40.345  22.419  26.568  1.00  0.00    -0.237 OA
ATOM     67  O   UNL A   1      42.371  22.175  25.190  1.00  0.00    -0.237 OA
ATOM     68  O   UNL A   1      42.512  21.915  27.631  1.00  0.00    -0.744 OA
ENDBRANCH  62  65
ENDBRANCH  44  58
BRANCH  45  69
ATOM     69  C   UNL A   1      39.237  31.927  35.561  1.00  0.00     0.023 A 
ATOM     70  C   UNL A   1      39.561  33.298  35.574  1.00  0.00     0.012 A 
ATOM     71  C   UNL A   1      38.477  31.386  36.615  1.00  0.00     0.148 A 
ATOM     72  C   UNL A   1      39.144  34.116  36.623  1.00  0.00     0.002 A 
ATOM     73  C   UNL A   1      38.037  32.214  37.642  1.00  0.00     0.091 A 
ATOM     74  F   UNL A   1      38.179  30.080  36.576  1.00  0.00    -0.205 F 
ATOM     75  C   UNL A   1      38.377  33.577  37.653  1.00  0.00     0.022 A 
BRANCH  73  76
ATOM     76  S   UNL A   1      36.969  31.640  38.967  1.00  0.00     0.127 S 
ATOM     77  O   UNL A   1      37.864  31.697  40.121  1.00  0.00    -0.237 OA
ATOM     78  O   UNL A   1      35.913  32.653  38.956  1.00  0.00    -0.237 OA
ATOM     79  O   UNL A   1      36.537  30.304  38.580  1.00  0.00    -0.744 OA
ENDBRANCH  73  76
ENDBRANCH  45  69
BRANCH  57  80
ATOM     80  C   UNL A   1      44.779  27.888  34.173  1.00  0.00     0.023 A 
ATOM     81  C   UNL A   1      45.907  28.730  34.178  1.00  0.00     0.012 A 
ATOM     82  C   UNL A   1      44.743  26.763  35.018  1.00  0.00     0.148 A 
ATOM     83  C   UNL A   1      46.986  28.458  35.017  1.00  0.00     0.002 A 
ATOM     84  C   UNL A   1      45.810  26.515  35.874  1.00  0.00     0.091 A 
ATOM     85  F   UNL A   1      43.661  25.971  34.984  1.00  0.00    -0.205 F 
ATOM     86  C   UNL A   1      46.932  27.360  35.873  1.00  0.00     0.022 A 
BRANCH  84  87
ATOM     87  S   UNL A   1      45.798  25.173  37.069  1.00  0.00     0.127 S 
ATOM     88  O   UNL A   1      45.846  23.999  36.200  1.00  0.00    -0.237 OA
ATOM     89  O   UNL A   1      47.025  25.423  37.828  1.00  0.00    -0.237 OA
ATOM     90  O   UNL A   1      44.570  25.330  37.838  1.00  0.00    -0.744 OA
ENDBRANCH  84  87
ENDBRANCH  57  80
ENDBRANCH  31  32
ENDBRANCH  23  26
ENDBRANCH   1  22
TORSDOF 14
ENDMDL
MODEL 2
REMARK VINA RESULT:     -12.6      1.016      7.828
REMARK SMILES Cc1ccc2c(c1C)O[C@@H](C(=O)NCCCCNC(=O)c1ccc(-c3c4nc(c(-c5cccc(S(=O)(=O)[O-])c5F)c5ccc([nH]5)c(-c5cccc(S(=O)(=O)[O-])c5F)c5nc(c(-c6cccc(S(=O)(=O)[O-])c6F)c6ccc3[nH]6)C=C5)C=C4)cc1)CC2=O
REMARK SMILES IDX 17 1 16 2 15 3 14 4 13 5 11 6 12 7 10 9 1 10 2 11 3 12 7 13
REMARK SMILES IDX 4 14 6 15 8 16 5 17 9 18 85 19 84 20 86 21 18 22 19 23 20 25
REMARK SMILES IDX 21 26 22 27 83 28 23 29 82 30 24 31 25 32 26 33 76 34 27 35
REMARK SMILES IDX 81 36 75 37 77 38 28 39 80 40 74 41 73 42 29 44 61 45 41 46
REMARK SMILES IDX 60 47 42 48 45 49 59 50 78 51 43 52 44 53 58 55 79 56 46 57
REMARK SMILES IDX 30 58 31 59 39 60 32 61 34 62 40 63 33 64 35 65 36 66 37 67
REMARK SMILES IDX 38 68 62 69 63 70 71 71 64 72 66 73 72 74 65 75 67 76 68 77
REMARK SMILES IDX 69 78 70 79 47 80 48 81 56 82 49 83 51 84 57 85 50 86 52 87
REMARK SMILES IDX 53 88 54 89 55 90
REMARK H PARENT 13 8 18 24 77 43 45 54
REMARK Flexibility Score: inf
ROOT
ATOM      1  C   UNL A   1      32.433  29.799  26.531  1.00  0.00     0.116 C 
ENDROOT
BRANCH   1   2
ATOM      2  C   UNL A   1      31.453  29.212  25.519  1.00  0.00     0.023 C 
BRANCH   2   3
ATOM      3  C   UNL A   1      31.987  29.102  24.090  1.00  0.00     0.023 C 
BRANCH   3   4
ATOM      4  C   UNL A   1      33.449  28.661  24.006  1.00  0.00     0.116 C 
BRANCH   4   5
ATOM      5  N   UNL A   1      33.630  27.517  23.136  1.00  0.00    -0.353 N 
ATOM      6  C   UNL A   1      33.656  26.180  23.368  1.00  0.00     0.261 C 
ATOM      7  O   UNL A   1      33.748  25.451  22.373  1.00  0.00    -0.271 OA
ATOM      8  H   UNL A   1      33.759  27.756  22.190  1.00  0.00     0.163 HD
BRANCH   6   9
ATOM      9  C   UNL A   1      33.652  25.540  24.778  1.00  0.00     0.269 C 
ATOM     10  C   UNL A   1      37.413  20.707  24.998  1.00  0.00     0.045 C 
ATOM     11  C   UNL A   1      36.104  21.443  25.089  1.00  0.00    -0.044 A 
ATOM     12  C   UNL A   1      34.912  20.710  24.984  1.00  0.00     0.005 A 
ATOM     13  C   UNL A   1      36.044  22.846  25.247  1.00  0.00    -0.005 A 
ATOM     14  C   UNL A   1      33.676  21.350  25.022  1.00  0.00     0.016 A 
ATOM     15  C   UNL A   1      34.788  23.489  25.217  1.00  0.00     0.134 A 
ATOM     16  C   UNL A   1      37.286  23.692  25.384  1.00  0.00     0.049 C 
ATOM     17  C   UNL A   1      33.620  22.741  25.126  1.00  0.00     0.060 A 
ATOM     18  O   UNL A   1      34.810  24.853  25.214  1.00  0.00    -0.479 OA
ATOM     19  C   UNL A   1      32.319  23.423  25.074  1.00  0.00     0.170 C 
ATOM     20  C   UNL A   1      32.311  24.916  25.128  1.00  0.00     0.136 C 
ATOM     21  O   UNL A   1      31.277  22.775  25.031  1.00  0.00    -0.294 OA
ENDBRANCH   6   9
ENDBRANCH   4   5
ENDBRANCH   3   4
ENDBRANCH   2   3
ENDBRANCH   1   2
BRANCH   1  22
ATOM     22  N   UNL A   1      32.250  31.224  26.776  1.00  0.00    -0.352 N 
ATOM     23  C   UNL A   1      33.152  32.084  27.363  1.00  0.00     0.251 C 
ATOM     24  H   UNL A   1      31.392  31.613  26.493  1.00  0.00     0.163 HD
ATOM     25  O   UNL A   1      32.876  33.264  27.559  1.00  0.00    -0.269 OA
BRANCH  23  26
ATOM     26  C   UNL A   1      34.454  31.532  27.789  1.00  0.00     0.039 A 
ATOM     27  C   UNL A   1      35.520  32.406  28.009  1.00  0.00     0.014 A 
ATOM     28  C   UNL A   1      34.562  30.174  28.102  1.00  0.00     0.014 A 
ATOM     29  C   UNL A   1      36.680  31.928  28.620  1.00  0.00     0.010 A 
ATOM     30  C   UNL A   1      35.699  29.713  28.755  1.00  0.00     0.010 A 
ATOM     31  C   UNL A   1      36.762  30.588  29.031  1.00  0.00    -0.014 A 
BRANCH  31  32
ATOM     32  C   UNL A   1      37.942  30.084  29.776  1.00  0.00     0.031 A 
ATOM     33  C   UNL A   1      38.205  30.559  31.175  1.00  0.00     0.074 A 
ATOM     34  C   UNL A   1      38.824  29.272  29.160  1.00  0.00     0.049 A 
ATOM     35  N   UNL A   1      39.206  30.272  31.964  1.00  0.00    -0.248 NA
ATOM     36  C   UNL A   1      37.231  31.498  31.754  1.00  0.00     0.031 C 
ATOM     37  C   UNL A   1      38.724  28.806  27.775  1.00  0.00     0.029 A 
ATOM     38  N   UNL A   1      39.993  28.714  29.614  1.00  0.00    -0.354 N 
ATOM     39  C   UNL A   1      39.005  31.020  33.115  1.00  0.00     0.074 A 
ATOM     40  C   UNL A   1      37.796  31.791  32.917  1.00  0.00     0.031 C 
ATOM     41  C   UNL A   1      39.783  28.027  27.497  1.00  0.00     0.029 A 
ATOM     42  C   UNL A   1      40.643  27.949  28.675  1.00  0.00     0.049 A 
ATOM     43  H   UNL A   1      40.335  28.850  30.528  1.00  0.00     0.167 HD
ATOM     44  C   UNL A   1      39.740  31.039  34.250  1.00  0.00     0.034 A 
ATOM     45  C   UNL A   1      41.795  27.254  28.755  1.00  0.00     0.034 A 
ATOM     46  C   UNL A   1      40.895  30.219  34.478  1.00  0.00     0.049 A 
ATOM     47  C   UNL A   1      42.557  27.236  30.051  1.00  0.00     0.074 A 
ATOM     48  C   UNL A   1      41.637  30.086  35.638  1.00  0.00     0.029 A 
ATOM     49  N   UNL A   1      41.474  29.391  33.532  1.00  0.00    -0.354 N 
ATOM     50  N   UNL A   1      42.264  27.829  31.183  1.00  0.00    -0.248 NA
ATOM     51  C   UNL A   1      43.789  26.434  30.093  1.00  0.00     0.031 C 
ATOM     52  C   UNL A   1      42.663  29.169  35.394  1.00  0.00     0.029 A 
ATOM     53  C   UNL A   1      42.565  28.741  34.080  1.00  0.00     0.049 A 
ATOM     54  H   UNL A   1      41.157  29.282  32.606  1.00  0.00     0.167 HD
ATOM     55  C   UNL A   1      43.260  27.455  32.078  1.00  0.00     0.074 A 
ATOM     56  C   UNL A   1      44.159  26.574  31.362  1.00  0.00     0.031 C 
ATOM     57  C   UNL A   1      43.419  27.824  33.372  1.00  0.00     0.034 A 
BRANCH  44  58
ATOM     58  C   UNL A   1      39.264  31.919  35.368  1.00  0.00     0.023 A 
ATOM     59  C   UNL A   1      39.531  33.302  35.308  1.00  0.00     0.012 A 
ATOM     60  C   UNL A   1      38.518  31.399  36.441  1.00  0.00     0.148 A 
ATOM     61  C   UNL A   1      39.076  34.155  36.310  1.00  0.00     0.002 A 
ATOM     62  C   UNL A   1      38.046  32.260  37.426  1.00  0.00     0.091 A 
ATOM     63  F   UNL A   1      38.297  30.078  36.486  1.00  0.00    -0.205 F 
ATOM     64  C   UNL A   1      38.328  33.636  37.363  1.00  0.00     0.022 A 
BRANCH  62  65
ATOM     65  S   UNL A   1      37.041  31.702  38.804  1.00  0.00     0.127 S 
ATOM     66  O   UNL A   1      37.968  31.853  39.924  1.00  0.00    -0.237 OA
ATOM     67  O   UNL A   1      35.938  32.664  38.791  1.00  0.00    -0.237 OA
ATOM     68  O   UNL A   1      36.656  30.332  38.494  1.00  0.00    -0.744 OA
ENDBRANCH  62  65
ENDBRANCH  44  58
BRANCH  45  69
ATOM     69  C   UNL A   1      42.238  26.438  27.593  1.00  0.00     0.023 A 
ATOM     70  C   UNL A   1      43.085  27.027  26.633  1.00  0.00     0.012 A 
ATOM     71  C   UNL A   1      41.890  25.080  27.468  1.00  0.00     0.148 A 
ATOM     72  C   UNL A   1      43.569  26.280  25.560  1.00  0.00     0.002 A 
ATOM     73  C   UNL A   1      42.402  24.333  26.413  1.00  0.00     0.091 A 
ATOM     74  F   UNL A   1      41.087  24.544  28.397  1.00  0.00    -0.205 F 
ATOM     75  C   UNL A   1      43.234  24.932  25.454  1.00  0.00     0.022 A 
BRANCH  73  76
ATOM     76  S   UNL A   1      42.107  22.569  26.235  1.00  0.00     0.127 S 
ATOM     77  O   UNL A   1      42.701  22.040  27.460  1.00  0.00    -0.237 OA
ATOM     78  O   UNL A   1      40.646  22.518  26.185  1.00  0.00    -0.237 OA
ATOM     79  O   UNL A   1      42.774  22.178  25.001  1.00  0.00    -0.744 OA
ENDBRANCH  73  76
ENDBRANCH  45  69
BRANCH  57  80
ATOM     80  C   UNL A   1      44.604  27.286  34.123  1.00  0.00     0.023 A 
ATOM     81  C   UNL A   1      45.812  28.008  34.100  1.00  0.00     0.012 A 
ATOM     82  C   UNL A   1      44.478  26.160  34.960  1.00  0.00     0.148 A 
ATOM     83  C   UNL A   1      46.882  27.617  34.903  1.00  0.00     0.002 A 
ATOM     84  C   UNL A   1      45.539  25.795  35.779  1.00  0.00     0.091 A 
ATOM     85  F   UNL A   1      43.320  25.484  34.952  1.00  0.00    -0.205 F 
ATOM     86  C   UNL A   1      46.742  26.521  35.752  1.00  0.00     0.022 A 
BRANCH  84  87
ATOM     87  S   UNL A   1      45.425  24.448  36.964  1.00  0.00     0.127 S 
ATOM     88  O   UNL A   1      46.706  24.554  37.659  1.00  0.00    -0.237 OA
ATOM     89  O   UNL A   1      44.262  24.836  37.764  1.00  0.00    -0.237 OA
ATOM     90  O   UNL A   1      45.240  23.235  36.178  1.00  0.00    -0.744 OA
ENDBRANCH  84  87
ENDBRANCH  57  80
ENDBRANCH  31  32
ENDBRANCH  23  26
ENDBRANCH   1  22
TORSDOF 14
ENDMDL
MODEL 3
REMARK VINA RESULT:     -12.5      1.938      7.987
REMARK SMILES Cc1ccc2c(c1C)O[C@@H](C(=O)NCCCCNC(=O)c1ccc(-c3c4nc(c(-c5cccc(S(=O)(=O)[O-])c5F)c5ccc([nH]5)c(-c5cccc(S(=O)(=O)[O-])c5F)c5nc(c(-c6cccc(S(=O)(=O)[O-])c6F)c6ccc3[nH]6)C=C5)C=C4)cc1)CC2=O
REMARK SMILES IDX 17 1 16 2 15 3 14 4 13 5 11 6 12 7 10 9 1 10 2 11 3 12 7 13
REMARK SMILES IDX 4 14 6 15 8 16 5 17 9 18 85 19 84 20 86 21 18 22 19 23 20 25
REMARK SMILES IDX 21 26 22 27 83 28 23 29 82 30 24 31 25 32 26 33 76 34 27 35
REMARK SMILES IDX 81 36 75 37 77 38 28 39 80 40 74 41 73 42 29 44 61 45 41 46
REMARK SMILES IDX 60 47 42 48 45 49 59 50 78 51 43 52 44 53 58 55 79 56 46 57
REMARK SMILES IDX 30 58 31 59 39 60 32 61 34 62 40 63 33 64 35 65 36 66 37 67
REMARK SMILES IDX 38 68 62 69 63 70 71 71 64 72 66 73 72 74 65 75 67 76 68 77
REMARK SMILES IDX 69 78 70 79 47 80 48 81 56 82 49 83 51 84 57 85 50 86 52 87
REMARK SMILES IDX 53 88 54 89 55 90
REMARK H PARENT 13 8 18 24 77 43 45 54
REMARK Flexibility Score: inf
ROOT
ATOM      1  C   UNL A   1      32.639  30.213  26.518  1.00  0.00     0.116 C 
ENDROOT
BRANCH   1   2
ATOM      2  C   UNL A   1      31.660  29.294  27.244  1.00  0.00     0.023 C 
BRANCH   2   3
ATOM      3  C   UNL A   1      31.841  27.802  26.960  1.00  0.00     0.023 C 
BRANCH   3   4
ATOM      4  C   UNL A   1      31.999  27.467  25.476  1.00  0.00     0.116 C 
BRANCH   4   5
ATOM      5  N   UNL A   1      30.756  27.604  24.746  1.00  0.00    -0.353 N 
ATOM      6  C   UNL A   1      30.091  26.778  23.899  1.00  0.00     0.261 C 
ATOM      7  O   UNL A   1      28.987  27.171  23.502  1.00  0.00    -0.271 OA
ATOM      8  H   UNL A   1      30.304  28.466  24.893  1.00  0.00     0.163 HD
BRANCH   6   9
ATOM      9  C   UNL A   1      30.658  25.441  23.361  1.00  0.00     0.269 C 
ATOM     10  C   UNL A   1      34.031  22.618  27.628  1.00  0.00     0.045 C 
ATOM     11  C   UNL A   1      33.748  23.282  26.308  1.00  0.00    -0.044 A 
ATOM     12  C   UNL A   1      34.826  23.793  25.568  1.00  0.00     0.005 A 
ATOM     13  C   UNL A   1      32.433  23.430  25.810  1.00  0.00    -0.005 A 
ATOM     14  C   UNL A   1      34.613  24.452  24.360  1.00  0.00     0.016 A 
ATOM     15  C   UNL A   1      32.226  24.157  24.619  1.00  0.00     0.134 A 
ATOM     16  C   UNL A   1      31.232  22.889  26.546  1.00  0.00     0.049 C 
ATOM     17  C   UNL A   1      33.310  24.642  23.896  1.00  0.00     0.060 A 
ATOM     18  O   UNL A   1      30.927  24.400  24.281  1.00  0.00    -0.479 OA
ATOM     19  C   UNL A   1      33.080  25.417  22.669  1.00  0.00     0.170 C 
ATOM     20  C   UNL A   1      31.667  25.647  22.243  1.00  0.00     0.136 C 
ATOM     21  O   UNL A   1      34.028  25.820  21.999  1.00  0.00    -0.294 OA
ENDBRANCH   6   9
ENDBRANCH   4   5
ENDBRANCH   3   4
ENDBRANCH   2   3
ENDBRANCH   1   2
BRANCH   1  22
ATOM     22  N   UNL A   1      32.482  31.625  26.846  1.00  0.00    -0.352 N 
ATOM     23  C   UNL A   1      33.385  32.424  27.511  1.00  0.00     0.251 C 
ATOM     24  H   UNL A   1      31.641  32.052  26.564  1.00  0.00     0.163 HD
ATOM     25  O   UNL A   1      33.131  33.595  27.773  1.00  0.00    -0.269 OA
BRANCH  23  26
ATOM     26  C   UNL A   1      34.660  31.814  27.939  1.00  0.00     0.039 A 
ATOM     27  C   UNL A   1      35.771  32.637  28.134  1.00  0.00     0.014 A 
ATOM     28  C   UNL A   1      34.702  30.458  28.275  1.00  0.00     0.014 A 
ATOM     29  C   UNL A   1      36.911  32.113  28.746  1.00  0.00     0.010 A 
ATOM     30  C   UNL A   1      35.820  29.952  28.929  1.00  0.00     0.010 A 
ATOM     31  C   UNL A   1      36.928  30.777  29.181  1.00  0.00    -0.014 A 
BRANCH  31  32
ATOM     32  C   UNL A   1      38.087  30.228  29.927  1.00  0.00     0.031 A 
ATOM     33  C   UNL A   1      38.351  30.672  31.335  1.00  0.00     0.074 A 
ATOM     34  C   UNL A   1      38.951  29.402  29.305  1.00  0.00     0.049 A 
ATOM     35  N   UNL A   1      39.337  30.344  32.128  1.00  0.00    -0.248 NA
ATOM     36  C   UNL A   1      37.399  31.630  31.923  1.00  0.00     0.031 C 
ATOM     37  C   UNL A   1      38.849  28.961  27.912  1.00  0.00     0.029 A 
ATOM     38  N   UNL A   1      40.100  28.803  29.759  1.00  0.00    -0.354 N 
ATOM     39  C   UNL A   1      39.148  31.079  33.290  1.00  0.00     0.074 A 
ATOM     40  C   UNL A   1      37.963  31.887  33.094  1.00  0.00     0.031 C 
ATOM     41  C   UNL A   1      39.888  28.157  27.629  1.00  0.00     0.029 A 
ATOM     42  C   UNL A   1      40.735  28.035  28.812  1.00  0.00     0.049 A 
ATOM     43  H   UNL A   1      40.437  28.914  30.678  1.00  0.00     0.167 HD
ATOM     44  C   UNL A   1      39.873  31.059  34.430  1.00  0.00     0.034 A 
ATOM     45  C   UNL A   1      41.866  27.307  28.890  1.00  0.00     0.034 A 
ATOM     46  C   UNL A   1      41.003  30.203  34.654  1.00  0.00     0.049 A 
ATOM     47  C   UNL A   1      42.617  27.246  30.191  1.00  0.00     0.074 A 
ATOM     48  C   UNL A   1      41.731  30.030  35.818  1.00  0.00     0.029 A 
ATOM     49  N   UNL A   1      41.567  29.374  33.699  1.00  0.00    -0.354 N 
ATOM     50  N   UNL A   1      42.331  27.829  31.331  1.00  0.00    -0.248 NA
ATOM     51  C   UNL A   1      43.826  26.409  30.230  1.00  0.00     0.031 C 
ATOM     52  C   UNL A   1      42.733  29.088  35.566  1.00  0.00     0.029 A 
ATOM     53  C   UNL A   1      42.633  28.684  34.245  1.00  0.00     0.049 A 
ATOM     54  H   UNL A   1      41.254  29.289  32.768  1.00  0.00     0.167 HD
ATOM     55  C   UNL A   1      43.309  27.412  32.227  1.00  0.00     0.074 A 
ATOM     56  C   UNL A   1      44.189  26.517  31.504  1.00  0.00     0.031 C 
ATOM     57  C   UNL A   1      43.468  27.755  33.528  1.00  0.00     0.034 A 
BRANCH  44  58
ATOM     58  C   UNL A   1      39.413  31.934  35.559  1.00  0.00     0.023 A 
ATOM     59  C   UNL A   1      38.548  31.393  36.531  1.00  0.00     0.012 A 
ATOM     60  C   UNL A   1      39.867  33.259  35.689  1.00  0.00     0.148 A 
ATOM     61  C   UNL A   1      38.127  32.164  37.611  1.00  0.00     0.002 A 
ATOM     62  C   UNL A   1      39.462  34.016  36.783  1.00  0.00     0.091 A 
ATOM     63  F   UNL A   1      40.671  33.756  34.739  1.00  0.00    -0.205 F 
ATOM     64  C   UNL A   1      38.589  33.471  37.741  1.00  0.00     0.022 A 
BRANCH  62  65
ATOM     65  S   UNL A   1      40.029  35.695  37.066  1.00  0.00     0.127 S 
ATOM     66  O   UNL A   1      39.307  36.047  38.287  1.00  0.00    -0.237 OA
ATOM     67  O   UNL A   1      41.470  35.509  37.241  1.00  0.00    -0.237 OA
ATOM     68  O   UNL A   1      39.653  36.453  35.880  1.00  0.00    -0.744 OA
ENDBRANCH  62  65
ENDBRANCH  44  58
BRANCH  45  69
ATOM     69  C   UNL A   1      42.297  26.497  27.718  1.00  0.00     0.023 A 
ATOM     70  C   UNL A   1      43.182  27.071  26.785  1.00  0.00     0.012 A 
ATOM     71  C   UNL A   1      41.896  25.158  27.559  1.00  0.00     0.148 A 
ATOM     72  C   UNL A   1      43.654  26.327  25.704  1.00  0.00     0.002 A 
ATOM     73  C   UNL A   1      42.396  24.412  26.497  1.00  0.00     0.091 A 
ATOM     74  F   UNL A   1      41.057  24.636  28.464  1.00  0.00    -0.205 F 
ATOM     75  C   UNL A   1      43.267  24.997  25.564  1.00  0.00     0.022 A 
BRANCH  73  76
ATOM     76  S   UNL A   1      42.033  22.666  26.276  1.00  0.00     0.127 S 
ATOM     77  O   UNL A   1      42.689  22.383  25.001  1.00  0.00    -0.237 OA
ATOM     78  O   UNL A   1      42.684  22.079  27.448  1.00  0.00    -0.237 OA
ATOM     79  O   UNL A   1      40.581  22.560  26.266  1.00  0.00    -0.744 OA
ENDBRANCH  73  76
ENDBRANCH  45  69
BRANCH  57  80
ATOM     80  C   UNL A   1      44.630  27.171  34.279  1.00  0.00     0.023 A 
ATOM     81  C   UNL A   1      45.847  27.879  34.312  1.00  0.00     0.012 A 
ATOM     82  C   UNL A   1      44.474  26.013  35.065  1.00  0.00     0.148 A 
ATOM     83  C   UNL A   1      46.895  27.442  35.119  1.00  0.00     0.002 A 
ATOM     84  C   UNL A   1      45.514  25.600  35.890  1.00  0.00     0.091 A 
ATOM     85  F   UNL A   1      43.309  25.352  35.005  1.00  0.00    -0.205 F 
ATOM     86  C   UNL A   1      46.725  26.312  35.917  1.00  0.00     0.022 A 
BRANCH  84  87
ATOM     87  S   UNL A   1      45.360  24.206  37.013  1.00  0.00     0.127 S 
ATOM     88  O   UNL A   1      44.318  24.673  37.926  1.00  0.00    -0.237 OA
ATOM     89  O   UNL A   1      44.946  23.127  36.114  1.00  0.00    -0.237 OA
ATOM     90  O   UNL A   1      46.676  24.023  37.611  1.00  0.00    -0.744 OA
ENDBRANCH  84  87
ENDBRANCH  57  80
ENDBRANCH  31  32
ENDBRANCH  23  26
ENDBRANCH   1  22
TORSDOF 14
ENDMDL
