MODEL 1
REMARK VINA RESULT:     -11.8      0.000      0.000
REMARK SMILES C[C@H](Cc1ccc([N+](=O)[O-])cc1)C(=O)NCCCCNC(=O)c1ccc(-c2c3nc(c(-c4cccc(S(=O)(=O)[O-])c4F)c4ccc([nH]4)c(-c4cccc(S(=O)(=O)[O-])c4F)c4nc(c(-c5cccc(S(=O)(=O)[O-])c5F)c5ccc2[nH]5)C=C4)C=C3)cc1
REMARK SMILES IDX 17 1 16 2 15 3 13 4 14 5 2 7 1 8 3 9 4 10 5 11 12 12 6 13
REMARK SMILES IDX 11 14 7 15 8 16 9 17 10 18 18 19 19 20 20 21 21 22 22 24
REMARK SMILES IDX 23 25 24 26 85 27 25 28 84 29 26 30 27 31 28 32 78 33 29 34
REMARK SMILES IDX 83 35 77 36 79 37 30 38 82 39 76 40 75 41 31 43 63 44 43 45
REMARK SMILES IDX 62 46 44 47 47 48 61 49 80 50 45 51 46 52 60 54 81 55 48 56
REMARK SMILES IDX 32 57 33 58 41 59 34 60 36 61 42 62 35 63 37 64 38 65 39 66
REMARK SMILES IDX 40 67 64 68 65 69 73 70 66 71 68 72 74 73 67 74 69 75 70 76
REMARK SMILES IDX 71 77 72 78 49 79 50 80 58 81 51 82 53 83 59 84 52 85 54 86
REMARK SMILES IDX 55 87 56 88 57 89
REMARK H PARENT 15 6 20 23 79 42 47 53
REMARK Flexibility Score: inf
ROOT
ATOM      1  C   UNL A   1      35.384  22.310  26.055  1.00  0.00     0.023 C 
ENDROOT
BRANCH   1   2
ATOM      2  C   UNL A   1      34.078  21.961  26.766  1.00  0.00     0.116 C 
BRANCH   2   3
ATOM      3  N   UNL A   1      32.978  22.720  26.213  1.00  0.00    -0.356 N 
ATOM      4  C   UNL A   1      32.539  22.845  24.935  1.00  0.00     0.223 C 
ATOM      5  O   UNL A   1      31.643  23.668  24.721  1.00  0.00    -0.275 OA
ATOM      6  H   UNL A   1      32.461  23.233  26.875  1.00  0.00     0.163 HD
BRANCH   4   7
ATOM      7  C   UNL A   1      33.067  21.984  23.789  1.00  0.00     0.079 C 
ATOM      8  C   UNL A   1      33.618  22.858  22.664  1.00  0.00     0.018 C 
BRANCH   7   9
ATOM      9  C   UNL A   1      32.176  20.765  23.434  1.00  0.00     0.048 C 
BRANCH   9  10
ATOM     10  C   UNL A   1      32.594  19.380  23.887  1.00  0.00    -0.047 A 
ATOM     11  C   UNL A   1      32.932  18.384  22.961  1.00  0.00     0.011 A 
ATOM     12  C   UNL A   1      32.664  19.070  25.254  1.00  0.00     0.011 A 
ATOM     13  C   UNL A   1      33.183  17.074  23.376  1.00  0.00     0.086 A 
ATOM     14  C   UNL A   1      32.907  17.763  25.685  1.00  0.00     0.086 A 
ATOM     15  C   UNL A   1      33.135  16.760  24.738  1.00  0.00     0.269 A 
BRANCH  15  16
ATOM     16  N   UNL A   1      33.315  15.370  25.171  1.00  0.00     0.062 N 
ATOM     17  O   UNL A   1      32.296  14.699  25.391  1.00  0.00    -0.258 OA
ATOM     18  O   UNL A   1      34.473  14.949  25.292  1.00  0.00    -0.258 OA
ENDBRANCH  15  16
ENDBRANCH   9  10
ENDBRANCH   7   9
ENDBRANCH   4   7
ENDBRANCH   2   3
ENDBRANCH   1   2
BRANCH   1  19
ATOM     19  C   UNL A   1      36.085  21.133  25.383  1.00  0.00     0.023 C 
BRANCH  19  20
ATOM     20  C   UNL A   1      37.532  21.393  24.982  1.00  0.00     0.116 C 
BRANCH  20  21
ATOM     21  N   UNL A   1      38.458  20.366  25.440  1.00  0.00    -0.352 N 
ATOM     22  C   UNL A   1      39.609  20.520  26.178  1.00  0.00     0.251 C 
ATOM     23  H   UNL A   1      38.232  19.441  25.189  1.00  0.00     0.163 HD
ATOM     24  O   UNL A   1      40.337  19.558  26.402  1.00  0.00    -0.269 OA
BRANCH  22  25
ATOM     25  C   UNL A   1      39.974  21.866  26.662  1.00  0.00     0.039 A 
ATOM     26  C   UNL A   1      40.972  21.990  27.632  1.00  0.00     0.014 A 
ATOM     27  C   UNL A   1      39.378  23.000  26.107  1.00  0.00     0.014 A 
ATOM     28  C   UNL A   1      41.428  23.260  27.987  1.00  0.00     0.010 A 
ATOM     29  C   UNL A   1      39.887  24.258  26.404  1.00  0.00     0.010 A 
ATOM     30  C   UNL A   1      40.918  24.401  27.346  1.00  0.00    -0.014 A 
BRANCH  30  31
ATOM     31  C   UNL A   1      41.456  25.755  27.624  1.00  0.00     0.031 A 
ATOM     32  C   UNL A   1      42.862  26.103  27.219  1.00  0.00     0.074 A 
ATOM     33  C   UNL A   1      40.720  26.629  28.340  1.00  0.00     0.049 A 
ATOM     34  N   UNL A   1      43.540  27.196  27.450  1.00  0.00    -0.248 NA
ATOM     35  C   UNL A   1      43.620  25.072  26.489  1.00  0.00     0.031 C 
ATOM     36  C   UNL A   1      39.380  26.373  28.871  1.00  0.00     0.029 A 
ATOM     37  N   UNL A   1      41.010  27.899  28.773  1.00  0.00    -0.354 N 
ATOM     38  C   UNL A   1      44.810  26.970  26.938  1.00  0.00     0.074 A 
ATOM     39  C   UNL A   1      44.822  25.624  26.411  1.00  0.00     0.031 C 
ATOM     40  C   UNL A   1      38.962  27.453  29.553  1.00  0.00     0.029 A 
ATOM     41  C   UNL A   1      40.011  28.467  29.529  1.00  0.00     0.049 A 
ATOM     42  H   UNL A   1      41.854  28.360  28.562  1.00  0.00     0.167 HD
ATOM     43  C   UNL A   1      45.864  27.818  26.879  1.00  0.00     0.034 A 
ATOM     44  C   UNL A   1      39.948  29.669  30.133  1.00  0.00     0.034 A 
ATOM     45  C   UNL A   1      45.825  29.179  27.339  1.00  0.00     0.049 A 
ATOM     46  C   UNL A   1      41.105  30.621  29.983  1.00  0.00     0.074 A 
ATOM     47  C   UNL A   1      46.800  30.154  27.226  1.00  0.00     0.029 A 
ATOM     48  N   UNL A   1      44.751  29.759  27.997  1.00  0.00    -0.354 N 
ATOM     49  N   UNL A   1      42.235  30.451  29.342  1.00  0.00    -0.248 NA
ATOM     50  C   UNL A   1      40.963  31.945  30.607  1.00  0.00     0.031 C 
ATOM     51  C   UNL A   1      46.318  31.324  27.822  1.00  0.00     0.029 A 
ATOM     52  C   UNL A   1      45.039  31.078  28.298  1.00  0.00     0.049 A 
ATOM     53  H   UNL A   1      43.909  29.300  28.217  1.00  0.00     0.167 HD
ATOM     54  C   UNL A   1      42.922  31.653  29.454  1.00  0.00     0.074 A 
ATOM     55  C   UNL A   1      42.072  32.552  30.207  1.00  0.00     0.031 C 
ATOM     56  C   UNL A   1      44.155  31.979  28.992  1.00  0.00     0.034 A 
BRANCH  43  57
ATOM     57  C   UNL A   1      47.125  27.322  26.225  1.00  0.00     0.023 A 
ATOM     58  C   UNL A   1      47.348  27.592  24.860  1.00  0.00     0.012 A 
ATOM     59  C   UNL A   1      48.109  26.638  26.965  1.00  0.00     0.148 A 
ATOM     60  C   UNL A   1      48.516  27.165  24.232  1.00  0.00     0.002 A 
ATOM     61  C   UNL A   1      49.291  26.251  26.342  1.00  0.00     0.091 A 
ATOM     62  F   UNL A   1      47.869  26.368  28.256  1.00  0.00    -0.205 F 
ATOM     63  C   UNL A   1      49.490  26.504  24.974  1.00  0.00     0.022 A 
BRANCH  61  64
ATOM     64  S   UNL A   1      50.637  25.460  27.229  1.00  0.00     0.127 S 
ATOM     65  O   UNL A   1      51.620  25.269  26.164  1.00  0.00    -0.237 OA
ATOM     66  O   UNL A   1      50.999  26.477  28.217  1.00  0.00    -0.237 OA
ATOM     67  O   UNL A   1      50.079  24.239  27.794  1.00  0.00    -0.744 OA
ENDBRANCH  61  64
ENDBRANCH  43  57
BRANCH  44  68
ATOM     68  C   UNL A   1      38.710  30.077  30.854  1.00  0.00     0.023 A 
ATOM     69  C   UNL A   1      38.554  29.714  32.207  1.00  0.00     0.012 A 
ATOM     70  C   UNL A   1      37.707  30.842  30.231  1.00  0.00     0.148 A 
ATOM     71  C   UNL A   1      37.409  30.078  32.916  1.00  0.00     0.002 A 
ATOM     72  C   UNL A   1      36.592  31.247  30.958  1.00  0.00     0.091 A 
ATOM     73  F   UNL A   1      37.864  31.167  28.939  1.00  0.00    -0.205 F 
ATOM     74  C   UNL A   1      36.433  30.853  32.295  1.00  0.00     0.022 A 
BRANCH  72  75
ATOM     75  S   UNL A   1      35.355  32.355  30.272  1.00  0.00     0.127 S 
ATOM     76  O   UNL A   1      34.409  32.470  31.379  1.00  0.00    -0.237 OA
ATOM     77  O   UNL A   1      36.139  33.562  30.005  1.00  0.00    -0.237 OA
ATOM     78  O   UNL A   1      34.861  31.689  29.075  1.00  0.00    -0.744 OA
ENDBRANCH  72  75
ENDBRANCH  44  68
BRANCH  56  79
ATOM     79  C   UNL A   1      44.654  33.373  29.256  1.00  0.00     0.023 A 
ATOM     80  C   UNL A   1      45.301  33.661  30.474  1.00  0.00     0.012 A 
ATOM     81  C   UNL A   1      44.559  34.372  28.268  1.00  0.00     0.148 A 
ATOM     82  C   UNL A   1      45.825  34.930  30.713  1.00  0.00     0.002 A 
ATOM     83  C   UNL A   1      45.123  35.622  28.496  1.00  0.00     0.091 A 
ATOM     84  F   UNL A   1      43.920  34.085  27.124  1.00  0.00    -0.205 F 
ATOM     85  C   UNL A   1      45.747  35.906  29.722  1.00  0.00     0.022 A 
BRANCH  83  86
ATOM     86  S   UNL A   1      45.150  36.904  27.239  1.00  0.00     0.127 S 
ATOM     87  O   UNL A   1      45.939  36.272  26.183  1.00  0.00    -0.237 OA
ATOM     88  O   UNL A   1      43.729  37.066  26.924  1.00  0.00    -0.237 OA
ATOM     89  O   UNL A   1      45.760  38.067  27.870  1.00  0.00    -0.744 OA
ENDBRANCH  83  86
ENDBRANCH  56  79
ENDBRANCH  30  31
ENDBRANCH  22  25
ENDBRANCH  20  21
ENDBRANCH  19  20
ENDBRANCH   1  19
TORSDOF 17
ENDMDL
MODEL 2
REMARK VINA RESULT:     -11.7      1.568      1.991
REMARK SMILES C[C@H](Cc1ccc([N+](=O)[O-])cc1)C(=O)NCCCCNC(=O)c1ccc(-c2c3nc(c(-c4cccc(S(=O)(=O)[O-])c4F)c4ccc([nH]4)c(-c4cccc(S(=O)(=O)[O-])c4F)c4nc(c(-c5cccc(S(=O)(=O)[O-])c5F)c5ccc2[nH]5)C=C4)C=C3)cc1
REMARK SMILES IDX 17 1 16 2 15 3 13 4 14 5 2 7 1 8 3 9 4 10 5 11 12 12 6 13
REMARK SMILES IDX 11 14 7 15 8 16 9 17 10 18 18 19 19 20 20 21 21 22 22 24
REMARK SMILES IDX 23 25 24 26 85 27 25 28 84 29 26 30 27 31 28 32 78 33 29 34
REMARK SMILES IDX 83 35 77 36 79 37 30 38 82 39 76 40 75 41 31 43 63 44 43 45
REMARK SMILES IDX 62 46 44 47 47 48 61 49 80 50 45 51 46 52 60 54 81 55 48 56
REMARK SMILES IDX 32 57 33 58 41 59 34 60 36 61 42 62 35 63 37 64 38 65 39 66
REMARK SMILES IDX 40 67 64 68 65 69 73 70 66 71 68 72 74 73 67 74 69 75 70 76
REMARK SMILES IDX 71 77 72 78 49 79 50 80 58 81 51 82 53 83 59 84 52 85 54 86
REMARK SMILES IDX 55 87 56 88 57 89
REMARK H PARENT 15 6 20 23 79 42 47 53
REMARK Flexibility Score: inf
ROOT
ATOM      1  C   UNL A   1      36.070  23.123  23.686  1.00  0.00     0.023 C 
ENDROOT
BRANCH   1   2
ATOM      2  C   UNL A   1      34.556  23.013  23.522  1.00  0.00     0.116 C 
BRANCH   2   3
ATOM      3  N   UNL A   1      33.875  23.760  24.557  1.00  0.00    -0.356 N 
ATOM      4  C   UNL A   1      33.089  23.344  25.581  1.00  0.00     0.223 C 
ATOM      5  O   UNL A   1      32.525  24.213  26.253  1.00  0.00    -0.275 OA
ATOM      6  H   UNL A   1      34.004  24.735  24.510  1.00  0.00     0.163 HD
BRANCH   4   7
ATOM      7  C   UNL A   1      32.925  21.872  25.956  1.00  0.00     0.079 C 
ATOM      8  C   UNL A   1      33.974  21.453  26.984  1.00  0.00     0.018 C 
BRANCH   7   9
ATOM      9  C   UNL A   1      32.617  20.932  24.761  1.00  0.00     0.048 C 
BRANCH   9  10
ATOM     10  C   UNL A   1      33.067  19.485  24.816  1.00  0.00    -0.047 A 
ATOM     11  C   UNL A   1      32.274  18.500  25.418  1.00  0.00     0.011 A 
ATOM     12  C   UNL A   1      34.291  19.100  24.247  1.00  0.00     0.011 A 
ATOM     13  C   UNL A   1      32.751  17.198  25.587  1.00  0.00     0.086 A 
ATOM     14  C   UNL A   1      34.786  17.803  24.415  1.00  0.00     0.086 A 
ATOM     15  C   UNL A   1      34.024  16.863  25.114  1.00  0.00     0.269 A 
BRANCH  15  16
ATOM     16  N   UNL A   1      34.563  15.521  25.364  1.00  0.00     0.062 N 
ATOM     17  O   UNL A   1      33.764  14.573  25.375  1.00  0.00    -0.258 OA
ATOM     18  O   UNL A   1      35.782  15.415  25.549  1.00  0.00    -0.258 OA
ENDBRANCH  15  16
ENDBRANCH   9  10
ENDBRANCH   7   9
ENDBRANCH   4   7
ENDBRANCH   2   3
ENDBRANCH   1   2
BRANCH   1  19
ATOM     19  C   UNL A   1      36.775  21.818  24.045  1.00  0.00     0.023 C 
BRANCH  19  20
ATOM     20  C   UNL A   1      37.241  21.717  25.491  1.00  0.00     0.116 C 
BRANCH  20  21
ATOM     21  N   UNL A   1      38.298  20.735  25.697  1.00  0.00    -0.352 N 
ATOM     22  C   UNL A   1      39.561  20.932  26.206  1.00  0.00     0.251 C 
ATOM     23  H   UNL A   1      38.080  19.810  25.439  1.00  0.00     0.163 HD
ATOM     24  O   UNL A   1      40.373  20.012  26.226  1.00  0.00    -0.269 OA
BRANCH  22  25
ATOM     25  C   UNL A   1      39.936  22.275  26.692  1.00  0.00     0.039 A 
ATOM     26  C   UNL A   1      40.945  22.392  27.651  1.00  0.00     0.014 A 
ATOM     27  C   UNL A   1      39.337  23.413  26.147  1.00  0.00     0.014 A 
ATOM     28  C   UNL A   1      41.409  23.659  28.006  1.00  0.00     0.010 A 
ATOM     29  C   UNL A   1      39.854  24.668  26.443  1.00  0.00     0.010 A 
ATOM     30  C   UNL A   1      40.896  24.804  27.375  1.00  0.00    -0.014 A 
BRANCH  30  31
ATOM     31  C   UNL A   1      41.442  26.155  27.652  1.00  0.00     0.031 A 
ATOM     32  C   UNL A   1      42.837  26.506  27.215  1.00  0.00     0.074 A 
ATOM     33  C   UNL A   1      40.725  27.021  28.396  1.00  0.00     0.049 A 
ATOM     34  N   UNL A   1      43.521  27.597  27.439  1.00  0.00    -0.248 NA
ATOM     35  C   UNL A   1      43.575  25.482  26.455  1.00  0.00     0.031 C 
ATOM     36  C   UNL A   1      39.399  26.761  28.960  1.00  0.00     0.029 A 
ATOM     37  N   UNL A   1      41.027  28.287  28.834  1.00  0.00    -0.354 N 
ATOM     38  C   UNL A   1      44.777  27.376  26.891  1.00  0.00     0.074 A 
ATOM     39  C   UNL A   1      44.775  26.035  26.351  1.00  0.00     0.031 C 
ATOM     40  C   UNL A   1      39.000  27.834  29.662  1.00  0.00     0.029 A 
ATOM     41  C   UNL A   1      40.047  28.848  29.621  1.00  0.00     0.049 A 
ATOM     42  H   UNL A   1      41.865  28.751  28.606  1.00  0.00     0.167 HD
ATOM     43  C   UNL A   1      45.829  28.224  26.814  1.00  0.00     0.034 A 
ATOM     44  C   UNL A   1      40.001  30.044  30.238  1.00  0.00     0.034 A 
ATOM     45  C   UNL A   1      45.803  29.581  27.289  1.00  0.00     0.049 A 
ATOM     46  C   UNL A   1      41.154  30.998  30.069  1.00  0.00     0.074 A 
ATOM     47  C   UNL A   1      46.775  30.556  27.160  1.00  0.00     0.029 A 
ATOM     48  N   UNL A   1      44.747  30.154  27.979  1.00  0.00    -0.354 N 
ATOM     49  N   UNL A   1      42.267  30.833  29.397  1.00  0.00    -0.248 NA
ATOM     50  C   UNL A   1      41.028  32.315  30.709  1.00  0.00     0.031 C 
ATOM     51  C   UNL A   1      46.309  31.721  27.780  1.00  0.00     0.029 A 
ATOM     52  C   UNL A   1      45.043  31.471  28.286  1.00  0.00     0.049 A 
ATOM     53  H   UNL A   1      43.911  29.693  28.217  1.00  0.00     0.167 HD
ATOM     54  C   UNL A   1      42.957  32.034  29.503  1.00  0.00     0.074 A 
ATOM     55  C   UNL A   1      42.128  32.925  30.287  1.00  0.00     0.031 C 
ATOM     56  C   UNL A   1      44.177  32.365  29.012  1.00  0.00     0.034 A 
BRANCH  43  57
ATOM     57  C   UNL A   1      47.073  27.734  26.122  1.00  0.00     0.023 A 
ATOM     58  C   UNL A   1      48.055  27.053  26.868  1.00  0.00     0.012 A 
ATOM     59  C   UNL A   1      47.247  27.898  24.734  1.00  0.00     0.148 A 
ATOM     60  C   UNL A   1      49.207  26.568  26.251  1.00  0.00     0.002 A 
ATOM     61  C   UNL A   1      48.378  27.375  24.118  1.00  0.00     0.091 A 
ATOM     62  F   UNL A   1      46.314  28.570  24.045  1.00  0.00    -0.205 F 
ATOM     63  C   UNL A   1      49.364  26.720  24.877  1.00  0.00     0.022 A 
BRANCH  61  64
ATOM     64  S   UNL A   1      48.637  27.454  22.343  1.00  0.00     0.127 S 
ATOM     65  O   UNL A   1      47.472  28.223  21.908  1.00  0.00    -0.237 OA
ATOM     66  O   UNL A   1      49.910  28.170  22.246  1.00  0.00    -0.237 OA
ATOM     67  O   UNL A   1      48.685  26.072  21.885  1.00  0.00    -0.744 OA
ENDBRANCH  61  64
ENDBRANCH  43  57
BRANCH  44  68
ATOM     68  C   UNL A   1      38.782  30.445  30.996  1.00  0.00     0.023 A 
ATOM     69  C   UNL A   1      38.705  30.156  32.373  1.00  0.00     0.012 A 
ATOM     70  C   UNL A   1      37.719  31.132  30.380  1.00  0.00     0.148 A 
ATOM     71  C   UNL A   1      37.581  30.517  33.116  1.00  0.00     0.002 A 
ATOM     72  C   UNL A   1      36.624  31.534  31.137  1.00  0.00     0.091 A 
ATOM     73  F   UNL A   1      37.801  31.386  29.066  1.00  0.00    -0.205 F 
ATOM     74  C   UNL A   1      36.545  31.215  32.501  1.00  0.00     0.022 A 
BRANCH  72  75
ATOM     75  S   UNL A   1      35.310  32.551  30.451  1.00  0.00     0.127 S 
ATOM     76  O   UNL A   1      36.037  33.755  30.059  1.00  0.00    -0.237 OA
ATOM     77  O   UNL A   1      34.834  31.728  29.338  1.00  0.00    -0.237 OA
ATOM     78  O   UNL A   1      34.343  32.710  31.529  1.00  0.00    -0.744 OA
ENDBRANCH  72  75
ENDBRANCH  44  68
BRANCH  56  79
ATOM     79  C   UNL A   1      44.684  33.756  29.277  1.00  0.00     0.023 A 
ATOM     80  C   UNL A   1      45.338  34.038  30.492  1.00  0.00     0.012 A 
ATOM     81  C   UNL A   1      44.589  34.758  28.291  1.00  0.00     0.148 A 
ATOM     82  C   UNL A   1      45.869  35.305  30.732  1.00  0.00     0.002 A 
ATOM     83  C   UNL A   1      45.159  36.005  28.520  1.00  0.00     0.091 A 
ATOM     84  F   UNL A   1      43.944  34.476  27.150  1.00  0.00    -0.205 F 
ATOM     85  C   UNL A   1      45.791  36.282  29.744  1.00  0.00     0.022 A 
BRANCH  83  86
ATOM     86  S   UNL A   1      45.186  37.289  27.266  1.00  0.00     0.127 S 
ATOM     87  O   UNL A   1      43.761  37.466  26.988  1.00  0.00    -0.237 OA
ATOM     88  O   UNL A   1      45.812  38.407  27.973  1.00  0.00    -0.237 OA
ATOM     89  O   UNL A   1      45.979  36.755  26.167  1.00  0.00    -0.744 OA
ENDBRANCH  83  86
ENDBRANCH  56  79
ENDBRANCH  30  31
ENDBRANCH  22  25
ENDBRANCH  20  21
ENDBRANCH  19  20
ENDBRANCH   1  19
TORSDOF 17
ENDMDL
MODEL 3
REMARK VINA RESULT:     -11.4      5.467      8.472
REMARK SMILES C[C@H](Cc1ccc([N+](=O)[O-])cc1)C(=O)NCCCCNC(=O)c1ccc(-c2c3nc(c(-c4cccc(S(=O)(=O)[O-])c4F)c4ccc([nH]4)c(-c4cccc(S(=O)(=O)[O-])c4F)c4nc(c(-c5cccc(S(=O)(=O)[O-])c5F)c5ccc2[nH]5)C=C4)C=C3)cc1
REMARK SMILES IDX 17 1 16 2 15 3 13 4 14 5 2 7 1 8 3 9 4 10 5 11 12 12 6 13
REMARK SMILES IDX 11 14 7 15 8 16 9 17 10 18 18 19 19 20 20 21 21 22 22 24
REMARK SMILES IDX 23 25 24 26 85 27 25 28 84 29 26 30 27 31 28 32 78 33 29 34
REMARK SMILES IDX 83 35 77 36 79 37 30 38 82 39 76 40 75 41 31 43 63 44 43 45
REMARK SMILES IDX 62 46 44 47 47 48 61 49 80 50 45 51 46 52 60 54 81 55 48 56
REMARK SMILES IDX 32 57 33 58 41 59 34 60 36 61 42 62 35 63 37 64 38 65 39 66
REMARK SMILES IDX 40 67 64 68 65 69 73 70 66 71 68 72 74 73 67 74 69 75 70 76
REMARK SMILES IDX 71 77 72 78 49 79 50 80 58 81 51 82 53 83 59 84 52 85 54 86
REMARK SMILES IDX 55 87 56 88 57 89
REMARK H PARENT 15 6 20 23 79 42 47 53
REMARK Flexibility Score: inf
ROOT
ATOM      1  C   UNL A   1      31.481  27.633  26.741  1.00  0.00     0.023 C 
ENDROOT
BRANCH   1   2
ATOM      2  C   UNL A   1      32.319  26.405  26.392  1.00  0.00     0.116 C 
BRANCH   2   3
ATOM      3  N   UNL A   1      31.745  25.212  26.977  1.00  0.00    -0.356 N 
ATOM      4  C   UNL A   1      31.485  23.996  26.436  1.00  0.00     0.223 C 
ATOM      5  O   UNL A   1      30.868  23.185  27.134  1.00  0.00    -0.275 OA
ATOM      6  H   UNL A   1      31.503  25.299  27.927  1.00  0.00     0.163 HD
BRANCH   4   7
ATOM      7  C   UNL A   1      31.965  23.586  25.045  1.00  0.00     0.079 C 
ATOM      8  C   UNL A   1      33.431  23.966  24.844  1.00  0.00     0.018 C 
BRANCH   7   9
ATOM      9  C   UNL A   1      30.949  23.857  23.905  1.00  0.00     0.048 C 
BRANCH   9  10
ATOM     10  C   UNL A   1      30.565  25.285  23.572  1.00  0.00    -0.047 A 
ATOM     11  C   UNL A   1      29.394  25.860  24.084  1.00  0.00     0.011 A 
ATOM     12  C   UNL A   1      31.388  26.070  22.751  1.00  0.00     0.011 A 
ATOM     13  C   UNL A   1      28.974  27.126  23.668  1.00  0.00     0.086 A 
ATOM     14  C   UNL A   1      30.978  27.335  22.319  1.00  0.00     0.086 A 
ATOM     15  C   UNL A   1      29.753  27.846  22.757  1.00  0.00     0.269 A 
BRANCH  15  16
ATOM     16  N   UNL A   1      29.275  29.138  22.253  1.00  0.00     0.062 N 
ATOM     17  O   UNL A   1      30.023  29.772  21.495  1.00  0.00    -0.258 OA
ATOM     18  O   UNL A   1      28.153  29.519  22.614  1.00  0.00    -0.258 OA
ENDBRANCH  15  16
ENDBRANCH   9  10
ENDBRANCH   7   9
ENDBRANCH   4   7
ENDBRANCH   2   3
ENDBRANCH   1   2
BRANCH   1  19
ATOM     19  C   UNL A   1      31.565  28.777  25.736  1.00  0.00     0.023 C 
BRANCH  19  20
ATOM     20  C   UNL A   1      32.756  29.708  25.923  1.00  0.00     0.116 C 
BRANCH  20  21
ATOM     21  N   UNL A   1      32.386  31.053  26.345  1.00  0.00    -0.352 N 
ATOM     22  C   UNL A   1      33.072  31.907  27.177  1.00  0.00     0.251 C 
ATOM     23  H   UNL A   1      31.535  31.395  25.988  1.00  0.00     0.163 HD
ATOM     24  O   UNL A   1      32.575  32.978  27.514  1.00  0.00    -0.269 OA
BRANCH  22  25
ATOM     25  C   UNL A   1      34.396  31.500  27.688  1.00  0.00     0.039 A 
ATOM     26  C   UNL A   1      35.391  32.468  27.840  1.00  0.00     0.014 A 
ATOM     27  C   UNL A   1      34.624  30.179  28.078  1.00  0.00     0.014 A 
ATOM     28  C   UNL A   1      36.593  32.124  28.460  1.00  0.00     0.010 A 
ATOM     29  C   UNL A   1      35.788  29.858  28.764  1.00  0.00     0.010 A 
ATOM     30  C   UNL A   1      36.784  30.827  28.964  1.00  0.00    -0.014 A 
BRANCH  30  31
ATOM     31  C   UNL A   1      38.005  30.459  29.721  1.00  0.00     0.031 A 
ATOM     32  C   UNL A   1      38.995  29.495  29.127  1.00  0.00     0.074 A 
ATOM     33  C   UNL A   1      38.163  30.903  30.984  1.00  0.00     0.049 A 
ATOM     34  N   UNL A   1      40.072  28.985  29.664  1.00  0.00    -0.248 NA
ATOM     35  C   UNL A   1      38.720  29.011  27.763  1.00  0.00     0.031 C 
ATOM     36  C   UNL A   1      37.225  31.766  31.704  1.00  0.00     0.029 A 
ATOM     37  N   UNL A   1      39.159  30.662  31.899  1.00  0.00    -0.354 N 
ATOM     38  C   UNL A   1      40.576  28.092  28.727  1.00  0.00     0.074 A 
ATOM     39  C   UNL A   1      39.671  28.104  27.600  1.00  0.00     0.031 C 
ATOM     40  C   UNL A   1      37.690  31.986  32.944  1.00  0.00     0.029 A 
ATOM     41  C   UNL A   1      38.945  31.263  33.118  1.00  0.00     0.049 A 
ATOM     42  H   UNL A   1      39.950  30.111  31.701  1.00  0.00     0.167 HD
ATOM     43  C   UNL A   1      41.709  27.353  28.785  1.00  0.00     0.034 A 
ATOM     44  C   UNL A   1      39.680  31.234  34.246  1.00  0.00     0.034 A 
ATOM     45  C   UNL A   1      42.642  27.399  29.877  1.00  0.00     0.049 A 
ATOM     46  C   UNL A   1      40.976  30.467  34.254  1.00  0.00     0.074 A 
ATOM     47  C   UNL A   1      43.872  26.775  29.984  1.00  0.00     0.029 A 
ATOM     48  N   UNL A   1      42.450  28.113  31.049  1.00  0.00    -0.354 N 
ATOM     49  N   UNL A   1      41.523  29.766  33.292  1.00  0.00    -0.248 NA
ATOM     50  C   UNL A   1      41.773  30.518  35.488  1.00  0.00     0.031 C 
ATOM     51  C   UNL A   1      44.423  27.107  31.226  1.00  0.00     0.029 A 
ATOM     52  C   UNL A   1      43.538  27.945  31.888  1.00  0.00     0.049 A 
ATOM     53  H   UNL A   1      41.657  28.658  31.255  1.00  0.00     0.167 HD
ATOM     54  C   UNL A   1      42.743  29.323  33.789  1.00  0.00     0.074 A 
ATOM     55  C   UNL A   1      42.863  29.852  35.132  1.00  0.00     0.031 C 
ATOM     56  C   UNL A   1      43.671  28.532  33.197  1.00  0.00     0.034 A 
BRANCH  43  57
ATOM     57  C   UNL A   1      42.041  26.490  27.598  1.00  0.00     0.023 A 
ATOM     58  C   UNL A   1      42.741  27.049  26.511  1.00  0.00     0.012 A 
ATOM     59  C   UNL A   1      41.710  25.120  27.578  1.00  0.00     0.148 A 
ATOM     60  C   UNL A   1      43.083  26.269  25.407  1.00  0.00     0.002 A 
ATOM     61  C   UNL A   1      42.090  24.339  26.492  1.00  0.00     0.091 A 
ATOM     62  F   UNL A   1      41.022  24.611  28.609  1.00  0.00    -0.205 F 
ATOM     63  C   UNL A   1      42.766  24.914  25.402  1.00  0.00     0.022 A 
BRANCH  61  64
ATOM     64  S   UNL A   1      41.794  22.569  26.424  1.00  0.00     0.127 S 
ATOM     65  O   UNL A   1      42.467  22.204  25.179  1.00  0.00    -0.237 OA
ATOM     66  O   UNL A   1      42.460  22.095  27.638  1.00  0.00    -0.237 OA
ATOM     67  O   UNL A   1      40.346  22.407  26.426  1.00  0.00    -0.744 OA
ENDBRANCH  61  64
ENDBRANCH  43  57
BRANCH  44  68
ATOM     68  C   UNL A   1      39.256  32.031  35.432  1.00  0.00     0.023 A 
ATOM     69  C   UNL A   1      38.412  31.437  36.391  1.00  0.00     0.012 A 
ATOM     70  C   UNL A   1      39.702  33.351  35.636  1.00  0.00     0.148 A 
ATOM     71  C   UNL A   1      37.995  32.150  37.515  1.00  0.00     0.002 A 
ATOM     72  C   UNL A   1      39.324  34.039  36.784  1.00  0.00     0.091 A 
ATOM     73  F   UNL A   1      40.492  33.907  34.707  1.00  0.00    -0.205 F 
ATOM     74  C   UNL A   1      38.459  33.447  37.717  1.00  0.00     0.022 A 
BRANCH  72  75
ATOM     75  S   UNL A   1      39.982  35.663  37.185  1.00  0.00     0.127 S 
ATOM     76  O   UNL A   1      39.303  35.959  38.443  1.00  0.00    -0.237 OA
ATOM     77  O   UNL A   1      41.416  35.391  37.307  1.00  0.00    -0.237 OA
ATOM     78  O   UNL A   1      39.632  36.511  36.054  1.00  0.00    -0.744 OA
ENDBRANCH  72  75
ENDBRANCH  44  68
BRANCH  56  79
ATOM     79  C   UNL A   1      44.917  28.211  33.976  1.00  0.00     0.023 A 
ATOM     80  C   UNL A   1      46.021  29.084  33.910  1.00  0.00     0.012 A 
ATOM     81  C   UNL A   1      44.963  27.096  34.835  1.00  0.00     0.148 A 
ATOM     82  C   UNL A   1      47.163  28.837  34.672  1.00  0.00     0.002 A 
ATOM     83  C   UNL A   1      46.088  26.881  35.623  1.00  0.00     0.091 A 
ATOM     84  F   UNL A   1      43.911  26.266  34.866  1.00  0.00    -0.205 F 
ATOM     85  C   UNL A   1      47.192  27.746  35.536  1.00  0.00     0.022 A 
BRANCH  83  86
ATOM     86  S   UNL A   1      46.170  25.554  36.830  1.00  0.00     0.127 S 
ATOM     87  O   UNL A   1      46.168  24.370  35.973  1.00  0.00    -0.237 OA
ATOM     88  O   UNL A   1      47.445  25.818  37.502  1.00  0.00    -0.237 OA
ATOM     89  O   UNL A   1      45.000  25.717  37.681  1.00  0.00    -0.744 OA
ENDBRANCH  83  86
ENDBRANCH  56  79
ENDBRANCH  30  31
ENDBRANCH  22  25
ENDBRANCH  20  21
ENDBRANCH  19  20
ENDBRANCH   1  19
TORSDOF 17
ENDMDL
