MODEL 1
REMARK VINA RESULT:     -11.9      0.000      0.000
REMARK SMILES O=C(Cc1ccc(=O)n(C(F)F)c1)NCCCCNC(=O)c1ccc(-c2c3nc(c(-c4cccc(S(=O)(=O)[O-])c4F)c4ccc([nH]4)c(-c4cccc(S(=O)(=O)[O-])c4F)c4nc(c(-c5cccc(S(=O)(=O)[O-])c5F)c5ccc2[nH]5)C=C4)C=C3)cc1
REMARK SMILES IDX 17 1 16 2 15 3 14 4 1 5 2 6 3 8 4 9 5 10 13 11 6 12 9 13
REMARK SMILES IDX 7 14 8 15 10 16 11 17 12 18 18 19 19 20 20 21 21 23 22 24
REMARK SMILES IDX 23 25 84 26 24 27 83 28 25 29 26 30 27 31 77 32 28 33 82 34
REMARK SMILES IDX 76 35 78 36 29 37 81 38 75 39 74 40 30 42 62 43 42 44 61 45
REMARK SMILES IDX 43 46 46 47 60 48 79 49 44 50 45 51 59 53 80 54 47 55 31 56
REMARK SMILES IDX 32 57 40 58 33 59 35 60 41 61 34 62 36 63 37 64 38 65 39 66
REMARK SMILES IDX 63 67 64 68 72 69 65 70 67 71 73 72 66 73 68 74 69 75 70 76
REMARK SMILES IDX 71 77 48 78 49 79 57 80 50 81 52 82 58 83 51 84 53 85 54 86
REMARK SMILES IDX 55 87 56 88
REMARK H PARENT 14 7 19 22 78 41 46 52
REMARK Flexibility Score: inf
ROOT
ATOM      1  C   UNL A   1      36.181  21.820  24.156  1.00  0.00     0.023 C 
ENDROOT
BRANCH   1   2
ATOM      2  C   UNL A   1      35.522  23.192  23.999  1.00  0.00     0.023 C 
BRANCH   2   3
ATOM      3  C   UNL A   1      33.999  23.195  24.102  1.00  0.00     0.116 C 
BRANCH   3   4
ATOM      4  N   UNL A   1      33.424  21.893  23.830  1.00  0.00    -0.356 N 
ATOM      5  O   UNL A   1      32.929  21.361  26.015  1.00  0.00    -0.275 OA
ATOM      6  C   UNL A   1      32.905  21.083  24.820  1.00  0.00     0.224 C 
ATOM      7  H   UNL A   1      33.403  21.572  22.900  1.00  0.00     0.163 HD
BRANCH   6   8
ATOM      8  C   UNL A   1      32.233  19.819  24.291  1.00  0.00     0.137 C 
BRANCH   8   9
ATOM      9  C   UNL A   1      32.987  18.556  24.648  1.00  0.00    -0.022 A 
ATOM     10  C   UNL A   1      34.405  18.536  24.346  1.00  0.00     0.011 A 
ATOM     11  C   UNL A   1      32.431  17.455  25.184  1.00  0.00     0.099 A 
ATOM     12  C   UNL A   1      35.140  17.436  24.561  1.00  0.00     0.072 A 
ATOM     13  N   UNL A   1      33.166  16.305  25.415  1.00  0.00    -0.258 N 
ATOM     14  C   UNL A   1      34.516  16.207  25.123  1.00  0.00     0.254 A 
ATOM     15  O   UNL A   1      35.217  15.215  25.293  1.00  0.00    -0.269 OA
BRANCH  13  16
ATOM     16  C   UNL A   1      32.519  15.118  25.914  1.00  0.00     0.451 C 
ATOM     17  F   UNL A   1      31.172  15.228  25.816  1.00  0.00    -0.185 F 
ATOM     18  F   UNL A   1      32.905  14.016  25.227  1.00  0.00    -0.185 F 
ENDBRANCH  13  16
ENDBRANCH   8   9
ENDBRANCH   6   8
ENDBRANCH   3   4
ENDBRANCH   2   3
ENDBRANCH   1   2
BRANCH   1  19
ATOM     19  C   UNL A   1      36.701  21.495  25.551  1.00  0.00     0.116 C 
BRANCH  19  20
ATOM     20  N   UNL A   1      37.791  20.532  25.551  1.00  0.00    -0.352 N 
ATOM     21  C   UNL A   1      39.099  20.696  25.956  1.00  0.00     0.251 C 
ATOM     22  H   UNL A   1      37.562  19.635  25.215  1.00  0.00     0.163 HD
ATOM     23  O   UNL A   1      39.913  19.797  25.770  1.00  0.00    -0.269 OA
BRANCH  21  24
ATOM     24  C   UNL A   1      39.524  21.978  26.564  1.00  0.00     0.039 A 
ATOM     25  C   UNL A   1      38.935  23.181  26.170  1.00  0.00     0.014 A 
ATOM     26  C   UNL A   1      40.565  21.981  27.496  1.00  0.00     0.014 A 
ATOM     27  C   UNL A   1      39.523  24.386  26.542  1.00  0.00     0.010 A 
ATOM     28  C   UNL A   1      41.091  23.197  27.943  1.00  0.00     0.010 A 
ATOM     29  C   UNL A   1      40.621  24.410  27.417  1.00  0.00    -0.014 A 
BRANCH  29  30
ATOM     30  C   UNL A   1      41.263  25.709  27.753  1.00  0.00     0.031 A 
ATOM     31  C   UNL A   1      42.645  26.048  27.252  1.00  0.00     0.074 A 
ATOM     32  C   UNL A   1      40.580  26.616  28.481  1.00  0.00     0.049 A 
ATOM     33  N   UNL A   1      43.330  27.150  27.419  1.00  0.00    -0.248 NA
ATOM     34  C   UNL A   1      43.353  25.022  26.466  1.00  0.00     0.031 C 
ATOM     35  C   UNL A   1      39.242  26.411  29.039  1.00  0.00     0.029 A 
ATOM     36  N   UNL A   1      40.907  27.893  28.862  1.00  0.00    -0.354 N 
ATOM     37  C   UNL A   1      44.561  26.935  26.808  1.00  0.00     0.074 A 
ATOM     38  C   UNL A   1      44.532  25.597  26.261  1.00  0.00     0.031 C 
ATOM     39  C   UNL A   1      38.846  27.534  29.653  1.00  0.00     0.029 A 
ATOM     40  C   UNL A   1      39.918  28.521  29.580  1.00  0.00     0.049 A 
ATOM     41  H   UNL A   1      41.767  28.318  28.642  1.00  0.00     0.167 HD
ATOM     42  C   UNL A   1      45.613  27.779  26.701  1.00  0.00     0.034 A 
ATOM     43  C   UNL A   1      39.873  29.750  30.131  1.00  0.00     0.034 A 
ATOM     44  C   UNL A   1      45.625  29.131  27.188  1.00  0.00     0.049 A 
ATOM     45  C   UNL A   1      41.047  30.671  29.985  1.00  0.00     0.074 A 
ATOM     46  C   UNL A   1      46.623  30.082  27.049  1.00  0.00     0.029 A 
ATOM     47  N   UNL A   1      44.604  29.725  27.910  1.00  0.00    -0.354 N 
ATOM     48  N   UNL A   1      42.162  30.477  29.324  1.00  0.00    -0.248 NA
ATOM     49  C   UNL A   1      40.956  31.981  30.646  1.00  0.00     0.031 C 
ATOM     50  C   UNL A   1      46.213  31.244  27.706  1.00  0.00     0.029 A 
ATOM     51  C   UNL A   1      44.951  31.024  28.237  1.00  0.00     0.049 A 
ATOM     52  H   UNL A   1      43.755  29.288  28.154  1.00  0.00     0.167 HD
ATOM     53  C   UNL A   1      42.900  31.644  29.478  1.00  0.00     0.074 A 
ATOM     54  C   UNL A   1      42.101  32.546  30.281  1.00  0.00     0.031 C 
ATOM     55  C   UNL A   1      44.137  31.929  29.004  1.00  0.00     0.034 A 
BRANCH  42  56
ATOM     56  C   UNL A   1      46.849  27.293  25.992  1.00  0.00     0.023 A 
ATOM     57  C   UNL A   1      47.025  27.585  24.625  1.00  0.00     0.012 A 
ATOM     58  C   UNL A   1      47.881  26.657  26.707  1.00  0.00     0.148 A 
ATOM     59  C   UNL A   1      48.211  27.242  23.977  1.00  0.00     0.002 A 
ATOM     60  C   UNL A   1      49.072  26.345  26.062  1.00  0.00     0.091 A 
ATOM     61  F   UNL A   1      47.684  26.381  28.003  1.00  0.00    -0.205 F 
ATOM     62  C   UNL A   1      49.236  26.633  24.696  1.00  0.00     0.022 A 
BRANCH  60  63
ATOM     63  S   UNL A   1      50.478  25.614  26.909  1.00  0.00     0.127 S 
ATOM     64  O   UNL A   1      49.887  24.394  27.458  1.00  0.00    -0.237 OA
ATOM     65  O   UNL A   1      51.418  25.395  25.810  1.00  0.00    -0.237 OA
ATOM     66  O   UNL A   1      50.907  26.593  27.896  1.00  0.00    -0.744 OA
ENDBRANCH  60  63
ENDBRANCH  42  56
BRANCH  43  67
ATOM     67  C   UNL A   1      38.633  30.175  30.832  1.00  0.00     0.023 A 
ATOM     68  C   UNL A   1      38.523  29.968  32.220  1.00  0.00     0.012 A 
ATOM     69  C   UNL A   1      37.618  30.876  30.152  1.00  0.00     0.148 A 
ATOM     70  C   UNL A   1      37.422  30.459  32.922  1.00  0.00     0.002 A 
ATOM     71  C   UNL A   1      36.546  31.399  30.864  1.00  0.00     0.091 A 
ATOM     72  F   UNL A   1      37.755  31.059  28.831  1.00  0.00    -0.205 F 
ATOM     73  C   UNL A   1      36.442  31.184  32.247  1.00  0.00     0.022 A 
BRANCH  71  74
ATOM     74  S   UNL A   1      35.295  32.439  30.106  1.00  0.00     0.127 S 
ATOM     75  O   UNL A   1      34.350  32.620  31.207  1.00  0.00    -0.237 OA
ATOM     76  O   UNL A   1      36.070  33.629  29.757  1.00  0.00    -0.237 OA
ATOM     77  O   UNL A   1      34.786  31.687  28.968  1.00  0.00    -0.744 OA
ENDBRANCH  71  74
ENDBRANCH  43  67
BRANCH  55  78
ATOM     78  C   UNL A   1      44.727  33.275  29.322  1.00  0.00     0.023 A 
ATOM     79  C   UNL A   1      45.541  33.419  30.461  1.00  0.00     0.012 A 
ATOM     80  C   UNL A   1      44.589  34.349  28.423  1.00  0.00     0.148 A 
ATOM     81  C   UNL A   1      46.207  34.619  30.705  1.00  0.00     0.002 A 
ATOM     82  C   UNL A   1      45.284  35.530  28.653  1.00  0.00     0.091 A 
ATOM     83  F   UNL A   1      43.803  34.185  27.349  1.00  0.00    -0.205 F 
ATOM     84  C   UNL A   1      46.090  35.668  29.795  1.00  0.00     0.022 A 
BRANCH  82  85
ATOM     85  S   UNL A   1      45.259  36.910  27.502  1.00  0.00     0.127 S 
ATOM     86  O   UNL A   1      43.823  37.096  27.292  1.00  0.00    -0.237 OA
ATOM     87  O   UNL A   1      45.905  37.970  28.277  1.00  0.00    -0.237 OA
ATOM     88  O   UNL A   1      46.004  36.472  26.329  1.00  0.00    -0.744 OA
ENDBRANCH  82  85
ENDBRANCH  55  78
ENDBRANCH  29  30
ENDBRANCH  21  24
ENDBRANCH  19  20
ENDBRANCH   1  19
TORSDOF 16
ENDMDL
MODEL 2
REMARK VINA RESULT:     -11.6      0.393      7.967
REMARK SMILES O=C(Cc1ccc(=O)n(C(F)F)c1)NCCCCNC(=O)c1ccc(-c2c3nc(c(-c4cccc(S(=O)(=O)[O-])c4F)c4ccc([nH]4)c(-c4cccc(S(=O)(=O)[O-])c4F)c4nc(c(-c5cccc(S(=O)(=O)[O-])c5F)c5ccc2[nH]5)C=C4)C=C3)cc1
REMARK SMILES IDX 17 1 16 2 15 3 14 4 1 5 2 6 3 8 4 9 5 10 13 11 6 12 9 13
REMARK SMILES IDX 7 14 8 15 10 16 11 17 12 18 18 19 19 20 20 21 21 23 22 24
REMARK SMILES IDX 23 25 84 26 24 27 83 28 25 29 26 30 27 31 77 32 28 33 82 34
REMARK SMILES IDX 76 35 78 36 29 37 81 38 75 39 74 40 30 42 62 43 42 44 61 45
REMARK SMILES IDX 43 46 46 47 60 48 79 49 44 50 45 51 59 53 80 54 47 55 31 56
REMARK SMILES IDX 32 57 40 58 33 59 35 60 41 61 34 62 36 63 37 64 38 65 39 66
REMARK SMILES IDX 63 67 64 68 72 69 65 70 67 71 73 72 66 73 68 74 69 75 70 76
REMARK SMILES IDX 71 77 48 78 49 79 57 80 50 81 52 82 58 83 51 84 53 85 54 86
REMARK SMILES IDX 55 87 56 88
REMARK H PARENT 14 7 19 22 78 41 46 52
REMARK Flexibility Score: inf
ROOT
ATOM      1  C   UNL A   1      36.613  21.722  23.948  1.00  0.00     0.023 C 
ENDROOT
BRANCH   1   2
ATOM      2  C   UNL A   1      36.015  23.096  23.638  1.00  0.00     0.023 C 
BRANCH   2   3
ATOM      3  C   UNL A   1      34.511  23.213  23.865  1.00  0.00     0.116 C 
BRANCH   3   4
ATOM      4  N   UNL A   1      33.813  21.969  23.608  1.00  0.00    -0.356 N 
ATOM      5  O   UNL A   1      33.309  21.491  25.803  1.00  0.00    -0.275 OA
ATOM      6  C   UNL A   1      33.239  21.213  24.611  1.00  0.00     0.224 C 
ATOM      7  H   UNL A   1      33.747  21.649  22.680  1.00  0.00     0.163 HD
BRANCH   6   8
ATOM      8  C   UNL A   1      32.444  20.015  24.098  1.00  0.00     0.137 C 
BRANCH   8   9
ATOM      9  C   UNL A   1      33.050  18.689  24.505  1.00  0.00    -0.022 A 
ATOM     10  C   UNL A   1      34.489  18.562  24.382  1.00  0.00     0.011 A 
ATOM     11  C   UNL A   1      32.348  17.623  24.932  1.00  0.00     0.099 A 
ATOM     12  C   UNL A   1      35.105  17.404  24.651  1.00  0.00     0.072 A 
ATOM     13  N   UNL A   1      32.959  16.413  25.215  1.00  0.00    -0.258 N 
ATOM     14  C   UNL A   1      34.324  16.215  25.090  1.00  0.00     0.254 A 
ATOM     15  O   UNL A   1      34.921  15.168  25.313  1.00  0.00    -0.269 OA
BRANCH  13  16
ATOM     16  C   UNL A   1      32.166  15.270  25.590  1.00  0.00     0.451 C 
ATOM     17  F   UNL A   1      32.641  14.143  25.006  1.00  0.00    -0.185 F 
ATOM     18  F   UNL A   1      32.165  15.084  26.931  1.00  0.00    -0.185 F 
ENDBRANCH  13  16
ENDBRANCH   8   9
ENDBRANCH   6   8
ENDBRANCH   3   4
ENDBRANCH   2   3
ENDBRANCH   1   2
BRANCH   1  19
ATOM     19  C   UNL A   1      36.922  21.456  25.417  1.00  0.00     0.116 C 
BRANCH  19  20
ATOM     20  N   UNL A   1      37.980  20.476  25.615  1.00  0.00    -0.352 N 
ATOM     21  C   UNL A   1      39.252  20.656  26.116  1.00  0.00     0.251 C 
ATOM     22  H   UNL A   1      37.755  19.553  25.356  1.00  0.00     0.163 HD
ATOM     23  O   UNL A   1      40.052  19.726  26.099  1.00  0.00    -0.269 OA
BRANCH  21  24
ATOM     24  C   UNL A   1      39.660  21.987  26.623  1.00  0.00     0.039 A 
ATOM     25  C   UNL A   1      39.041  23.146  26.153  1.00  0.00     0.014 A 
ATOM     26  C   UNL A   1      40.715  22.078  27.533  1.00  0.00     0.014 A 
ATOM     27  C   UNL A   1      39.608  24.386  26.426  1.00  0.00     0.010 A 
ATOM     28  C   UNL A   1      41.223  23.334  27.882  1.00  0.00     0.010 A 
ATOM     29  C   UNL A   1      40.719  24.495  27.278  1.00  0.00    -0.014 A 
BRANCH  29  30
ATOM     30  C   UNL A   1      41.340  25.828  27.508  1.00  0.00     0.031 A 
ATOM     31  C   UNL A   1      40.640  26.883  28.327  1.00  0.00     0.074 A 
ATOM     32  C   UNL A   1      42.569  26.079  27.012  1.00  0.00     0.049 A 
ATOM     33  N   UNL A   1      41.059  28.078  28.656  1.00  0.00    -0.248 NA
ATOM     34  C   UNL A   1      39.297  26.563  28.843  1.00  0.00     0.031 C 
ATOM     35  C   UNL A   1      43.350  25.152  26.191  1.00  0.00     0.029 A 
ATOM     36  N   UNL A   1      43.380  27.179  27.136  1.00  0.00    -0.354 N 
ATOM     37  C   UNL A   1      40.021  28.669  29.368  1.00  0.00     0.074 A 
ATOM     38  C   UNL A   1      38.948  27.702  29.430  1.00  0.00     0.031 C 
ATOM     39  C   UNL A   1      44.542  25.702  25.923  1.00  0.00     0.029 A 
ATOM     40  C   UNL A   1      44.592  27.040  26.503  1.00  0.00     0.049 A 
ATOM     41  H   UNL A   1      43.120  27.988  27.632  1.00  0.00     0.167 HD
ATOM     42  C   UNL A   1      39.971  29.899  29.931  1.00  0.00     0.034 A 
ATOM     43  C   UNL A   1      45.630  27.891  26.389  1.00  0.00     0.034 A 
ATOM     44  C   UNL A   1      41.057  30.840  29.927  1.00  0.00     0.049 A 
ATOM     45  C   UNL A   1      45.555  29.242  27.035  1.00  0.00     0.074 A 
ATOM     46  C   UNL A   1      41.117  32.079  30.544  1.00  0.00     0.029 A 
ATOM     47  N   UNL A   1      42.264  30.659  29.273  1.00  0.00    -0.354 N 
ATOM     48  N   UNL A   1      44.600  29.741  27.780  1.00  0.00    -0.248 NA
ATOM     49  C   UNL A   1      46.700  30.142  26.837  1.00  0.00     0.031 C 
ATOM     50  C   UNL A   1      42.354  32.655  30.245  1.00  0.00     0.029 A 
ATOM     51  C   UNL A   1      43.071  31.768  29.459  1.00  0.00     0.049 A 
ATOM     52  H   UNL A   1      42.511  29.860  28.753  1.00  0.00     0.167 HD
ATOM     53  C   UNL A   1      45.032  31.008  28.151  1.00  0.00     0.074 A 
ATOM     54  C   UNL A   1      46.342  31.195  27.563  1.00  0.00     0.031 C 
ATOM     55  C   UNL A   1      44.388  31.933  28.903  1.00  0.00     0.034 A 
BRANCH  42  56
ATOM     56  C   UNL A   1      38.711  30.306  30.645  1.00  0.00     0.023 A 
ATOM     57  C   UNL A   1      38.595  30.080  32.031  1.00  0.00     0.012 A 
ATOM     58  C   UNL A   1      37.701  31.016  29.968  1.00  0.00     0.148 A 
ATOM     59  C   UNL A   1      37.484  30.550  32.732  1.00  0.00     0.002 A 
ATOM     60  C   UNL A   1      36.612  31.506  30.679  1.00  0.00     0.091 A 
ATOM     61  F   UNL A   1      37.830  31.207  28.648  1.00  0.00    -0.205 F 
ATOM     62  C   UNL A   1      36.501  31.270  32.060  1.00  0.00     0.022 A 
BRANCH  60  63
ATOM     63  S   UNL A   1      35.319  32.498  29.921  1.00  0.00     0.127 S 
ATOM     64  O   UNL A   1      36.068  33.682  29.500  1.00  0.00    -0.237 OA
ATOM     65  O   UNL A   1      34.874  31.636  28.826  1.00  0.00    -0.237 OA
ATOM     66  O   UNL A   1      34.327  32.730  30.960  1.00  0.00    -0.744 OA
ENDBRANCH  60  63
ENDBRANCH  42  56
BRANCH  43  67
ATOM     67  C   UNL A   1      46.847  27.442  25.661  1.00  0.00     0.023 A 
ATOM     68  C   UNL A   1      46.987  27.761  24.298  1.00  0.00     0.012 A 
ATOM     69  C   UNL A   1      47.904  26.803  26.337  1.00  0.00     0.148 A 
ATOM     70  C   UNL A   1      48.167  27.456  23.619  1.00  0.00     0.002 A 
ATOM     71  C   UNL A   1      49.091  26.539  25.667  1.00  0.00     0.091 A 
ATOM     72  F   UNL A   1      47.739  26.516  27.637  1.00  0.00    -0.205 F 
ATOM     73  C   UNL A   1      49.221  26.856  24.306  1.00  0.00     0.022 A 
BRANCH  71  74
ATOM     74  S   UNL A   1      50.541  25.875  26.489  1.00  0.00     0.127 S 
ATOM     75  O   UNL A   1      50.870  26.947  27.427  1.00  0.00    -0.237 OA
ATOM     76  O   UNL A   1      50.004  24.661  27.104  1.00  0.00    -0.237 OA
ATOM     77  O   UNL A   1      51.525  25.643  25.441  1.00  0.00    -0.744 OA
ENDBRANCH  71  74
ENDBRANCH  43  67
BRANCH  55  78
ATOM     78  C   UNL A   1      45.075  33.247  29.154  1.00  0.00     0.023 A 
ATOM     79  C   UNL A   1      45.955  33.368  30.246  1.00  0.00     0.012 A 
ATOM     80  C   UNL A   1      44.955  34.306  28.234  1.00  0.00     0.148 A 
ATOM     81  C   UNL A   1      46.705  34.529  30.422  1.00  0.00     0.002 A 
ATOM     82  C   UNL A   1      45.732  35.447  28.396  1.00  0.00     0.091 A 
ATOM     83  F   UNL A   1      44.105  34.166  27.207  1.00  0.00    -0.205 F 
ATOM     84  C   UNL A   1      46.604  35.561  29.492  1.00  0.00     0.022 A 
BRANCH  82  85
ATOM     85  S   UNL A   1      45.730  36.798  27.212  1.00  0.00     0.127 S 
ATOM     86  O   UNL A   1      46.679  37.729  27.822  1.00  0.00    -0.237 OA
ATOM     87  O   UNL A   1      46.213  36.143  25.996  1.00  0.00    -0.237 OA
ATOM     88  O   UNL A   1      44.355  37.274  27.143  1.00  0.00    -0.744 OA
ENDBRANCH  82  85
ENDBRANCH  55  78
ENDBRANCH  29  30
ENDBRANCH  21  24
ENDBRANCH  19  20
ENDBRANCH   1  19
TORSDOF 16
ENDMDL
MODEL 3
REMARK VINA RESULT:     -11.4      2.805      3.954
REMARK SMILES O=C(Cc1ccc(=O)n(C(F)F)c1)NCCCCNC(=O)c1ccc(-c2c3nc(c(-c4cccc(S(=O)(=O)[O-])c4F)c4ccc([nH]4)c(-c4cccc(S(=O)(=O)[O-])c4F)c4nc(c(-c5cccc(S(=O)(=O)[O-])c5F)c5ccc2[nH]5)C=C4)C=C3)cc1
REMARK SMILES IDX 17 1 16 2 15 3 14 4 1 5 2 6 3 8 4 9 5 10 13 11 6 12 9 13
REMARK SMILES IDX 7 14 8 15 10 16 11 17 12 18 18 19 19 20 20 21 21 23 22 24
REMARK SMILES IDX 23 25 84 26 24 27 83 28 25 29 26 30 27 31 77 32 28 33 82 34
REMARK SMILES IDX 76 35 78 36 29 37 81 38 75 39 74 40 30 42 62 43 42 44 61 45
REMARK SMILES IDX 43 46 46 47 60 48 79 49 44 50 45 51 59 53 80 54 47 55 31 56
REMARK SMILES IDX 32 57 40 58 33 59 35 60 41 61 34 62 36 63 37 64 38 65 39 66
REMARK SMILES IDX 63 67 64 68 72 69 65 70 67 71 73 72 66 73 68 74 69 75 70 76
REMARK SMILES IDX 71 77 48 78 49 79 57 80 50 81 52 82 58 83 51 84 53 85 54 86
REMARK SMILES IDX 55 87 56 88
REMARK H PARENT 14 7 19 22 78 41 46 52
REMARK Flexibility Score: inf
ROOT
ATOM      1  C   UNL A   1      35.802  21.164  25.206  1.00  0.00     0.023 C 
ENDROOT
BRANCH   1   2
ATOM      2  C   UNL A   1      35.229  21.721  26.511  1.00  0.00     0.023 C 
BRANCH   2   3
ATOM      3  C   UNL A   1      33.869  22.399  26.383  1.00  0.00     0.116 C 
BRANCH   3   4
ATOM      4  N   UNL A   1      33.462  22.569  25.002  1.00  0.00    -0.356 N 
ATOM      5  O   UNL A   1      31.760  21.019  25.036  1.00  0.00    -0.275 OA
ATOM      6  C   UNL A   1      32.409  21.874  24.443  1.00  0.00     0.224 C 
ATOM      7  H   UNL A   1      33.958  23.206  24.440  1.00  0.00     0.163 HD
BRANCH   6   8
ATOM      8  C   UNL A   1      32.075  22.307  23.018  1.00  0.00     0.137 C 
BRANCH   8   9
ATOM      9  C   UNL A   1      31.759  23.784  22.910  1.00  0.00    -0.022 A 
ATOM     10  C   UNL A   1      32.639  24.581  22.077  1.00  0.00     0.011 A 
ATOM     11  C   UNL A   1      30.755  24.404  23.555  1.00  0.00     0.099 A 
ATOM     12  C   UNL A   1      32.481  25.907  21.978  1.00  0.00     0.072 A 
ATOM     13  N   UNL A   1      30.569  25.773  23.472  1.00  0.00    -0.258 N 
ATOM     14  C   UNL A   1      31.390  26.596  22.719  1.00  0.00     0.254 A 
ATOM     15  O   UNL A   1      31.285  27.814  22.616  1.00  0.00    -0.269 OA
BRANCH  13  16
ATOM     16  C   UNL A   1      29.533  26.413  24.243  1.00  0.00     0.451 C 
ATOM     17  F   UNL A   1      28.317  26.199  23.684  1.00  0.00    -0.185 F 
ATOM     18  F   UNL A   1      29.502  25.951  25.515  1.00  0.00    -0.185 F 
ENDBRANCH  13  16
ENDBRANCH   8   9
ENDBRANCH   6   8
ENDBRANCH   3   4
ENDBRANCH   2   3
ENDBRANCH   1   2
BRANCH   1  19
ATOM     19  C   UNL A   1      37.250  21.539  24.911  1.00  0.00     0.116 C 
BRANCH  19  20
ATOM     20  N   UNL A   1      38.202  20.505  25.289  1.00  0.00    -0.352 N 
ATOM     21  C   UNL A   1      39.370  20.619  26.013  1.00  0.00     0.251 C 
ATOM     22  H   UNL A   1      37.980  19.595  24.986  1.00  0.00     0.163 HD
ATOM     23  O   UNL A   1      40.110  19.647  26.133  1.00  0.00    -0.269 OA
BRANCH  21  24
ATOM     24  C   UNL A   1      39.748  21.927  26.596  1.00  0.00     0.039 A 
ATOM     25  C   UNL A   1      39.154  23.105  26.141  1.00  0.00     0.014 A 
ATOM     26  C   UNL A   1      40.753  21.979  27.565  1.00  0.00     0.014 A 
ATOM     27  C   UNL A   1      39.705  24.332  26.496  1.00  0.00     0.010 A 
ATOM     28  C   UNL A   1      41.240  23.219  27.993  1.00  0.00     0.010 A 
ATOM     29  C   UNL A   1      40.768  24.405  27.411  1.00  0.00    -0.014 A 
BRANCH  29  30
ATOM     30  C   UNL A   1      41.374  25.726  27.729  1.00  0.00     0.031 A 
ATOM     31  C   UNL A   1      42.747  26.094  27.227  1.00  0.00     0.074 A 
ATOM     32  C   UNL A   1      40.664  26.625  28.441  1.00  0.00     0.049 A 
ATOM     33  N   UNL A   1      43.402  27.217  27.378  1.00  0.00    -0.248 NA
ATOM     34  C   UNL A   1      43.486  25.077  26.458  1.00  0.00     0.031 C 
ATOM     35  C   UNL A   1      39.331  26.392  28.998  1.00  0.00     0.029 A 
ATOM     36  N   UNL A   1      40.955  27.916  28.804  1.00  0.00    -0.354 N 
ATOM     37  C   UNL A   1      44.640  27.027  26.775  1.00  0.00     0.074 A 
ATOM     38  C   UNL A   1      44.649  25.681  26.248  1.00  0.00     0.031 C 
ATOM     39  C   UNL A   1      38.902  27.513  29.594  1.00  0.00     0.029 A 
ATOM     40  C   UNL A   1      39.947  28.527  29.510  1.00  0.00     0.049 A 
ATOM     41  H   UNL A   1      41.804  28.361  28.580  1.00  0.00     0.167 HD
ATOM     42  C   UNL A   1      45.669  27.898  26.658  1.00  0.00     0.034 A 
ATOM     43  C   UNL A   1      39.867  29.763  30.042  1.00  0.00     0.034 A 
ATOM     44  C   UNL A   1      45.643  29.256  27.124  1.00  0.00     0.049 A 
ATOM     45  C   UNL A   1      41.016  30.713  29.885  1.00  0.00     0.074 A 
ATOM     46  C   UNL A   1      46.615  30.232  26.975  1.00  0.00     0.029 A 
ATOM     47  N   UNL A   1      44.603  29.834  27.834  1.00  0.00    -0.354 N 
ATOM     48  N   UNL A   1      42.138  30.540  29.230  1.00  0.00    -0.248 NA
ATOM     49  C   UNL A   1      40.887  32.030  30.526  1.00  0.00     0.031 C 
ATOM     50  C   UNL A   1      46.171  31.392  27.613  1.00  0.00     0.029 A 
ATOM     51  C   UNL A   1      44.915  31.146  28.143  1.00  0.00     0.049 A 
ATOM     52  H   UNL A   1      43.767  29.377  28.083  1.00  0.00     0.167 HD
ATOM     53  C   UNL A   1      42.843  31.729  29.369  1.00  0.00     0.074 A 
ATOM     54  C   UNL A   1      42.018  32.620  30.156  1.00  0.00     0.031 C 
ATOM     55  C   UNL A   1      44.074  32.040  28.894  1.00  0.00     0.034 A 
BRANCH  42  56
ATOM     56  C   UNL A   1      46.920  27.435  25.960  1.00  0.00     0.023 A 
ATOM     57  C   UNL A   1      47.818  26.585  26.636  1.00  0.00     0.012 A 
ATOM     58  C   UNL A   1      47.140  27.743  24.604  1.00  0.00     0.148 A 
ATOM     59  C   UNL A   1      48.924  26.055  25.972  1.00  0.00     0.002 A 
ATOM     60  C   UNL A   1      48.228  27.187  23.941  1.00  0.00     0.091 A 
ATOM     61  F   UNL A   1      46.277  28.562  23.987  1.00  0.00    -0.205 F 
ATOM     62  C   UNL A   1      49.122  26.346  24.625  1.00  0.00     0.022 A 
BRANCH  60  63
ATOM     63  S   UNL A   1      48.541  27.449  22.191  1.00  0.00     0.127 S 
ATOM     64  O   UNL A   1      47.358  28.212  21.793  1.00  0.00    -0.237 OA
ATOM     65  O   UNL A   1      49.784  28.221  22.215  1.00  0.00    -0.237 OA
ATOM     66  O   UNL A   1      48.653  26.125  21.598  1.00  0.00    -0.744 OA
ENDBRANCH  60  63
ENDBRANCH  42  56
BRANCH  43  67
ATOM     67  C   UNL A   1      38.613  30.164  30.733  1.00  0.00     0.023 A 
ATOM     68  C   UNL A   1      38.470  29.896  32.107  1.00  0.00     0.012 A 
ATOM     69  C   UNL A   1      37.619  30.902  30.062  1.00  0.00     0.148 A 
ATOM     70  C   UNL A   1      37.357  30.363  32.805  1.00  0.00     0.002 A 
ATOM     71  C   UNL A   1      36.534  31.400  30.772  1.00  0.00     0.091 A 
ATOM     72  F   UNL A   1      37.786  31.143  28.754  1.00  0.00    -0.205 F 
ATOM     73  C   UNL A   1      36.396  31.124  32.141  1.00  0.00     0.022 A 
BRANCH  71  74
ATOM     74  S   UNL A   1      35.306  32.481  30.034  1.00  0.00     0.127 S 
ATOM     75  O   UNL A   1      34.759  31.634  28.976  1.00  0.00    -0.237 OA
ATOM     76  O   UNL A   1      34.404  32.719  31.161  1.00  0.00    -0.237 OA
ATOM     77  O   UNL A   1      36.033  33.657  29.575  1.00  0.00    -0.744 OA
ENDBRANCH  71  74
ENDBRANCH  43  67
BRANCH  55  78
ATOM     78  C   UNL A   1      44.626  33.406  29.194  1.00  0.00     0.023 A 
ATOM     79  C   UNL A   1      45.348  33.612  30.383  1.00  0.00     0.012 A 
ATOM     80  C   UNL A   1      44.548  34.436  28.237  1.00  0.00     0.148 A 
ATOM     81  C   UNL A   1      45.984  34.830  30.621  1.00  0.00     0.002 A 
ATOM     82  C   UNL A   1      45.213  35.635  28.465  1.00  0.00     0.091 A 
ATOM     83  F   UNL A   1      43.849  34.214  27.115  1.00  0.00    -0.205 F 
ATOM     84  C   UNL A   1      45.927  35.835  29.658  1.00  0.00     0.022 A 
BRANCH  82  85
ATOM     85  S   UNL A   1      45.264  36.961  27.253  1.00  0.00     0.127 S 
ATOM     86  O   UNL A   1      46.024  37.987  27.967  1.00  0.00    -0.237 OA
ATOM     87  O   UNL A   1      45.979  36.334  26.141  1.00  0.00    -0.237 OA
ATOM     88  O   UNL A   1      43.877  37.304  26.969  1.00  0.00    -0.744 OA
ENDBRANCH  82  85
ENDBRANCH  55  78
ENDBRANCH  29  30
ENDBRANCH  21  24
ENDBRANCH  19  20
ENDBRANCH   1  19
TORSDOF 16
ENDMDL
