MODEL 1
REMARK VINA RESULT:     -13.0      0.000      0.000
REMARK SMILES O=C(Cn1c2ccccc2c(=O)c2ccccc21)N[C@@H](Cc1ccccc1)C(=O)NCCCCNC(=O)c1ccc(-c2c3nc(c(-c4cccc(S(=O)(=O)[O-])c4F)c4ccc([nH]4)c(-c4cccc(S(=O)(=O)[O-])c4F)c4nc(c(-c5cccc(S(=O)(=O)[O-])c5F)c5ccc2[nH]5)C=C4)C=C3)cc1
REMARK SMILES IDX 32 1 31 2 30 3 28 4 29 5 20 7 19 8 1 9 2 10 3 12 4 13 5 14
REMARK SMILES IDX 18 15 6 16 10 17 13 18 17 19 7 20 9 21 11 22 14 23 16 24
REMARK SMILES IDX 8 25 12 26 15 27 21 28 22 29 23 30 27 31 24 32 26 33 25 34
REMARK SMILES IDX 33 35 34 36 35 37 36 38 37 40 38 41 39 42 100 43 40 44 99 45
REMARK SMILES IDX 41 46 42 47 43 48 93 49 44 50 98 51 92 52 94 53 45 54 97 55
REMARK SMILES IDX 91 56 90 57 46 59 78 60 58 61 77 62 59 63 62 64 76 65 95 66
REMARK SMILES IDX 60 67 61 68 75 70 96 71 63 72 47 73 48 74 56 75 49 76 51 77
REMARK SMILES IDX 57 78 50 79 52 80 53 81 54 82 55 83 79 84 80 85 88 86 81 87
REMARK SMILES IDX 83 88 89 89 82 90 84 91 85 92 86 93 87 94 64 95 65 96 73 97
REMARK SMILES IDX 66 98 68 99 74 100 67 101 69 102 70 103 71 104 72 105
REMARK H PARENT 30 6 19 11 35 39 94 58 62 69
REMARK Flexibility Score: inf
ROOT
ATOM      1  C   UNL A   1      33.018  28.042  27.070  1.00  0.00     0.023 C 
ENDROOT
BRANCH   1   2
ATOM      2  C   UNL A   1      32.961  27.243  25.780  1.00  0.00     0.116 C 
BRANCH   2   3
ATOM      3  N   UNL A   1      33.591  27.896  24.650  1.00  0.00    -0.354 N 
ATOM      4  C   UNL A   1      33.014  28.425  23.528  1.00  0.00     0.242 C 
ATOM      5  O   UNL A   1      33.614  29.337  22.952  1.00  0.00    -0.273 OA
ATOM      6  H   UNL A   1      34.572  27.967  24.696  1.00  0.00     0.163 HD
BRANCH   4   7
ATOM      7  C   UNL A   1      31.626  27.969  23.030  1.00  0.00     0.175 C 
BRANCH   7   8
ATOM      8  N   UNL A   1      31.572  26.512  22.848  1.00  0.00    -0.342 N 
ATOM      9  O   UNL A   1      33.542  26.359  21.698  1.00  0.00    -0.273 OA
ATOM     10  C   UNL A   1      32.642  25.815  22.338  1.00  0.00     0.240 C 
ATOM     11  H   UNL A   1      30.753  26.024  23.096  1.00  0.00     0.164 HD
BRANCH  10  12
ATOM     12  C   UNL A   1      32.635  24.301  22.566  1.00  0.00     0.222 C 
BRANCH  12  13
ATOM     13  N   UNL A   1      33.208  23.783  23.846  1.00  0.00    -0.331 N 
ATOM     14  C   UNL A   1      32.281  23.584  24.914  1.00  0.00     0.053 A 
ATOM     15  C   UNL A   1      34.544  23.325  23.954  1.00  0.00     0.053 A 
ATOM     16  C   UNL A   1      30.884  23.700  24.778  1.00  0.00     0.027 A 
ATOM     17  C   UNL A   1      32.747  23.208  26.189  1.00  0.00     0.046 A 
ATOM     18  C   UNL A   1      35.079  23.019  25.223  1.00  0.00     0.046 A 
ATOM     19  C   UNL A   1      35.420  23.159  22.870  1.00  0.00     0.027 A 
ATOM     20  C   UNL A   1      30.012  23.473  25.854  1.00  0.00     0.002 A 
ATOM     21  C   UNL A   1      31.879  22.977  27.269  1.00  0.00     0.014 A 
ATOM     22  C   UNL A   1      34.193  23.030  26.403  1.00  0.00     0.197 A 
ATOM     23  C   UNL A   1      36.432  22.697  25.417  1.00  0.00     0.014 A 
ATOM     24  C   UNL A   1      36.777  22.850  23.055  1.00  0.00     0.002 A 
ATOM     25  C   UNL A   1      30.508  23.111  27.099  1.00  0.00     0.001 A 
ATOM     26  O   UNL A   1      34.643  22.869  27.531  1.00  0.00    -0.288 OA
ATOM     27  C   UNL A   1      37.289  22.640  24.328  1.00  0.00     0.001 A 
ENDBRANCH  12  13
ENDBRANCH  10  12
ENDBRANCH   7   8
BRANCH   7  28
ATOM     28  C   UNL A   1      30.431  28.608  23.769  1.00  0.00     0.070 C 
BRANCH  28  29
ATOM     29  C   UNL A   1      29.775  29.806  23.124  1.00  0.00    -0.045 A 
ATOM     30  C   UNL A   1      29.384  29.771  21.779  1.00  0.00     0.004 A 
ATOM     31  C   UNL A   1      29.503  30.957  23.881  1.00  0.00     0.004 A 
ATOM     32  C   UNL A   1      28.683  30.842  21.220  1.00  0.00     0.000 A 
ATOM     33  C   UNL A   1      28.806  32.028  23.318  1.00  0.00     0.000 A 
ATOM     34  C   UNL A   1      28.383  31.964  21.992  1.00  0.00     0.000 A 
ENDBRANCH  28  29
ENDBRANCH   7  28
ENDBRANCH   4   7
ENDBRANCH   2   3
ENDBRANCH   1   2
BRANCH   1  35
ATOM     35  C   UNL A   1      32.401  29.432  26.988  1.00  0.00     0.023 C 
BRANCH  35  36
ATOM     36  C   UNL A   1      33.394  30.589  26.985  1.00  0.00     0.116 C 
BRANCH  36  37
ATOM     37  N   UNL A   1      32.779  31.909  27.079  1.00  0.00    -0.352 N 
ATOM     38  C   UNL A   1      33.206  32.997  27.812  1.00  0.00     0.251 C 
ATOM     39  H   UNL A   1      31.956  32.039  26.555  1.00  0.00     0.163 HD
ATOM     40  O   UNL A   1      32.566  34.039  27.822  1.00  0.00    -0.269 OA
BRANCH  38  41
ATOM     41  C   UNL A   1      34.433  32.847  28.619  1.00  0.00     0.039 A 
ATOM     42  C   UNL A   1      35.676  33.085  28.029  1.00  0.00     0.014 A 
ATOM     43  C   UNL A   1      34.340  32.328  29.911  1.00  0.00     0.014 A 
ATOM     44  C   UNL A   1      36.822  32.619  28.661  1.00  0.00     0.010 A 
ATOM     45  C   UNL A   1      35.504  31.938  30.577  1.00  0.00     0.010 A 
ATOM     46  C   UNL A   1      36.746  32.016  29.929  1.00  0.00    -0.014 A 
BRANCH  46  47
ATOM     47  C   UNL A   1      37.984  31.451  30.528  1.00  0.00     0.031 A 
ATOM     48  C   UNL A   1      38.365  31.749  31.956  1.00  0.00     0.074 A 
ATOM     49  C   UNL A   1      38.724  30.592  29.801  1.00  0.00     0.049 A 
ATOM     50  N   UNL A   1      39.348  31.249  32.660  1.00  0.00    -0.248 NA
ATOM     51  C   UNL A   1      37.548  32.731  32.689  1.00  0.00     0.031 C 
ATOM     52  C   UNL A   1      38.468  30.242  28.402  1.00  0.00     0.029 A 
ATOM     53  N   UNL A   1      39.815  29.835  30.141  1.00  0.00    -0.354 N 
ATOM     54  C   UNL A   1      39.295  31.881  33.897  1.00  0.00     0.074 A 
ATOM     55  C   UNL A   1      38.184  32.806  33.851  1.00  0.00     0.031 C 
ATOM     56  C   UNL A   1      39.334  29.291  28.024  1.00  0.00     0.029 A 
ATOM     57  C   UNL A   1      40.231  28.994  29.136  1.00  0.00     0.049 A 
ATOM     58  H   UNL A   1      40.256  29.887  31.020  1.00  0.00     0.167 HD
ATOM     59  C   UNL A   1      40.084  31.691  34.980  1.00  0.00     0.034 A 
ATOM     60  C   UNL A   1      41.216  28.077  29.112  1.00  0.00     0.034 A 
ATOM     61  C   UNL A   1      41.142  30.720  35.054  1.00  0.00     0.049 A 
ATOM     62  C   UNL A   1      42.052  27.861  30.339  1.00  0.00     0.074 A 
ATOM     63  C   UNL A   1      41.947  30.411  36.136  1.00  0.00     0.029 A 
ATOM     64  N   UNL A   1      41.535  29.897  34.013  1.00  0.00    -0.354 N 
ATOM     65  N   UNL A   1      41.923  28.403  31.524  1.00  0.00    -0.248 NA
ATOM     66  C   UNL A   1      43.162  26.904  30.228  1.00  0.00     0.031 C 
ATOM     67  C   UNL A   1      42.831  29.399  35.749  1.00  0.00     0.029 A 
ATOM     68  C   UNL A   1      42.576  29.083  34.424  1.00  0.00     0.049 A 
ATOM     69  H   UNL A   1      41.135  29.890  33.113  1.00  0.00     0.167 HD
ATOM     70  C   UNL A   1      42.933  27.853  32.303  1.00  0.00     0.074 A 
ATOM     71  C   UNL A   1      43.649  26.914  31.463  1.00  0.00     0.031 C 
ATOM     72  C   UNL A   1      43.253  28.125  33.591  1.00  0.00     0.034 A 
BRANCH  59  73
ATOM     73  C   UNL A   1      39.805  32.503  36.214  1.00  0.00     0.023 A 
ATOM     74  C   UNL A   1      40.453  33.743  36.379  1.00  0.00     0.012 A 
ATOM     75  C   UNL A   1      38.825  32.100  37.143  1.00  0.00     0.148 A 
ATOM     76  C   UNL A   1      40.134  34.570  37.456  1.00  0.00     0.002 A 
ATOM     77  C   UNL A   1      38.497  32.940  38.201  1.00  0.00     0.091 A 
ATOM     78  F   UNL A   1      38.234  30.910  36.969  1.00  0.00    -0.205 F 
ATOM     79  C   UNL A   1      39.151  34.174  38.359  1.00  0.00     0.022 A 
BRANCH  77  80
ATOM     80  S   UNL A   1      37.207  32.551  39.389  1.00  0.00     0.127 S 
ATOM     81  O   UNL A   1      37.426  33.580  40.407  1.00  0.00    -0.237 OA
ATOM     82  O   UNL A   1      35.991  32.729  38.596  1.00  0.00    -0.237 OA
ATOM     83  O   UNL A   1      37.458  31.186  39.825  1.00  0.00    -0.744 OA
ENDBRANCH  77  80
ENDBRANCH  59  73
BRANCH  60  84
ATOM     84  C   UNL A   1      41.403  27.249  27.891  1.00  0.00     0.023 A 
ATOM     85  C   UNL A   1      42.009  27.825  26.759  1.00  0.00     0.012 A 
ATOM     86  C   UNL A   1      41.074  25.880  27.880  1.00  0.00     0.148 A 
ATOM     87  C   UNL A   1      42.285  27.050  25.633  1.00  0.00     0.002 A 
ATOM     88  C   UNL A   1      41.393  25.105  26.772  1.00  0.00     0.091 A 
ATOM     89  F   UNL A   1      40.487  25.362  28.967  1.00  0.00    -0.205 F 
ATOM     90  C   UNL A   1      41.990  25.689  25.645  1.00  0.00     0.022 A 
BRANCH  88  91
ATOM     91  S   UNL A   1      41.167  23.323  26.748  1.00  0.00     0.127 S 
ATOM     92  O   UNL A   1      41.728  22.933  28.039  1.00  0.00    -0.237 OA
ATOM     93  O   UNL A   1      39.711  23.206  26.648  1.00  0.00    -0.237 OA
ATOM     94  O   UNL A   1      41.889  22.849  25.576  1.00  0.00    -0.744 OA
ENDBRANCH  88  91
ENDBRANCH  60  84
BRANCH  72  95
ATOM     95  C   UNL A   1      44.439  27.420  34.182  1.00  0.00     0.023 A 
ATOM     96  C   UNL A   1      45.711  28.014  34.065  1.00  0.00     0.012 A 
ATOM     97  C   UNL A   1      44.284  26.245  34.944  1.00  0.00     0.148 A 
ATOM     98  C   UNL A   1      46.816  27.445  34.696  1.00  0.00     0.002 A 
ATOM     99  C   UNL A   1      45.385  25.701  35.593  1.00  0.00     0.091 A 
ATOM    100  F   UNL A   1      43.064  25.697  35.030  1.00  0.00    -0.205 F 
ATOM    101  C   UNL A   1      46.652  26.297  35.467  1.00  0.00     0.022 A 
BRANCH  99 102
ATOM    102  S   UNL A   1      45.266  24.264  36.665  1.00  0.00     0.127 S 
ATOM    103  O   UNL A   1      44.367  24.748  37.712  1.00  0.00    -0.237 OA
ATOM    104  O   UNL A   1      44.683  23.261  35.775  1.00  0.00    -0.237 OA
ATOM    105  O   UNL A   1      46.626  23.972  37.101  1.00  0.00    -0.744 OA
ENDBRANCH  99 102
ENDBRANCH  72  95
ENDBRANCH  46  47
ENDBRANCH  38  41
ENDBRANCH  36  37
ENDBRANCH  35  36
ENDBRANCH   1  35
TORSDOF 19
ENDMDL
MODEL 2
REMARK VINA RESULT:     -12.5      1.467      2.553
REMARK SMILES O=C(Cn1c2ccccc2c(=O)c2ccccc21)N[C@@H](Cc1ccccc1)C(=O)NCCCCNC(=O)c1ccc(-c2c3nc(c(-c4cccc(S(=O)(=O)[O-])c4F)c4ccc([nH]4)c(-c4cccc(S(=O)(=O)[O-])c4F)c4nc(c(-c5cccc(S(=O)(=O)[O-])c5F)c5ccc2[nH]5)C=C4)C=C3)cc1
REMARK SMILES IDX 32 1 31 2 30 3 28 4 29 5 20 7 19 8 1 9 2 10 3 12 4 13 5 14
REMARK SMILES IDX 18 15 6 16 10 17 13 18 17 19 7 20 9 21 11 22 14 23 16 24
REMARK SMILES IDX 8 25 12 26 15 27 21 28 22 29 23 30 27 31 24 32 26 33 25 34
REMARK SMILES IDX 33 35 34 36 35 37 36 38 37 40 38 41 39 42 100 43 40 44 99 45
REMARK SMILES IDX 41 46 42 47 43 48 93 49 44 50 98 51 92 52 94 53 45 54 97 55
REMARK SMILES IDX 91 56 90 57 46 59 78 60 58 61 77 62 59 63 62 64 76 65 95 66
REMARK SMILES IDX 60 67 61 68 75 70 96 71 63 72 47 73 48 74 56 75 49 76 51 77
REMARK SMILES IDX 57 78 50 79 52 80 53 81 54 82 55 83 79 84 80 85 88 86 81 87
REMARK SMILES IDX 83 88 89 89 82 90 84 91 85 92 86 93 87 94 64 95 65 96 73 97
REMARK SMILES IDX 66 98 68 99 74 100 67 101 69 102 70 103 71 104 72 105
REMARK H PARENT 30 6 19 11 35 39 94 58 62 69
REMARK Flexibility Score: inf
ROOT
ATOM      1  C   UNL A   1      33.229  28.916  27.354  1.00  0.00     0.023 C 
ENDROOT
BRANCH   1   2
ATOM      2  C   UNL A   1      32.991  27.847  26.301  1.00  0.00     0.116 C 
BRANCH   2   3
ATOM      3  N   UNL A   1      33.839  27.969  25.131  1.00  0.00    -0.354 N 
ATOM      4  C   UNL A   1      33.489  28.254  23.840  1.00  0.00     0.242 C 
ATOM      5  O   UNL A   1      34.340  28.789  23.123  1.00  0.00    -0.273 OA
ATOM      6  H   UNL A   1      34.800  27.825  25.289  1.00  0.00     0.163 HD
BRANCH   4   7
ATOM      7  C   UNL A   1      32.065  27.999  23.303  1.00  0.00     0.175 C 
BRANCH   7   8
ATOM      8  N   UNL A   1      31.854  26.579  22.990  1.00  0.00    -0.342 N 
ATOM      9  O   UNL A   1      33.655  26.388  21.596  1.00  0.00    -0.273 OA
ATOM     10  C   UNL A   1      32.788  25.855  22.288  1.00  0.00     0.240 C 
ATOM     11  H   UNL A   1      31.027  26.136  23.290  1.00  0.00     0.164 HD
BRANCH  10  12
ATOM     12  C   UNL A   1      32.665  24.331  22.370  1.00  0.00     0.222 C 
BRANCH  12  13
ATOM     13  N   UNL A   1      32.974  23.673  23.676  1.00  0.00    -0.331 N 
ATOM     14  C   UNL A   1      34.309  23.189  23.835  1.00  0.00     0.053 A 
ATOM     15  C   UNL A   1      32.079  23.696  24.773  1.00  0.00     0.053 A 
ATOM     16  C   UNL A   1      35.349  23.428  22.916  1.00  0.00     0.027 A 
ATOM     17  C   UNL A   1      34.659  22.455  24.984  1.00  0.00     0.046 A 
ATOM     18  C   UNL A   1      32.348  22.908  25.913  1.00  0.00     0.046 A 
ATOM     19  C   UNL A   1      30.896  24.448  24.821  1.00  0.00     0.027 A 
ATOM     20  C   UNL A   1      36.651  22.948  23.127  1.00  0.00     0.002 A 
ATOM     21  C   UNL A   1      35.961  21.974  25.203  1.00  0.00     0.014 A 
ATOM     22  C   UNL A   1      33.635  22.194  26.011  1.00  0.00     0.197 A 
ATOM     23  C   UNL A   1      31.436  22.774  26.972  1.00  0.00     0.014 A 
ATOM     24  C   UNL A   1      29.972  24.311  25.869  1.00  0.00     0.002 A 
ATOM     25  C   UNL A   1      36.958  22.222  24.270  1.00  0.00     0.001 A 
ATOM     26  O   UNL A   1      33.860  21.423  26.937  1.00  0.00    -0.288 OA
ATOM     27  C   UNL A   1      30.231  23.458  26.935  1.00  0.00     0.001 A 
ENDBRANCH  12  13
ENDBRANCH  10  12
ENDBRANCH   7   8
BRANCH   7  28
ATOM     28  C   UNL A   1      30.940  28.697  24.095  1.00  0.00     0.070 C 
BRANCH  28  29
ATOM     29  C   UNL A   1      30.097  29.711  23.360  1.00  0.00    -0.045 A 
ATOM     30  C   UNL A   1      29.810  29.552  21.998  1.00  0.00     0.004 A 
ATOM     31  C   UNL A   1      29.546  30.806  24.046  1.00  0.00     0.004 A 
ATOM     32  C   UNL A   1      28.944  30.436  21.350  1.00  0.00     0.000 A 
ATOM     33  C   UNL A   1      28.684  31.690  23.395  1.00  0.00     0.000 A 
ATOM     34  C   UNL A   1      28.371  31.497  22.051  1.00  0.00     0.000 A 
ENDBRANCH  28  29
ENDBRANCH   7  28
ENDBRANCH   4   7
ENDBRANCH   2   3
ENDBRANCH   1   2
BRANCH   1  35
ATOM     35  C   UNL A   1      32.695  30.297  26.995  1.00  0.00     0.023 C 
BRANCH  35  36
ATOM     36  C   UNL A   1      33.627  31.460  27.315  1.00  0.00     0.116 C 
BRANCH  36  37
ATOM     37  N   UNL A   1      32.951  32.742  27.487  1.00  0.00    -0.352 N 
ATOM     38  C   UNL A   1      33.269  33.763  28.358  1.00  0.00     0.251 C 
ATOM     39  H   UNL A   1      32.168  32.896  26.911  1.00  0.00     0.163 HD
ATOM     40  O   UNL A   1      32.587  34.776  28.417  1.00  0.00    -0.269 OA
BRANCH  38  41
ATOM     41  C   UNL A   1      34.433  33.574  29.247  1.00  0.00     0.039 A 
ATOM     42  C   UNL A   1      35.667  34.118  28.889  1.00  0.00     0.014 A 
ATOM     43  C   UNL A   1      34.315  32.730  30.353  1.00  0.00     0.014 A 
ATOM     44  C   UNL A   1      36.815  33.661  29.522  1.00  0.00     0.010 A 
ATOM     45  C   UNL A   1      35.466  32.339  31.041  1.00  0.00     0.010 A 
ATOM     46  C   UNL A   1      36.730  32.746  30.587  1.00  0.00    -0.014 A 
BRANCH  46  47
ATOM     47  C   UNL A   1      37.987  32.215  31.177  1.00  0.00     0.031 A 
ATOM     48  C   UNL A   1      38.479  32.690  32.520  1.00  0.00     0.074 A 
ATOM     49  C   UNL A   1      38.643  31.232  30.530  1.00  0.00     0.049 A 
ATOM     50  N   UNL A   1      39.492  32.248  33.221  1.00  0.00    -0.248 NA
ATOM     51  C   UNL A   1      37.752  33.799  33.160  1.00  0.00     0.031 C 
ATOM     52  C   UNL A   1      38.276  30.704  29.214  1.00  0.00     0.029 A 
ATOM     53  N   UNL A   1      39.728  30.482  30.901  1.00  0.00    -0.354 N 
ATOM     54  C   UNL A   1      39.551  33.046  34.357  1.00  0.00     0.074 A 
ATOM     55  C   UNL A   1      38.472  34.005  34.255  1.00  0.00     0.031 C 
ATOM     56  C   UNL A   1      39.078  29.672  28.917  1.00  0.00     0.029 A 
ATOM     57  C   UNL A   1      40.043  29.492  29.998  1.00  0.00     0.049 A 
ATOM     58  H   UNL A   1      40.233  30.635  31.732  1.00  0.00     0.167 HD
ATOM     59  C   UNL A   1      40.408  32.973  35.402  1.00  0.00     0.034 A 
ATOM     60  C   UNL A   1      40.991  28.538  30.038  1.00  0.00     0.034 A 
ATOM     61  C   UNL A   1      41.434  31.976  35.541  1.00  0.00     0.049 A 
ATOM     62  C   UNL A   1      41.904  28.456  31.225  1.00  0.00     0.074 A 
ATOM     63  C   UNL A   1      42.303  31.784  36.601  1.00  0.00     0.029 A 
ATOM     64  N   UNL A   1      41.723  31.000  34.603  1.00  0.00    -0.354 N 
ATOM     65  N   UNL A   1      41.880  29.162  32.329  1.00  0.00    -0.248 NA
ATOM     66  C   UNL A   1      42.970  27.445  31.178  1.00  0.00     0.031 C 
ATOM     67  C   UNL A   1      43.122  30.690  36.302  1.00  0.00     0.029 A 
ATOM     68  C   UNL A   1      42.762  30.206  35.054  1.00  0.00     0.049 A 
ATOM     69  H   UNL A   1      41.259  30.887  33.741  1.00  0.00     0.167 HD
ATOM     70  C   UNL A   1      42.923  28.681  33.108  1.00  0.00     0.074 A 
ATOM     71  C   UNL A   1      43.544  27.603  32.364  1.00  0.00     0.031 C 
ATOM     72  C   UNL A   1      43.344  29.113  34.321  1.00  0.00     0.034 A 
BRANCH  59  73
ATOM     73  C   UNL A   1      40.246  33.960  36.525  1.00  0.00     0.023 A 
ATOM     74  C   UNL A   1      40.612  35.304  36.314  1.00  0.00     0.012 A 
ATOM     75  C   UNL A   1      39.632  33.587  37.737  1.00  0.00     0.148 A 
ATOM     76  C   UNL A   1      40.373  36.264  37.296  1.00  0.00     0.002 A 
ATOM     77  C   UNL A   1      39.375  34.554  38.701  1.00  0.00     0.091 A 
ATOM     78  F   UNL A   1      39.306  32.299  37.916  1.00  0.00    -0.205 F 
ATOM     79  C   UNL A   1      39.747  35.892  38.483  1.00  0.00     0.022 A 
BRANCH  77  80
ATOM     80  S   UNL A   1      38.525  34.193  40.241  1.00  0.00     0.127 S 
ATOM     81  O   UNL A   1      39.495  33.331  40.918  1.00  0.00    -0.237 OA
ATOM     82  O   UNL A   1      38.376  35.523  40.832  1.00  0.00    -0.237 OA
ATOM     83  O   UNL A   1      37.275  33.546  39.871  1.00  0.00    -0.744 OA
ENDBRANCH  77  80
ENDBRANCH  59  73
BRANCH  60  84
ATOM     84  C   UNL A   1      41.061  27.542  28.937  1.00  0.00     0.023 A 
ATOM     85  C   UNL A   1      40.132  26.484  28.910  1.00  0.00     0.012 A 
ATOM     86  C   UNL A   1      41.972  27.690  27.874  1.00  0.00     0.148 A 
ATOM     87  C   UNL A   1      40.109  25.589  27.841  1.00  0.00     0.002 A 
ATOM     88  C   UNL A   1      41.914  26.822  26.791  1.00  0.00     0.091 A 
ATOM     89  F   UNL A   1      42.852  28.698  27.932  1.00  0.00    -0.205 F 
ATOM     90  C   UNL A   1      40.990  25.765  26.777  1.00  0.00     0.022 A 
BRANCH  88  91
ATOM     91  S   UNL A   1      42.921  27.049  25.321  1.00  0.00     0.127 S 
ATOM     92  O   UNL A   1      42.724  25.780  24.626  1.00  0.00    -0.237 OA
ATOM     93  O   UNL A   1      42.278  28.203  24.692  1.00  0.00    -0.237 OA
ATOM     94  O   UNL A   1      44.271  27.302  25.803  1.00  0.00    -0.744 OA
ENDBRANCH  88  91
ENDBRANCH  60  84
BRANCH  72  95
ATOM     95  C   UNL A   1      44.544  28.444  34.926  1.00  0.00     0.023 A 
ATOM     96  C   UNL A   1      45.827  28.919  34.593  1.00  0.00     0.012 A 
ATOM     97  C   UNL A   1      44.404  27.436  35.900  1.00  0.00     0.148 A 
ATOM     98  C   UNL A   1      46.958  28.398  35.218  1.00  0.00     0.002 A 
ATOM     99  C   UNL A   1      45.534  26.941  36.539  1.00  0.00     0.091 A 
ATOM    100  F   UNL A   1      43.172  26.996  36.190  1.00  0.00    -0.205 F 
ATOM    101  C   UNL A   1      46.811  27.418  36.198  1.00  0.00     0.022 A 
BRANCH  99 102
ATOM    102  S   UNL A   1      45.446  25.728  37.862  1.00  0.00     0.127 S 
ATOM    103  O   UNL A   1      45.540  24.471  37.120  1.00  0.00    -0.237 OA
ATOM    104  O   UNL A   1      46.626  26.055  38.661  1.00  0.00    -0.237 OA
ATOM    105  O   UNL A   1      44.174  25.957  38.535  1.00  0.00    -0.744 OA
ENDBRANCH  99 102
ENDBRANCH  72  95
ENDBRANCH  46  47
ENDBRANCH  38  41
ENDBRANCH  36  37
ENDBRANCH  35  36
ENDBRANCH   1  35
TORSDOF 19
ENDMDL
MODEL 3
REMARK VINA RESULT:     -12.5      3.018      5.747
REMARK SMILES O=C(Cn1c2ccccc2c(=O)c2ccccc21)N[C@@H](Cc1ccccc1)C(=O)NCCCCNC(=O)c1ccc(-c2c3nc(c(-c4cccc(S(=O)(=O)[O-])c4F)c4ccc([nH]4)c(-c4cccc(S(=O)(=O)[O-])c4F)c4nc(c(-c5cccc(S(=O)(=O)[O-])c5F)c5ccc2[nH]5)C=C4)C=C3)cc1
REMARK SMILES IDX 32 1 31 2 30 3 28 4 29 5 20 7 19 8 1 9 2 10 3 12 4 13 5 14
REMARK SMILES IDX 18 15 6 16 10 17 13 18 17 19 7 20 9 21 11 22 14 23 16 24
REMARK SMILES IDX 8 25 12 26 15 27 21 28 22 29 23 30 27 31 24 32 26 33 25 34
REMARK SMILES IDX 33 35 34 36 35 37 36 38 37 40 38 41 39 42 100 43 40 44 99 45
REMARK SMILES IDX 41 46 42 47 43 48 93 49 44 50 98 51 92 52 94 53 45 54 97 55
REMARK SMILES IDX 91 56 90 57 46 59 78 60 58 61 77 62 59 63 62 64 76 65 95 66
REMARK SMILES IDX 60 67 61 68 75 70 96 71 63 72 47 73 48 74 56 75 49 76 51 77
REMARK SMILES IDX 57 78 50 79 52 80 53 81 54 82 55 83 79 84 80 85 88 86 81 87
REMARK SMILES IDX 83 88 89 89 82 90 84 91 85 92 86 93 87 94 64 95 65 96 73 97
REMARK SMILES IDX 66 98 68 99 74 100 67 101 69 102 70 103 71 104 72 105
REMARK H PARENT 30 6 19 11 35 39 94 58 62 69
REMARK Flexibility Score: inf
ROOT
ATOM      1  C   UNL A   1      33.219  26.681  25.300  1.00  0.00     0.023 C 
ENDROOT
BRANCH   1   2
ATOM      2  C   UNL A   1      34.081  25.430  25.313  1.00  0.00     0.116 C 
BRANCH   2   3
ATOM      3  N   UNL A   1      33.641  24.416  26.252  1.00  0.00    -0.354 N 
ATOM      4  C   UNL A   1      34.322  23.332  26.733  1.00  0.00     0.242 C 
ATOM      5  O   UNL A   1      33.996  22.897  27.840  1.00  0.00    -0.273 OA
ATOM      6  H   UNL A   1      32.723  24.524  26.590  1.00  0.00     0.163 HD
BRANCH   4   7
ATOM      7  C   UNL A   1      35.512  22.711  25.970  1.00  0.00     0.175 C 
BRANCH   7   8
ATOM      8  N   UNL A   1      36.774  22.891  26.701  1.00  0.00    -0.342 N 
ATOM      9  O   UNL A   1      38.116  22.798  24.853  1.00  0.00    -0.273 OA
ATOM     10  C   UNL A   1      37.962  23.091  26.039  1.00  0.00     0.240 C 
ATOM     11  H   UNL A   1      36.769  22.867  27.685  1.00  0.00     0.164 HD
BRANCH  10  12
ATOM     12  C   UNL A   1      39.113  23.661  26.872  1.00  0.00     0.222 C 
BRANCH  12  13
ATOM     13  N   UNL A   1      40.508  23.437  26.383  1.00  0.00    -0.331 N 
ATOM     14  C   UNL A   1      41.230  24.606  25.989  1.00  0.00     0.053 A 
ATOM     15  C   UNL A   1      41.161  22.185  26.484  1.00  0.00     0.053 A 
ATOM     16  C   UNL A   1      40.763  25.921  26.175  1.00  0.00     0.027 A 
ATOM     17  C   UNL A   1      42.507  24.481  25.409  1.00  0.00     0.046 A 
ATOM     18  C   UNL A   1      42.404  21.990  25.845  1.00  0.00     0.046 A 
ATOM     19  C   UNL A   1      40.653  21.074  27.175  1.00  0.00     0.027 A 
ATOM     20  C   UNL A   1      41.519  27.039  25.789  1.00  0.00     0.002 A 
ATOM     21  C   UNL A   1      43.270  25.595  25.023  1.00  0.00     0.014 A 
ATOM     22  C   UNL A   1      43.081  23.139  25.214  1.00  0.00     0.197 A 
ATOM     23  C   UNL A   1      43.036  20.737  25.785  1.00  0.00     0.014 A 
ATOM     24  C   UNL A   1      41.271  19.815  27.110  1.00  0.00     0.002 A 
ATOM     25  C   UNL A   1      42.773  26.877  25.214  1.00  0.00     0.001 A 
ATOM     26  O   UNL A   1      44.109  22.986  24.565  1.00  0.00    -0.288 OA
ATOM     27  C   UNL A   1      42.450  19.640  26.399  1.00  0.00     0.001 A 
ENDBRANCH  12  13
ENDBRANCH  10  12
ENDBRANCH   7   8
BRANCH   7  28
ATOM     28  C   UNL A   1      35.250  21.301  25.399  1.00  0.00     0.070 C 
BRANCH  28  29
ATOM     29  C   UNL A   1      34.154  21.160  24.369  1.00  0.00    -0.045 A 
ATOM     30  C   UNL A   1      33.400  19.982  24.282  1.00  0.00     0.004 A 
ATOM     31  C   UNL A   1      33.843  22.230  23.515  1.00  0.00     0.004 A 
ATOM     32  C   UNL A   1      32.321  19.898  23.400  1.00  0.00     0.000 A 
ATOM     33  C   UNL A   1      32.767  22.141  22.630  1.00  0.00     0.000 A 
ATOM     34  C   UNL A   1      31.996  20.981  22.583  1.00  0.00     0.000 A 
ENDBRANCH  28  29
ENDBRANCH   7  28
ENDBRANCH   4   7
ENDBRANCH   2   3
ENDBRANCH   1   2
BRANCH   1  35
ATOM     35  C   UNL A   1      33.411  27.601  26.499  1.00  0.00     0.023 C 
BRANCH  35  36
ATOM     36  C   UNL A   1      34.542  28.615  26.368  1.00  0.00     0.116 C 
BRANCH  36  37
ATOM     37  N   UNL A   1      34.178  29.974  26.757  1.00  0.00    -0.352 N 
ATOM     38  C   UNL A   1      34.846  30.821  27.617  1.00  0.00     0.251 C 
ATOM     39  H   UNL A   1      33.353  30.330  26.357  1.00  0.00     0.163 HD
ATOM     40  O   UNL A   1      34.402  31.930  27.878  1.00  0.00    -0.269 OA
BRANCH  38  41
ATOM     41  C   UNL A   1      36.087  30.328  28.247  1.00  0.00     0.039 A 
ATOM     42  C   UNL A   1      36.005  29.456  29.334  1.00  0.00     0.014 A 
ATOM     43  C   UNL A   1      37.313  30.856  27.841  1.00  0.00     0.014 A 
ATOM     44  C   UNL A   1      37.125  29.269  30.134  1.00  0.00     0.010 A 
ATOM     45  C   UNL A   1      38.455  30.595  28.602  1.00  0.00     0.010 A 
ATOM     46  C   UNL A   1      38.356  29.859  29.792  1.00  0.00    -0.014 A 
BRANCH  46  47
ATOM     47  C   UNL A   1      39.505  29.707  30.723  1.00  0.00     0.031 A 
ATOM     48  C   UNL A   1      39.532  30.422  32.050  1.00  0.00     0.074 A 
ATOM     49  C   UNL A   1      40.493  28.849  30.401  1.00  0.00     0.049 A 
ATOM     50  N   UNL A   1      40.404  30.310  33.019  1.00  0.00    -0.248 NA
ATOM     51  C   UNL A   1      38.453  31.384  32.329  1.00  0.00     0.031 C 
ATOM     52  C   UNL A   1      40.588  28.117  29.137  1.00  0.00     0.029 A 
ATOM     53  N   UNL A   1      41.580  28.423  31.118  1.00  0.00    -0.354 N 
ATOM     54  C   UNL A   1      40.006  31.211  34.000  1.00  0.00     0.074 A 
ATOM     55  C   UNL A   1      38.814  31.867  33.510  1.00  0.00     0.031 C 
ATOM     56  C   UNL A   1      41.636  27.282  29.192  1.00  0.00     0.029 A 
ATOM     57  C   UNL A   1      42.311  27.450  30.476  1.00  0.00     0.049 A 
ATOM     58  H   UNL A   1      41.815  28.776  32.006  1.00  0.00     0.167 HD
ATOM     59  C   UNL A   1      40.568  31.452  35.208  1.00  0.00     0.034 A 
ATOM     60  C   UNL A   1      43.395  26.760  30.875  1.00  0.00     0.034 A 
ATOM     61  C   UNL A   1      41.709  30.749  35.727  1.00  0.00     0.049 A 
ATOM     62  C   UNL A   1      43.975  27.022  32.234  1.00  0.00     0.074 A 
ATOM     63  C   UNL A   1      42.302  30.881  36.970  1.00  0.00     0.029 A 
ATOM     64  N   UNL A   1      42.421  29.780  35.043  1.00  0.00    -0.354 N 
ATOM     65  N   UNL A   1      43.526  27.810  33.179  1.00  0.00    -0.248 NA
ATOM     66  C   UNL A   1      45.204  26.295  32.585  1.00  0.00     0.031 C 
ATOM     67  C   UNL A   1      43.378  29.990  37.038  1.00  0.00     0.029 A 
ATOM     68  C   UNL A   1      43.454  29.309  35.834  1.00  0.00     0.049 A 
ATOM     69  H   UNL A   1      42.224  29.472  34.128  1.00  0.00     0.167 HD
ATOM     70  C   UNL A   1      44.415  27.675  34.238  1.00  0.00     0.074 A 
ATOM     71  C   UNL A   1      45.413  26.707  33.829  1.00  0.00     0.031 C 
ATOM     72  C   UNL A   1      44.416  28.317  35.430  1.00  0.00     0.034 A 
BRANCH  59  73
ATOM     73  C   UNL A   1      39.926  32.481  36.097  1.00  0.00     0.023 A 
ATOM     74  C   UNL A   1      38.967  32.067  37.042  1.00  0.00     0.012 A 
ATOM     75  C   UNL A   1      40.349  33.825  36.076  1.00  0.00     0.148 A 
ATOM     76  C   UNL A   1      38.434  32.978  37.953  1.00  0.00     0.002 A 
ATOM     77  C   UNL A   1      39.830  34.721  37.003  1.00  0.00     0.091 A 
ATOM     78  F   UNL A   1      41.252  34.195  35.157  1.00  0.00    -0.205 F 
ATOM     79  C   UNL A   1      38.871  34.299  37.941  1.00  0.00     0.022 A 
BRANCH  77  80
ATOM     80  S   UNL A   1      40.365  36.433  37.109  1.00  0.00     0.127 S 
ATOM     81  O   UNL A   1      39.495  36.948  38.167  1.00  0.00    -0.237 OA
ATOM     82  O   UNL A   1      41.771  36.294  37.490  1.00  0.00    -0.237 OA
ATOM     83  O   UNL A   1      40.144  37.008  35.791  1.00  0.00    -0.744 OA
ENDBRANCH  77  80
ENDBRANCH  59  73
BRANCH  60  84
ATOM     84  C   UNL A   1      43.946  25.702  29.988  1.00  0.00     0.023 A 
ATOM     85  C   UNL A   1      43.238  24.494  29.842  1.00  0.00     0.012 A 
ATOM     86  C   UNL A   1      45.107  25.922  29.222  1.00  0.00     0.148 A 
ATOM     87  C   UNL A   1      43.677  23.520  28.945  1.00  0.00     0.002 A 
ATOM     88  C   UNL A   1      45.513  24.967  28.299  1.00  0.00     0.091 A 
ATOM     89  F   UNL A   1      45.767  27.075  29.392  1.00  0.00    -0.205 F 
ATOM     90  C   UNL A   1      44.805  23.763  28.165  1.00  0.00     0.022 A 
BRANCH  88  91
ATOM     91  S   UNL A   1      46.877  25.247  27.164  1.00  0.00     0.127 S 
ATOM     92  O   UNL A   1      46.971  23.956  26.488  1.00  0.00    -0.237 OA
ATOM     93  O   UNL A   1      46.361  26.339  26.337  1.00  0.00    -0.237 OA
ATOM     94  O   UNL A   1      48.015  25.609  27.996  1.00  0.00    -0.744 OA
ENDBRANCH  88  91
ENDBRANCH  60  84
BRANCH  72  95
ATOM     95  C   UNL A   1      45.536  28.021  36.385  1.00  0.00     0.023 A 
ATOM     96  C   UNL A   1      46.688  28.830  36.353  1.00  0.00     0.012 A 
ATOM     97  C   UNL A   1      45.405  27.031  37.378  1.00  0.00     0.148 A 
ATOM     98  C   UNL A   1      47.699  28.656  37.296  1.00  0.00     0.002 A 
ATOM     99  C   UNL A   1      46.404  26.883  38.332  1.00  0.00     0.091 A 
ATOM    100  F   UNL A   1      44.302  26.269  37.379  1.00  0.00    -0.205 F 
ATOM    101  C   UNL A   1      47.553  27.692  38.290  1.00  0.00     0.022 A 
BRANCH  99 102
ATOM    102  S   UNL A   1      46.280  25.716  39.693  1.00  0.00     0.127 S 
ATOM    103  O   UNL A   1      47.611  25.815  40.291  1.00  0.00    -0.237 OA
ATOM    104  O   UNL A   1      45.204  26.293  40.498  1.00  0.00    -0.237 OA
ATOM    105  O   UNL A   1      45.965  24.427  39.091  1.00  0.00    -0.744 OA
ENDBRANCH  99 102
ENDBRANCH  72  95
ENDBRANCH  46  47
ENDBRANCH  38  41
ENDBRANCH  36  37
ENDBRANCH  35  36
ENDBRANCH   1  35
TORSDOF 19
ENDMDL
