MODEL 1
REMARK VINA RESULT:     -10.9      0.000      0.000
REMARK SMILES CCC[C@@](C)(Nc1cc(C)cc(C)c1)C(=O)NCCCCNC(=O)c1ccc(-c2c3nc(c(-c4cccc(S(=O)(=O)[O-])c4F)c4ccc([nH]4)c(-c4cccc(S(=O)(=O)[O-])c4F)c4nc(c(-c5cccc(S(=O)(=O)[O-])c5F)c5ccc2[nH]5)C=C4)C=C3)cc1
REMARK SMILES IDX 20 1 19 2 18 3 17 4 15 5 16 6 4 8 5 9 3 10 2 11 1 12 6 13
REMARK SMILES IDX 7 15 8 16 14 17 9 18 12 19 10 20 11 21 13 22 21 23 22 24
REMARK SMILES IDX 23 25 24 27 25 28 26 29 87 30 27 31 86 32 28 33 29 34 30 35
REMARK SMILES IDX 80 36 31 37 85 38 79 39 81 40 32 41 84 42 78 43 77 44 33 46
REMARK SMILES IDX 65 47 45 48 64 49 46 50 49 51 63 52 82 53 47 54 48 55 62 57
REMARK SMILES IDX 83 58 50 59 34 60 35 61 43 62 36 63 38 64 44 65 37 66 39 67
REMARK SMILES IDX 40 68 41 69 42 70 66 71 67 72 75 73 68 74 70 75 76 76 69 77
REMARK SMILES IDX 71 78 72 79 73 80 74 81 51 82 52 83 60 84 53 85 55 86 61 87
REMARK SMILES IDX 54 88 56 89 57 90 58 91 59 92
REMARK H PARENT 17 7 6 14 22 26 81 45 49 56
REMARK Flexibility Score: inf
ROOT
ATOM      1  C   UNL A   1      35.370  22.329  25.517  1.00  0.00     0.023 C 
ENDROOT
BRANCH   1   2
ATOM      2  C   UNL A   1      34.609  21.685  26.674  1.00  0.00     0.023 C 
BRANCH   2   3
ATOM      3  C   UNL A   1      33.973  22.657  27.667  1.00  0.00     0.116 C 
BRANCH   3   4
ATOM      4  N   UNL A   1      32.525  22.601  27.722  1.00  0.00    -0.354 N 
ATOM      5  C   UNL A   1      31.542  23.268  27.053  1.00  0.00     0.245 C 
ATOM      6  O   UNL A   1      30.398  23.055  27.475  1.00  0.00    -0.272 OA
ATOM      7  H   UNL A   1      32.182  21.949  28.375  1.00  0.00     0.163 HD
BRANCH   5   8
ATOM      8  C   UNL A   1      31.811  24.245  25.871  1.00  0.00     0.114 C 
ATOM      9  C   UNL A   1      32.077  23.437  24.581  1.00  0.00     0.045 C 
BRANCH   8  10
ATOM     10  C   UNL A   1      30.589  25.192  25.609  1.00  0.00     0.038 C 
BRANCH  10  11
ATOM     11  C   UNL A   1      30.231  25.559  24.154  1.00  0.00    -0.000 C 
ATOM     12  C   UNL A   1      29.752  26.986  23.948  1.00  0.00     0.004 C 
ENDBRANCH  10  11
ENDBRANCH   8  10
BRANCH   8  13
ATOM     13  N   UNL A   1      32.986  25.136  26.089  1.00  0.00    -0.371 N 
ATOM     14  H   UNL A   1      33.739  24.728  26.577  1.00  0.00     0.161 HD
BRANCH  13  15
ATOM     15  C   UNL A   1      33.174  26.458  25.704  1.00  0.00     0.035 A 
ATOM     16  C   UNL A   1      33.718  26.870  24.484  1.00  0.00     0.029 A 
ATOM     17  C   UNL A   1      32.705  27.475  26.554  1.00  0.00     0.029 A 
ATOM     18  C   UNL A   1      33.685  28.210  24.058  1.00  0.00    -0.049 A 
ATOM     19  C   UNL A   1      32.750  28.834  26.195  1.00  0.00    -0.049 A 
ATOM     20  C   UNL A   1      34.065  28.577  22.651  1.00  0.00     0.044 C 
ATOM     21  C   UNL A   1      33.199  29.188  24.923  1.00  0.00     0.007 A 
ATOM     22  C   UNL A   1      32.277  29.904  27.133  1.00  0.00     0.044 C 
ENDBRANCH  13  15
ENDBRANCH   8  13
ENDBRANCH   5   8
ENDBRANCH   3   4
ENDBRANCH   2   3
ENDBRANCH   1   2
BRANCH   1  23
ATOM     23  C   UNL A   1      36.613  23.102  25.917  1.00  0.00     0.116 C 
BRANCH  23  24
ATOM     24  N   UNL A   1      37.768  22.238  26.079  1.00  0.00    -0.352 N 
ATOM     25  C   UNL A   1      39.067  22.566  26.380  1.00  0.00     0.251 C 
ATOM     26  H   UNL A   1      37.596  21.277  25.953  1.00  0.00     0.163 HD
ATOM     27  O   UNL A   1      39.945  21.714  26.266  1.00  0.00    -0.269 OA
BRANCH  25  28
ATOM     28  C   UNL A   1      39.415  23.934  26.834  1.00  0.00     0.039 A 
ATOM     29  C   UNL A   1      39.913  24.850  25.902  1.00  0.00     0.014 A 
ATOM     30  C   UNL A   1      39.299  24.304  28.176  1.00  0.00     0.014 A 
ATOM     31  C   UNL A   1      40.275  26.135  26.314  1.00  0.00     0.010 A 
ATOM     32  C   UNL A   1      39.560  25.614  28.564  1.00  0.00     0.010 A 
ATOM     33  C   UNL A   1      40.094  26.530  27.648  1.00  0.00    -0.014 A 
BRANCH  33  34
ATOM     34  C   UNL A   1      40.535  27.865  28.132  1.00  0.00     0.031 A 
ATOM     35  C   UNL A   1      42.006  28.200  28.152  1.00  0.00     0.074 A 
ATOM     36  C   UNL A   1      39.634  28.741  28.616  1.00  0.00     0.049 A 
ATOM     37  N   UNL A   1      42.604  29.273  28.597  1.00  0.00    -0.248 NA
ATOM     38  C   UNL A   1      42.932  27.175  27.636  1.00  0.00     0.031 C 
ATOM     39  C   UNL A   1      38.194  28.505  28.726  1.00  0.00     0.029 A 
ATOM     40  N   UNL A   1      39.804  30.004  29.128  1.00  0.00    -0.354 N 
ATOM     41  C   UNL A   1      43.967  29.032  28.465  1.00  0.00     0.074 A 
ATOM     42  C   UNL A   1      44.111  27.694  27.938  1.00  0.00     0.031 C 
ATOM     43  C   UNL A   1      37.610  29.590  29.262  1.00  0.00     0.029 A 
ATOM     44  C   UNL A   1      38.633  30.588  29.554  1.00  0.00     0.049 A 
ATOM     45  H   UNL A   1      40.680  30.449  29.185  1.00  0.00     0.167 HD
ATOM     46  C   UNL A   1      45.007  29.861  28.717  1.00  0.00     0.034 A 
ATOM     47  C   UNL A   1      38.415  31.795  30.112  1.00  0.00     0.034 A 
ATOM     48  C   UNL A   1      44.856  31.218  29.165  1.00  0.00     0.049 A 
ATOM     49  C   UNL A   1      39.579  32.730  30.304  1.00  0.00     0.074 A 
ATOM     50  C   UNL A   1      45.835  32.174  29.364  1.00  0.00     0.029 A 
ATOM     51  N   UNL A   1      43.643  31.814  29.474  1.00  0.00    -0.354 N 
ATOM     52  N   UNL A   1      40.846  32.537  30.030  1.00  0.00    -0.248 NA
ATOM     53  C   UNL A   1      39.277  34.066  30.839  1.00  0.00     0.031 C 
ATOM     54  C   UNL A   1      45.213  33.349  29.799  1.00  0.00     0.029 A 
ATOM     55  C   UNL A   1      43.845  33.128  29.856  1.00  0.00     0.049 A 
ATOM     56  H   UNL A   1      42.767  31.368  29.429  1.00  0.00     0.167 HD
ATOM     57  C   UNL A   1      41.487  33.736  30.321  1.00  0.00     0.074 A 
ATOM     58  C   UNL A   1      40.463  34.656  30.772  1.00  0.00     0.031 C 
ATOM     59  C   UNL A   1      42.804  34.046  30.238  1.00  0.00     0.034 A 
BRANCH  46  60
ATOM     60  C   UNL A   1      46.397  29.345  28.443  1.00  0.00     0.023 A 
ATOM     61  C   UNL A   1      46.961  29.513  27.162  1.00  0.00     0.012 A 
ATOM     62  C   UNL A   1      47.160  28.733  29.457  1.00  0.00     0.148 A 
ATOM     63  C   UNL A   1      48.244  29.047  26.880  1.00  0.00     0.002 A 
ATOM     64  C   UNL A   1      48.457  28.312  29.181  1.00  0.00     0.091 A 
ATOM     65  F   UNL A   1      46.602  28.559  30.663  1.00  0.00    -0.205 F 
ATOM     66  C   UNL A   1      48.995  28.456  27.892  1.00  0.00     0.022 A 
BRANCH  64  67
ATOM     67  S   UNL A   1      49.535  27.611  30.436  1.00  0.00     0.127 S 
ATOM     68  O   UNL A   1      50.762  27.378  29.676  1.00  0.00    -0.237 OA
ATOM     69  O   UNL A   1      49.621  28.700  31.412  1.00  0.00    -0.237 OA
ATOM     70  O   UNL A   1      48.861  26.415  30.922  1.00  0.00    -0.744 OA
ENDBRANCH  64  67
ENDBRANCH  46  60
BRANCH  47  71
ATOM     71  C   UNL A   1      37.025  32.223  30.441  1.00  0.00     0.023 A 
ATOM     72  C   UNL A   1      36.533  32.016  31.744  1.00  0.00     0.012 A 
ATOM     73  C   UNL A   1      36.202  32.855  29.490  1.00  0.00     0.148 A 
ATOM     74  C   UNL A   1      35.236  32.400  32.087  1.00  0.00     0.002 A 
ATOM     75  C   UNL A   1      34.928  33.283  29.851  1.00  0.00     0.091 A 
ATOM     76  F   UNL A   1      36.682  33.032  28.251  1.00  0.00    -0.205 F 
ATOM     77  C   UNL A   1      34.437  33.041  31.144  1.00  0.00     0.022 A 
BRANCH  75  78
ATOM     78  S   UNL A   1      33.882  34.233  28.742  1.00  0.00     0.127 S 
ATOM     79  O   UNL A   1      33.496  33.226  27.759  1.00  0.00    -0.237 OA
ATOM     80  O   UNL A   1      32.807  34.667  29.636  1.00  0.00    -0.237 OA
ATOM     81  O   UNL A   1      34.722  35.317  28.248  1.00  0.00    -0.744 OA
ENDBRANCH  75  78
ENDBRANCH  47  71
BRANCH  59  82
ATOM     82  C   UNL A   1      43.217  35.448  30.600  1.00  0.00     0.023 A 
ATOM     83  C   UNL A   1      43.620  35.741  31.917  1.00  0.00     0.012 A 
ATOM     84  C   UNL A   1      43.273  36.455  29.617  1.00  0.00     0.148 A 
ATOM     85  C   UNL A   1      44.041  37.025  32.259  1.00  0.00     0.002 A 
ATOM     86  C   UNL A   1      43.741  37.720  29.954  1.00  0.00     0.091 A 
ATOM     87  F   UNL A   1      42.866  36.162  28.374  1.00  0.00    -0.205 F 
ATOM     88  C   UNL A   1      44.113  38.011  31.276  1.00  0.00     0.022 A 
BRANCH  86  89
ATOM     89  S   UNL A   1      43.957  39.015  28.728  1.00  0.00     0.127 S 
ATOM     90  O   UNL A   1      44.270  38.242  27.528  1.00  0.00    -0.237 OA
ATOM     91  O   UNL A   1      42.640  39.656  28.714  1.00  0.00    -0.237 OA
ATOM     92  O   UNL A   1      45.030  39.863  29.231  1.00  0.00    -0.744 OA
ENDBRANCH  86  89
ENDBRANCH  59  82
ENDBRANCH  33  34
ENDBRANCH  25  28
ENDBRANCH  23  24
ENDBRANCH   1  23
TORSDOF 18
ENDMDL
MODEL 2
REMARK VINA RESULT:     -10.8      4.275      9.525
REMARK SMILES CCC[C@@](C)(Nc1cc(C)cc(C)c1)C(=O)NCCCCNC(=O)c1ccc(-c2c3nc(c(-c4cccc(S(=O)(=O)[O-])c4F)c4ccc([nH]4)c(-c4cccc(S(=O)(=O)[O-])c4F)c4nc(c(-c5cccc(S(=O)(=O)[O-])c5F)c5ccc2[nH]5)C=C4)C=C3)cc1
REMARK SMILES IDX 20 1 19 2 18 3 17 4 15 5 16 6 4 8 5 9 3 10 2 11 1 12 6 13
REMARK SMILES IDX 7 15 8 16 14 17 9 18 12 19 10 20 11 21 13 22 21 23 22 24
REMARK SMILES IDX 23 25 24 27 25 28 26 29 87 30 27 31 86 32 28 33 29 34 30 35
REMARK SMILES IDX 80 36 31 37 85 38 79 39 81 40 32 41 84 42 78 43 77 44 33 46
REMARK SMILES IDX 65 47 45 48 64 49 46 50 49 51 63 52 82 53 47 54 48 55 62 57
REMARK SMILES IDX 83 58 50 59 34 60 35 61 43 62 36 63 38 64 44 65 37 66 39 67
REMARK SMILES IDX 40 68 41 69 42 70 66 71 67 72 75 73 68 74 70 75 76 76 69 77
REMARK SMILES IDX 71 78 72 79 73 80 74 81 51 82 52 83 60 84 53 85 55 86 61 87
REMARK SMILES IDX 54 88 56 89 57 90 58 91 59 92
REMARK H PARENT 17 7 6 14 22 26 81 45 49 56
REMARK Flexibility Score: inf
ROOT
ATOM      1  C   UNL A   1      33.054  27.920  26.960  1.00  0.00     0.023 C 
ENDROOT
BRANCH   1   2
ATOM      2  C   UNL A   1      31.582  27.810  26.572  1.00  0.00     0.023 C 
BRANCH   2   3
ATOM      3  C   UNL A   1      31.202  26.563  25.774  1.00  0.00     0.116 C 
BRANCH   3   4
ATOM      4  N   UNL A   1      30.627  25.492  26.566  1.00  0.00    -0.354 N 
ATOM      5  C   UNL A   1      30.912  24.164  26.681  1.00  0.00     0.245 C 
ATOM      6  O   UNL A   1      30.101  23.522  27.361  1.00  0.00    -0.272 OA
ATOM      7  H   UNL A   1      29.880  25.784  27.136  1.00  0.00     0.163 HD
BRANCH   5   8
ATOM      8  C   UNL A   1      32.133  23.480  25.999  1.00  0.00     0.114 C 
ATOM      9  C   UNL A   1      31.899  23.401  24.474  1.00  0.00     0.045 C 
BRANCH   8  10
ATOM     10  C   UNL A   1      33.460  24.277  26.248  1.00  0.00     0.038 C 
BRANCH  10  11
ATOM     11  C   UNL A   1      34.276  24.761  25.031  1.00  0.00    -0.000 C 
ATOM     12  C   UNL A   1      35.741  24.358  25.036  1.00  0.00     0.004 C 
ENDBRANCH  10  11
ENDBRANCH   8  10
BRANCH   8  13
ATOM     13  N   UNL A   1      32.386  22.092  26.482  1.00  0.00    -0.371 N 
ATOM     14  H   UNL A   1      31.989  21.871  27.357  1.00  0.00     0.161 HD
BRANCH  13  15
ATOM     15  C   UNL A   1      33.102  21.066  25.878  1.00  0.00     0.035 A 
ATOM     16  C   UNL A   1      32.535  19.952  25.252  1.00  0.00     0.029 A 
ATOM     17  C   UNL A   1      34.501  21.181  25.801  1.00  0.00     0.029 A 
ATOM     18  C   UNL A   1      33.293  19.059  24.472  1.00  0.00    -0.049 A 
ATOM     19  C   UNL A   1      35.295  20.248  25.110  1.00  0.00    -0.049 A 
ATOM     20  C   UNL A   1      32.618  18.014  23.629  1.00  0.00     0.044 C 
ATOM     21  C   UNL A   1      34.675  19.214  24.408  1.00  0.00     0.007 A 
ATOM     22  C   UNL A   1      36.789  20.372  25.072  1.00  0.00     0.044 C 
ENDBRANCH  13  15
ENDBRANCH   8  13
ENDBRANCH   5   8
ENDBRANCH   3   4
ENDBRANCH   2   3
ENDBRANCH   1   2
BRANCH   1  23
ATOM     23  C   UNL A   1      33.862  28.908  26.138  1.00  0.00     0.116 C 
BRANCH  23  24
ATOM     24  N   UNL A   1      33.762  30.262  26.653  1.00  0.00    -0.352 N 
ATOM     25  C   UNL A   1      34.542  30.899  27.586  1.00  0.00     0.251 C 
ATOM     26  H   UNL A   1      33.027  30.800  26.279  1.00  0.00     0.163 HD
ATOM     27  O   UNL A   1      34.170  31.977  28.045  1.00  0.00    -0.269 OA
BRANCH  25  28
ATOM     28  C   UNL A   1      35.817  30.298  28.043  1.00  0.00     0.039 A 
ATOM     29  C   UNL A   1      35.845  29.619  29.265  1.00  0.00     0.014 A 
ATOM     30  C   UNL A   1      36.993  30.439  27.302  1.00  0.00     0.014 A 
ATOM     31  C   UNL A   1      37.044  29.070  29.729  1.00  0.00     0.010 A 
ATOM     32  C   UNL A   1      38.159  29.803  27.713  1.00  0.00     0.010 A 
ATOM     33  C   UNL A   1      38.210  29.151  28.952  1.00  0.00    -0.014 A 
BRANCH  33  34
ATOM     34  C   UNL A   1      39.514  28.641  29.450  1.00  0.00     0.031 A 
ATOM     35  C   UNL A   1      40.213  29.360  30.577  1.00  0.00     0.074 A 
ATOM     36  C   UNL A   1      40.101  27.587  28.851  1.00  0.00     0.049 A 
ATOM     37  N   UNL A   1      41.383  29.123  31.110  1.00  0.00    -0.248 NA
ATOM     38  C   UNL A   1      39.521  30.525  31.158  1.00  0.00     0.031 C 
ATOM     39  C   UNL A   1      39.566  26.857  27.701  1.00  0.00     0.029 A 
ATOM     40  N   UNL A   1      41.294  26.961  29.116  1.00  0.00    -0.354 N 
ATOM     41  C   UNL A   1      41.587  30.132  32.044  1.00  0.00     0.074 A 
ATOM     42  C   UNL A   1      40.440  31.010  31.976  1.00  0.00     0.031 C 
ATOM     43  C   UNL A   1      40.422  25.876  27.366  1.00  0.00     0.029 A 
ATOM     44  C   UNL A   1      41.574  25.921  28.260  1.00  0.00     0.049 A 
ATOM     45  H   UNL A   1      41.892  27.229  29.850  1.00  0.00     0.167 HD
ATOM     46  C   UNL A   1      42.613  30.295  32.912  1.00  0.00     0.034 A 
ATOM     47  C   UNL A   1      42.639  25.097  28.208  1.00  0.00     0.034 A 
ATOM     48  C   UNL A   1      43.711  29.376  33.031  1.00  0.00     0.049 A 
ATOM     49  C   UNL A   1      43.726  25.248  29.238  1.00  0.00     0.074 A 
ATOM     50  C   UNL A   1      44.756  29.394  33.937  1.00  0.00     0.029 A 
ATOM     51  N   UNL A   1      43.899  28.267  32.222  1.00  0.00    -0.354 N 
ATOM     52  N   UNL A   1      43.826  26.119  30.212  1.00  0.00    -0.248 NA
ATOM     53  C   UNL A   1      44.825  24.271  29.192  1.00  0.00     0.031 C 
ATOM     54  C   UNL A   1      45.581  28.296  33.671  1.00  0.00     0.029 A 
ATOM     55  C   UNL A   1      45.040  27.587  32.610  1.00  0.00     0.049 A 
ATOM     56  H   UNL A   1      43.309  28.002  31.480  1.00  0.00     0.167 HD
ATOM     57  C   UNL A   1      44.973  25.775  30.917  1.00  0.00     0.074 A 
ATOM     58  C   UNL A   1      45.523  24.602  30.270  1.00  0.00     0.031 C 
ATOM     59  C   UNL A   1      45.533  26.382  31.993  1.00  0.00     0.034 A 
BRANCH  46  60
ATOM     60  C   UNL A   1      42.556  31.474  33.851  1.00  0.00     0.023 A 
ATOM     61  C   UNL A   1      43.041  32.727  33.423  1.00  0.00     0.012 A 
ATOM     62  C   UNL A   1      41.988  31.357  35.134  1.00  0.00     0.148 A 
ATOM     63  C   UNL A   1      43.000  33.834  34.269  1.00  0.00     0.002 A 
ATOM     64  C   UNL A   1      41.908  32.476  35.955  1.00  0.00     0.091 A 
ATOM     65  F   UNL A   1      41.552  30.154  35.535  1.00  0.00    -0.205 F 
ATOM     66  C   UNL A   1      42.425  33.711  35.530  1.00  0.00     0.022 A 
BRANCH  64  67
ATOM     67  S   UNL A   1      41.113  32.441  37.567  1.00  0.00     0.127 S 
ATOM     68  O   UNL A   1      39.782  31.940  37.229  1.00  0.00    -0.237 OA
ATOM     69  O   UNL A   1      41.952  31.494  38.303  1.00  0.00    -0.237 OA
ATOM     70  O   UNL A   1      41.161  33.808  38.067  1.00  0.00    -0.744 OA
ENDBRANCH  64  67
ENDBRANCH  46  60
BRANCH  47  71
ATOM     71  C   UNL A   1      42.681  23.997  27.202  1.00  0.00     0.023 A 
ATOM     72  C   UNL A   1      43.433  24.173  26.024  1.00  0.00     0.012 A 
ATOM     73  C   UNL A   1      42.013  22.776  27.414  1.00  0.00     0.148 A 
ATOM     74  C   UNL A   1      43.492  23.167  25.059  1.00  0.00     0.002 A 
ATOM     75  C   UNL A   1      42.119  21.757  26.473  1.00  0.00     0.091 A 
ATOM     76  F   UNL A   1      41.292  22.632  28.535  1.00  0.00    -0.205 F 
ATOM     77  C   UNL A   1      42.844  21.957  25.287  1.00  0.00     0.022 A 
BRANCH  75  78
ATOM     78  S   UNL A   1      41.425  20.123  26.743  1.00  0.00     0.127 S 
ATOM     79  O   UNL A   1      40.004  20.420  26.893  1.00  0.00    -0.237 OA
ATOM     80  O   UNL A   1      41.784  19.431  25.504  1.00  0.00    -0.237 OA
ATOM     81  O   UNL A   1      42.097  19.607  27.930  1.00  0.00    -0.744 OA
ENDBRANCH  75  78
ENDBRANCH  47  71
BRANCH  59  82
ATOM     82  C   UNL A   1      46.780  25.770  32.571  1.00  0.00     0.023 A 
ATOM     83  C   UNL A   1      46.696  24.969  33.726  1.00  0.00     0.012 A 
ATOM     84  C   UNL A   1      48.023  25.930  31.927  1.00  0.00     0.148 A 
ATOM     85  C   UNL A   1      47.837  24.363  34.251  1.00  0.00     0.002 A 
ATOM     86  C   UNL A   1      49.146  25.283  32.428  1.00  0.00     0.091 A 
ATOM     87  F   UNL A   1      48.086  26.712  30.840  1.00  0.00    -0.205 F 
ATOM     88  C   UNL A   1      49.058  24.510  33.597  1.00  0.00     0.022 A 
BRANCH  86  89
ATOM     89  S   UNL A   1      50.734  25.341  31.590  1.00  0.00     0.127 S 
ATOM     90  O   UNL A   1      51.542  26.114  32.531  1.00  0.00    -0.237 OA
ATOM     91  O   UNL A   1      51.093  23.924  31.499  1.00  0.00    -0.237 OA
ATOM     92  O   UNL A   1      50.481  25.978  30.304  1.00  0.00    -0.744 OA
ENDBRANCH  86  89
ENDBRANCH  59  82
ENDBRANCH  33  34
ENDBRANCH  25  28
ENDBRANCH  23  24
ENDBRANCH   1  23
TORSDOF 18
ENDMDL
MODEL 3
REMARK VINA RESULT:     -10.8      5.323      8.640
REMARK SMILES CCC[C@@](C)(Nc1cc(C)cc(C)c1)C(=O)NCCCCNC(=O)c1ccc(-c2c3nc(c(-c4cccc(S(=O)(=O)[O-])c4F)c4ccc([nH]4)c(-c4cccc(S(=O)(=O)[O-])c4F)c4nc(c(-c5cccc(S(=O)(=O)[O-])c5F)c5ccc2[nH]5)C=C4)C=C3)cc1
REMARK SMILES IDX 20 1 19 2 18 3 17 4 15 5 16 6 4 8 5 9 3 10 2 11 1 12 6 13
REMARK SMILES IDX 7 15 8 16 14 17 9 18 12 19 10 20 11 21 13 22 21 23 22 24
REMARK SMILES IDX 23 25 24 27 25 28 26 29 87 30 27 31 86 32 28 33 29 34 30 35
REMARK SMILES IDX 80 36 31 37 85 38 79 39 81 40 32 41 84 42 78 43 77 44 33 46
REMARK SMILES IDX 65 47 45 48 64 49 46 50 49 51 63 52 82 53 47 54 48 55 62 57
REMARK SMILES IDX 83 58 50 59 34 60 35 61 43 62 36 63 38 64 44 65 37 66 39 67
REMARK SMILES IDX 40 68 41 69 42 70 66 71 67 72 75 73 68 74 70 75 76 76 69 77
REMARK SMILES IDX 71 78 72 79 73 80 74 81 51 82 52 83 60 84 53 85 55 86 61 87
REMARK SMILES IDX 54 88 56 89 57 90 58 91 59 92
REMARK H PARENT 17 7 6 14 22 26 81 45 49 56
REMARK Flexibility Score: inf
ROOT
ATOM      1  C   UNL A   1      31.046  31.803  26.127  1.00  0.00     0.023 C 
ENDROOT
BRANCH   1   2
ATOM      2  C   UNL A   1      31.122  30.478  25.374  1.00  0.00     0.023 C 
BRANCH   2   3
ATOM      3  C   UNL A   1      32.420  29.692  25.552  1.00  0.00     0.116 C 
BRANCH   3   4
ATOM      4  N   UNL A   1      33.257  29.633  24.368  1.00  0.00    -0.354 N 
ATOM      5  C   UNL A   1      33.337  28.756  23.328  1.00  0.00     0.245 C 
ATOM      6  O   UNL A   1      34.286  28.955  22.560  1.00  0.00    -0.272 OA
ATOM      7  H   UNL A   1      33.897  30.378  24.303  1.00  0.00     0.163 HD
BRANCH   5   8
ATOM      8  C   UNL A   1      32.346  27.574  23.117  1.00  0.00     0.114 C 
ATOM      9  C   UNL A   1      33.093  26.375  22.491  1.00  0.00     0.045 C 
BRANCH   8  10
ATOM     10  C   UNL A   1      31.709  27.099  24.468  1.00  0.00     0.038 C 
BRANCH  10  11
ATOM     11  C   UNL A   1      32.362  25.924  25.226  1.00  0.00    -0.000 C 
ATOM     12  C   UNL A   1      33.730  26.219  25.817  1.00  0.00     0.004 C 
ENDBRANCH  10  11
ENDBRANCH   8  10
BRANCH   8  13
ATOM     13  N   UNL A   1      31.205  27.906  22.215  1.00  0.00    -0.371 N 
ATOM     14  H   UNL A   1      31.243  27.498  21.320  1.00  0.00     0.161 HD
BRANCH  13  15
ATOM     15  C   UNL A   1      30.096  28.707  22.456  1.00  0.00     0.035 A 
ATOM     16  C   UNL A   1      30.003  30.066  22.143  1.00  0.00     0.029 A 
ATOM     17  C   UNL A   1      28.935  28.105  22.972  1.00  0.00     0.029 A 
ATOM     18  C   UNL A   1      28.789  30.774  22.208  1.00  0.00    -0.049 A 
ATOM     19  C   UNL A   1      27.732  28.813  23.141  1.00  0.00    -0.049 A 
ATOM     20  C   UNL A   1      28.680  32.163  21.645  1.00  0.00     0.044 C 
ATOM     21  C   UNL A   1      27.656  30.138  22.711  1.00  0.00     0.007 A 
ATOM     22  C   UNL A   1      26.517  28.159  23.726  1.00  0.00     0.044 C 
ENDBRANCH  13  15
ENDBRANCH   8  13
ENDBRANCH   5   8
ENDBRANCH   3   4
ENDBRANCH   2   3
ENDBRANCH   1   2
BRANCH   1  23
ATOM     23  C   UNL A   1      32.305  32.184  26.885  1.00  0.00     0.116 C 
BRANCH  23  24
ATOM     24  N   UNL A   1      32.340  33.597  27.216  1.00  0.00    -0.352 N 
ATOM     25  C   UNL A   1      33.130  34.260  28.122  1.00  0.00     0.251 C 
ATOM     26  H   UNL A   1      31.705  34.161  26.719  1.00  0.00     0.163 HD
ATOM     27  O   UNL A   1      32.867  35.426  28.411  1.00  0.00    -0.269 OA
BRANCH  25  28
ATOM     28  C   UNL A   1      34.288  33.583  28.754  1.00  0.00     0.039 A 
ATOM     29  C   UNL A   1      34.074  32.396  29.460  1.00  0.00     0.014 A 
ATOM     30  C   UNL A   1      35.571  34.133  28.696  1.00  0.00     0.014 A 
ATOM     31  C   UNL A   1      35.147  31.756  30.089  1.00  0.00     0.010 A 
ATOM     32  C   UNL A   1      36.653  33.441  29.231  1.00  0.00     0.010 A 
ATOM     33  C   UNL A   1      36.446  32.270  29.972  1.00  0.00    -0.014 A 
BRANCH  33  34
ATOM     34  C   UNL A   1      37.595  31.654  30.687  1.00  0.00     0.031 A 
ATOM     35  C   UNL A   1      38.436  30.616  29.987  1.00  0.00     0.074 A 
ATOM     36  C   UNL A   1      37.839  31.968  31.973  1.00  0.00     0.049 A 
ATOM     37  N   UNL A   1      39.433  29.908  30.450  1.00  0.00    -0.248 NA
ATOM     38  C   UNL A   1      38.084  30.302  28.589  1.00  0.00     0.031 C 
ATOM     39  C   UNL A   1      37.051  32.896  32.786  1.00  0.00     0.029 A 
ATOM     40  N   UNL A   1      38.813  31.521  32.832  1.00  0.00    -0.354 N 
ATOM     41  C   UNL A   1      39.790  29.038  29.426  1.00  0.00     0.074 A 
ATOM     42  C   UNL A   1      38.876  29.274  28.331  1.00  0.00     0.031 C 
ATOM     43  C   UNL A   1      37.577  32.956  34.021  1.00  0.00     0.029 A 
ATOM     44  C   UNL A   1      38.724  32.057  34.096  1.00  0.00     0.049 A 
ATOM     45  H   UNL A   1      39.509  30.877  32.568  1.00  0.00     0.167 HD
ATOM     46  C   UNL A   1      40.811  28.151  29.380  1.00  0.00     0.034 A 
ATOM     47  C   UNL A   1      39.487  31.848  35.187  1.00  0.00     0.034 A 
ATOM     48  C   UNL A   1      41.766  27.977  30.440  1.00  0.00     0.049 A 
ATOM     49  C   UNL A   1      40.666  30.920  35.083  1.00  0.00     0.074 A 
ATOM     50  C   UNL A   1      42.892  27.174  30.462  1.00  0.00     0.029 A 
ATOM     51  N   UNL A   1      41.710  28.626  31.662  1.00  0.00    -0.354 N 
ATOM     52  N   UNL A   1      41.077  30.217  34.055  1.00  0.00    -0.248 NA
ATOM     53  C   UNL A   1      41.517  30.789  36.276  1.00  0.00     0.031 C 
ATOM     54  C   UNL A   1      43.515  27.335  31.704  1.00  0.00     0.029 A 
ATOM     55  C   UNL A   1      42.785  28.250  32.447  1.00  0.00     0.049 A 
ATOM     56  H   UNL A   1      41.009  29.262  31.934  1.00  0.00     0.167 HD
ATOM     57  C   UNL A   1      42.251  29.595  34.461  1.00  0.00     0.074 A 
ATOM     58  C   UNL A   1      42.498  30.020  35.824  1.00  0.00     0.031 C 
ATOM     59  C   UNL A   1      43.047  28.736  33.777  1.00  0.00     0.034 A 
BRANCH  46  60
ATOM     60  C   UNL A   1      40.990  27.354  28.112  1.00  0.00     0.023 A 
ATOM     61  C   UNL A   1      41.545  27.974  26.974  1.00  0.00     0.012 A 
ATOM     62  C   UNL A   1      40.651  25.988  28.056  1.00  0.00     0.148 A 
ATOM     63  C   UNL A   1      41.724  27.262  25.789  1.00  0.00     0.002 A 
ATOM     64  C   UNL A   1      40.875  25.272  26.885  1.00  0.00     0.091 A 
ATOM     65  F   UNL A   1      40.103  25.418  29.139  1.00  0.00    -0.205 F 
ATOM     66  C   UNL A   1      41.398  25.910  25.748  1.00  0.00     0.022 A 
BRANCH  64  67
ATOM     67  S   UNL A   1      40.564  23.507  26.754  1.00  0.00     0.127 S 
ATOM     68  O   UNL A   1      40.936  23.041  28.089  1.00  0.00    -0.237 OA
ATOM     69  O   UNL A   1      39.128  23.467  26.473  1.00  0.00    -0.237 OA
ATOM     70  O   UNL A   1      41.407  23.031  25.666  1.00  0.00    -0.744 OA
ENDBRANCH  64  67
ENDBRANCH  46  60
BRANCH  47  71
ATOM     71  C   UNL A   1      39.212  32.603  36.443  1.00  0.00     0.023 A 
ATOM     72  C   UNL A   1      39.821  33.858  36.637  1.00  0.00     0.012 A 
ATOM     73  C   UNL A   1      38.335  32.107  37.426  1.00  0.00     0.148 A 
ATOM     74  C   UNL A   1      39.589  34.591  37.801  1.00  0.00     0.002 A 
ATOM     75  C   UNL A   1      38.067  32.866  38.561  1.00  0.00     0.091 A 
ATOM     76  F   UNL A   1      37.774  30.905  37.230  1.00  0.00    -0.205 F 
ATOM     77  C   UNL A   1      38.706  34.100  38.758  1.00  0.00     0.022 A 
BRANCH  75  78
ATOM     78  S   UNL A   1      36.845  32.372  39.781  1.00  0.00     0.127 S 
ATOM     79  O   UNL A   1      37.364  31.081  40.221  1.00  0.00    -0.237 OA
ATOM     80  O   UNL A   1      36.949  33.448  40.769  1.00  0.00    -0.237 OA
ATOM     81  O   UNL A   1      35.574  32.338  39.068  1.00  0.00    -0.744 OA
ENDBRANCH  75  78
ENDBRANCH  47  71
BRANCH  59  82
ATOM     82  C   UNL A   1      44.284  28.228  34.468  1.00  0.00     0.023 A 
ATOM     83  C   UNL A   1      45.481  28.967  34.393  1.00  0.00     0.012 A 
ATOM     84  C   UNL A   1      44.239  27.058  35.251  1.00  0.00     0.148 A 
ATOM     85  C   UNL A   1      46.625  28.529  35.060  1.00  0.00     0.002 A 
ATOM     86  C   UNL A   1      45.370  26.655  35.953  1.00  0.00     0.091 A 
ATOM     87  F   UNL A   1      43.097  26.358  35.294  1.00  0.00    -0.205 F 
ATOM     88  C   UNL A   1      46.567  27.382  35.848  1.00  0.00     0.022 A 
BRANCH  86  89
ATOM     89  S   UNL A   1      45.350  25.246  37.066  1.00  0.00     0.127 S 
ATOM     90  O   UNL A   1      45.062  24.144  36.149  1.00  0.00    -0.237 OA
ATOM     91  O   UNL A   1      46.712  25.252  37.604  1.00  0.00    -0.237 OA
ATOM     92  O   UNL A   1      44.316  25.533  38.051  1.00  0.00    -0.744 OA
ENDBRANCH  86  89
ENDBRANCH  59  82
ENDBRANCH  33  34
ENDBRANCH  25  28
ENDBRANCH  23  24
ENDBRANCH   1  23
TORSDOF 18
ENDMDL
