MODEL 1
REMARK VINA RESULT:     -12.5      0.000      0.000
REMARK SMILES C#Cc1cccc(NS(=O)(=O)c2ccc(F)c(C(=O)NCCCCNC(=O)c3ccc(-c4c5nc(c(-c6cccc(S(=O)(=O)[O-])c6F)c6ccc([nH]6)c(-c6cccc(S(=O)(=O)[O-])c6F)c6nc(c(-c7cccc(S(=O)(=O)[O-])c7F)c7ccc4[nH]7)C=C6)C=C5)cc3)c2)c1
REMARK SMILES IDX 22 1 21 2 20 3 18 4 19 5 17 7 12 8 13 9 91 10 14 11 15 12
REMARK SMILES IDX 16 13 9 14 10 15 11 16 8 17 7 19 3 20 4 21 92 22 5 23 6 24
REMARK SMILES IDX 2 25 1 26 23 27 24 28 25 29 26 30 27 32 28 33 29 34 90 35
REMARK SMILES IDX 30 36 89 37 31 38 32 39 33 40 83 41 34 42 88 43 82 44 84 45
REMARK SMILES IDX 35 46 87 47 81 48 80 49 36 51 68 52 48 53 67 54 49 55 52 56
REMARK SMILES IDX 66 57 85 58 50 59 51 60 65 62 86 63 53 64 37 65 38 66 46 67
REMARK SMILES IDX 39 68 41 69 47 70 40 71 42 72 43 73 44 74 45 75 69 76 70 77
REMARK SMILES IDX 78 78 71 79 73 80 79 81 72 82 74 83 75 84 76 85 77 86 54 87
REMARK SMILES IDX 55 88 63 89 56 90 58 91 64 92 57 93 59 94 60 95 61 96 62 97
REMARK H PARENT 20 6 8 18 25 31 84 50 52 61
REMARK Flexibility Score: inf
ROOT
ATOM      1  C   UNL A   1      31.800  27.703  24.781  1.00  0.00     0.023 C 
ENDROOT
BRANCH   1   2
ATOM      2  C   UNL A   1      30.425  27.131  24.421  1.00  0.00     0.116 C 
BRANCH   2   3
ATOM      3  N   UNL A   1      29.962  26.277  25.493  1.00  0.00    -0.352 N 
ATOM      4  C   UNL A   1      30.168  24.959  25.797  1.00  0.00     0.254 C 
ATOM      5  O   UNL A   1      29.516  24.497  26.734  1.00  0.00    -0.269 OA
ATOM      6  H   UNL A   1      29.377  26.739  26.138  1.00  0.00     0.163 HD
BRANCH   4   7
ATOM      7  C   UNL A   1      31.207  24.097  25.167  1.00  0.00     0.076 A 
ATOM      8  C   UNL A   1      33.304  22.894  25.496  1.00  0.00     0.088 A 
ATOM      9  C   UNL A   1      33.546  22.910  24.127  1.00  0.00     0.025 A 
ATOM     10  C   UNL A   1      32.192  23.573  26.019  1.00  0.00     0.039 A 
ATOM     11  C   UNL A   1      32.500  23.278  23.286  1.00  0.00     0.041 A 
ATOM     12  C   UNL A   1      31.307  23.765  23.821  1.00  0.00     0.136 A 
ATOM     13  F   UNL A   1      30.244  23.757  23.008  1.00  0.00    -0.206 F 
BRANCH   8  14
ATOM     14  S   UNL A   1      34.137  21.749  26.578  1.00  0.00     0.261 S 
ATOM     15  O   UNL A   1      34.141  22.340  27.899  1.00  0.00    -0.201 OA
ATOM     16  O   UNL A   1      35.370  21.379  25.915  1.00  0.00    -0.201 OA
BRANCH  14  17
ATOM     17  N   UNL A   1      33.257  20.322  26.685  1.00  0.00    -0.280 N 
ATOM     18  H   UNL A   1      32.963  20.070  27.590  1.00  0.00     0.180 HD
BRANCH  17  19
ATOM     19  C   UNL A   1      32.878  19.426  25.641  1.00  0.00     0.050 A 
ATOM     20  C   UNL A   1      32.781  17.099  24.951  1.00  0.00     0.026 A 
ATOM     21  C   UNL A   1      32.737  17.497  23.618  1.00  0.00     0.017 A 
ATOM     22  C   UNL A   1      32.882  18.062  25.959  1.00  0.00     0.044 A 
ATOM     23  C   UNL A   1      32.600  18.848  23.311  1.00  0.00     0.003 A 
ATOM     24  C   UNL A   1      32.578  19.804  24.334  1.00  0.00     0.027 A 
BRANCH  20  25
ATOM     25  C   UNL A   1      32.661  15.711  25.264  1.00  0.00    -0.070 C 
ATOM     26  C   UNL A   1      32.680  14.525  25.473  1.00  0.00     0.010 C 
ENDBRANCH  20  25
ENDBRANCH  17  19
ENDBRANCH  14  17
ENDBRANCH   8  14
ENDBRANCH   4   7
ENDBRANCH   2   3
ENDBRANCH   1   2
BRANCH   1  27
ATOM     27  C   UNL A   1      31.794  29.229  24.876  1.00  0.00     0.023 C 
BRANCH  27  28
ATOM     28  C   UNL A   1      32.838  29.795  25.830  1.00  0.00     0.116 C 
BRANCH  28  29
ATOM     29  N   UNL A   1      32.528  31.146  26.278  1.00  0.00    -0.352 N 
ATOM     30  C   UNL A   1      33.232  31.915  27.173  1.00  0.00     0.251 C 
ATOM     31  H   UNL A   1      31.719  31.556  25.895  1.00  0.00     0.163 HD
ATOM     32  O   UNL A   1      32.787  32.987  27.568  1.00  0.00    -0.269 OA
BRANCH  30  33
ATOM     33  C   UNL A   1      34.521  31.398  27.671  1.00  0.00     0.039 A 
ATOM     34  C   UNL A   1      35.577  32.287  27.863  1.00  0.00     0.014 A 
ATOM     35  C   UNL A   1      34.638  30.054  28.039  1.00  0.00     0.014 A 
ATOM     36  C   UNL A   1      36.741  31.835  28.483  1.00  0.00     0.010 A 
ATOM     37  C   UNL A   1      35.757  29.634  28.743  1.00  0.00     0.010 A 
ATOM     38  C   UNL A   1      36.826  30.516  28.963  1.00  0.00    -0.014 A 
BRANCH  38  39
ATOM     39  C   UNL A   1      38.022  30.045  29.705  1.00  0.00     0.031 A 
ATOM     40  C   UNL A   1      38.276  30.522  31.108  1.00  0.00     0.074 A 
ATOM     41  C   UNL A   1      38.911  29.238  29.095  1.00  0.00     0.049 A 
ATOM     42  N   UNL A   1      39.275  30.241  31.902  1.00  0.00    -0.248 NA
ATOM     43  C   UNL A   1      37.295  31.455  31.688  1.00  0.00     0.031 C 
ATOM     44  C   UNL A   1      38.811  28.764  27.713  1.00  0.00     0.029 A 
ATOM     45  N   UNL A   1      40.081  28.685  29.551  1.00  0.00    -0.354 N 
ATOM     46  C   UNL A   1      39.061  30.980  33.058  1.00  0.00     0.074 A 
ATOM     47  C   UNL A   1      37.861  31.759  32.846  1.00  0.00     0.031 C 
ATOM     48  C   UNL A   1      39.860  27.972  27.443  1.00  0.00     0.029 A 
ATOM     49  C   UNL A   1      40.732  27.918  28.612  1.00  0.00     0.049 A 
ATOM     50  H   UNL A   1      40.424  28.823  30.464  1.00  0.00     0.167 HD
ATOM     51  C   UNL A   1      39.779  30.987  34.203  1.00  0.00     0.034 A 
ATOM     52  C   UNL A   1      41.903  27.254  28.679  1.00  0.00     0.034 A 
ATOM     53  C   UNL A   1      40.956  30.191  34.416  1.00  0.00     0.049 A 
ATOM     54  C   UNL A   1      42.684  27.272  29.963  1.00  0.00     0.074 A 
ATOM     55  C   UNL A   1      41.709  30.071  35.569  1.00  0.00     0.029 A 
ATOM     56  N   UNL A   1      41.563  29.396  33.455  1.00  0.00    -0.354 N 
ATOM     57  N   UNL A   1      42.394  27.871  31.092  1.00  0.00    -0.248 NA
ATOM     58  C   UNL A   1      43.935  26.501  29.996  1.00  0.00     0.031 C 
ATOM     59  C   UNL A   1      42.803  29.247  35.290  1.00  0.00     0.029 A 
ATOM     60  C   UNL A   1      42.695  28.801  33.982  1.00  0.00     0.049 A 
ATOM     61  H   UNL A   1      41.236  29.273  32.535  1.00  0.00     0.167 HD
ATOM     62  C   UNL A   1      43.406  27.525  31.980  1.00  0.00     0.074 A 
ATOM     63  C   UNL A   1      44.311  26.651  31.260  1.00  0.00     0.031 C 
ATOM     64  C   UNL A   1      43.571  27.903  33.271  1.00  0.00     0.034 A 
BRANCH  51  65
ATOM     65  C   UNL A   1      39.296  31.858  35.335  1.00  0.00     0.023 A 
ATOM     66  C   UNL A   1      38.417  31.329  36.302  1.00  0.00     0.012 A 
ATOM     67  C   UNL A   1      39.776  33.173  35.485  1.00  0.00     0.148 A 
ATOM     68  C   UNL A   1      37.998  32.105  37.383  1.00  0.00     0.002 A 
ATOM     69  C   UNL A   1      39.400  33.921  36.594  1.00  0.00     0.091 A 
ATOM     70  F   UNL A   1      40.594  33.666  34.545  1.00  0.00    -0.205 F 
ATOM     71  C   UNL A   1      38.501  33.394  37.535  1.00  0.00     0.022 A 
BRANCH  69  72
ATOM     72  S   UNL A   1      40.063  35.555  36.933  1.00  0.00     0.127 S 
ATOM     73  O   UNL A   1      39.489  35.837  38.249  1.00  0.00    -0.237 OA
ATOM     74  O   UNL A   1      41.503  35.304  36.937  1.00  0.00    -0.237 OA
ATOM     75  O   UNL A   1      39.594  36.414  35.855  1.00  0.00    -0.744 OA
ENDBRANCH  69  72
ENDBRANCH  51  65
BRANCH  52  76
ATOM     76  C   UNL A   1      42.366  26.471  27.499  1.00  0.00     0.023 A 
ATOM     77  C   UNL A   1      43.207  27.078  26.547  1.00  0.00     0.012 A 
ATOM     78  C   UNL A   1      42.043  25.107  27.361  1.00  0.00     0.148 A 
ATOM     79  C   UNL A   1      43.709  26.344  25.472  1.00  0.00     0.002 A 
ATOM     80  C   UNL A   1      42.595  24.366  26.323  1.00  0.00     0.091 A 
ATOM     81  F   UNL A   1      41.237  24.552  28.277  1.00  0.00    -0.205 F 
ATOM     82  C   UNL A   1      43.415  24.987  25.368  1.00  0.00     0.022 A 
BRANCH  80  83
ATOM     83  S   UNL A   1      42.389  22.588  26.188  1.00  0.00     0.127 S 
ATOM     84  O   UNL A   1      43.024  22.119  27.417  1.00  0.00    -0.237 OA
ATOM     85  O   UNL A   1      40.932  22.461  26.157  1.00  0.00    -0.237 OA
ATOM     86  O   UNL A   1      43.057  22.204  24.952  1.00  0.00    -0.744 OA
ENDBRANCH  80  83
ENDBRANCH  52  76
BRANCH  64  87
ATOM     87  C   UNL A   1      44.755  27.359  34.028  1.00  0.00     0.023 A 
ATOM     88  C   UNL A   1      45.948  28.103  34.106  1.00  0.00     0.012 A 
ATOM     89  C   UNL A   1      44.635  26.165  34.770  1.00  0.00     0.148 A 
ATOM     90  C   UNL A   1      47.010  27.657  34.893  1.00  0.00     0.002 A 
ATOM     91  C   UNL A   1      45.673  25.759  35.597  1.00  0.00     0.091 A 
ATOM     92  F   UNL A   1      43.494  25.465  34.672  1.00  0.00    -0.205 F 
ATOM     93  C   UNL A   1      46.866  26.497  35.650  1.00  0.00     0.022 A 
BRANCH  91  94
ATOM     94  S   UNL A   1      45.540  24.341  36.692  1.00  0.00     0.127 S 
ATOM     95  O   UNL A   1      46.946  24.036  36.955  1.00  0.00    -0.237 OA
ATOM     96  O   UNL A   1      44.813  24.901  37.832  1.00  0.00    -0.237 OA
ATOM     97  O   UNL A   1      44.814  23.320  35.948  1.00  0.00    -0.744 OA
ENDBRANCH  91  94
ENDBRANCH  64  87
ENDBRANCH  38  39
ENDBRANCH  30  33
ENDBRANCH  28  29
ENDBRANCH  27  28
ENDBRANCH   1  27
TORSDOF 18
ENDMDL
MODEL 2
REMARK VINA RESULT:     -12.5      3.067      8.235
REMARK SMILES C#Cc1cccc(NS(=O)(=O)c2ccc(F)c(C(=O)NCCCCNC(=O)c3ccc(-c4c5nc(c(-c6cccc(S(=O)(=O)[O-])c6F)c6ccc([nH]6)c(-c6cccc(S(=O)(=O)[O-])c6F)c6nc(c(-c7cccc(S(=O)(=O)[O-])c7F)c7ccc4[nH]7)C=C6)C=C5)cc3)c2)c1
REMARK SMILES IDX 22 1 21 2 20 3 18 4 19 5 17 7 12 8 13 9 91 10 14 11 15 12
REMARK SMILES IDX 16 13 9 14 10 15 11 16 8 17 7 19 3 20 4 21 92 22 5 23 6 24
REMARK SMILES IDX 2 25 1 26 23 27 24 28 25 29 26 30 27 32 28 33 29 34 90 35
REMARK SMILES IDX 30 36 89 37 31 38 32 39 33 40 83 41 34 42 88 43 82 44 84 45
REMARK SMILES IDX 35 46 87 47 81 48 80 49 36 51 68 52 48 53 67 54 49 55 52 56
REMARK SMILES IDX 66 57 85 58 50 59 51 60 65 62 86 63 53 64 37 65 38 66 46 67
REMARK SMILES IDX 39 68 41 69 47 70 40 71 42 72 43 73 44 74 45 75 69 76 70 77
REMARK SMILES IDX 78 78 71 79 73 80 79 81 72 82 74 83 75 84 76 85 77 86 54 87
REMARK SMILES IDX 55 88 63 89 56 90 58 91 64 92 57 93 59 94 60 95 61 96 62 97
REMARK H PARENT 20 6 8 18 25 31 84 50 52 61
REMARK Flexibility Score: inf
ROOT
ATOM      1  C   UNL A   1      32.002  30.661  25.957  1.00  0.00     0.023 C 
ENDROOT
BRANCH   1   2
ATOM      2  C   UNL A   1      33.218  29.742  25.808  1.00  0.00     0.116 C 
BRANCH   2   3
ATOM      3  N   UNL A   1      33.429  29.443  24.408  1.00  0.00    -0.352 N 
ATOM      4  C   UNL A   1      32.997  28.436  23.590  1.00  0.00     0.254 C 
ATOM      5  O   UNL A   1      33.466  28.405  22.452  1.00  0.00    -0.269 OA
ATOM      6  H   UNL A   1      34.002  30.100  23.949  1.00  0.00     0.163 HD
BRANCH   4   7
ATOM      7  C   UNL A   1      31.915  27.471  23.933  1.00  0.00     0.076 A 
ATOM      8  C   UNL A   1      31.389  25.206  24.673  1.00  0.00     0.088 A 
ATOM      9  C   UNL A   1      30.108  25.314  24.143  1.00  0.00     0.025 A 
ATOM     10  C   UNL A   1      32.317  26.241  24.478  1.00  0.00     0.039 A 
ATOM     11  C   UNL A   1      29.668  26.577  23.758  1.00  0.00     0.041 A 
ATOM     12  C   UNL A   1      30.549  27.659  23.760  1.00  0.00     0.136 A 
ATOM     13  F   UNL A   1      29.995  28.876  23.732  1.00  0.00    -0.206 F 
BRANCH   8  14
ATOM     14  S   UNL A   1      31.792  23.976  25.898  1.00  0.00     0.261 S 
ATOM     15  O   UNL A   1      31.493  22.685  25.317  1.00  0.00    -0.201 OA
ATOM     16  O   UNL A   1      31.172  24.407  27.133  1.00  0.00    -0.201 OA
BRANCH  14  17
ATOM     17  N   UNL A   1      33.443  24.000  26.210  1.00  0.00    -0.280 N 
ATOM     18  H   UNL A   1      33.711  24.429  27.054  1.00  0.00     0.180 HD
BRANCH  17  19
ATOM     19  C   UNL A   1      34.509  23.481  25.415  1.00  0.00     0.050 A 
ATOM     20  C   UNL A   1      36.898  23.053  25.324  1.00  0.00     0.026 A 
ATOM     21  C   UNL A   1      36.841  23.036  23.933  1.00  0.00     0.017 A 
ATOM     22  C   UNL A   1      35.739  23.305  26.062  1.00  0.00     0.044 A 
ATOM     23  C   UNL A   1      35.603  23.079  23.298  1.00  0.00     0.003 A 
ATOM     24  C   UNL A   1      34.430  23.209  24.052  1.00  0.00     0.027 A 
BRANCH  20  25
ATOM     25  C   UNL A   1      38.135  22.752  25.970  1.00  0.00    -0.070 C 
ATOM     26  C   UNL A   1      39.238  22.536  26.403  1.00  0.00     0.010 C 
ENDBRANCH  20  25
ENDBRANCH  17  19
ENDBRANCH  14  17
ENDBRANCH   8  14
ENDBRANCH   4   7
ENDBRANCH   2   3
ENDBRANCH   1   2
BRANCH   1  27
ATOM     27  C   UNL A   1      32.025  31.456  27.264  1.00  0.00     0.023 C 
BRANCH  27  28
ATOM     28  C   UNL A   1      33.190  32.431  27.377  1.00  0.00     0.116 C 
BRANCH  28  29
ATOM     29  N   UNL A   1      32.764  33.804  27.609  1.00  0.00    -0.352 N 
ATOM     30  C   UNL A   1      33.206  34.666  28.584  1.00  0.00     0.251 C 
ATOM     31  H   UNL A   1      32.078  34.156  26.997  1.00  0.00     0.163 HD
ATOM     32  O   UNL A   1      32.666  35.753  28.755  1.00  0.00    -0.269 OA
BRANCH  30  33
ATOM     33  C   UNL A   1      34.326  34.232  29.440  1.00  0.00     0.039 A 
ATOM     34  C   UNL A   1      34.067  33.379  30.512  1.00  0.00     0.014 A 
ATOM     35  C   UNL A   1      35.635  34.595  29.113  1.00  0.00     0.014 A 
ATOM     36  C   UNL A   1      35.137  32.839  31.224  1.00  0.00     0.010 A 
ATOM     37  C   UNL A   1      36.698  33.979  29.759  1.00  0.00     0.010 A 
ATOM     38  C   UNL A   1      36.460  33.104  30.830  1.00  0.00    -0.014 A 
BRANCH  38  39
ATOM     39  C   UNL A   1      37.609  32.466  31.521  1.00  0.00     0.031 A 
ATOM     40  C   UNL A   1      38.333  31.317  30.877  1.00  0.00     0.074 A 
ATOM     41  C   UNL A   1      37.960  32.880  32.754  1.00  0.00     0.049 A 
ATOM     42  N   UNL A   1      39.338  30.620  31.336  1.00  0.00    -0.248 NA
ATOM     43  C   UNL A   1      37.853  30.875  29.556  1.00  0.00     0.031 C 
ATOM     44  C   UNL A   1      37.289  33.938  33.512  1.00  0.00     0.029 A 
ATOM     45  N   UNL A   1      38.957  32.451  33.593  1.00  0.00    -0.354 N 
ATOM     46  C   UNL A   1      39.591  29.644  30.381  1.00  0.00     0.074 A 
ATOM     47  C   UNL A   1      38.605  29.807  29.336  1.00  0.00     0.031 C 
ATOM     48  C   UNL A   1      37.909  34.093  34.692  1.00  0.00     0.029 A 
ATOM     49  C   UNL A   1      38.990  33.118  34.796  1.00  0.00     0.049 A 
ATOM     50  H   UNL A   1      39.591  31.735  33.358  1.00  0.00     0.167 HD
ATOM     51  C   UNL A   1      40.574  28.715  30.359  1.00  0.00     0.034 A 
ATOM     52  C   UNL A   1      39.791  32.958  35.869  1.00  0.00     0.034 A 
ATOM     53  C   UNL A   1      41.567  28.574  31.388  1.00  0.00     0.049 A 
ATOM     54  C   UNL A   1      40.879  31.922  35.822  1.00  0.00     0.074 A 
ATOM     55  C   UNL A   1      42.648  27.715  31.421  1.00  0.00     0.029 A 
ATOM     56  N   UNL A   1      41.591  29.294  32.574  1.00  0.00    -0.354 N 
ATOM     57  N   UNL A   1      41.187  31.098  34.851  1.00  0.00    -0.248 NA
ATOM     58  C   UNL A   1      41.749  31.813  37.002  1.00  0.00     0.031 C 
ATOM     59  C   UNL A   1      43.296  27.875  32.648  1.00  0.00     0.029 A 
ATOM     60  C   UNL A   1      42.655  28.881  33.355  1.00  0.00     0.049 A 
ATOM     61  H   UNL A   1      40.946  29.996  32.822  1.00  0.00     0.167 HD
ATOM     62  C   UNL A   1      42.304  30.394  35.286  1.00  0.00     0.074 A 
ATOM     63  C   UNL A   1      42.628  30.901  36.605  1.00  0.00     0.031 C 
ATOM     64  C   UNL A   1      42.994  29.415  34.651  1.00  0.00     0.034 A 
BRANCH  51  65
ATOM     65  C   UNL A   1      40.651  27.795  29.167  1.00  0.00     0.023 A 
ATOM     66  C   UNL A   1      39.757  26.710  29.060  1.00  0.00     0.012 A 
ATOM     67  C   UNL A   1      41.553  28.052  28.118  1.00  0.00     0.148 A 
ATOM     68  C   UNL A   1      39.781  25.877  27.941  1.00  0.00     0.002 A 
ATOM     69  C   UNL A   1      41.533  27.253  26.981  1.00  0.00     0.091 A 
ATOM     70  F   UNL A   1      42.409  29.075  28.247  1.00  0.00    -0.205 F 
ATOM     71  C   UNL A   1      40.658  26.158  26.898  1.00  0.00     0.022 A 
BRANCH  69  72
ATOM     72  S   UNL A   1      42.555  27.586  25.543  1.00  0.00     0.127 S 
ATOM     73  O   UNL A   1      42.287  26.409  24.714  1.00  0.00    -0.237 OA
ATOM     74  O   UNL A   1      41.977  28.830  25.039  1.00  0.00    -0.237 OA
ATOM     75  O   UNL A   1      43.920  27.700  26.035  1.00  0.00    -0.744 OA
ENDBRANCH  69  72
ENDBRANCH  51  65
BRANCH  52  76
ATOM     76  C   UNL A   1      39.616  33.849  37.049  1.00  0.00     0.023 A 
ATOM     77  C   UNL A   1      40.005  35.200  36.965  1.00  0.00     0.012 A 
ATOM     78  C   UNL A   1      38.993  33.385  38.224  1.00  0.00     0.148 A 
ATOM     79  C   UNL A   1      39.787  36.069  38.034  1.00  0.00     0.002 A 
ATOM     80  C   UNL A   1      38.723  34.269  39.260  1.00  0.00     0.091 A 
ATOM     81  F   UNL A   1      38.636  32.094  38.282  1.00  0.00    -0.205 F 
ATOM     82  C   UNL A   1      39.134  35.609  39.174  1.00  0.00     0.022 A 
BRANCH  80  83
ATOM     83  S   UNL A   1      37.764  33.803  40.704  1.00  0.00     0.127 S 
ATOM     84  O   UNL A   1      36.579  33.202  40.096  1.00  0.00    -0.237 OA
ATOM     85  O   UNL A   1      38.665  32.860  41.366  1.00  0.00    -0.237 OA
ATOM     86  O   UNL A   1      37.530  35.037  41.442  1.00  0.00    -0.744 OA
ENDBRANCH  80  83
ENDBRANCH  52  76
BRANCH  64  87
ATOM     87  C   UNL A   1      44.198  28.827  35.340  1.00  0.00     0.023 A 
ATOM     88  C   UNL A   1      45.467  29.412  35.169  1.00  0.00     0.012 A 
ATOM     89  C   UNL A   1      44.042  27.769  36.260  1.00  0.00     0.148 A 
ATOM     90  C   UNL A   1      46.566  28.941  35.886  1.00  0.00     0.002 A 
ATOM     91  C   UNL A   1      45.128  27.345  37.014  1.00  0.00     0.091 A 
ATOM     92  F   UNL A   1      42.827  27.218  36.398  1.00  0.00    -0.205 F 
ATOM     93  C   UNL A   1      46.393  27.922  36.819  1.00  0.00     0.022 A 
BRANCH  91  94
ATOM     94  S   UNL A   1      44.981  26.116  38.316  1.00  0.00     0.127 S 
ATOM     95  O   UNL A   1      46.375  25.714  38.504  1.00  0.00    -0.237 OA
ATOM     96  O   UNL A   1      44.419  26.900  39.415  1.00  0.00    -0.237 OA
ATOM     97  O   UNL A   1      44.102  25.077  37.796  1.00  0.00    -0.744 OA
ENDBRANCH  91  94
ENDBRANCH  64  87
ENDBRANCH  38  39
ENDBRANCH  30  33
ENDBRANCH  28  29
ENDBRANCH  27  28
ENDBRANCH   1  27
TORSDOF 18
ENDMDL
MODEL 3
REMARK VINA RESULT:     -12.3      2.294      8.015
REMARK SMILES C#Cc1cccc(NS(=O)(=O)c2ccc(F)c(C(=O)NCCCCNC(=O)c3ccc(-c4c5nc(c(-c6cccc(S(=O)(=O)[O-])c6F)c6ccc([nH]6)c(-c6cccc(S(=O)(=O)[O-])c6F)c6nc(c(-c7cccc(S(=O)(=O)[O-])c7F)c7ccc4[nH]7)C=C6)C=C5)cc3)c2)c1
REMARK SMILES IDX 22 1 21 2 20 3 18 4 19 5 17 7 12 8 13 9 91 10 14 11 15 12
REMARK SMILES IDX 16 13 9 14 10 15 11 16 8 17 7 19 3 20 4 21 92 22 5 23 6 24
REMARK SMILES IDX 2 25 1 26 23 27 24 28 25 29 26 30 27 32 28 33 29 34 90 35
REMARK SMILES IDX 30 36 89 37 31 38 32 39 33 40 83 41 34 42 88 43 82 44 84 45
REMARK SMILES IDX 35 46 87 47 81 48 80 49 36 51 68 52 48 53 67 54 49 55 52 56
REMARK SMILES IDX 66 57 85 58 50 59 51 60 65 62 86 63 53 64 37 65 38 66 46 67
REMARK SMILES IDX 39 68 41 69 47 70 40 71 42 72 43 73 44 74 45 75 69 76 70 77
REMARK SMILES IDX 78 78 71 79 73 80 79 81 72 82 74 83 75 84 76 85 77 86 54 87
REMARK SMILES IDX 55 88 63 89 56 90 58 91 64 92 57 93 59 94 60 95 61 96 62 97
REMARK H PARENT 20 6 8 18 25 31 84 50 52 61
REMARK Flexibility Score: inf
ROOT
ATOM      1  C   UNL A   1      32.466  27.152  25.956  1.00  0.00     0.023 C 
ENDROOT
BRANCH   1   2
ATOM      2  C   UNL A   1      30.960  26.949  25.768  1.00  0.00     0.116 C 
BRANCH   2   3
ATOM      3  N   UNL A   1      30.533  25.786  26.517  1.00  0.00    -0.352 N 
ATOM      4  C   UNL A   1      30.643  24.440  26.300  1.00  0.00     0.254 C 
ATOM      5  O   UNL A   1      30.052  23.701  27.089  1.00  0.00    -0.269 OA
ATOM      6  H   UNL A   1      30.066  26.011  27.355  1.00  0.00     0.163 HD
BRANCH   4   7
ATOM      7  C   UNL A   1      31.523  23.816  25.273  1.00  0.00     0.076 A 
ATOM      8  C   UNL A   1      33.626  22.654  24.851  1.00  0.00     0.088 A 
ATOM      9  C   UNL A   1      33.589  23.039  23.516  1.00  0.00     0.025 A 
ATOM     10  C   UNL A   1      32.651  23.127  25.744  1.00  0.00     0.039 A 
ATOM     11  C   UNL A   1      32.401  23.573  23.026  1.00  0.00     0.041 A 
ATOM     12  C   UNL A   1      31.346  23.854  23.895  1.00  0.00     0.136 A 
ATOM     13  F   UNL A   1      30.142  24.018  23.334  1.00  0.00    -0.206 F 
BRANCH   8  14
ATOM     14  S   UNL A   1      34.642  21.298  25.405  1.00  0.00     0.261 S 
ATOM     15  O   UNL A   1      34.062  20.086  24.867  1.00  0.00    -0.201 OA
ATOM     16  O   UNL A   1      34.825  21.477  26.830  1.00  0.00    -0.201 OA
BRANCH  14  17
ATOM     17  N   UNL A   1      36.183  21.435  24.749  1.00  0.00    -0.280 N 
ATOM     18  H   UNL A   1      36.336  20.938  23.913  1.00  0.00     0.180 HD
BRANCH  17  19
ATOM     19  C   UNL A   1      37.300  22.175  25.241  1.00  0.00     0.050 A 
ATOM     20  C   UNL A   1      39.514  22.018  26.227  1.00  0.00     0.026 A 
ATOM     21  C   UNL A   1      39.379  23.308  26.732  1.00  0.00     0.017 A 
ATOM     22  C   UNL A   1      38.463  21.442  25.507  1.00  0.00     0.044 A 
ATOM     23  C   UNL A   1      38.283  24.080  26.356  1.00  0.00     0.003 A 
ATOM     24  C   UNL A   1      37.290  23.537  25.532  1.00  0.00     0.027 A 
BRANCH  20  25
ATOM     25  C   UNL A   1      40.752  21.331  26.404  1.00  0.00    -0.070 C 
ATOM     26  C   UNL A   1      41.850  20.869  26.585  1.00  0.00     0.010 C 
ENDBRANCH  20  25
ENDBRANCH  17  19
ENDBRANCH  14  17
ENDBRANCH   8  14
ENDBRANCH   4   7
ENDBRANCH   2   3
ENDBRANCH   1   2
BRANCH   1  27
ATOM     27  C   UNL A   1      33.044  28.183  24.985  1.00  0.00     0.023 C 
BRANCH  27  28
ATOM     28  C   UNL A   1      34.039  29.146  25.622  1.00  0.00     0.116 C 
BRANCH  28  29
ATOM     29  N   UNL A   1      33.415  30.370  26.108  1.00  0.00    -0.352 N 
ATOM     30  C   UNL A   1      33.817  31.154  27.161  1.00  0.00     0.251 C 
ATOM     31  H   UNL A   1      32.611  30.670  25.624  1.00  0.00     0.163 HD
ATOM     32  O   UNL A   1      33.124  32.087  27.552  1.00  0.00    -0.269 OA
BRANCH  30  33
ATOM     33  C   UNL A   1      35.088  30.821  27.832  1.00  0.00     0.039 A 
ATOM     34  C   UNL A   1      36.078  31.798  27.928  1.00  0.00     0.014 A 
ATOM     35  C   UNL A   1      35.247  29.576  28.447  1.00  0.00     0.014 A 
ATOM     36  C   UNL A   1      37.212  31.542  28.698  1.00  0.00     0.010 A 
ATOM     37  C   UNL A   1      36.328  29.363  29.290  1.00  0.00     0.010 A 
ATOM     38  C   UNL A   1      37.328  30.339  29.416  1.00  0.00    -0.014 A 
BRANCH  38  39
ATOM     39  C   UNL A   1      38.486  30.088  30.311  1.00  0.00     0.031 A 
ATOM     40  C   UNL A   1      39.579  29.149  29.885  1.00  0.00     0.074 A 
ATOM     41  C   UNL A   1      38.521  30.657  31.532  1.00  0.00     0.049 A 
ATOM     42  N   UNL A   1      40.652  28.788  30.539  1.00  0.00    -0.248 NA
ATOM     43  C   UNL A   1      39.442  28.513  28.564  1.00  0.00     0.031 C 
ATOM     44  C   UNL A   1      37.485  31.530  32.086  1.00  0.00     0.029 A 
ATOM     45  N   UNL A   1      39.456  30.574  32.533  1.00  0.00    -0.354 N 
ATOM     46  C   UNL A   1      41.298  27.865  29.727  1.00  0.00     0.074 A 
ATOM     47  C   UNL A   1      40.476  27.685  28.552  1.00  0.00     0.031 C 
ATOM     48  C   UNL A   1      37.853  31.922  33.315  1.00  0.00     0.029 A 
ATOM     49  C   UNL A   1      39.125  31.294  33.657  1.00  0.00     0.049 A 
ATOM     50  H   UNL A   1      40.285  30.049  32.455  1.00  0.00     0.167 HD
ATOM     51  C   UNL A   1      42.484  27.247  29.926  1.00  0.00     0.034 A 
ATOM     52  C   UNL A   1      39.766  31.428  34.836  1.00  0.00     0.034 A 
ATOM     53  C   UNL A   1      43.309  27.450  31.085  1.00  0.00     0.049 A 
ATOM     54  C   UNL A   1      41.085  30.734  35.035  1.00  0.00     0.074 A 
ATOM     55  C   UNL A   1      44.562  26.928  31.344  1.00  0.00     0.029 A 
ATOM     56  N   UNL A   1      42.959  28.218  32.186  1.00  0.00    -0.354 N 
ATOM     57  N   UNL A   1      41.746  29.971  34.200  1.00  0.00    -0.248 NA
ATOM     58  C   UNL A   1      41.761  30.942  36.323  1.00  0.00     0.031 C 
ATOM     59  C   UNL A   1      44.948  27.335  32.624  1.00  0.00     0.029 A 
ATOM     60  C   UNL A   1      43.962  28.164  33.137  1.00  0.00     0.049 A 
ATOM     61  H   UNL A   1      42.120  28.726  32.277  1.00  0.00     0.167 HD
ATOM     62  C   UNL A   1      42.930  29.633  34.845  1.00  0.00     0.074 A 
ATOM     63  C   UNL A   1      42.901  30.288  36.137  1.00  0.00     0.031 C 
ATOM     64  C   UNL A   1      43.944  28.848  34.406  1.00  0.00     0.034 A 
BRANCH  51  65
ATOM     65  C   UNL A   1      42.985  26.314  28.853  1.00  0.00     0.023 A 
ATOM     66  C   UNL A   1      42.478  25.000  28.772  1.00  0.00     0.012 A 
ATOM     67  C   UNL A   1      43.894  26.764  27.877  1.00  0.00     0.148 A 
ATOM     68  C   UNL A   1      42.893  24.140  27.756  1.00  0.00     0.002 A 
ATOM     69  C   UNL A   1      44.260  25.920  26.836  1.00  0.00     0.091 A 
ATOM     70  F   UNL A   1      44.381  28.008  27.982  1.00  0.00    -0.205 F 
ATOM     71  C   UNL A   1      43.771  24.605  26.782  1.00  0.00     0.022 A 
BRANCH  69  72
ATOM     72  S   UNL A   1      45.310  26.451  25.479  1.00  0.00     0.127 S 
ATOM     73  O   UNL A   1      45.385  25.233  24.672  1.00  0.00    -0.237 OA
ATOM     74  O   UNL A   1      44.519  27.528  24.885  1.00  0.00    -0.237 OA
ATOM     75  O   UNL A   1      46.566  26.875  26.082  1.00  0.00    -0.744 OA
ENDBRANCH  69  72
ENDBRANCH  51  65
BRANCH  52  76
ATOM     76  C   UNL A   1      39.182  32.305  35.889  1.00  0.00     0.023 A 
ATOM     77  C   UNL A   1      38.202  31.789  36.758  1.00  0.00     0.012 A 
ATOM     78  C   UNL A   1      39.653  33.618  36.083  1.00  0.00     0.148 A 
ATOM     79  C   UNL A   1      37.692  32.571  37.796  1.00  0.00     0.002 A 
ATOM     80  C   UNL A   1      39.186  34.369  37.154  1.00  0.00     0.091 A 
ATOM     81  F   UNL A   1      40.582  34.088  35.240  1.00  0.00    -0.205 F 
ATOM     82  C   UNL A   1      38.193  33.853  38.003  1.00  0.00     0.022 A 
BRANCH  80  83
ATOM     83  S   UNL A   1      39.872  35.971  37.584  1.00  0.00     0.127 S 
ATOM     84  O   UNL A   1      39.684  36.720  36.343  1.00  0.00    -0.237 OA
ATOM     85  O   UNL A   1      39.004  36.378  38.688  1.00  0.00    -0.237 OA
ATOM     86  O   UNL A   1      41.257  35.723  37.961  1.00  0.00    -0.744 OA
ENDBRANCH  80  83
ENDBRANCH  52  76
BRANCH  64  87
ATOM     87  C   UNL A   1      45.141  28.661  35.301  1.00  0.00     0.023 A 
ATOM     88  C   UNL A   1      46.255  29.513  35.182  1.00  0.00     0.012 A 
ATOM     89  C   UNL A   1      45.102  27.716  36.349  1.00  0.00     0.148 A 
ATOM     90  C   UNL A   1      47.320  29.416  36.076  1.00  0.00     0.002 A 
ATOM     91  C   UNL A   1      46.139  27.665  37.271  1.00  0.00     0.091 A 
ATOM     92  F   UNL A   1      44.037  26.905  36.437  1.00  0.00    -0.205 F 
ATOM     93  C   UNL A   1      47.255  28.506  37.128  1.00  0.00     0.022 A 
BRANCH  91  94
ATOM     94  S   UNL A   1      46.094  26.604  38.720  1.00  0.00     0.127 S 
ATOM     95  O   UNL A   1      47.388  26.890  39.338  1.00  0.00    -0.237 OA
ATOM     96  O   UNL A   1      44.940  27.131  39.449  1.00  0.00    -0.237 OA
ATOM     97  O   UNL A   1      45.932  25.245  38.223  1.00  0.00    -0.744 OA
ENDBRANCH  91  94
ENDBRANCH  64  87
ENDBRANCH  38  39
ENDBRANCH  30  33
ENDBRANCH  28  29
ENDBRANCH  27  28
ENDBRANCH   1  27
TORSDOF 18
ENDMDL
