MODEL 1
REMARK VINA RESULT:     -12.3      0.000      0.000
REMARK SMILES CC(C)CSc1cc2c(cc1Cl)C=C(C(=O)NCCCCNC(=O)c1ccc(-c3c4nc(c(-c5cccc(S(=O)(=O)[O-])c5F)c5ccc([nH]5)c(-c5cccc(S(=O)(=O)[O-])c5F)c5nc(c(-c6cccc(S(=O)(=O)[O-])c6F)c6ccc3[nH]6)C=C5)C=C4)cc1)[C@@H](C(F)(F)F)O2
REMARK SMILES IDX 19 1 18 2 17 3 15 4 16 5 14 7 6 8 7 9 11 10 8 11 10 12 12 13
REMARK SMILES IDX 9 14 93 15 13 16 88 17 5 18 4 19 2 20 1 21 3 22 89 23 90 24
REMARK SMILES IDX 91 25 92 26 20 27 21 28 22 29 23 30 24 32 25 33 26 34 87 35
REMARK SMILES IDX 27 36 86 37 28 38 29 39 30 40 80 41 31 42 85 43 79 44 81 45
REMARK SMILES IDX 32 46 84 47 78 48 77 49 33 51 65 52 45 53 64 54 46 55 49 56
REMARK SMILES IDX 63 57 82 58 47 59 48 60 62 62 83 63 50 64 34 65 35 66 43 67
REMARK SMILES IDX 36 68 38 69 44 70 37 71 39 72 40 73 41 74 42 75 66 76 67 77
REMARK SMILES IDX 75 78 68 79 70 80 76 81 69 82 71 83 72 84 73 85 74 86 51 87
REMARK SMILES IDX 52 88 60 89 53 90 55 91 61 92 54 93 56 94 57 95 58 96 59 97
REMARK H PARENT 17 6 22 31 81 50 49 61
REMARK Flexibility Score: inf
ROOT
ATOM      1  C   UNL A   1      31.491  28.966  25.305  1.00  0.00     0.023 C 
ENDROOT
BRANCH   1   2
ATOM      2  C   UNL A   1      30.944  28.708  23.904  1.00  0.00     0.116 C 
BRANCH   2   3
ATOM      3  N   UNL A   1      29.759  27.870  23.923  1.00  0.00    -0.352 N 
ATOM      4  C   UNL A   1      29.481  26.546  23.902  1.00  0.00     0.251 C 
ATOM      5  O   UNL A   1      28.282  26.256  23.935  1.00  0.00    -0.270 OA
ATOM      6  H   UNL A   1      28.935  28.410  23.961  1.00  0.00     0.163 HD
BRANCH   4   7
ATOM      7  C   UNL A   1      30.496  25.450  23.843  1.00  0.00     0.067 C 
ATOM      8  C   UNL A   1      33.731  21.770  25.099  1.00  0.00     0.030 A 
ATOM      9  C   UNL A   1      33.144  22.202  23.904  1.00  0.00     0.063 A 
ATOM     10  C   UNL A   1      33.454  22.490  26.276  1.00  0.00     0.055 A 
ATOM     11  C   UNL A   1      32.247  23.270  23.898  1.00  0.00     0.129 A 
ATOM     12  C   UNL A   1      32.561  23.571  26.260  1.00  0.00     0.033 A 
ATOM     13  Cl  UNL A   1      34.152  22.075  27.807  1.00  0.00    -0.083 Cl
ATOM     14  C   UNL A   1      31.939  23.952  25.070  1.00  0.00     0.019 A 
ATOM     15  O   UNL A   1      31.654  23.553  22.702  1.00  0.00    -0.475 OA
ATOM     16  C   UNL A   1      30.941  25.011  25.035  1.00  0.00     0.025 C 
ATOM     17  C   UNL A   1      31.049  24.871  22.571  1.00  0.00     0.314 C 
BRANCH   8  18
ATOM     18  S   UNL A   1      34.798  20.328  25.090  1.00  0.00    -0.124 SA
BRANCH  18  19
ATOM     19  C   UNL A   1      33.611  18.936  24.936  1.00  0.00     0.078 C 
BRANCH  19  20
ATOM     20  C   UNL A   1      34.140  17.689  24.203  1.00  0.00    -0.007 C 
ATOM     21  C   UNL A   1      33.981  16.392  24.997  1.00  0.00     0.008 C 
ATOM     22  C   UNL A   1      33.397  17.542  22.869  1.00  0.00     0.008 C 
ENDBRANCH  19  20
ENDBRANCH  18  19
ENDBRANCH   8  18
BRANCH  17  23
ATOM     23  C   UNL A   1      32.059  25.807  21.882  1.00  0.00     0.429 C 
ATOM     24  F   UNL A   1      32.782  25.124  20.961  1.00  0.00    -0.167 F 
ATOM     25  F   UNL A   1      31.463  26.828  21.226  1.00  0.00    -0.167 F 
ATOM     26  F   UNL A   1      32.934  26.354  22.757  1.00  0.00    -0.167 F 
ENDBRANCH  17  23
ENDBRANCH   4   7
ENDBRANCH   2   3
ENDBRANCH   1   2
BRANCH   1  27
ATOM     27  C   UNL A   1      31.413  30.427  25.753  1.00  0.00     0.023 C 
BRANCH  27  28
ATOM     28  C   UNL A   1      32.414  30.842  26.831  1.00  0.00     0.116 C 
BRANCH  28  29
ATOM     29  N   UNL A   1      32.378  32.258  27.172  1.00  0.00    -0.352 N 
ATOM     30  C   UNL A   1      33.409  33.021  27.676  1.00  0.00     0.251 C 
ATOM     31  H   UNL A   1      31.521  32.721  27.026  1.00  0.00     0.163 HD
ATOM     32  O   UNL A   1      33.242  34.201  27.957  1.00  0.00    -0.269 OA
BRANCH  30  33
ATOM     33  C   UNL A   1      34.701  32.352  27.918  1.00  0.00     0.039 A 
ATOM     34  C   UNL A   1      34.728  30.986  28.210  1.00  0.00     0.014 A 
ATOM     35  C   UNL A   1      35.851  33.135  28.027  1.00  0.00     0.014 A 
ATOM     36  C   UNL A   1      35.872  30.438  28.779  1.00  0.00     0.010 A 
ATOM     37  C   UNL A   1      37.016  32.566  28.544  1.00  0.00     0.010 A 
ATOM     38  C   UNL A   1      37.011  31.233  28.986  1.00  0.00    -0.014 A 
BRANCH  38  39
ATOM     39  C   UNL A   1      38.165  30.679  29.737  1.00  0.00     0.031 A 
ATOM     40  C   UNL A   1      38.388  31.058  31.177  1.00  0.00     0.074 A 
ATOM     41  C   UNL A   1      38.982  29.793  29.138  1.00  0.00     0.049 A 
ATOM     42  N   UNL A   1      39.346  30.685  31.986  1.00  0.00    -0.248 NA
ATOM     43  C   UNL A   1      37.411  31.973  31.793  1.00  0.00     0.031 C 
ATOM     44  C   UNL A   1      38.862  29.341  27.752  1.00  0.00     0.029 A 
ATOM     45  N   UNL A   1      40.065  29.107  29.623  1.00  0.00    -0.354 N 
ATOM     46  C   UNL A   1      39.117  31.352  33.183  1.00  0.00     0.074 A 
ATOM     47  C   UNL A   1      37.924  32.149  33.004  1.00  0.00     0.031 C 
ATOM     48  C   UNL A   1      39.812  28.425  27.508  1.00  0.00     0.029 A 
ATOM     49  C   UNL A   1      40.632  28.259  28.704  1.00  0.00     0.049 A 
ATOM     50  H   UNL A   1      40.404  29.211  30.542  1.00  0.00     0.167 HD
ATOM     51  C   UNL A   1      39.825  31.290  34.336  1.00  0.00     0.034 A 
ATOM     52  C   UNL A   1      41.699  27.443  28.807  1.00  0.00     0.034 A 
ATOM     53  C   UNL A   1      40.970  30.448  34.540  1.00  0.00     0.049 A 
ATOM     54  C   UNL A   1      42.458  27.384  30.100  1.00  0.00     0.074 A 
ATOM     55  C   UNL A   1      41.731  30.297  35.687  1.00  0.00     0.029 A 
ATOM     56  N   UNL A   1      41.512  29.604  33.584  1.00  0.00    -0.354 N 
ATOM     57  N   UNL A   1      42.197  27.989  31.234  1.00  0.00    -0.248 NA
ATOM     58  C   UNL A   1      43.654  26.530  30.132  1.00  0.00     0.031 C 
ATOM     59  C   UNL A   1      42.729  29.351  35.426  1.00  0.00     0.029 A 
ATOM     60  C   UNL A   1      42.594  28.925  34.115  1.00  0.00     0.049 A 
ATOM     61  H   UNL A   1      41.175  29.503  32.665  1.00  0.00     0.167 HD
ATOM     62  C   UNL A   1      43.199  27.593  32.112  1.00  0.00     0.074 A 
ATOM     63  C   UNL A   1      44.051  26.672  31.390  1.00  0.00     0.031 C 
ATOM     64  C   UNL A   1      43.409  27.983  33.392  1.00  0.00     0.034 A 
BRANCH  51  65
ATOM     65  C   UNL A   1      39.348  32.118  35.496  1.00  0.00     0.023 A 
ATOM     66  C   UNL A   1      38.476  31.537  36.436  1.00  0.00     0.012 A 
ATOM     67  C   UNL A   1      39.822  33.427  35.701  1.00  0.00     0.148 A 
ATOM     68  C   UNL A   1      38.078  32.250  37.566  1.00  0.00     0.002 A 
ATOM     69  C   UNL A   1      39.436  34.126  36.839  1.00  0.00     0.091 A 
ATOM     70  F   UNL A   1      40.634  33.964  34.778  1.00  0.00    -0.205 F 
ATOM     71  C   UNL A   1      38.563  33.539  37.771  1.00  0.00     0.022 A 
BRANCH  69  72
ATOM     72  S   UNL A   1      40.035  35.777  37.217  1.00  0.00     0.127 S 
ATOM     73  O   UNL A   1      39.314  36.073  38.455  1.00  0.00    -0.237 OA
ATOM     74  O   UNL A   1      41.471  35.553  37.386  1.00  0.00    -0.237 OA
ATOM     75  O   UNL A   1      39.677  36.604  36.075  1.00  0.00    -0.744 OA
ENDBRANCH  69  72
ENDBRANCH  51  65
BRANCH  52  76
ATOM     76  C   UNL A   1      42.068  26.585  27.651  1.00  0.00     0.023 A 
ATOM     77  C   UNL A   1      42.923  27.103  26.661  1.00  0.00     0.012 A 
ATOM     78  C   UNL A   1      41.653  25.242  27.577  1.00  0.00     0.148 A 
ATOM     79  C   UNL A   1      43.363  26.293  25.614  1.00  0.00     0.002 A 
ATOM     80  C   UNL A   1      42.131  24.429  26.557  1.00  0.00     0.091 A 
ATOM     81  F   UNL A   1      40.823  24.781  28.523  1.00  0.00    -0.205 F 
ATOM     82  C   UNL A   1      42.979  24.955  25.569  1.00  0.00     0.022 A 
BRANCH  80  83
ATOM     83  S   UNL A   1      41.793  22.667  26.497  1.00  0.00     0.127 S 
ATOM     84  O   UNL A   1      40.334  22.640  26.573  1.00  0.00    -0.237 OA
ATOM     85  O   UNL A   1      42.351  22.294  25.197  1.00  0.00    -0.237 OA
ATOM     86  O   UNL A   1      42.498  22.096  27.637  1.00  0.00    -0.744 OA
ENDBRANCH  80  83
ENDBRANCH  52  76
BRANCH  64  87
ATOM     87  C   UNL A   1      44.621  27.442  34.093  1.00  0.00     0.023 A 
ATOM     88  C   UNL A   1      45.802  28.209  34.090  1.00  0.00     0.012 A 
ATOM     89  C   UNL A   1      44.572  26.239  34.821  1.00  0.00     0.148 A 
ATOM     90  C   UNL A   1      46.924  27.780  34.796  1.00  0.00     0.002 A 
ATOM     91  C   UNL A   1      45.687  25.831  35.544  1.00  0.00     0.091 A 
ATOM     92  F   UNL A   1      43.443  25.517  34.790  1.00  0.00    -0.205 F 
ATOM     93  C   UNL A   1      46.864  26.598  35.532  1.00  0.00     0.022 A 
BRANCH  91  94
ATOM     94  S   UNL A   1      45.666  24.356  36.569  1.00  0.00     0.127 S 
ATOM     95  O   UNL A   1      47.072  24.239  36.952  1.00  0.00    -0.237 OA
ATOM     96  O   UNL A   1      44.766  24.738  37.658  1.00  0.00    -0.237 OA
ATOM     97  O   UNL A   1      45.153  23.292  35.715  1.00  0.00    -0.744 OA
ENDBRANCH  91  94
ENDBRANCH  64  87
ENDBRANCH  38  39
ENDBRANCH  30  33
ENDBRANCH  28  29
ENDBRANCH  27  28
ENDBRANCH   1  27
TORSDOF 18
ENDMDL
MODEL 2
REMARK VINA RESULT:     -12.2      6.098      9.383
REMARK SMILES CC(C)CSc1cc2c(cc1Cl)C=C(C(=O)NCCCCNC(=O)c1ccc(-c3c4nc(c(-c5cccc(S(=O)(=O)[O-])c5F)c5ccc([nH]5)c(-c5cccc(S(=O)(=O)[O-])c5F)c5nc(c(-c6cccc(S(=O)(=O)[O-])c6F)c6ccc3[nH]6)C=C5)C=C4)cc1)[C@@H](C(F)(F)F)O2
REMARK SMILES IDX 19 1 18 2 17 3 15 4 16 5 14 7 6 8 7 9 11 10 8 11 10 12 12 13
REMARK SMILES IDX 9 14 93 15 13 16 88 17 5 18 4 19 2 20 1 21 3 22 89 23 90 24
REMARK SMILES IDX 91 25 92 26 20 27 21 28 22 29 23 30 24 32 25 33 26 34 87 35
REMARK SMILES IDX 27 36 86 37 28 38 29 39 30 40 80 41 31 42 85 43 79 44 81 45
REMARK SMILES IDX 32 46 84 47 78 48 77 49 33 51 65 52 45 53 64 54 46 55 49 56
REMARK SMILES IDX 63 57 82 58 47 59 48 60 62 62 83 63 50 64 34 65 35 66 43 67
REMARK SMILES IDX 36 68 38 69 44 70 37 71 39 72 40 73 41 74 42 75 66 76 67 77
REMARK SMILES IDX 75 78 68 79 70 80 76 81 69 82 71 83 72 84 73 85 74 86 51 87
REMARK SMILES IDX 52 88 60 89 53 90 55 91 61 92 54 93 56 94 57 95 58 96 59 97
REMARK H PARENT 17 6 22 31 81 50 49 61
REMARK Flexibility Score: inf
ROOT
ATOM      1  C   UNL A   1      37.410  20.313  24.963  1.00  0.00     0.023 C 
ENDROOT
BRANCH   1   2
ATOM      2  C   UNL A   1      35.894  20.419  24.822  1.00  0.00     0.116 C 
BRANCH   2   3
ATOM      3  N   UNL A   1      35.252  20.795  26.069  1.00  0.00    -0.352 N 
ATOM      4  C   UNL A   1      34.409  21.763  26.496  1.00  0.00     0.251 C 
ATOM      5  O   UNL A   1      34.101  21.706  27.690  1.00  0.00    -0.270 OA
ATOM      6  H   UNL A   1      35.495  20.180  26.799  1.00  0.00     0.163 HD
BRANCH   4   7
ATOM      7  C   UNL A   1      33.849  22.859  25.648  1.00  0.00     0.067 C 
ATOM      8  C   UNL A   1      32.209  27.351  23.996  1.00  0.00     0.030 A 
ATOM      9  C   UNL A   1      32.537  26.134  23.386  1.00  0.00     0.063 A 
ATOM     10  C   UNL A   1      32.277  27.431  25.400  1.00  0.00     0.055 A 
ATOM     11  C   UNL A   1      32.994  25.057  24.145  1.00  0.00     0.129 A 
ATOM     12  C   UNL A   1      32.725  26.339  26.159  1.00  0.00     0.033 A 
ATOM     13  Cl  UNL A   1      31.859  28.869  26.271  1.00  0.00    -0.083 Cl
ATOM     14  C   UNL A   1      33.104  25.153  25.528  1.00  0.00     0.019 A 
ATOM     15  O   UNL A   1      33.380  23.948  23.450  1.00  0.00    -0.475 OA
ATOM     16  C   UNL A   1      33.657  24.034  26.277  1.00  0.00     0.025 C 
ATOM     17  C   UNL A   1      33.468  22.706  24.203  1.00  0.00     0.314 C 
BRANCH   8  18
ATOM     18  S   UNL A   1      31.727  28.748  22.982  1.00  0.00    -0.124 SA
BRANCH  18  19
ATOM     19  C   UNL A   1      30.009  29.085  23.533  1.00  0.00     0.078 C 
BRANCH  19  20
ATOM     20  C   UNL A   1      28.937  28.117  22.997  1.00  0.00    -0.007 C 
ATOM     21  C   UNL A   1      28.763  26.857  23.846  1.00  0.00     0.008 C 
ATOM     22  C   UNL A   1      27.592  28.851  22.927  1.00  0.00     0.008 C 
ENDBRANCH  19  20
ENDBRANCH  18  19
ENDBRANCH   8  18
BRANCH  17  23
ATOM     23  C   UNL A   1      32.155  21.924  24.014  1.00  0.00     0.429 C 
ATOM     24  F   UNL A   1      31.520  22.334  22.888  1.00  0.00    -0.167 F 
ATOM     25  F   UNL A   1      32.352  20.593  23.884  1.00  0.00    -0.167 F 
ATOM     26  F   UNL A   1      31.299  22.100  25.047  1.00  0.00    -0.167 F 
ENDBRANCH  17  23
ENDBRANCH   4   7
ENDBRANCH   2   3
ENDBRANCH   1   2
BRANCH   1  27
ATOM     27  C   UNL A   1      38.095  21.612  25.395  1.00  0.00     0.023 C 
BRANCH  27  28
ATOM     28  C   UNL A   1      39.404  21.443  26.166  1.00  0.00     0.116 C 
BRANCH  28  29
ATOM     29  N   UNL A   1      40.015  20.127  26.031  1.00  0.00    -0.352 N 
ATOM     30  C   UNL A   1      41.358  19.822  26.087  1.00  0.00     0.251 C 
ATOM     31  H   UNL A   1      39.400  19.372  25.884  1.00  0.00     0.163 HD
ATOM     32  O   UNL A   1      41.753  18.674  25.922  1.00  0.00    -0.269 OA
BRANCH  30  33
ATOM     33  C   UNL A   1      42.305  20.934  26.292  1.00  0.00     0.039 A 
ATOM     34  C   UNL A   1      42.659  21.310  27.591  1.00  0.00     0.014 A 
ATOM     35  C   UNL A   1      42.689  21.700  25.190  1.00  0.00     0.014 A 
ATOM     36  C   UNL A   1      43.250  22.550  27.798  1.00  0.00     0.010 A 
ATOM     37  C   UNL A   1      43.337  22.918  25.400  1.00  0.00     0.010 A 
ATOM     38  C   UNL A   1      43.558  23.381  26.708  1.00  0.00    -0.014 A 
BRANCH  38  39
ATOM     39  C   UNL A   1      44.040  24.763  26.952  1.00  0.00     0.031 A 
ATOM     40  C   UNL A   1      43.114  25.801  27.528  1.00  0.00     0.074 A 
ATOM     41  C   UNL A   1      45.327  25.070  26.704  1.00  0.00     0.049 A 
ATOM     42  N   UNL A   1      43.355  27.058  27.796  1.00  0.00    -0.248 NA
ATOM     43  C   UNL A   1      41.739  25.376  27.847  1.00  0.00     0.031 C 
ATOM     44  C   UNL A   1      46.321  24.147  26.156  1.00  0.00     0.029 A 
ATOM     45  N   UNL A   1      46.019  26.237  26.894  1.00  0.00    -0.354 N 
ATOM     46  C   UNL A   1      42.158  27.585  28.267  1.00  0.00     0.074 A 
ATOM     47  C   UNL A   1      41.189  26.511  28.258  1.00  0.00     0.031 C 
ATOM     48  C   UNL A   1      47.506  24.774  26.086  1.00  0.00     0.029 A 
ATOM     49  C   UNL A   1      47.344  26.152  26.543  1.00  0.00     0.049 A 
ATOM     50  H   UNL A   1      45.607  27.059  27.248  1.00  0.00     0.167 HD
ATOM     51  C   UNL A   1      41.894  28.844  28.688  1.00  0.00     0.034 A 
ATOM     52  C   UNL A   1      48.321  27.079  26.576  1.00  0.00     0.034 A 
ATOM     53  C   UNL A   1      42.870  29.895  28.763  1.00  0.00     0.049 A 
ATOM     54  C   UNL A   1      48.005  28.464  27.060  1.00  0.00     0.074 A 
ATOM     55  C   UNL A   1      42.699  31.195  29.208  1.00  0.00     0.029 A 
ATOM     56  N   UNL A   1      44.200  29.767  28.399  1.00  0.00    -0.354 N 
ATOM     57  N   UNL A   1      46.877  28.927  27.543  1.00  0.00    -0.248 NA
ATOM     58  C   UNL A   1      49.091  29.451  27.008  1.00  0.00     0.031 C 
ATOM     59  C   UNL A   1      43.933  31.850  29.123  1.00  0.00     0.029 A 
ATOM     60  C   UNL A   1      44.865  30.961  28.613  1.00  0.00     0.049 A 
ATOM     61  H   UNL A   1      44.611  28.947  28.041  1.00  0.00     0.167 HD
ATOM     62  C   UNL A   1      47.117  30.261  27.848  1.00  0.00     0.074 A 
ATOM     63  C   UNL A   1      48.505  30.523  27.526  1.00  0.00     0.031 C 
ATOM     64  C   UNL A   1      46.256  31.192  28.322  1.00  0.00     0.034 A 
BRANCH  51  65
ATOM     65  C   UNL A   1      40.500  29.148  29.160  1.00  0.00     0.023 A 
ATOM     66  C   UNL A   1      39.540  29.576  28.223  1.00  0.00     0.012 A 
ATOM     67  C   UNL A   1      40.122  28.934  30.499  1.00  0.00     0.148 A 
ATOM     68  C   UNL A   1      38.219  29.790  28.613  1.00  0.00     0.002 A 
ATOM     69  C   UNL A   1      38.798  29.131  30.876  1.00  0.00     0.091 A 
ATOM     70  F   UNL A   1      41.061  28.549  31.374  1.00  0.00    -0.205 F 
ATOM     71  C   UNL A   1      37.847  29.560  29.935  1.00  0.00     0.022 A 
BRANCH  69  72
ATOM     72  S   UNL A   1      38.207  28.827  32.545  1.00  0.00     0.127 S 
ATOM     73  O   UNL A   1      38.983  29.800  33.313  1.00  0.00    -0.237 OA
ATOM     74  O   UNL A   1      36.782  29.138  32.429  1.00  0.00    -0.237 OA
ATOM     75  O   UNL A   1      38.505  27.431  32.828  1.00  0.00    -0.744 OA
ENDBRANCH  69  72
ENDBRANCH  51  65
BRANCH  52  76
ATOM     76  C   UNL A   1      49.699  26.692  26.178  1.00  0.00     0.023 A 
ATOM     77  C   UNL A   1      50.436  25.834  27.015  1.00  0.00     0.012 A 
ATOM     78  C   UNL A   1      50.243  27.091  24.943  1.00  0.00     0.148 A 
ATOM     79  C   UNL A   1      51.695  25.377  26.626  1.00  0.00     0.002 A 
ATOM     80  C   UNL A   1      51.476  26.596  24.541  1.00  0.00     0.091 A 
ATOM     81  F   UNL A   1      49.527  27.924  24.174  1.00  0.00    -0.205 F 
ATOM     82  C   UNL A   1      52.208  25.746  25.385  1.00  0.00     0.022 A 
BRANCH  80  83
ATOM     83  S   UNL A   1      52.152  26.915  22.908  1.00  0.00     0.127 S 
ATOM     84  O   UNL A   1      51.004  26.633  22.050  1.00  0.00    -0.237 OA
ATOM     85  O   UNL A   1      52.520  28.328  23.001  1.00  0.00    -0.237 OA
ATOM     86  O   UNL A   1      53.284  26.009  22.771  1.00  0.00    -0.744 OA
ENDBRANCH  80  83
ENDBRANCH  52  76
BRANCH  64  87
ATOM     87  C   UNL A   1      46.772  32.591  28.498  1.00  0.00     0.023 A 
ATOM     88  C   UNL A   1      47.297  32.965  29.751  1.00  0.00     0.012 A 
ATOM     89  C   UNL A   1      46.824  33.495  27.422  1.00  0.00     0.148 A 
ATOM     90  C   UNL A   1      47.859  34.226  29.933  1.00  0.00     0.002 A 
ATOM     91  C   UNL A   1      47.410  34.743  27.604  1.00  0.00     0.091 A 
ATOM     92  F   UNL A   1      46.298  33.123  26.246  1.00  0.00    -0.205 F 
ATOM     93  C   UNL A   1      47.926  35.111  28.858  1.00  0.00     0.022 A 
BRANCH  91  94
ATOM     94  S   UNL A   1      47.594  35.912  26.253  1.00  0.00     0.127 S 
ATOM     95  O   UNL A   1      48.415  35.153  25.311  1.00  0.00    -0.237 OA
ATOM     96  O   UNL A   1      46.210  36.121  25.824  1.00  0.00    -0.237 OA
ATOM     97  O   UNL A   1      48.223  37.089  26.836  1.00  0.00    -0.744 OA
ENDBRANCH  91  94
ENDBRANCH  64  87
ENDBRANCH  38  39
ENDBRANCH  30  33
ENDBRANCH  28  29
ENDBRANCH  27  28
ENDBRANCH   1  27
TORSDOF 18
ENDMDL
MODEL 3
REMARK VINA RESULT:     -12.2      2.365      7.796
REMARK SMILES CC(C)CSc1cc2c(cc1Cl)C=C(C(=O)NCCCCNC(=O)c1ccc(-c3c4nc(c(-c5cccc(S(=O)(=O)[O-])c5F)c5ccc([nH]5)c(-c5cccc(S(=O)(=O)[O-])c5F)c5nc(c(-c6cccc(S(=O)(=O)[O-])c6F)c6ccc3[nH]6)C=C5)C=C4)cc1)[C@@H](C(F)(F)F)O2
REMARK SMILES IDX 19 1 18 2 17 3 15 4 16 5 14 7 6 8 7 9 11 10 8 11 10 12 12 13
REMARK SMILES IDX 9 14 93 15 13 16 88 17 5 18 4 19 2 20 1 21 3 22 89 23 90 24
REMARK SMILES IDX 91 25 92 26 20 27 21 28 22 29 23 30 24 32 25 33 26 34 87 35
REMARK SMILES IDX 27 36 86 37 28 38 29 39 30 40 80 41 31 42 85 43 79 44 81 45
REMARK SMILES IDX 32 46 84 47 78 48 77 49 33 51 65 52 45 53 64 54 46 55 49 56
REMARK SMILES IDX 63 57 82 58 47 59 48 60 62 62 83 63 50 64 34 65 35 66 43 67
REMARK SMILES IDX 36 68 38 69 44 70 37 71 39 72 40 73 41 74 42 75 66 76 67 77
REMARK SMILES IDX 75 78 68 79 70 80 76 81 69 82 71 83 72 84 73 85 74 86 51 87
REMARK SMILES IDX 52 88 60 89 53 90 55 91 61 92 54 93 56 94 57 95 58 96 59 97
REMARK H PARENT 17 6 22 31 81 50 49 61
REMARK Flexibility Score: inf
ROOT
ATOM      1  C   UNL A   1      33.286  29.451  27.445  1.00  0.00     0.023 C 
ENDROOT
BRANCH   1   2
ATOM      2  C   UNL A   1      34.318  28.739  26.576  1.00  0.00     0.116 C 
BRANCH   2   3
ATOM      3  N   UNL A   1      33.976  28.786  25.166  1.00  0.00    -0.352 N 
ATOM      4  C   UNL A   1      33.495  27.930  24.235  1.00  0.00     0.251 C 
ATOM      5  O   UNL A   1      33.345  28.408  23.106  1.00  0.00    -0.270 OA
ATOM      6  H   UNL A   1      34.136  29.681  24.786  1.00  0.00     0.163 HD
BRANCH   4   7
ATOM      7  C   UNL A   1      33.149  26.497  24.474  1.00  0.00     0.067 C 
ATOM      8  C   UNL A   1      33.439  21.526  25.367  1.00  0.00     0.030 A 
ATOM      9  C   UNL A   1      32.412  22.477  25.403  1.00  0.00     0.063 A 
ATOM     10  C   UNL A   1      34.719  21.943  24.955  1.00  0.00     0.055 A 
ATOM     11  C   UNL A   1      32.672  23.816  25.114  1.00  0.00     0.129 A 
ATOM     12  C   UNL A   1      34.970  23.289  24.653  1.00  0.00     0.033 A 
ATOM     13  Cl  UNL A   1      36.058  20.851  24.833  1.00  0.00    -0.083 Cl
ATOM     14  C   UNL A   1      33.948  24.234  24.751  1.00  0.00     0.019 A 
ATOM     15  O   UNL A   1      31.629  24.681  25.271  1.00  0.00    -0.475 OA
ATOM     16  C   UNL A   1      34.196  25.652  24.532  1.00  0.00     0.025 C 
ATOM     17  C   UNL A   1      31.747  25.971  24.606  1.00  0.00     0.314 C 
BRANCH   8  18
ATOM     18  S   UNL A   1      33.094  19.832  25.847  1.00  0.00    -0.124 SA
BRANCH  18  19
ATOM     19  C   UNL A   1      33.384  18.896  24.295  1.00  0.00     0.078 C 
BRANCH  19  20
ATOM     20  C   UNL A   1      34.065  17.524  24.464  1.00  0.00    -0.007 C 
ATOM     21  C   UNL A   1      33.332  16.585  25.423  1.00  0.00     0.008 C 
ATOM     22  C   UNL A   1      34.165  16.845  23.093  1.00  0.00     0.008 C 
ENDBRANCH  19  20
ENDBRANCH  18  19
ENDBRANCH   8  18
BRANCH  17  23
ATOM     23  C   UNL A   1      31.011  25.896  23.255  1.00  0.00     0.429 C 
ATOM     24  F   UNL A   1      29.868  25.177  23.380  1.00  0.00    -0.167 F 
ATOM     25  F   UNL A   1      30.654  27.111  22.786  1.00  0.00    -0.167 F 
ATOM     26  F   UNL A   1      31.757  25.302  22.295  1.00  0.00    -0.167 F 
ENDBRANCH  17  23
ENDBRANCH   4   7
ENDBRANCH   2   3
ENDBRANCH   1   2
BRANCH   1  27
ATOM     27  C   UNL A   1      32.915  30.855  26.961  1.00  0.00     0.023 C 
BRANCH  27  28
ATOM     28  C   UNL A   1      33.756  31.994  27.535  1.00  0.00     0.116 C 
BRANCH  28  29
ATOM     29  N   UNL A   1      33.044  33.258  27.672  1.00  0.00    -0.352 N 
ATOM     30  C   UNL A   1      33.310  34.274  28.565  1.00  0.00     0.251 C 
ATOM     31  H   UNL A   1      32.288  33.402  27.057  1.00  0.00     0.163 HD
ATOM     32  O   UNL A   1      32.612  35.279  28.605  1.00  0.00    -0.269 OA
BRANCH  30  33
ATOM     33  C   UNL A   1      34.428  34.081  29.507  1.00  0.00     0.039 A 
ATOM     34  C   UNL A   1      35.731  34.391  29.107  1.00  0.00     0.014 A 
ATOM     35  C   UNL A   1      34.182  33.426  30.715  1.00  0.00     0.014 A 
ATOM     36  C   UNL A   1      36.801  33.889  29.839  1.00  0.00     0.010 A 
ATOM     37  C   UNL A   1      35.260  32.975  31.477  1.00  0.00     0.010 A 
ATOM     38  C   UNL A   1      36.573  33.143  31.008  1.00  0.00    -0.014 A 
BRANCH  38  39
ATOM     39  C   UNL A   1      37.713  32.481  31.688  1.00  0.00     0.031 A 
ATOM     40  C   UNL A   1      38.448  31.352  31.015  1.00  0.00     0.074 A 
ATOM     41  C   UNL A   1      38.120  32.929  32.890  1.00  0.00     0.049 A 
ATOM     42  N   UNL A   1      39.457  30.647  31.460  1.00  0.00    -0.248 NA
ATOM     43  C   UNL A   1      37.998  30.962  29.667  1.00  0.00     0.031 C 
ATOM     44  C   UNL A   1      37.494  34.020  33.636  1.00  0.00     0.029 A 
ATOM     45  N   UNL A   1      39.162  32.531  33.686  1.00  0.00    -0.354 N 
ATOM     46  C   UNL A   1      39.729  29.705  30.475  1.00  0.00     0.074 A 
ATOM     47  C   UNL A   1      38.787  29.930  29.401  1.00  0.00     0.031 C 
ATOM     48  C   UNL A   1      38.187  34.229  34.767  1.00  0.00     0.029 A 
ATOM     49  C   UNL A   1      39.277  33.259  34.844  1.00  0.00     0.049 A 
ATOM     50  H   UNL A   1      39.772  31.793  33.450  1.00  0.00     0.167 HD
ATOM     51  C   UNL A   1      40.690  28.752  30.458  1.00  0.00     0.034 A 
ATOM     52  C   UNL A   1      40.154  33.156  35.861  1.00  0.00     0.034 A 
ATOM     53  C   UNL A   1      41.670  28.570  31.491  1.00  0.00     0.049 A 
ATOM     54  C   UNL A   1      41.218  32.099  35.810  1.00  0.00     0.074 A 
ATOM     55  C   UNL A   1      42.703  27.649  31.543  1.00  0.00     0.029 A 
ATOM     56  N   UNL A   1      41.751  29.329  32.647  1.00  0.00    -0.354 N 
ATOM     57  N   UNL A   1      41.486  31.249  34.849  1.00  0.00    -0.248 NA
ATOM     58  C   UNL A   1      42.101  31.989  36.979  1.00  0.00     0.031 C 
ATOM     59  C   UNL A   1      43.417  27.861  32.728  1.00  0.00     0.029 A 
ATOM     60  C   UNL A   1      42.819  28.903  33.417  1.00  0.00     0.049 A 
ATOM     61  H   UNL A   1      41.140  30.064  32.884  1.00  0.00     0.167 HD
ATOM     62  C   UNL A   1      42.565  30.499  35.298  1.00  0.00     0.074 A 
ATOM     63  C   UNL A   1      42.922  31.017  36.603  1.00  0.00     0.031 C 
ATOM     64  C   UNL A   1      43.183  29.455  34.696  1.00  0.00     0.034 A 
BRANCH  51  65
ATOM     65  C   UNL A   1      40.771  27.860  29.251  1.00  0.00     0.023 A 
ATOM     66  C   UNL A   1      39.913  26.747  29.166  1.00  0.00     0.012 A 
ATOM     67  C   UNL A   1      41.627  28.164  28.176  1.00  0.00     0.148 A 
ATOM     68  C   UNL A   1      39.907  25.945  28.026  1.00  0.00     0.002 A 
ATOM     69  C   UNL A   1      41.602  27.371  27.034  1.00  0.00     0.091 A 
ATOM     70  F   UNL A   1      42.451  29.216  28.293  1.00  0.00    -0.205 F 
ATOM     71  C   UNL A   1      40.744  26.261  26.959  1.00  0.00     0.022 A 
BRANCH  69  72
ATOM     72  S   UNL A   1      42.613  27.714  25.589  1.00  0.00     0.127 S 
ATOM     73  O   UNL A   1      42.364  26.529  24.770  1.00  0.00    -0.237 OA
ATOM     74  O   UNL A   1      42.012  28.947  25.079  1.00  0.00    -0.237 OA
ATOM     75  O   UNL A   1      43.976  27.858  26.079  1.00  0.00    -0.744 OA
ENDBRANCH  69  72
ENDBRANCH  51  65
BRANCH  52  76
ATOM     76  C   UNL A   1      40.075  34.125  36.985  1.00  0.00     0.023 A 
ATOM     77  C   UNL A   1      40.498  35.450  36.775  1.00  0.00     0.012 A 
ATOM     78  C   UNL A   1      39.503  33.766  38.220  1.00  0.00     0.148 A 
ATOM     79  C   UNL A   1      40.350  36.407  37.780  1.00  0.00     0.002 A 
ATOM     80  C   UNL A   1      39.316  34.733  39.199  1.00  0.00     0.091 A 
ATOM     81  F   UNL A   1      39.127  32.492  38.399  1.00  0.00    -0.205 F 
ATOM     82  C   UNL A   1      39.747  36.053  38.985  1.00  0.00     0.022 A 
BRANCH  80  83
ATOM     83  S   UNL A   1      38.433  34.395  40.725  1.00  0.00     0.127 S 
ATOM     84  O   UNL A   1      39.426  33.638  41.483  1.00  0.00    -0.237 OA
ATOM     85  O   UNL A   1      38.168  35.743  41.229  1.00  0.00    -0.237 OA
ATOM     86  O   UNL A   1      37.240  33.659  40.330  1.00  0.00    -0.744 OA
ENDBRANCH  80  83
ENDBRANCH  52  76
BRANCH  64  87
ATOM     87  C   UNL A   1      44.293  28.778  35.446  1.00  0.00     0.023 A 
ATOM     88  C   UNL A   1      45.613  29.235  35.259  1.00  0.00     0.012 A 
ATOM     89  C   UNL A   1      44.032  27.768  36.390  1.00  0.00     0.148 A 
ATOM     90  C   UNL A   1      46.660  28.687  35.997  1.00  0.00     0.002 A 
ATOM     91  C   UNL A   1      45.078  27.245  37.141  1.00  0.00     0.091 A 
ATOM     92  F   UNL A   1      42.771  27.336  36.534  1.00  0.00    -0.205 F 
ATOM     93  C   UNL A   1      46.393  27.701  36.944  1.00  0.00     0.022 A 
BRANCH  91  94
ATOM     94  S   UNL A   1      44.806  26.020  38.426  1.00  0.00     0.127 S 
ATOM     95  O   UNL A   1      46.162  25.810  38.930  1.00  0.00    -0.237 OA
ATOM     96  O   UNL A   1      43.914  26.723  39.350  1.00  0.00    -0.237 OA
ATOM     97  O   UNL A   1      44.195  24.879  37.758  1.00  0.00    -0.744 OA
ENDBRANCH  91  94
ENDBRANCH  64  87
ENDBRANCH  38  39
ENDBRANCH  30  33
ENDBRANCH  28  29
ENDBRANCH  27  28
ENDBRANCH   1  27
TORSDOF 18
ENDMDL
