MODEL 1
REMARK VINA RESULT:      -8.5      0.000      0.000
REMARK SMILES Cc1c(CC(=O)N[C@@H](CCO)C(=O)NCCCCNC(=O)c2ccc(-c3c4nc(c(-c5cccc(S(=O)(=O)[O-])c5F)c5ccc([nH]5)c(-c5cccc(S(=O)(=O)[O-])c5F)c5nc(c(-c6cccc(S(=O)(=O)[O-])c6F)c6ccc3[nH]6)C=C5)C=C4)cc2)cc(-c2ccc(S(C)(=O)=O)cc2)n1-c1ccc(F)cc1
REMARK SMILES IDX 15 1 14 2 12 3 13 4 8 6 7 7 5 8 6 9 4 11 3 12 1 13 2 14
REMARK SMILES IDX 97 15 85 16 86 17 98 18 99 19 104 20 100 21 103 22 101 23
REMARK SMILES IDX 102 24 87 25 88 26 96 27 89 28 95 29 90 30 91 31 92 32 93 33
REMARK SMILES IDX 94 34 9 35 10 36 11 37 16 39 17 40 18 41 19 42 20 43 21 45
REMARK SMILES IDX 22 46 23 47 84 48 24 49 83 50 25 51 26 52 27 53 77 54 28 55
REMARK SMILES IDX 82 56 76 57 78 58 29 59 81 60 75 61 74 62 30 64 62 65 42 66
REMARK SMILES IDX 61 67 43 68 46 69 60 70 79 71 44 72 45 73 59 75 80 76 47 77
REMARK SMILES IDX 31 78 32 79 40 80 33 81 35 82 41 83 34 84 36 85 37 86 38 87
REMARK SMILES IDX 39 88 63 89 64 90 72 91 65 92 67 93 73 94 66 95 68 96 69 97
REMARK SMILES IDX 70 98 71 99 48 100 49 101 57 102 50 103 52 104 58 105 51 106
REMARK SMILES IDX 53 107 54 108 55 109 56 110
REMARK H PARENT 14 5 7 10 11 38 19 44 78 63 46 74
REMARK Flexibility Score: inf
ROOT
ATOM      1  C   UNL A   1      37.245  34.209  30.691  1.00  0.00     0.116 C 
ENDROOT
BRANCH   1   2
ATOM      2  N   UNL A   1      36.201  33.428  31.334  1.00  0.00    -0.354 N 
ATOM      3  C   UNL A   1      36.173  32.669  32.456  1.00  0.00     0.242 C 
ATOM      4  O   UNL A   1      35.059  32.350  32.881  1.00  0.00    -0.273 OA
ATOM      5  H   UNL A   1      35.339  33.454  30.856  1.00  0.00     0.163 HD
BRANCH   3   6
ATOM      6  C   UNL A   1      37.428  32.272  33.243  1.00  0.00     0.173 C 
BRANCH   6   7
ATOM      7  N   UNL A   1      37.178  32.220  34.685  1.00  0.00    -0.344 N 
ATOM      8  C   UNL A   1      37.560  33.125  35.637  1.00  0.00     0.225 C 
ATOM      9  O   UNL A   1      37.062  33.027  36.762  1.00  0.00    -0.275 OA
ATOM     10  H   UNL A   1      36.673  31.438  35.008  1.00  0.00     0.164 HD
BRANCH   8  11
ATOM     11  C   UNL A   1      38.574  34.217  35.313  1.00  0.00     0.137 C 
BRANCH  11  12
ATOM     12  C   UNL A   1      39.973  33.824  35.686  1.00  0.00    -0.017 A 
ATOM     13  C   UNL A   1      40.632  35.831  37.176  1.00  0.00     0.065 C 
ATOM     14  C   UNL A   1      40.835  34.487  36.551  1.00  0.00     0.024 A 
ATOM     15  N   UNL A   1      41.978  33.711  36.706  1.00  0.00    -0.314 N 
ATOM     16  C   UNL A   1      40.661  32.673  35.225  1.00  0.00     0.033 A 
ATOM     17  C   UNL A   1      41.876  32.589  35.881  1.00  0.00     0.053 A 
BRANCH  15  18
ATOM     18  C   UNL A   1      43.070  33.997  37.566  1.00  0.00     0.046 A 
ATOM     19  C   UNL A   1      43.036  33.550  38.893  1.00  0.00     0.029 A 
ATOM     20  C   UNL A   1      44.138  34.775  37.098  1.00  0.00     0.029 A 
ATOM     21  C   UNL A   1      44.081  33.875  39.754  1.00  0.00     0.041 A 
ATOM     22  C   UNL A   1      45.172  35.110  37.973  1.00  0.00     0.041 A 
ATOM     23  C   UNL A   1      45.135  34.656  39.288  1.00  0.00     0.123 A 
ATOM     24  F   UNL A   1      46.130  34.979  40.124  1.00  0.00    -0.207 F 
ENDBRANCH  15  18
BRANCH  17  25
ATOM     25  C   UNL A   1      42.842  31.484  35.818  1.00  0.00    -0.001 A 
ATOM     26  C   UNL A   1      42.656  30.306  36.559  1.00  0.00     0.011 A 
ATOM     27  C   UNL A   1      43.970  31.601  34.995  1.00  0.00     0.011 A 
ATOM     28  C   UNL A   1      43.611  29.286  36.526  1.00  0.00     0.021 A 
ATOM     29  C   UNL A   1      44.927  30.585  34.956  1.00  0.00     0.021 A 
ATOM     30  C   UNL A   1      44.754  29.443  35.739  1.00  0.00     0.067 A 
BRANCH  30  31
ATOM     31  S   UNL A   1      45.990  28.166  35.718  1.00  0.00     0.175 S 
ATOM     32  C   UNL A   1      46.774  28.351  34.138  1.00  0.00     0.163 C 
ATOM     33  O   UNL A   1      46.964  28.495  36.746  1.00  0.00    -0.224 OA
ATOM     34  O   UNL A   1      45.310  26.890  35.710  1.00  0.00    -0.224 OA
ENDBRANCH  30  31
ENDBRANCH  17  25
ENDBRANCH  11  12
ENDBRANCH   8  11
ENDBRANCH   6   7
BRANCH   6  35
ATOM     35  C   UNL A   1      38.251  31.098  32.686  1.00  0.00     0.063 C 
BRANCH  35  36
ATOM     36  C   UNL A   1      38.314  29.796  33.466  1.00  0.00     0.158 C 
BRANCH  36  37
ATOM     37  O   UNL A   1      37.096  29.074  33.446  1.00  0.00    -0.396 OA
ATOM     38  H   UNL A   1      36.720  29.100  32.552  1.00  0.00     0.210 HD
ENDBRANCH  36  37
ENDBRANCH  35  36
ENDBRANCH   6  35
ENDBRANCH   3   6
ENDBRANCH   1   2
BRANCH   1  39
ATOM     39  C   UNL A   1      37.714  33.612  29.371  1.00  0.00     0.023 C 
BRANCH  39  40
ATOM     40  C   UNL A   1      36.629  33.350  28.313  1.00  0.00     0.023 C 
BRANCH  40  41
ATOM     41  C   UNL A   1      35.171  33.190  28.777  1.00  0.00     0.116 C 
BRANCH  41  42
ATOM     42  N   UNL A   1      34.408  32.200  28.061  1.00  0.00    -0.352 N 
ATOM     43  C   UNL A   1      34.752  30.866  27.886  1.00  0.00     0.251 C 
ATOM     44  H   UNL A   1      33.561  32.498  27.658  1.00  0.00     0.163 HD
ATOM     45  O   UNL A   1      33.972  30.155  27.258  1.00  0.00    -0.269 OA
BRANCH  43  46
ATOM     46  C   UNL A   1      36.095  30.355  28.354  1.00  0.00     0.039 A 
ATOM     47  C   UNL A   1      37.161  30.412  27.470  1.00  0.00     0.014 A 
ATOM     48  C   UNL A   1      36.320  29.700  29.577  1.00  0.00     0.014 A 
ATOM     49  C   UNL A   1      38.430  29.879  27.832  1.00  0.00     0.010 A 
ATOM     50  C   UNL A   1      37.595  29.078  29.903  1.00  0.00     0.010 A 
ATOM     51  C   UNL A   1      38.704  29.132  29.037  1.00  0.00    -0.014 A 
BRANCH  51  52
ATOM     52  C   UNL A   1      39.884  28.049  28.916  1.00  0.00     0.031 A 
ATOM     53  C   UNL A   1      40.560  28.199  30.237  1.00  0.00     0.074 A 
ATOM     54  C   UNL A   1      40.517  27.175  28.029  1.00  0.00     0.049 A 
ATOM     55  N   UNL A   1      40.951  29.383  30.629  1.00  0.00    -0.248 NA
ATOM     56  C   UNL A   1      40.433  27.225  31.323  1.00  0.00     0.031 C 
ATOM     57  C   UNL A   1      40.282  27.020  26.584  1.00  0.00     0.029 A 
ATOM     58  N   UNL A   1      41.543  26.187  28.205  1.00  0.00    -0.354 N 
ATOM     59  C   UNL A   1      41.487  29.216  31.871  1.00  0.00     0.074 A 
ATOM     60  C   UNL A   1      40.873  27.979  32.340  1.00  0.00     0.031 C 
ATOM     61  C   UNL A   1      40.962  25.951  26.068  1.00  0.00     0.029 A 
ATOM     62  C   UNL A   1      41.778  25.296  27.091  1.00  0.00     0.049 A 
ATOM     63  H   UNL A   1      42.061  26.121  29.040  1.00  0.00     0.167 HD
ATOM     64  C   UNL A   1      42.789  29.609  31.980  1.00  0.00     0.034 A 
ATOM     65  C   UNL A   1      42.607  24.181  26.958  1.00  0.00     0.034 A 
ATOM     66  C   UNL A   1      43.693  28.491  31.984  1.00  0.00     0.049 A 
ATOM     67  C   UNL A   1      43.693  24.394  27.922  1.00  0.00     0.074 A 
ATOM     68  C   UNL A   1      43.649  27.251  32.593  1.00  0.00     0.029 A 
ATOM     69  N   UNL A   1      44.549  28.379  30.909  1.00  0.00    -0.354 N 
ATOM     70  N   UNL A   1      44.682  25.199  27.669  1.00  0.00    -0.248 NA
ATOM     71  C   UNL A   1      43.811  23.613  29.149  1.00  0.00     0.031 C 
ATOM     72  C   UNL A   1      44.024  26.346  31.579  1.00  0.00     0.029 A 
ATOM     73  C   UNL A   1      44.693  27.044  30.585  1.00  0.00     0.049 A 
ATOM     74  H   UNL A   1      44.987  29.130  30.448  1.00  0.00     0.167 HD
ATOM     75  C   UNL A   1      45.204  25.418  28.906  1.00  0.00     0.074 A 
ATOM     76  C   UNL A   1      44.851  24.249  29.690  1.00  0.00     0.031 C 
ATOM     77  C   UNL A   1      45.268  26.710  29.307  1.00  0.00     0.034 A 
BRANCH  64  78
ATOM     78  C   UNL A   1      43.097  30.966  31.388  1.00  0.00     0.023 A 
ATOM     79  C   UNL A   1      44.154  31.028  30.465  1.00  0.00     0.012 A 
ATOM     80  C   UNL A   1      42.497  32.179  31.816  1.00  0.00     0.148 A 
ATOM     81  C   UNL A   1      44.642  32.262  30.027  1.00  0.00     0.002 A 
ATOM     82  C   UNL A   1      43.058  33.401  31.465  1.00  0.00     0.091 A 
ATOM     83  F   UNL A   1      41.369  32.131  32.543  1.00  0.00    -0.205 F 
ATOM     84  C   UNL A   1      44.124  33.444  30.557  1.00  0.00     0.022 A 
BRANCH  82  85
ATOM     85  S   UNL A   1      42.605  34.938  32.294  1.00  0.00     0.127 S 
ATOM     86  O   UNL A   1      43.275  34.806  33.591  1.00  0.00    -0.237 OA
ATOM     87  O   UNL A   1      43.180  35.957  31.423  1.00  0.00    -0.237 OA
ATOM     88  O   UNL A   1      41.149  34.937  32.391  1.00  0.00    -0.744 OA
ENDBRANCH  82  85
ENDBRANCH  64  78
BRANCH  65  89
ATOM     89  C   UNL A   1      42.989  22.932  26.093  1.00  0.00     0.023 A 
ATOM     90  C   UNL A   1      44.283  22.915  25.453  1.00  0.00     0.012 A 
ATOM     91  C   UNL A   1      42.402  21.657  26.250  1.00  0.00     0.148 A 
ATOM     92  C   UNL A   1      44.993  21.744  25.126  1.00  0.00     0.002 A 
ATOM     93  C   UNL A   1      43.108  20.477  25.887  1.00  0.00     0.091 A 
ATOM     94  F   UNL A   1      41.207  21.582  26.849  1.00  0.00    -0.205 F 
ATOM     95  C   UNL A   1      44.409  20.520  25.358  1.00  0.00     0.022 A 
BRANCH  93  96
ATOM     96  S   UNL A   1      42.472  18.806  26.154  1.00  0.00     0.127 S 
ATOM     97  O   UNL A   1      42.529  18.670  27.612  1.00  0.00    -0.237 OA
ATOM     98  O   UNL A   1      41.118  18.909  25.612  1.00  0.00    -0.237 OA
ATOM     99  O   UNL A   1      43.380  17.929  25.431  1.00  0.00    -0.744 OA
ENDBRANCH  93  96
ENDBRANCH  65  89
BRANCH  77 100
ATOM    100  C   UNL A   1      45.779  27.725  28.313  1.00  0.00     0.023 A 
ATOM    101  C   UNL A   1      44.976  28.549  27.494  1.00  0.00     0.012 A 
ATOM    102  C   UNL A   1      47.172  27.825  28.180  1.00  0.00     0.148 A 
ATOM    103  C   UNL A   1      45.550  29.422  26.561  1.00  0.00     0.002 A 
ATOM    104  C   UNL A   1      47.743  28.721  27.288  1.00  0.00     0.091 A 
ATOM    105  F   UNL A   1      47.930  27.009  28.930  1.00  0.00    -0.205 F 
ATOM    106  C   UNL A   1      46.937  29.520  26.468  1.00  0.00     0.022 A 
BRANCH 104 107
ATOM    107  S   UNL A   1      49.525  28.872  27.180  1.00  0.00     0.127 S 
ATOM    108  O   UNL A   1      49.905  27.561  26.655  1.00  0.00    -0.237 OA
ATOM    109  O   UNL A   1      49.713  29.980  26.248  1.00  0.00    -0.237 OA
ATOM    110  O   UNL A   1      49.972  29.150  28.541  1.00  0.00    -0.744 OA
ENDBRANCH 104 107
ENDBRANCH  77 100
ENDBRANCH  51  52
ENDBRANCH  43  46
ENDBRANCH  41  42
ENDBRANCH  40  41
ENDBRANCH  39  40
ENDBRANCH   1  39
TORSDOF 23
ENDMDL
MODEL 2
REMARK VINA RESULT:      -8.4      2.630      4.306
REMARK SMILES Cc1c(CC(=O)N[C@@H](CCO)C(=O)NCCCCNC(=O)c2ccc(-c3c4nc(c(-c5cccc(S(=O)(=O)[O-])c5F)c5ccc([nH]5)c(-c5cccc(S(=O)(=O)[O-])c5F)c5nc(c(-c6cccc(S(=O)(=O)[O-])c6F)c6ccc3[nH]6)C=C5)C=C4)cc2)cc(-c2ccc(S(C)(=O)=O)cc2)n1-c1ccc(F)cc1
REMARK SMILES IDX 15 1 14 2 12 3 13 4 8 6 7 7 5 8 6 9 4 11 3 12 1 13 2 14
REMARK SMILES IDX 97 15 85 16 86 17 98 18 99 19 104 20 100 21 103 22 101 23
REMARK SMILES IDX 102 24 87 25 88 26 96 27 89 28 95 29 90 30 91 31 92 32 93 33
REMARK SMILES IDX 94 34 9 35 10 36 11 37 16 39 17 40 18 41 19 42 20 43 21 45
REMARK SMILES IDX 22 46 23 47 84 48 24 49 83 50 25 51 26 52 27 53 77 54 28 55
REMARK SMILES IDX 82 56 76 57 78 58 29 59 81 60 75 61 74 62 30 64 62 65 42 66
REMARK SMILES IDX 61 67 43 68 46 69 60 70 79 71 44 72 45 73 59 75 80 76 47 77
REMARK SMILES IDX 31 78 32 79 40 80 33 81 35 82 41 83 34 84 36 85 37 86 38 87
REMARK SMILES IDX 39 88 63 89 64 90 72 91 65 92 67 93 73 94 66 95 68 96 69 97
REMARK SMILES IDX 70 98 71 99 48 100 49 101 57 102 50 103 52 104 58 105 51 106
REMARK SMILES IDX 53 107 54 108 55 109 56 110
REMARK H PARENT 14 5 7 10 11 38 19 44 78 63 46 74
REMARK Flexibility Score: inf
ROOT
ATOM      1  C   UNL A   1      32.898  34.871  28.767  1.00  0.00     0.116 C 
ENDROOT
BRANCH   1   2
ATOM      2  N   UNL A   1      32.684  36.208  29.295  1.00  0.00    -0.354 N 
ATOM      3  C   UNL A   1      32.965  36.786  30.488  1.00  0.00     0.242 C 
ATOM      4  O   UNL A   1      32.902  38.018  30.534  1.00  0.00    -0.273 OA
ATOM      5  H   UNL A   1      32.247  36.818  28.656  1.00  0.00     0.163 HD
BRANCH   3   6
ATOM      6  C   UNL A   1      33.423  36.001  31.724  1.00  0.00     0.173 C 
BRANCH   6   7
ATOM      7  N   UNL A   1      34.856  36.166  31.977  1.00  0.00    -0.344 N 
ATOM      8  C   UNL A   1      35.709  35.281  32.578  1.00  0.00     0.225 C 
ATOM      9  O   UNL A   1      36.921  35.500  32.497  1.00  0.00    -0.275 OA
ATOM     10  H   UNL A   1      35.253  37.016  31.680  1.00  0.00     0.164 HD
BRANCH   8  11
ATOM     11  C   UNL A   1      35.172  34.066  33.327  1.00  0.00     0.137 C 
BRANCH  11  12
ATOM     12  C   UNL A   1      36.188  33.478  34.261  1.00  0.00    -0.017 A 
ATOM     13  C   UNL A   1      37.600  32.096  32.595  1.00  0.00     0.065 C 
ATOM     14  C   UNL A   1      37.280  32.685  33.932  1.00  0.00     0.024 A 
ATOM     15  N   UNL A   1      38.025  32.469  35.087  1.00  0.00    -0.314 N 
ATOM     16  C   UNL A   1      36.217  33.652  35.669  1.00  0.00     0.033 A 
ATOM     17  C   UNL A   1      37.365  33.062  36.165  1.00  0.00     0.053 A 
BRANCH  15  18
ATOM     18  C   UNL A   1      39.258  31.771  35.165  1.00  0.00     0.046 A 
ATOM     19  C   UNL A   1      39.260  30.414  35.509  1.00  0.00     0.029 A 
ATOM     20  C   UNL A   1      40.461  32.460  34.957  1.00  0.00     0.029 A 
ATOM     21  C   UNL A   1      40.472  29.740  35.638  1.00  0.00     0.041 A 
ATOM     22  C   UNL A   1      41.670  31.781  35.106  1.00  0.00     0.041 A 
ATOM     23  C   UNL A   1      41.664  30.431  35.441  1.00  0.00     0.123 A 
ATOM     24  F   UNL A   1      42.828  29.782  35.581  1.00  0.00    -0.207 F 
ENDBRANCH  15  18
BRANCH  17  25
ATOM     25  C   UNL A   1      37.869  33.126  37.543  1.00  0.00    -0.001 A 
ATOM     26  C   UNL A   1      38.817  34.086  37.932  1.00  0.00     0.011 A 
ATOM     27  C   UNL A   1      37.389  32.218  38.496  1.00  0.00     0.011 A 
ATOM     28  C   UNL A   1      39.322  34.101  39.235  1.00  0.00     0.021 A 
ATOM     29  C   UNL A   1      37.889  32.227  39.800  1.00  0.00     0.021 A 
ATOM     30  C   UNL A   1      38.869  33.154  40.156  1.00  0.00     0.067 A 
BRANCH  30  31
ATOM     31  S   UNL A   1      39.532  33.143  41.805  1.00  0.00     0.175 S 
ATOM     32  C   UNL A   1      38.098  33.197  42.847  1.00  0.00     0.163 C 
ATOM     33  O   UNL A   1      40.181  31.856  41.998  1.00  0.00    -0.224 OA
ATOM     34  O   UNL A   1      40.250  34.382  42.004  1.00  0.00    -0.224 OA
ENDBRANCH  30  31
ENDBRANCH  17  25
ENDBRANCH  11  12
ENDBRANCH   8  11
ENDBRANCH   6   7
BRANCH   6  35
ATOM     35  C   UNL A   1      32.530  36.095  32.972  1.00  0.00     0.063 C 
BRANCH  35  36
ATOM     36  C   UNL A   1      31.106  35.571  32.912  1.00  0.00     0.158 C 
BRANCH  36  37
ATOM     37  O   UNL A   1      30.157  36.467  33.460  1.00  0.00    -0.396 OA
ATOM     38  H   UNL A   1      29.374  36.497  32.889  1.00  0.00     0.210 HD
ENDBRANCH  36  37
ENDBRANCH  35  36
ENDBRANCH   6  35
ENDBRANCH   3   6
ENDBRANCH   1   2
BRANCH   1  39
ATOM     39  C   UNL A   1      34.245  34.706  28.076  1.00  0.00     0.023 C 
BRANCH  39  40
ATOM     40  C   UNL A   1      35.446  34.390  28.983  1.00  0.00     0.023 C 
BRANCH  40  41
ATOM     41  C   UNL A   1      36.063  32.982  28.926  1.00  0.00     0.116 C 
BRANCH  41  42
ATOM     42  N   UNL A   1      35.214  31.966  28.361  1.00  0.00    -0.352 N 
ATOM     43  C   UNL A   1      35.564  30.644  28.119  1.00  0.00     0.251 C 
ATOM     44  H   UNL A   1      34.298  32.235  28.122  1.00  0.00     0.163 HD
ATOM     45  O   UNL A   1      34.705  29.905  27.643  1.00  0.00    -0.269 OA
BRANCH  43  46
ATOM     46  C   UNL A   1      36.986  30.179  28.328  1.00  0.00     0.039 A 
ATOM     47  C   UNL A   1      37.764  29.925  27.209  1.00  0.00     0.014 A 
ATOM     48  C   UNL A   1      37.546  29.852  29.575  1.00  0.00     0.014 A 
ATOM     49  C   UNL A   1      39.085  29.416  27.346  1.00  0.00     0.010 A 
ATOM     50  C   UNL A   1      38.864  29.248  29.703  1.00  0.00     0.010 A 
ATOM     51  C   UNL A   1      39.687  28.993  28.589  1.00  0.00    -0.014 A 
BRANCH  51  52
ATOM     52  C   UNL A   1      40.792  27.835  28.453  1.00  0.00     0.031 A 
ATOM     53  C   UNL A   1      41.617  28.068  29.675  1.00  0.00     0.074 A 
ATOM     54  C   UNL A   1      41.279  26.846  27.597  1.00  0.00     0.049 A 
ATOM     55  N   UNL A   1      42.107  29.257  29.903  1.00  0.00    -0.248 NA
ATOM     56  C   UNL A   1      41.562  27.210  30.860  1.00  0.00     0.031 C 
ATOM     57  C   UNL A   1      40.878  26.570  26.207  1.00  0.00     0.029 A 
ATOM     58  N   UNL A   1      42.268  25.819  27.762  1.00  0.00    -0.354 N 
ATOM     59  C   UNL A   1      42.767  29.176  31.092  1.00  0.00     0.074 A 
ATOM     60  C   UNL A   1      42.148  28.028  31.744  1.00  0.00     0.031 C 
ATOM     61  C   UNL A   1      41.443  25.418  25.732  1.00  0.00     0.029 A 
ATOM     62  C   UNL A   1      42.334  24.814  26.723  1.00  0.00     0.049 A 
ATOM     63  H   UNL A   1      42.871  25.800  28.540  1.00  0.00     0.167 HD
ATOM     64  C   UNL A   1      44.091  29.499  31.024  1.00  0.00     0.034 A 
ATOM     65  C   UNL A   1      43.088  23.644  26.616  1.00  0.00     0.034 A 
ATOM     66  C   UNL A   1      44.933  28.334  31.045  1.00  0.00     0.049 A 
ATOM     67  C   UNL A   1      44.282  23.881  27.435  1.00  0.00     0.074 A 
ATOM     68  C   UNL A   1      44.896  27.162  31.775  1.00  0.00     0.029 A 
ATOM     69  N   UNL A   1      45.659  28.071  29.903  1.00  0.00    -0.354 N 
ATOM     70  N   UNL A   1      45.276  24.598  27.000  1.00  0.00    -0.248 NA
ATOM     71  C   UNL A   1      44.496  23.213  28.714  1.00  0.00     0.031 C 
ATOM     72  C   UNL A   1      45.112  26.145  30.823  1.00  0.00     0.029 A 
ATOM     73  C   UNL A   1      45.700  26.705  29.700  1.00  0.00     0.049 A 
ATOM     74  H   UNL A   1      46.080  28.747  29.325  1.00  0.00     0.167 HD
ATOM     75  C   UNL A   1      45.942  24.901  28.147  1.00  0.00     0.074 A 
ATOM     76  C   UNL A   1      45.619  23.833  29.076  1.00  0.00     0.031 C 
ATOM     77  C   UNL A   1      46.113  26.218  28.408  1.00  0.00     0.034 A 
BRANCH  64  78
ATOM     78  C   UNL A   1      44.399  30.773  30.270  1.00  0.00     0.023 A 
ATOM     79  C   UNL A   1      44.748  30.639  28.916  1.00  0.00     0.012 A 
ATOM     80  C   UNL A   1      44.505  32.053  30.875  1.00  0.00     0.148 A 
ATOM     81  C   UNL A   1      45.247  31.730  28.200  1.00  0.00     0.002 A 
ATOM     82  C   UNL A   1      45.105  33.104  30.191  1.00  0.00     0.091 A 
ATOM     83  F   UNL A   1      43.997  32.242  32.104  1.00  0.00    -0.205 F 
ATOM     84  C   UNL A   1      45.464  32.947  28.846  1.00  0.00     0.022 A 
BRANCH  82  85
ATOM     85  S   UNL A   1      45.637  34.612  31.027  1.00  0.00     0.127 S 
ATOM     86  O   UNL A   1      44.364  35.212  31.435  1.00  0.00    -0.237 OA
ATOM     87  O   UNL A   1      46.443  34.104  32.131  1.00  0.00    -0.237 OA
ATOM     88  O   UNL A   1      46.356  35.399  30.030  1.00  0.00    -0.744 OA
ENDBRANCH  82  85
ENDBRANCH  64  78
BRANCH  65  89
ATOM     89  C   UNL A   1      43.309  22.299  25.845  1.00  0.00     0.023 A 
ATOM     90  C   UNL A   1      44.384  22.233  24.883  1.00  0.00     0.012 A 
ATOM     91  C   UNL A   1      42.873  21.040  26.317  1.00  0.00     0.148 A 
ATOM     92  C   UNL A   1      45.059  21.050  24.525  1.00  0.00     0.002 A 
ATOM     93  C   UNL A   1      43.535  19.844  25.926  1.00  0.00     0.091 A 
ATOM     94  F   UNL A   1      41.889  21.013  27.223  1.00  0.00    -0.205 F 
ATOM     95  C   UNL A   1      44.643  19.853  25.061  1.00  0.00     0.022 A 
BRANCH  93  96
ATOM     96  S   UNL A   1      43.109  18.208  26.566  1.00  0.00     0.127 S 
ATOM     97  O   UNL A   1      44.390  17.499  26.513  1.00  0.00    -0.237 OA
ATOM     98  O   UNL A   1      42.651  18.523  27.918  1.00  0.00    -0.237 OA
ATOM     99  O   UNL A   1      42.096  17.692  25.657  1.00  0.00    -0.744 OA
ENDBRANCH  93  96
ENDBRANCH  65  89
BRANCH  77 100
ATOM    100  C   UNL A   1      46.561  27.103  27.269  1.00  0.00     0.023 A 
ATOM    101  C   UNL A   1      45.749  28.034  26.584  1.00  0.00     0.012 A 
ATOM    102  C   UNL A   1      47.890  26.954  26.847  1.00  0.00     0.148 A 
ATOM    103  C   UNL A   1      46.247  28.769  25.501  1.00  0.00     0.002 A 
ATOM    104  C   UNL A   1      48.398  27.714  25.802  1.00  0.00     0.091 A 
ATOM    105  F   UNL A   1      48.645  26.038  27.473  1.00  0.00    -0.205 F 
ATOM    106  C   UNL A   1      47.579  28.621  25.119  1.00  0.00     0.022 A 
BRANCH 104 107
ATOM    107  S   UNL A   1      50.115  27.548  25.320  1.00  0.00     0.127 S 
ATOM    108  O   UNL A   1      50.160  28.343  24.094  1.00  0.00    -0.237 OA
ATOM    109  O   UNL A   1      50.839  28.126  26.448  1.00  0.00    -0.237 OA
ATOM    110  O   UNL A   1      50.329  26.115  25.141  1.00  0.00    -0.744 OA
ENDBRANCH 104 107
ENDBRANCH  77 100
ENDBRANCH  51  52
ENDBRANCH  43  46
ENDBRANCH  41  42
ENDBRANCH  40  41
ENDBRANCH  39  40
ENDBRANCH   1  39
TORSDOF 23
ENDMDL
MODEL 3
REMARK VINA RESULT:      -8.1      3.129      4.939
REMARK SMILES Cc1c(CC(=O)N[C@@H](CCO)C(=O)NCCCCNC(=O)c2ccc(-c3c4nc(c(-c5cccc(S(=O)(=O)[O-])c5F)c5ccc([nH]5)c(-c5cccc(S(=O)(=O)[O-])c5F)c5nc(c(-c6cccc(S(=O)(=O)[O-])c6F)c6ccc3[nH]6)C=C5)C=C4)cc2)cc(-c2ccc(S(C)(=O)=O)cc2)n1-c1ccc(F)cc1
REMARK SMILES IDX 15 1 14 2 12 3 13 4 8 6 7 7 5 8 6 9 4 11 3 12 1 13 2 14
REMARK SMILES IDX 97 15 85 16 86 17 98 18 99 19 104 20 100 21 103 22 101 23
REMARK SMILES IDX 102 24 87 25 88 26 96 27 89 28 95 29 90 30 91 31 92 32 93 33
REMARK SMILES IDX 94 34 9 35 10 36 11 37 16 39 17 40 18 41 19 42 20 43 21 45
REMARK SMILES IDX 22 46 23 47 84 48 24 49 83 50 25 51 26 52 27 53 77 54 28 55
REMARK SMILES IDX 82 56 76 57 78 58 29 59 81 60 75 61 74 62 30 64 62 65 42 66
REMARK SMILES IDX 61 67 43 68 46 69 60 70 79 71 44 72 45 73 59 75 80 76 47 77
REMARK SMILES IDX 31 78 32 79 40 80 33 81 35 82 41 83 34 84 36 85 37 86 38 87
REMARK SMILES IDX 39 88 63 89 64 90 72 91 65 92 67 93 73 94 66 95 68 96 69 97
REMARK SMILES IDX 70 98 71 99 48 100 49 101 57 102 50 103 52 104 58 105 51 106
REMARK SMILES IDX 53 107 54 108 55 109 56 110
REMARK H PARENT 14 5 7 10 11 38 19 44 78 63 46 74
REMARK Flexibility Score: inf
ROOT
ATOM      1  C   UNL A   1      34.421  33.157  29.159  1.00  0.00     0.116 C 
ENDROOT
BRANCH   1   2
ATOM      2  N   UNL A   1      33.690  34.405  29.303  1.00  0.00    -0.354 N 
ATOM      3  C   UNL A   1      33.500  35.251  30.345  1.00  0.00     0.242 C 
ATOM      4  O   UNL A   1      33.049  36.368  30.076  1.00  0.00    -0.273 OA
ATOM      5  H   UNL A   1      33.239  34.694  28.475  1.00  0.00     0.163 HD
BRANCH   3   6
ATOM      6  C   UNL A   1      33.890  34.916  31.790  1.00  0.00     0.173 C 
BRANCH   6   7
ATOM      7  N   UNL A   1      34.450  33.567  31.908  1.00  0.00    -0.344 N 
ATOM      8  C   UNL A   1      35.293  33.090  32.875  1.00  0.00     0.225 C 
ATOM      9  O   UNL A   1      35.474  31.871  32.934  1.00  0.00    -0.275 OA
ATOM     10  H   UNL A   1      34.189  32.928  31.207  1.00  0.00     0.164 HD
BRANCH   8  11
ATOM     11  C   UNL A   1      35.987  34.042  33.843  1.00  0.00     0.137 C 
BRANCH  11  12
ATOM     12  C   UNL A   1      37.477  33.870  33.841  1.00  0.00    -0.017 A 
ATOM     13  C   UNL A   1      37.726  31.996  35.604  1.00  0.00     0.065 C 
ATOM     14  C   UNL A   1      38.222  32.935  34.549  1.00  0.00     0.024 A 
ATOM     15  N   UNL A   1      39.551  33.048  34.156  1.00  0.00    -0.314 N 
ATOM     16  C   UNL A   1      38.399  34.639  33.084  1.00  0.00     0.033 A 
ATOM     17  C   UNL A   1      39.664  34.107  33.253  1.00  0.00     0.053 A 
BRANCH  15  18
ATOM     18  C   UNL A   1      40.620  32.222  34.587  1.00  0.00     0.046 A 
ATOM     19  C   UNL A   1      40.774  30.947  34.028  1.00  0.00     0.029 A 
ATOM     20  C   UNL A   1      41.472  32.665  35.609  1.00  0.00     0.029 A 
ATOM     21  C   UNL A   1      41.791  30.114  34.488  1.00  0.00     0.041 A 
ATOM     22  C   UNL A   1      42.477  31.816  36.075  1.00  0.00     0.041 A 
ATOM     23  C   UNL A   1      42.628  30.554  35.509  1.00  0.00     0.123 A 
ATOM     24  F   UNL A   1      43.595  29.743  35.959  1.00  0.00    -0.207 F 
ENDBRANCH  15  18
BRANCH  17  25
ATOM     25  C   UNL A   1      40.890  34.497  32.545  1.00  0.00    -0.001 A 
ATOM     26  C   UNL A   1      41.022  34.322  31.157  1.00  0.00     0.011 A 
ATOM     27  C   UNL A   1      41.950  35.066  33.263  1.00  0.00     0.011 A 
ATOM     28  C   UNL A   1      42.214  34.653  30.508  1.00  0.00     0.021 A 
ATOM     29  C   UNL A   1      43.145  35.399  32.621  1.00  0.00     0.021 A 
ATOM     30  C   UNL A   1      43.278  35.170  31.250  1.00  0.00     0.067 A 
BRANCH  30  31
ATOM     31  S   UNL A   1      44.810  35.561  30.438  1.00  0.00     0.175 S 
ATOM     32  C   UNL A   1      45.951  34.360  31.070  1.00  0.00     0.163 C 
ATOM     33  O   UNL A   1      44.622  35.302  29.020  1.00  0.00    -0.224 OA
ATOM     34  O   UNL A   1      45.246  36.855  30.912  1.00  0.00    -0.224 OA
ENDBRANCH  30  31
ENDBRANCH  17  25
ENDBRANCH  11  12
ENDBRANCH   8  11
ENDBRANCH   6   7
BRANCH   6  35
ATOM     35  C   UNL A   1      34.648  36.002  32.571  1.00  0.00     0.063 C 
BRANCH  35  36
ATOM     36  C   UNL A   1      33.870  37.126  33.232  1.00  0.00     0.158 C 
BRANCH  36  37
ATOM     37  O   UNL A   1      33.941  38.348  32.522  1.00  0.00    -0.396 OA
ATOM     38  H   UNL A   1      33.595  39.064  33.077  1.00  0.00     0.210 HD
ENDBRANCH  36  37
ENDBRANCH  35  36
ENDBRANCH   6  35
ENDBRANCH   3   6
ENDBRANCH   1   2
BRANCH   1  39
ATOM     39  C   UNL A   1      35.641  33.277  28.255  1.00  0.00     0.023 C 
BRANCH  39  40
ATOM     40  C   UNL A   1      36.846  34.042  28.828  1.00  0.00     0.023 C 
BRANCH  40  41
ATOM     41  C   UNL A   1      38.022  33.238  29.408  1.00  0.00     0.116 C 
BRANCH  41  42
ATOM     42  N   UNL A   1      37.689  32.383  30.517  1.00  0.00    -0.352 N 
ATOM     43  C   UNL A   1      38.417  31.283  30.955  1.00  0.00     0.251 C 
ATOM     44  H   UNL A   1      36.866  32.598  31.012  1.00  0.00     0.163 HD
ATOM     45  O   UNL A   1      37.993  30.673  31.933  1.00  0.00    -0.269 OA
BRANCH  43  46
ATOM     46  C   UNL A   1      39.617  30.801  30.175  1.00  0.00     0.039 A 
ATOM     47  C   UNL A   1      39.399  29.978  29.081  1.00  0.00     0.014 A 
ATOM     48  C   UNL A   1      40.955  31.013  30.550  1.00  0.00     0.014 A 
ATOM     49  C   UNL A   1      40.495  29.435  28.353  1.00  0.00     0.010 A 
ATOM     50  C   UNL A   1      42.068  30.383  29.856  1.00  0.00     0.010 A 
ATOM     51  C   UNL A   1      41.883  29.555  28.731  1.00  0.00    -0.014 A 
BRANCH  51  52
ATOM     52  C   UNL A   1      42.826  28.341  28.265  1.00  0.00     0.031 A 
ATOM     53  C   UNL A   1      44.090  28.651  28.995  1.00  0.00     0.074 A 
ATOM     54  C   UNL A   1      42.904  27.255  27.391  1.00  0.00     0.049 A 
ATOM     55  N   UNL A   1      44.631  29.833  28.871  1.00  0.00    -0.248 NA
ATOM     56  C   UNL A   1      44.541  27.911  30.175  1.00  0.00     0.031 C 
ATOM     57  C   UNL A   1      41.953  26.868  26.336  1.00  0.00     0.029 A 
ATOM     58  N   UNL A   1      43.869  26.205  27.231  1.00  0.00    -0.354 N 
ATOM     59  C   UNL A   1      45.733  29.834  29.673  1.00  0.00     0.074 A 
ATOM     60  C   UNL A   1      45.447  28.781  30.641  1.00  0.00     0.031 C 
ATOM     61  C   UNL A   1      42.263  25.653  25.790  1.00  0.00     0.029 A 
ATOM     62  C   UNL A   1      43.489  25.105  26.372  1.00  0.00     0.049 A 
ATOM     63  H   UNL A   1      44.745  26.232  27.681  1.00  0.00     0.167 HD
ATOM     64  C   UNL A   1      46.905  30.090  29.022  1.00  0.00     0.034 A 
ATOM     65  C   UNL A   1      44.125  23.897  26.080  1.00  0.00     0.034 A 
ATOM     66  C   UNL A   1      47.675  28.896  28.807  1.00  0.00     0.049 A 
ATOM     67  C   UNL A   1      45.554  24.157  26.290  1.00  0.00     0.074 A 
ATOM     68  C   UNL A   1      47.949  27.800  29.603  1.00  0.00     0.029 A 
ATOM     69  N   UNL A   1      47.849  28.494  27.500  1.00  0.00    -0.354 N 
ATOM     70  N   UNL A   1      46.271  24.784  25.406  1.00  0.00    -0.248 NA
ATOM     71  C   UNL A   1      46.288  23.603  27.423  1.00  0.00     0.031 C 
ATOM     72  C   UNL A   1      47.741  26.689  28.760  1.00  0.00     0.029 A 
ATOM     73  C   UNL A   1      47.800  27.114  27.442  1.00  0.00     0.049 A 
ATOM     74  H   UNL A   1      47.987  29.093  26.731  1.00  0.00     0.167 HD
ATOM     75  C   UNL A   1      47.361  25.163  26.129  1.00  0.00     0.074 A 
ATOM     76  C   UNL A   1      47.460  24.203  27.213  1.00  0.00     0.031 C 
ATOM     77  C   UNL A   1      47.627  26.490  26.154  1.00  0.00     0.034 A 
BRANCH  64  78
ATOM     78  C   UNL A   1      46.865  31.272  28.080  1.00  0.00     0.023 A 
ATOM     79  C   UNL A   1      47.740  32.335  28.361  1.00  0.00     0.012 A 
ATOM     80  C   UNL A   1      45.909  31.436  27.044  1.00  0.00     0.148 A 
ATOM     81  C   UNL A   1      47.627  33.547  27.675  1.00  0.00     0.002 A 
ATOM     82  C   UNL A   1      45.729  32.678  26.446  1.00  0.00     0.091 A 
ATOM     83  F   UNL A   1      45.198  30.373  26.633  1.00  0.00    -0.205 F 
ATOM     84  C   UNL A   1      46.600  33.732  26.751  1.00  0.00     0.022 A 
BRANCH  82  85
ATOM     85  S   UNL A   1      44.283  33.056  25.435  1.00  0.00     0.127 S 
ATOM     86  O   UNL A   1      44.834  33.038  24.077  1.00  0.00    -0.237 OA
ATOM     87  O   UNL A   1      43.382  31.948  25.732  1.00  0.00    -0.237 OA
ATOM     88  O   UNL A   1      43.823  34.375  25.857  1.00  0.00    -0.744 OA
ENDBRANCH  82  85
ENDBRANCH  64  78
BRANCH  65  89
ATOM     89  C   UNL A   1      43.999  22.477  25.432  1.00  0.00     0.023 A 
ATOM     90  C   UNL A   1      45.148  21.936  24.745  1.00  0.00     0.012 A 
ATOM     91  C   UNL A   1      43.055  21.508  25.838  1.00  0.00     0.148 A 
ATOM     92  C   UNL A   1      45.410  20.561  24.596  1.00  0.00     0.002 A 
ATOM     93  C   UNL A   1      43.307  20.121  25.656  1.00  0.00     0.091 A 
ATOM     94  F   UNL A   1      41.966  21.925  26.495  1.00  0.00    -0.205 F 
ATOM     95  C   UNL A   1      44.493  19.649  25.067  1.00  0.00     0.022 A 
BRANCH  93  96
ATOM     96  S   UNL A   1      42.202  18.816  26.242  1.00  0.00     0.127 S 
ATOM     97  O   UNL A   1      42.821  17.603  25.698  1.00  0.00    -0.237 OA
ATOM     98  O   UNL A   1      42.319  18.952  27.693  1.00  0.00    -0.237 OA
ATOM     99  O   UNL A   1      40.899  19.132  25.678  1.00  0.00    -0.744 OA
ENDBRANCH  93  96
ENDBRANCH  65  89
BRANCH  77 100
ATOM    100  C   UNL A   1      47.552  27.244  24.848  1.00  0.00     0.023 A 
ATOM    101  C   UNL A   1      46.408  27.900  24.343  1.00  0.00     0.012 A 
ATOM    102  C   UNL A   1      48.717  27.258  24.066  1.00  0.00     0.148 A 
ATOM    103  C   UNL A   1      46.427  28.525  23.090  1.00  0.00     0.002 A 
ATOM    104  C   UNL A   1      48.750  27.914  22.844  1.00  0.00     0.091 A 
ATOM    105  F   UNL A   1      49.788  26.597  24.531  1.00  0.00    -0.205 F 
ATOM    106  C   UNL A   1      47.604  28.546  22.345  1.00  0.00     0.022 A 
BRANCH 104 107
ATOM    107  S   UNL A   1      50.266  27.969  21.892  1.00  0.00     0.127 S 
ATOM    108  O   UNL A   1      51.106  28.837  22.715  1.00  0.00    -0.237 OA
ATOM    109  O   UNL A   1      50.689  26.572  21.851  1.00  0.00    -0.237 OA
ATOM    110  O   UNL A   1      49.887  28.519  20.594  1.00  0.00    -0.744 OA
ENDBRANCH 104 107
ENDBRANCH  77 100
ENDBRANCH  51  52
ENDBRANCH  43  46
ENDBRANCH  41  42
ENDBRANCH  40  41
ENDBRANCH  39  40
ENDBRANCH   1  39
TORSDOF 23
ENDMDL
