MODEL 1
REMARK VINA RESULT:     -11.0      0.000      0.000
REMARK SMILES CC(C)[C@H]([NH2+][C@H]1CCCS[C@H]1C)C(=O)NCCCCNC(=O)c1ccc(-c2c3nc(c(-c4cccc(S(=O)(=O)[O-])c4F)c4ccc([nH]4)c(-c4cccc(S(=O)(=O)[O-])c4F)c4nc(c(-c5cccc(S(=O)(=O)[O-])c5F)c5ccc2[nH]5)C=C4)C=C3)cc1
REMARK SMILES IDX 18 1 17 2 16 3 15 4 13 5 14 6 4 8 2 9 1 10 3 11 5 12 6 15
REMARK SMILES IDX 7 16 11 17 8 18 10 19 12 20 9 21 19 22 20 23 21 24 22 26
REMARK SMILES IDX 23 27 24 28 85 29 25 30 84 31 26 32 27 33 28 34 78 35 29 36
REMARK SMILES IDX 83 37 77 38 79 39 30 40 82 41 76 42 75 43 31 45 63 46 43 47
REMARK SMILES IDX 62 48 44 49 47 50 61 51 80 52 45 53 46 54 60 56 81 57 48 58
REMARK SMILES IDX 32 59 33 60 41 61 34 62 36 63 42 64 35 65 37 66 38 67 39 68
REMARK SMILES IDX 40 69 64 70 65 71 73 72 66 73 68 74 74 75 67 76 69 77 70 78
REMARK SMILES IDX 71 79 72 80 49 81 50 82 58 83 51 84 53 85 59 86 52 87 54 88
REMARK SMILES IDX 55 89 56 90 57 91
REMARK H PARENT 15 7 5 13 5 14 20 25 79 44 47 55
REMARK Flexibility Score: inf
ROOT
ATOM      1  C   UNL A   1      37.984  19.917  24.755  1.00  0.00     0.023 C 
ENDROOT
BRANCH   1   2
ATOM      2  C   UNL A   1      36.560  20.358  25.070  1.00  0.00     0.023 C 
BRANCH   2   3
ATOM      3  C   UNL A   1      36.410  21.799  25.572  1.00  0.00     0.116 C 
BRANCH   3   4
ATOM      4  N   UNL A   1      35.448  22.003  26.643  1.00  0.00    -0.351 N 
ATOM      5  C   UNL A   1      34.135  21.662  26.762  1.00  0.00     0.278 C 
ATOM      6  O   UNL A   1      33.626  21.760  27.885  1.00  0.00    -0.268 OA
ATOM      7  H   UNL A   1      35.813  22.476  27.425  1.00  0.00     0.163 HD
BRANCH   5   8
ATOM      8  C   UNL A   1      33.289  21.153  25.581  1.00  0.00     0.275 C 
BRANCH   8   9
ATOM      9  C   UNL A   1      32.435  22.369  25.081  1.00  0.00     0.051 C 
ATOM     10  C   UNL A   1      32.328  22.335  23.544  1.00  0.00     0.014 C 
ATOM     11  C   UNL A   1      31.032  22.484  25.674  1.00  0.00     0.014 C 
ENDBRANCH   8   9
BRANCH   8  12
ATOM     12  N   UNL A   1      32.579  19.865  25.814  1.00  0.00    -0.332 N 
ATOM     13  H   UNL A   1      31.635  19.981  25.443  1.00  0.00     0.347 HD
ATOM     14  H   UNL A   1      32.680  19.725  26.819  1.00  0.00     0.347 HD
BRANCH  12  15
ATOM     15  C   UNL A   1      33.106  18.601  25.245  1.00  0.00     0.195 C 
ATOM     16  C   UNL A   1      32.294  17.416  25.804  1.00  0.00     0.067 C 
ATOM     17  C   UNL A   1      33.359  18.421  23.727  1.00  0.00     0.101 C 
ATOM     18  C   UNL A   1      33.133  16.138  25.814  1.00  0.00     0.017 C 
ATOM     19  S   UNL A   1      34.291  16.885  23.327  1.00  0.00    -0.153 SA
ATOM     20  C   UNL A   1      32.141  18.599  22.838  1.00  0.00     0.026 C 
ATOM     21  C   UNL A   1      33.569  15.651  24.441  1.00  0.00     0.070 C 
ENDBRANCH  12  15
ENDBRANCH   8  12
ENDBRANCH   5   8
ENDBRANCH   3   4
ENDBRANCH   2   3
ENDBRANCH   1   2
BRANCH   1  22
ATOM     22  C   UNL A   1      38.991  20.382  25.789  1.00  0.00     0.116 C 
BRANCH  22  23
ATOM     23  N   UNL A   1      40.001  19.362  26.043  1.00  0.00    -0.352 N 
ATOM     24  C   UNL A   1      41.360  19.503  26.188  1.00  0.00     0.251 C 
ATOM     25  H   UNL A   1      39.662  18.441  26.123  1.00  0.00     0.163 HD
ATOM     26  O   UNL A   1      42.093  18.527  26.112  1.00  0.00    -0.269 OA
BRANCH  24  27
ATOM     27  C   UNL A   1      41.911  20.849  26.436  1.00  0.00     0.039 A 
ATOM     28  C   UNL A   1      42.054  21.747  25.377  1.00  0.00     0.014 A 
ATOM     29  C   UNL A   1      42.265  21.222  27.735  1.00  0.00     0.014 A 
ATOM     30  C   UNL A   1      42.501  23.043  25.637  1.00  0.00     0.010 A 
ATOM     31  C   UNL A   1      42.583  22.540  28.006  1.00  0.00     0.010 A 
ATOM     32  C   UNL A   1      42.738  23.457  26.958  1.00  0.00    -0.014 A 
BRANCH  32  33
ATOM     33  C   UNL A   1      43.197  24.829  27.284  1.00  0.00     0.031 A 
ATOM     34  C   UNL A   1      42.242  25.787  27.948  1.00  0.00     0.074 A 
ATOM     35  C   UNL A   1      44.417  25.242  26.889  1.00  0.00     0.049 A 
ATOM     36  N   UNL A   1      42.396  27.056  28.211  1.00  0.00    -0.248 NA
ATOM     37  C   UNL A   1      40.920  25.255  28.331  1.00  0.00     0.031 C 
ATOM     38  C   UNL A   1      45.395  24.429  26.163  1.00  0.00     0.029 A 
ATOM     39  N   UNL A   1      45.029  26.463  27.014  1.00  0.00    -0.354 N 
ATOM     40  C   UNL A   1      41.182  27.484  28.734  1.00  0.00     0.074 A 
ATOM     41  C   UNL A   1      40.285  26.352  28.711  1.00  0.00     0.031 C 
ATOM     42  C   UNL A   1      46.487  25.170  25.917  1.00  0.00     0.029 A 
ATOM     43  C   UNL A   1      46.272  26.520  26.428  1.00  0.00     0.049 A 
ATOM     44  H   UNL A   1      44.619  27.226  27.481  1.00  0.00     0.167 HD
ATOM     45  C   UNL A   1      40.852  28.701  29.223  1.00  0.00     0.034 A 
ATOM     46  C   UNL A   1      47.133  27.548  26.304  1.00  0.00     0.034 A 
ATOM     47  C   UNL A   1      41.769  29.803  29.297  1.00  0.00     0.049 A 
ATOM     48  C   UNL A   1      46.759  28.881  26.897  1.00  0.00     0.074 A 
ATOM     49  C   UNL A   1      41.574  31.047  29.867  1.00  0.00     0.029 A 
ATOM     50  N   UNL A   1      43.055  29.793  28.778  1.00  0.00    -0.354 N 
ATOM     51  N   UNL A   1      45.662  29.224  27.529  1.00  0.00    -0.248 NA
ATOM     52  C   UNL A   1      47.753  29.959  26.792  1.00  0.00     0.031 C 
ATOM     53  C   UNL A   1      42.732  31.803  29.662  1.00  0.00     0.029 A 
ATOM     54  C   UNL A   1      43.662  31.014  29.002  1.00  0.00     0.049 A 
ATOM     55  H   UNL A   1      43.473  29.029  28.318  1.00  0.00     0.167 HD
ATOM     56  C   UNL A   1      45.849  30.541  27.931  1.00  0.00     0.074 A 
ATOM     57  C   UNL A   1      47.171  30.929  27.484  1.00  0.00     0.031 C 
ATOM     58  C   UNL A   1      45.000  31.360  28.599  1.00  0.00     0.034 A 
BRANCH  45  59
ATOM     59  C   UNL A   1      39.457  28.888  29.762  1.00  0.00     0.023 A 
ATOM     60  C   UNL A   1      39.157  28.497  31.084  1.00  0.00     0.012 A 
ATOM     61  C   UNL A   1      38.457  29.495  28.978  1.00  0.00     0.148 A 
ATOM     62  C   UNL A   1      37.875  28.669  31.602  1.00  0.00     0.002 A 
ATOM     63  C   UNL A   1      37.196  29.710  29.521  1.00  0.00     0.091 A 
ATOM     64  F   UNL A   1      38.754  29.840  27.718  1.00  0.00    -0.205 F 
ATOM     65  C   UNL A   1      36.898  29.286  30.826  1.00  0.00     0.022 A 
BRANCH  63  66
ATOM     66  S   UNL A   1      35.894  30.573  28.633  1.00  0.00     0.127 S 
ATOM     67  O   UNL A   1      35.116  31.143  29.732  1.00  0.00    -0.237 OA
ATOM     68  O   UNL A   1      36.653  31.551  27.853  1.00  0.00    -0.237 OA
ATOM     69  O   UNL A   1      35.207  29.562  27.842  1.00  0.00    -0.744 OA
ENDBRANCH  63  66
ENDBRANCH  45  59
BRANCH  46  70
ATOM     70  C   UNL A   1      48.452  27.344  25.642  1.00  0.00     0.023 A 
ATOM     71  C   UNL A   1      49.563  26.958  26.418  1.00  0.00     0.012 A 
ATOM     72  C   UNL A   1      48.609  27.506  24.252  1.00  0.00     0.148 A 
ATOM     73  C   UNL A   1      50.814  26.772  25.827  1.00  0.00     0.002 A 
ATOM     74  C   UNL A   1      49.844  27.264  23.662  1.00  0.00     0.091 A 
ATOM     75  F   UNL A   1      47.542  27.879  23.532  1.00  0.00    -0.205 F 
ATOM     76  C   UNL A   1      50.952  26.916  24.449  1.00  0.00     0.022 A 
BRANCH  74  77
ATOM     77  S   UNL A   1      50.090  27.299  21.882  1.00  0.00     0.127 S 
ATOM     78  O   UNL A   1      51.459  26.804  21.760  1.00  0.00    -0.237 OA
ATOM     79  O   UNL A   1      49.056  26.374  21.419  1.00  0.00    -0.237 OA
ATOM     80  O   UNL A   1      49.880  28.684  21.484  1.00  0.00    -0.744 OA
ENDBRANCH  74  77
ENDBRANCH  46  70
BRANCH  58  81
ATOM     81  C   UNL A   1      45.484  32.744  28.944  1.00  0.00     0.023 A 
ATOM     82  C   UNL A   1      46.200  32.965  30.136  1.00  0.00     0.012 A 
ATOM     83  C   UNL A   1      45.317  33.801  28.027  1.00  0.00     0.148 A 
ATOM     84  C   UNL A   1      46.720  34.226  30.423  1.00  0.00     0.002 A 
ATOM     85  C   UNL A   1      45.884  35.039  28.295  1.00  0.00     0.091 A 
ATOM     86  F   UNL A   1      44.619  33.569  26.905  1.00  0.00    -0.205 F 
ATOM     87  C   UNL A   1      46.575  35.258  29.497  1.00  0.00     0.022 A 
BRANCH  85  88
ATOM     88  S   UNL A   1      45.840  36.394  27.117  1.00  0.00     0.127 S 
ATOM     89  O   UNL A   1      46.502  35.800  25.956  1.00  0.00    -0.237 OA
ATOM     90  O   UNL A   1      44.402  36.612  26.952  1.00  0.00    -0.237 OA
ATOM     91  O   UNL A   1      46.554  37.498  27.742  1.00  0.00    -0.744 OA
ENDBRANCH  85  88
ENDBRANCH  58  81
ENDBRANCH  32  33
ENDBRANCH  24  27
ENDBRANCH  22  23
ENDBRANCH   1  22
TORSDOF 17
ENDMDL
MODEL 2
REMARK VINA RESULT:     -10.8      5.640     10.378
REMARK SMILES CC(C)[C@H]([NH2+][C@H]1CCCS[C@H]1C)C(=O)NCCCCNC(=O)c1ccc(-c2c3nc(c(-c4cccc(S(=O)(=O)[O-])c4F)c4ccc([nH]4)c(-c4cccc(S(=O)(=O)[O-])c4F)c4nc(c(-c5cccc(S(=O)(=O)[O-])c5F)c5ccc2[nH]5)C=C4)C=C3)cc1
REMARK SMILES IDX 18 1 17 2 16 3 15 4 13 5 14 6 4 8 2 9 1 10 3 11 5 12 6 15
REMARK SMILES IDX 7 16 11 17 8 18 10 19 12 20 9 21 19 22 20 23 21 24 22 26
REMARK SMILES IDX 23 27 24 28 85 29 25 30 84 31 26 32 27 33 28 34 78 35 29 36
REMARK SMILES IDX 83 37 77 38 79 39 30 40 82 41 76 42 75 43 31 45 63 46 43 47
REMARK SMILES IDX 62 48 44 49 47 50 61 51 80 52 45 53 46 54 60 56 81 57 48 58
REMARK SMILES IDX 32 59 33 60 41 61 34 62 36 63 42 64 35 65 37 66 38 67 39 68
REMARK SMILES IDX 40 69 64 70 65 71 73 72 66 73 68 74 74 75 67 76 69 77 70 78
REMARK SMILES IDX 71 79 72 80 49 81 50 82 58 83 51 84 53 85 59 86 52 87 54 88
REMARK SMILES IDX 55 89 56 90 57 91
REMARK H PARENT 15 7 5 13 5 14 20 25 79 44 47 55
REMARK Flexibility Score: inf
ROOT
ATOM      1  C   UNL A   1      32.343  28.236  24.759  1.00  0.00     0.023 C 
ENDROOT
BRANCH   1   2
ATOM      2  C   UNL A   1      31.612  27.699  25.983  1.00  0.00     0.023 C 
BRANCH   2   3
ATOM      3  C   UNL A   1      32.265  26.491  26.666  1.00  0.00     0.116 C 
BRANCH   3   4
ATOM      4  N   UNL A   1      31.470  25.274  26.702  1.00  0.00    -0.351 N 
ATOM      5  C   UNL A   1      31.529  24.128  25.970  1.00  0.00     0.278 C 
ATOM      6  O   UNL A   1      30.871  23.163  26.377  1.00  0.00    -0.268 OA
ATOM      7  H   UNL A   1      30.758  25.281  27.382  1.00  0.00     0.163 HD
BRANCH   5   8
ATOM      8  C   UNL A   1      32.380  23.989  24.694  1.00  0.00     0.275 C 
BRANCH   8   9
ATOM      9  C   UNL A   1      31.717  24.904  23.607  1.00  0.00     0.051 C 
ATOM     10  C   UNL A   1      32.554  24.868  22.314  1.00  0.00     0.014 C 
ATOM     11  C   UNL A   1      30.262  24.585  23.268  1.00  0.00     0.014 C 
ENDBRANCH   8   9
BRANCH   8  12
ATOM     12  N   UNL A   1      32.719  22.593  24.302  1.00  0.00    -0.332 N 
ATOM     13  H   UNL A   1      32.388  22.470  23.346  1.00  0.00     0.347 HD
ATOM     14  H   UNL A   1      32.278  22.036  25.034  1.00  0.00     0.347 HD
BRANCH  12  15
ATOM     15  C   UNL A   1      34.127  22.125  24.328  1.00  0.00     0.195 C 
ATOM     16  C   UNL A   1      35.066  23.333  24.142  1.00  0.00     0.067 C 
ATOM     17  C   UNL A   1      34.663  21.183  25.435  1.00  0.00     0.101 C 
ATOM     18  C   UNL A   1      36.392  22.898  23.517  1.00  0.00     0.017 C 
ATOM     19  S   UNL A   1      36.339  20.517  25.067  1.00  0.00    -0.153 SA
ATOM     20  C   UNL A   1      34.557  21.716  26.852  1.00  0.00     0.026 C 
ATOM     21  C   UNL A   1      37.213  21.940  24.363  1.00  0.00     0.070 C 
ENDBRANCH  12  15
ENDBRANCH   8  12
ENDBRANCH   5   8
ENDBRANCH   3   4
ENDBRANCH   2   3
ENDBRANCH   1   2
BRANCH   1  22
ATOM     22  C   UNL A   1      33.338  29.330  25.096  1.00  0.00     0.116 C 
BRANCH  22  23
ATOM     23  N   UNL A   1      32.677  30.484  25.692  1.00  0.00    -0.352 N 
ATOM     24  C   UNL A   1      32.976  31.151  26.855  1.00  0.00     0.251 C 
ATOM     25  H   UNL A   1      31.906  30.837  25.190  1.00  0.00     0.163 HD
ATOM     26  O   UNL A   1      32.160  31.911  27.358  1.00  0.00    -0.269 OA
BRANCH  24  27
ATOM     27  C   UNL A   1      34.294  30.931  27.481  1.00  0.00     0.039 A 
ATOM     28  C   UNL A   1      35.185  31.997  27.615  1.00  0.00     0.014 A 
ATOM     29  C   UNL A   1      34.629  29.661  27.956  1.00  0.00     0.014 A 
ATOM     30  C   UNL A   1      36.395  31.795  28.281  1.00  0.00     0.010 A 
ATOM     31  C   UNL A   1      35.768  29.497  28.724  1.00  0.00     0.010 A 
ATOM     32  C   UNL A   1      36.680  30.551  28.867  1.00  0.00    -0.014 A 
BRANCH  32  33
ATOM     33  C   UNL A   1      37.944  30.295  29.599  1.00  0.00     0.031 A 
ATOM     34  C   UNL A   1      38.973  29.376  28.993  1.00  0.00     0.074 A 
ATOM     35  C   UNL A   1      38.117  30.796  30.838  1.00  0.00     0.049 A 
ATOM     36  N   UNL A   1      40.083  28.926  29.511  1.00  0.00    -0.248 NA
ATOM     37  C   UNL A   1      38.694  28.860  27.639  1.00  0.00     0.031 C 
ATOM     38  C   UNL A   1      37.152  31.629  31.559  1.00  0.00     0.029 A 
ATOM     39  N   UNL A   1      39.153  30.646  31.723  1.00  0.00    -0.354 N 
ATOM     40  C   UNL A   1      40.604  28.038  28.577  1.00  0.00     0.074 A 
ATOM     41  C   UNL A   1      39.666  27.976  27.479  1.00  0.00     0.031 C 
ATOM     42  C   UNL A   1      37.648  31.925  32.772  1.00  0.00     0.029 A 
ATOM     43  C   UNL A   1      38.942  31.270  32.930  1.00  0.00     0.049 A 
ATOM     44  H   UNL A   1      39.972  30.141  31.514  1.00  0.00     0.167 HD
ATOM     45  C   UNL A   1      41.773  27.361  28.612  1.00  0.00     0.034 A 
ATOM     46  C   UNL A   1      39.699  31.297  34.044  1.00  0.00     0.034 A 
ATOM     47  C   UNL A   1      42.725  27.475  29.681  1.00  0.00     0.049 A 
ATOM     48  C   UNL A   1      41.018  30.570  34.040  1.00  0.00     0.074 A 
ATOM     49  C   UNL A   1      43.986  26.916  29.771  1.00  0.00     0.029 A 
ATOM     50  N   UNL A   1      42.517  28.194  30.848  1.00  0.00    -0.354 N 
ATOM     51  N   UNL A   1      41.566  29.860  33.084  1.00  0.00    -0.248 NA
ATOM     52  C   UNL A   1      41.840  30.676  35.255  1.00  0.00     0.031 C 
ATOM     53  C   UNL A   1      44.528  27.269  31.010  1.00  0.00     0.029 A 
ATOM     54  C   UNL A   1      43.621  28.083  31.671  1.00  0.00     0.049 A 
ATOM     55  H   UNL A   1      41.704  28.707  31.058  1.00  0.00     0.167 HD
ATOM     56  C   UNL A   1      42.810  29.468  33.563  1.00  0.00     0.074 A 
ATOM     57  C   UNL A   1      42.941  30.033  34.890  1.00  0.00     0.031 C 
ATOM     58  C   UNL A   1      43.754  28.702  32.965  1.00  0.00     0.034 A 
BRANCH  45  59
ATOM     59  C   UNL A   1      42.110  26.476  27.440  1.00  0.00     0.023 A 
ATOM     60  C   UNL A   1      42.762  27.021  26.314  1.00  0.00     0.012 A 
ATOM     61  C   UNL A   1      41.825  25.097  27.472  1.00  0.00     0.148 A 
ATOM     62  C   UNL A   1      43.087  26.218  25.223  1.00  0.00     0.002 A 
ATOM     63  C   UNL A   1      42.200  24.294  26.402  1.00  0.00     0.091 A 
ATOM     64  F   UNL A   1      41.186  24.601  28.540  1.00  0.00    -0.205 F 
ATOM     65  C   UNL A   1      42.818  24.853  25.272  1.00  0.00     0.022 A 
BRANCH  63  66
ATOM     66  S   UNL A   1      41.975  22.511  26.403  1.00  0.00     0.127 S 
ATOM     67  O   UNL A   1      40.517  22.399  26.401  1.00  0.00    -0.237 OA
ATOM     68  O   UNL A   1      42.618  22.122  25.148  1.00  0.00    -0.237 OA
ATOM     69  O   UNL A   1      42.636  22.022  27.605  1.00  0.00    -0.744 OA
ENDBRANCH  63  66
ENDBRANCH  45  59
BRANCH  46  70
ATOM     70  C   UNL A   1      39.257  32.082  35.231  1.00  0.00     0.023 A 
ATOM     71  C   UNL A   1      38.389  31.488  36.169  1.00  0.00     0.012 A 
ATOM     72  C   UNL A   1      39.707  33.398  35.450  1.00  0.00     0.148 A 
ATOM     73  C   UNL A   1      37.948  32.204  37.284  1.00  0.00     0.002 A 
ATOM     74  C   UNL A   1      39.309  34.085  36.591  1.00  0.00     0.091 A 
ATOM     75  F   UNL A   1      40.528  33.947  34.544  1.00  0.00    -0.205 F 
ATOM     76  C   UNL A   1      38.415  33.497  37.499  1.00  0.00     0.022 A 
BRANCH  74  77
ATOM     77  S   UNL A   1      39.957  35.705  37.020  1.00  0.00     0.127 S 
ATOM     78  O   UNL A   1      41.388  35.437  37.126  1.00  0.00    -0.237 OA
ATOM     79  O   UNL A   1      39.563  36.502  35.857  1.00  0.00    -0.237 OA
ATOM     80  O   UNL A   1      39.290  36.080  38.259  1.00  0.00    -0.744 OA
ENDBRANCH  74  77
ENDBRANCH  46  70
BRANCH  58  81
ATOM     81  C   UNL A   1      45.043  28.466  33.708  1.00  0.00     0.023 A 
ATOM     82  C   UNL A   1      46.098  29.393  33.603  1.00  0.00     0.012 A 
ATOM     83  C   UNL A   1      45.160  27.377  34.594  1.00  0.00     0.148 A 
ATOM     84  C   UNL A   1      47.263  29.224  34.350  1.00  0.00     0.002 A 
ATOM     85  C   UNL A   1      46.300  27.245  35.374  1.00  0.00     0.091 A 
ATOM     86  F   UNL A   1      44.148  26.500  34.666  1.00  0.00    -0.205 F 
ATOM     87  C   UNL A   1      47.358  28.160  35.245  1.00  0.00     0.022 A 
BRANCH  85  88
ATOM     88  S   UNL A   1      46.468  25.969  36.628  1.00  0.00     0.127 S 
ATOM     89  O   UNL A   1      46.587  24.763  35.810  1.00  0.00    -0.237 OA
ATOM     90  O   UNL A   1      47.701  26.367  37.308  1.00  0.00    -0.237 OA
ATOM     91  O   UNL A   1      45.268  26.047  37.449  1.00  0.00    -0.744 OA
ENDBRANCH  85  88
ENDBRANCH  58  81
ENDBRANCH  32  33
ENDBRANCH  24  27
ENDBRANCH  22  23
ENDBRANCH   1  22
TORSDOF 17
ENDMDL
MODEL 3
REMARK VINA RESULT:     -10.8      3.927      9.288
REMARK SMILES CC(C)[C@H]([NH2+][C@H]1CCCS[C@H]1C)C(=O)NCCCCNC(=O)c1ccc(-c2c3nc(c(-c4cccc(S(=O)(=O)[O-])c4F)c4ccc([nH]4)c(-c4cccc(S(=O)(=O)[O-])c4F)c4nc(c(-c5cccc(S(=O)(=O)[O-])c5F)c5ccc2[nH]5)C=C4)C=C3)cc1
REMARK SMILES IDX 18 1 17 2 16 3 15 4 13 5 14 6 4 8 2 9 1 10 3 11 5 12 6 15
REMARK SMILES IDX 7 16 11 17 8 18 10 19 12 20 9 21 19 22 20 23 21 24 22 26
REMARK SMILES IDX 23 27 24 28 85 29 25 30 84 31 26 32 27 33 28 34 78 35 29 36
REMARK SMILES IDX 83 37 77 38 79 39 30 40 82 41 76 42 75 43 31 45 63 46 43 47
REMARK SMILES IDX 62 48 44 49 47 50 61 51 80 52 45 53 46 54 60 56 81 57 48 58
REMARK SMILES IDX 32 59 33 60 41 61 34 62 36 63 42 64 35 65 37 66 38 67 39 68
REMARK SMILES IDX 40 69 64 70 65 71 73 72 66 73 68 74 74 75 67 76 69 77 70 78
REMARK SMILES IDX 71 79 72 80 49 81 50 82 58 83 51 84 53 85 59 86 52 87 54 88
REMARK SMILES IDX 55 89 56 90 57 91
REMARK H PARENT 15 7 5 13 5 14 20 25 79 44 47 55
REMARK Flexibility Score: inf
ROOT
ATOM      1  C   UNL A   1      35.995  23.727  26.136  1.00  0.00     0.023 C 
ENDROOT
BRANCH   1   2
ATOM      2  C   UNL A   1      34.806  24.328  25.396  1.00  0.00     0.023 C 
BRANCH   2   3
ATOM      3  C   UNL A   1      33.627  23.377  25.157  1.00  0.00     0.116 C 
BRANCH   3   4
ATOM      4  N   UNL A   1      32.618  23.340  26.203  1.00  0.00    -0.351 N 
ATOM      5  C   UNL A   1      31.532  24.124  26.447  1.00  0.00     0.278 C 
ATOM      6  O   UNL A   1      30.716  23.714  27.282  1.00  0.00    -0.268 OA
ATOM      7  H   UNL A   1      32.743  22.613  26.856  1.00  0.00     0.163 HD
BRANCH   5   8
ATOM      8  C   UNL A   1      31.281  25.459  25.725  1.00  0.00     0.275 C 
BRANCH   8   9
ATOM      9  C   UNL A   1      30.345  25.146  24.507  1.00  0.00     0.051 C 
ATOM     10  C   UNL A   1      29.333  26.293  24.317  1.00  0.00     0.014 C 
ATOM     11  C   UNL A   1      31.049  24.879  23.178  1.00  0.00     0.014 C 
ENDBRANCH   8   9
BRANCH   8  12
ATOM     12  N   UNL A   1      32.495  26.281  25.462  1.00  0.00    -0.332 N 
ATOM     13  H   UNL A   1      32.530  26.437  24.455  1.00  0.00     0.347 HD
ATOM     14  H   UNL A   1      33.242  25.728  25.884  1.00  0.00     0.347 HD
BRANCH  12  15
ATOM     15  C   UNL A   1      32.660  27.608  26.104  1.00  0.00     0.195 C 
ATOM     16  C   UNL A   1      34.153  27.991  26.099  1.00  0.00     0.067 C 
ATOM     17  C   UNL A   1      31.783  28.825  25.719  1.00  0.00     0.101 C 
ATOM     18  C   UNL A   1      34.475  28.940  27.254  1.00  0.00     0.017 C 
ATOM     19  S   UNL A   1      31.983  30.251  26.865  1.00  0.00    -0.153 SA
ATOM     20  C   UNL A   1      31.858  29.248  24.262  1.00  0.00     0.026 C 
ATOM     21  C   UNL A   1      33.765  30.283  27.193  1.00  0.00     0.070 C 
ENDBRANCH  12  15
ENDBRANCH   8  12
ENDBRANCH   5   8
ENDBRANCH   3   4
ENDBRANCH   2   3
ENDBRANCH   1   2
BRANCH   1  22
ATOM     22  C   UNL A   1      37.126  23.323  25.211  1.00  0.00     0.116 C 
BRANCH  22  23
ATOM     23  N   UNL A   1      38.050  22.407  25.870  1.00  0.00    -0.352 N 
ATOM     24  C   UNL A   1      39.223  22.683  26.529  1.00  0.00     0.251 C 
ATOM     25  H   UNL A   1      37.796  21.456  25.839  1.00  0.00     0.163 HD
ATOM     26  O   UNL A   1      40.018  21.786  26.774  1.00  0.00    -0.269 OA
BRANCH  24  27
ATOM     27  C   UNL A   1      39.501  24.075  26.931  1.00  0.00     0.039 A 
ATOM     28  C   UNL A   1      39.205  24.495  28.229  1.00  0.00     0.014 A 
ATOM     29  C   UNL A   1      40.082  24.955  26.015  1.00  0.00     0.014 A 
ATOM     30  C   UNL A   1      39.547  25.789  28.622  1.00  0.00     0.010 A 
ATOM     31  C   UNL A   1      40.534  26.190  26.446  1.00  0.00     0.010 A 
ATOM     32  C   UNL A   1      40.242  26.634  27.742  1.00  0.00    -0.014 A 
BRANCH  32  33
ATOM     33  C   UNL A   1      40.642  28.011  28.121  1.00  0.00     0.031 A 
ATOM     34  C   UNL A   1      42.102  28.382  28.115  1.00  0.00     0.074 A 
ATOM     35  C   UNL A   1      39.715  28.881  28.570  1.00  0.00     0.049 A 
ATOM     36  N   UNL A   1      42.675  29.483  28.522  1.00  0.00    -0.248 NA
ATOM     37  C   UNL A   1      43.050  27.363  27.625  1.00  0.00     0.031 C 
ATOM     38  C   UNL A   1      38.283  28.604  28.699  1.00  0.00     0.029 A 
ATOM     39  N   UNL A   1      39.848  30.165  29.032  1.00  0.00    -0.354 N 
ATOM     40  C   UNL A   1      44.042  29.268  28.390  1.00  0.00     0.074 A 
ATOM     41  C   UNL A   1      44.217  27.917  27.908  1.00  0.00     0.031 C 
ATOM     42  C   UNL A   1      37.669  29.689  29.197  1.00  0.00     0.029 A 
ATOM     43  C   UNL A   1      38.666  30.722  29.461  1.00  0.00     0.049 A 
ATOM     44  H   UNL A   1      40.708  30.644  29.052  1.00  0.00     0.167 HD
ATOM     45  C   UNL A   1      45.060  30.129  28.615  1.00  0.00     0.034 A 
ATOM     46  C   UNL A   1      38.418  31.922  30.020  1.00  0.00     0.034 A 
ATOM     47  C   UNL A   1      44.872  31.489  29.036  1.00  0.00     0.049 A 
ATOM     48  C   UNL A   1      39.564  32.879  30.218  1.00  0.00     0.074 A 
ATOM     49  C   UNL A   1      45.824  32.479  29.195  1.00  0.00     0.029 A 
ATOM     50  N   UNL A   1      43.648  32.047  29.371  1.00  0.00    -0.354 N 
ATOM     51  N   UNL A   1      40.835  32.713  29.940  1.00  0.00    -0.248 NA
ATOM     52  C   UNL A   1      39.239  34.200  30.774  1.00  0.00     0.031 C 
ATOM     53  C   UNL A   1      45.179  33.628  29.660  1.00  0.00     0.029 A 
ATOM     54  C   UNL A   1      43.821  33.365  29.749  1.00  0.00     0.049 A 
ATOM     55  H   UNL A   1      42.784  31.575  29.344  1.00  0.00     0.167 HD
ATOM     56  C   UNL A   1      41.454  33.918  30.249  1.00  0.00     0.074 A 
ATOM     57  C   UNL A   1      40.416  34.811  30.721  1.00  0.00     0.031 C 
ATOM     58  C   UNL A   1      42.764  34.254  30.160  1.00  0.00     0.034 A 
BRANCH  45  59
ATOM     59  C   UNL A   1      46.463  29.642  28.362  1.00  0.00     0.023 A 
ATOM     60  C   UNL A   1      47.062  29.850  27.102  1.00  0.00     0.012 A 
ATOM     61  C   UNL A   1      47.206  29.021  29.385  1.00  0.00     0.148 A 
ATOM     62  C   UNL A   1      48.361  29.412  26.851  1.00  0.00     0.002 A 
ATOM     63  C   UNL A   1      48.519  28.635  29.143  1.00  0.00     0.091 A 
ATOM     64  F   UNL A   1      46.613  28.812  30.569  1.00  0.00    -0.205 F 
ATOM     65  C   UNL A   1      49.093  28.816  27.874  1.00  0.00     0.022 A 
BRANCH  63  66
ATOM     66  S   UNL A   1      49.575  27.937  30.417  1.00  0.00     0.127 S 
ATOM     67  O   UNL A   1      48.838  26.727  30.779  1.00  0.00    -0.237 OA
ATOM     68  O   UNL A   1      50.819  27.697  29.685  1.00  0.00    -0.237 OA
ATOM     69  O   UNL A   1      49.667  28.947  31.462  1.00  0.00    -0.744 OA
ENDBRANCH  63  66
ENDBRANCH  45  59
BRANCH  46  70
ATOM     70  C   UNL A   1      37.024  32.308  30.376  1.00  0.00     0.023 A 
ATOM     71  C   UNL A   1      36.529  32.006  31.661  1.00  0.00     0.012 A 
ATOM     72  C   UNL A   1      36.195  32.990  29.466  1.00  0.00     0.148 A 
ATOM     73  C   UNL A   1      35.223  32.344  32.019  1.00  0.00     0.002 A 
ATOM     74  C   UNL A   1      34.914  33.374  29.848  1.00  0.00     0.091 A 
ATOM     75  F   UNL A   1      36.681  33.263  28.247  1.00  0.00    -0.205 F 
ATOM     76  C   UNL A   1      34.420  33.035  31.116  1.00  0.00     0.022 A 
BRANCH  74  77
ATOM     77  S   UNL A   1      33.852  34.377  28.802  1.00  0.00     0.127 S 
ATOM     78  O   UNL A   1      32.794  34.762  29.732  1.00  0.00    -0.237 OA
ATOM     79  O   UNL A   1      34.755  35.462  28.411  1.00  0.00    -0.237 OA
ATOM     80  O   UNL A   1      33.446  33.509  27.705  1.00  0.00    -0.744 OA
ENDBRANCH  74  77
ENDBRANCH  46  70
BRANCH  58  81
ATOM     81  C   UNL A   1      43.156  35.660  30.527  1.00  0.00     0.023 A 
ATOM     82  C   UNL A   1      43.558  35.961  31.842  1.00  0.00     0.012 A 
ATOM     83  C   UNL A   1      43.225  36.658  29.534  1.00  0.00     0.148 A 
ATOM     84  C   UNL A   1      43.999  37.243  32.171  1.00  0.00     0.002 A 
ATOM     85  C   UNL A   1      43.715  37.916  29.856  1.00  0.00     0.091 A 
ATOM     86  F   UNL A   1      42.823  36.351  28.292  1.00  0.00    -0.205 F 
ATOM     87  C   UNL A   1      44.091  38.214  31.176  1.00  0.00     0.022 A 
BRANCH  85  88
ATOM     88  S   UNL A   1      43.969  39.196  28.622  1.00  0.00     0.127 S 
ATOM     89  O   UNL A   1      42.596  39.493  28.215  1.00  0.00    -0.237 OA
ATOM     90  O   UNL A   1      44.615  40.252  29.402  1.00  0.00    -0.237 OA
ATOM     91  O   UNL A   1      44.808  38.604  27.589  1.00  0.00    -0.744 OA
ENDBRANCH  85  88
ENDBRANCH  58  81
ENDBRANCH  32  33
ENDBRANCH  24  27
ENDBRANCH  22  23
ENDBRANCH   1  22
TORSDOF 17
ENDMDL
