MODEL 1
REMARK VINA RESULT:     -12.9      0.000      0.000
REMARK SMILES CC1=C(C)C[C@@H](C(=O)Nc2sc3c(c2C#N)CCC3)[C@H](C(=O)NCCCCNC(=O)c2ccc(-c3c4nc(c(-c5cccc(S(=O)(=O)[O-])c5F)c5ccc([nH]5)c(-c5cccc(S(=O)(=O)[O-])c5F)c5nc(c(-c6cccc(S(=O)(=O)[O-])c6F)c6ccc3[nH]6)C=C5)C=C4)cc2)C1
REMARK SMILES IDX 25 1 24 2 23 3 21 4 22 5 20 7 1 8 2 9 3 10 94 11 4 12 5 13
REMARK SMILES IDX 6 14 7 15 8 16 9 17 10 19 11 20 14 21 12 22 13 23 19 24
REMARK SMILES IDX 17 25 18 26 15 27 16 28 26 29 27 30 28 31 29 32 30 34 31 35
REMARK SMILES IDX 32 36 93 37 33 38 92 39 34 40 35 41 36 42 86 43 37 44 91 45
REMARK SMILES IDX 85 46 87 47 38 48 90 49 84 50 83 51 39 53 71 54 51 55 70 56
REMARK SMILES IDX 52 57 55 58 69 59 88 60 53 61 54 62 68 64 89 65 56 66 40 67
REMARK SMILES IDX 41 68 49 69 42 70 44 71 50 72 43 73 45 74 46 75 47 76 48 77
REMARK SMILES IDX 72 78 73 79 81 80 74 81 76 82 82 83 75 84 77 85 78 86 79 87
REMARK SMILES IDX 80 88 57 89 58 90 66 91 59 92 61 93 67 94 60 95 62 96 63 97
REMARK SMILES IDX 64 98 65 99
REMARK H PARENT 23 6 9 18 28 33 87 52 55 63
REMARK Flexibility Score: inf
ROOT
ATOM      1  C   UNL A   1      31.365  30.695  25.492  1.00  0.00     0.023 C 
ENDROOT
BRANCH   1   2
ATOM      2  C   UNL A   1      32.377  29.569  25.645  1.00  0.00     0.116 C 
BRANCH   2   3
ATOM      3  N   UNL A   1      33.329  29.489  24.562  1.00  0.00    -0.356 N 
ATOM      4  C   UNL A   1      33.728  28.400  23.841  1.00  0.00     0.224 C 
ATOM      5  O   UNL A   1      34.634  28.564  23.021  1.00  0.00    -0.275 OA
ATOM      6  H   UNL A   1      33.750  30.342  24.306  1.00  0.00     0.163 HD
BRANCH   4   7
ATOM      7  C   UNL A   1      33.147  26.996  24.088  1.00  0.00     0.095 C 
ATOM      8  C   UNL A   1      35.513  24.466  25.968  1.00  0.00     0.039 C 
ATOM      9  C   UNL A   1      34.648  24.996  24.853  1.00  0.00    -0.074 C 
ATOM     10  C   UNL A   1      34.643  24.458  23.615  1.00  0.00    -0.074 C 
ATOM     11  C   UNL A   1      33.909  26.271  25.213  1.00  0.00     0.045 C 
ATOM     12  C   UNL A   1      35.452  23.249  23.212  1.00  0.00     0.039 C 
ATOM     13  C   UNL A   1      33.915  25.093  22.456  1.00  0.00     0.045 C 
ATOM     14  C   UNL A   1      32.958  26.253  22.760  1.00  0.00     0.095 C 
BRANCH  14  15
ATOM     15  C   UNL A   1      31.519  25.849  22.387  1.00  0.00     0.229 C 
ATOM     16  O   UNL A   1      30.949  26.446  21.463  1.00  0.00    -0.274 OA
ATOM     17  N   UNL A   1      30.878  24.743  22.874  1.00  0.00    -0.316 N 
ATOM     18  H   UNL A   1      30.006  24.531  22.472  1.00  0.00     0.170 HD
BRANCH  17  19
ATOM     19  C   UNL A   1      31.320  23.902  23.857  1.00  0.00     0.114 A 
ATOM     20  S   UNL A   1      31.843  22.357  23.318  1.00  0.00    -0.121 S 
ATOM     21  C   UNL A   1      31.284  23.996  25.237  1.00  0.00     0.090 A 
ATOM     22  C   UNL A   1      32.397  22.011  24.861  1.00  0.00     0.011 A 
ATOM     23  C   UNL A   1      32.052  22.947  25.796  1.00  0.00    -0.014 A 
ATOM     24  C   UNL A   1      33.167  20.870  25.397  1.00  0.00     0.047 C 
ATOM     25  C   UNL A   1      32.571  22.591  27.140  1.00  0.00     0.038 C 
ATOM     26  C   UNL A   1      33.509  21.377  26.832  1.00  0.00     0.010 C 
BRANCH  21  27
ATOM     27  C   UNL A   1      30.575  25.004  25.951  1.00  0.00     0.103 C 
ATOM     28  N   UNL A   1      29.969  25.857  26.474  1.00  0.00    -0.192 NA
ENDBRANCH  21  27
ENDBRANCH  17  19
ENDBRANCH  14  15
ENDBRANCH   4   7
ENDBRANCH   2   3
ENDBRANCH   1   2
BRANCH   1  29
ATOM     29  C   UNL A   1      31.202  31.582  26.721  1.00  0.00     0.023 C 
BRANCH  29  30
ATOM     30  C   UNL A   1      32.480  32.302  27.120  1.00  0.00     0.116 C 
BRANCH  30  31
ATOM     31  N   UNL A   1      32.284  33.737  27.378  1.00  0.00    -0.352 N 
ATOM     32  C   UNL A   1      32.892  34.494  28.367  1.00  0.00     0.251 C 
ATOM     33  H   UNL A   1      31.655  34.209  26.786  1.00  0.00     0.163 HD
ATOM     34  O   UNL A   1      32.434  35.566  28.740  1.00  0.00    -0.269 OA
BRANCH  32  35
ATOM     35  C   UNL A   1      34.164  33.986  28.901  1.00  0.00     0.039 A 
ATOM     36  C   UNL A   1      34.305  33.403  30.165  1.00  0.00     0.014 A 
ATOM     37  C   UNL A   1      35.227  34.049  28.008  1.00  0.00     0.014 A 
ATOM     38  C   UNL A   1      35.542  32.853  30.501  1.00  0.00     0.010 A 
ATOM     39  C   UNL A   1      36.326  33.285  28.237  1.00  0.00     0.010 A 
ATOM     40  C   UNL A   1      36.543  32.813  29.522  1.00  0.00    -0.014 A 
BRANCH  40  41
ATOM     41  C   UNL A   1      37.860  32.235  29.723  1.00  0.00     0.031 A 
ATOM     42  C   UNL A   1      37.962  30.833  29.244  1.00  0.00     0.074 A 
ATOM     43  C   UNL A   1      38.910  33.049  29.986  1.00  0.00     0.049 A 
ATOM     44  N   UNL A   1      38.045  29.760  29.958  1.00  0.00    -0.248 NA
ATOM     45  C   UNL A   1      37.721  30.568  27.814  1.00  0.00     0.031 C 
ATOM     46  C   UNL A   1      38.911  34.521  30.100  1.00  0.00     0.029 A 
ATOM     47  N   UNL A   1      40.234  32.760  30.051  1.00  0.00    -0.354 N 
ATOM     48  C   UNL A   1      38.161  28.717  29.039  1.00  0.00     0.074 A 
ATOM     49  C   UNL A   1      37.653  29.235  27.801  1.00  0.00     0.031 C 
ATOM     50  C   UNL A   1      40.173  34.990  29.976  1.00  0.00     0.029 A 
ATOM     51  C   UNL A   1      41.083  33.862  29.938  1.00  0.00     0.049 A 
ATOM     52  H   UNL A   1      40.572  31.842  30.167  1.00  0.00     0.167 HD
ATOM     53  C   UNL A   1      38.975  27.651  29.290  1.00  0.00     0.034 A 
ATOM     54  C   UNL A   1      42.433  33.838  29.788  1.00  0.00     0.034 A 
ATOM     55  C   UNL A   1      39.424  27.691  30.663  1.00  0.00     0.049 A 
ATOM     56  C   UNL A   1      42.880  32.491  30.200  1.00  0.00     0.074 A 
ATOM     57  C   UNL A   1      38.835  27.606  31.906  1.00  0.00     0.029 A 
ATOM     58  N   UNL A   1      40.655  28.277  30.847  1.00  0.00    -0.354 N 
ATOM     59  N   UNL A   1      42.770  32.050  31.421  1.00  0.00    -0.248 NA
ATOM     60  C   UNL A   1      43.008  31.471  29.172  1.00  0.00     0.031 C 
ATOM     61  C   UNL A   1      39.573  28.509  32.727  1.00  0.00     0.029 A 
ATOM     62  C   UNL A   1      40.628  29.040  31.979  1.00  0.00     0.049 A 
ATOM     63  H   UNL A   1      41.433  28.163  30.255  1.00  0.00     0.167 HD
ATOM     64  C   UNL A   1      42.330  30.741  31.268  1.00  0.00     0.074 A 
ATOM     65  C   UNL A   1      42.630  30.401  29.878  1.00  0.00     0.031 C 
ATOM     66  C   UNL A   1      41.487  30.186  32.189  1.00  0.00     0.034 A 
BRANCH  53  67
ATOM     67  C   UNL A   1      39.760  26.843  28.262  1.00  0.00     0.023 A 
ATOM     68  C   UNL A   1      39.685  25.433  28.392  1.00  0.00     0.012 A 
ATOM     69  C   UNL A   1      40.758  27.338  27.392  1.00  0.00     0.148 A 
ATOM     70  C   UNL A   1      40.612  24.579  27.787  1.00  0.00     0.002 A 
ATOM     71  C   UNL A   1      41.649  26.480  26.749  1.00  0.00     0.091 A 
ATOM     72  F   UNL A   1      40.939  28.648  27.240  1.00  0.00    -0.205 F 
ATOM     73  C   UNL A   1      41.603  25.104  26.971  1.00  0.00     0.022 A 
BRANCH  71  74
ATOM     74  S   UNL A   1      42.944  27.097  25.660  1.00  0.00     0.127 S 
ATOM     75  O   UNL A   1      43.818  27.781  26.608  1.00  0.00    -0.237 OA
ATOM     76  O   UNL A   1      43.480  25.853  25.106  1.00  0.00    -0.237 OA
ATOM     77  O   UNL A   1      42.273  27.947  24.685  1.00  0.00    -0.744 OA
ENDBRANCH  71  74
ENDBRANCH  53  67
BRANCH  54  78
ATOM     78  C   UNL A   1      43.347  34.771  29.086  1.00  0.00     0.023 A 
ATOM     79  C   UNL A   1      43.529  34.682  27.690  1.00  0.00     0.012 A 
ATOM     80  C   UNL A   1      43.803  35.933  29.743  1.00  0.00     0.148 A 
ATOM     81  C   UNL A   1      44.124  35.729  26.970  1.00  0.00     0.002 A 
ATOM     82  C   UNL A   1      44.393  36.970  29.025  1.00  0.00     0.091 A 
ATOM     83  F   UNL A   1      43.575  36.051  31.058  1.00  0.00    -0.205 F 
ATOM     84  C   UNL A   1      44.546  36.877  27.635  1.00  0.00     0.022 A 
BRANCH  82  85
ATOM     85  S   UNL A   1      44.933  38.496  29.808  1.00  0.00     0.127 S 
ATOM     86  O   UNL A   1      46.009  38.017  30.675  1.00  0.00    -0.237 OA
ATOM     87  O   UNL A   1      45.371  39.282  28.658  1.00  0.00    -0.237 OA
ATOM     88  O   UNL A   1      43.768  39.007  30.519  1.00  0.00    -0.744 OA
ENDBRANCH  82  85
ENDBRANCH  54  78
BRANCH  66  89
ATOM     89  C   UNL A   1      41.288  30.936  33.484  1.00  0.00     0.023 A 
ATOM     90  C   UNL A   1      42.267  31.003  34.498  1.00  0.00     0.012 A 
ATOM     91  C   UNL A   1      40.135  31.724  33.600  1.00  0.00     0.148 A 
ATOM     92  C   UNL A   1      42.088  31.828  35.614  1.00  0.00     0.002 A 
ATOM     93  C   UNL A   1      39.982  32.577  34.683  1.00  0.00     0.091 A 
ATOM     94  F   UNL A   1      39.219  31.648  32.623  1.00  0.00    -0.205 F 
ATOM     95  C   UNL A   1      40.950  32.625  35.699  1.00  0.00     0.022 A 
BRANCH  93  96
ATOM     96  S   UNL A   1      38.605  33.718  34.776  1.00  0.00     0.127 S 
ATOM     97  O   UNL A   1      38.923  34.482  35.980  1.00  0.00    -0.237 OA
ATOM     98  O   UNL A   1      38.734  34.466  33.523  1.00  0.00    -0.237 OA
ATOM     99  O   UNL A   1      37.406  32.894  34.855  1.00  0.00    -0.744 OA
ENDBRANCH  93  96
ENDBRANCH  66  89
ENDBRANCH  40  41
ENDBRANCH  32  35
ENDBRANCH  30  31
ENDBRANCH  29  30
ENDBRANCH   1  29
TORSDOF 17
ENDMDL
MODEL 2
REMARK VINA RESULT:     -12.6      1.947      2.244
REMARK SMILES CC1=C(C)C[C@@H](C(=O)Nc2sc3c(c2C#N)CCC3)[C@H](C(=O)NCCCCNC(=O)c2ccc(-c3c4nc(c(-c5cccc(S(=O)(=O)[O-])c5F)c5ccc([nH]5)c(-c5cccc(S(=O)(=O)[O-])c5F)c5nc(c(-c6cccc(S(=O)(=O)[O-])c6F)c6ccc3[nH]6)C=C5)C=C4)cc2)C1
REMARK SMILES IDX 25 1 24 2 23 3 21 4 22 5 20 7 1 8 2 9 3 10 94 11 4 12 5 13
REMARK SMILES IDX 6 14 7 15 8 16 9 17 10 19 11 20 14 21 12 22 13 23 19 24
REMARK SMILES IDX 17 25 18 26 15 27 16 28 26 29 27 30 28 31 29 32 30 34 31 35
REMARK SMILES IDX 32 36 93 37 33 38 92 39 34 40 35 41 36 42 86 43 37 44 91 45
REMARK SMILES IDX 85 46 87 47 38 48 90 49 84 50 83 51 39 53 71 54 51 55 70 56
REMARK SMILES IDX 52 57 55 58 69 59 88 60 53 61 54 62 68 64 89 65 56 66 40 67
REMARK SMILES IDX 41 68 49 69 42 70 44 71 50 72 43 73 45 74 46 75 47 76 48 77
REMARK SMILES IDX 72 78 73 79 81 80 74 81 76 82 82 83 75 84 77 85 78 86 79 87
REMARK SMILES IDX 80 88 57 89 58 90 66 91 59 92 61 93 67 94 60 95 62 96 63 97
REMARK SMILES IDX 64 98 65 99
REMARK H PARENT 23 6 9 18 28 33 87 52 55 63
REMARK Flexibility Score: inf
ROOT
ATOM      1  C   UNL A   1      31.428  30.721  25.642  1.00  0.00     0.023 C 
ENDROOT
BRANCH   1   2
ATOM      2  C   UNL A   1      32.532  29.693  25.846  1.00  0.00     0.116 C 
BRANCH   2   3
ATOM      3  N   UNL A   1      33.464  29.612  24.747  1.00  0.00    -0.356 N 
ATOM      4  C   UNL A   1      33.807  28.533  23.983  1.00  0.00     0.224 C 
ATOM      5  O   UNL A   1      34.708  28.689  23.156  1.00  0.00    -0.275 OA
ATOM      6  H   UNL A   1      33.917  30.455  24.515  1.00  0.00     0.163 HD
BRANCH   4   7
ATOM      7  C   UNL A   1      33.171  27.146  24.190  1.00  0.00     0.095 C 
ATOM      8  C   UNL A   1      35.438  24.468  25.982  1.00  0.00     0.039 C 
ATOM      9  C   UNL A   1      34.592  25.065  24.888  1.00  0.00    -0.074 C 
ATOM     10  C   UNL A   1      34.562  24.566  23.634  1.00  0.00    -0.074 C 
ATOM     11  C   UNL A   1      33.906  26.358  25.289  1.00  0.00     0.045 C 
ATOM     12  C   UNL A   1      35.321  23.339  23.192  1.00  0.00     0.039 C 
ATOM     13  C   UNL A   1      33.857  25.265  22.497  1.00  0.00     0.045 C 
ATOM     14  C   UNL A   1      32.949  26.453  22.840  1.00  0.00     0.095 C 
BRANCH  14  15
ATOM     15  C   UNL A   1      31.494  26.119  22.461  1.00  0.00     0.229 C 
ATOM     16  O   UNL A   1      30.945  26.768  21.559  1.00  0.00    -0.274 OA
ATOM     17  N   UNL A   1      30.810  25.024  22.914  1.00  0.00    -0.316 N 
ATOM     18  H   UNL A   1      29.929  24.859  22.509  1.00  0.00     0.170 HD
BRANCH  17  19
ATOM     19  C   UNL A   1      31.221  24.135  23.869  1.00  0.00     0.114 A 
ATOM     20  S   UNL A   1      31.650  22.578  23.281  1.00  0.00    -0.121 S 
ATOM     21  C   UNL A   1      31.214  24.195  25.251  1.00  0.00     0.090 A 
ATOM     22  C   UNL A   1      32.209  22.162  24.805  1.00  0.00     0.011 A 
ATOM     23  C   UNL A   1      31.931  23.091  25.770  1.00  0.00    -0.014 A 
ATOM     24  C   UNL A   1      32.924  20.967  25.299  1.00  0.00     0.047 C 
ATOM     25  C   UNL A   1      32.453  22.672  27.095  1.00  0.00     0.038 C 
ATOM     26  C   UNL A   1      33.317  21.418  26.740  1.00  0.00     0.010 C 
BRANCH  21  27
ATOM     27  C   UNL A   1      30.573  25.221  26.002  1.00  0.00     0.103 C 
ATOM     28  N   UNL A   1      30.028  26.013  26.668  1.00  0.00    -0.192 NA
ENDBRANCH  21  27
ENDBRANCH  17  19
ENDBRANCH  14  15
ENDBRANCH   4   7
ENDBRANCH   2   3
ENDBRANCH   1   2
BRANCH   1  29
ATOM     29  C   UNL A   1      31.278  31.734  26.772  1.00  0.00     0.023 C 
BRANCH  29  30
ATOM     30  C   UNL A   1      32.577  32.442  27.125  1.00  0.00     0.116 C 
BRANCH  30  31
ATOM     31  N   UNL A   1      32.393  33.862  27.460  1.00  0.00    -0.352 N 
ATOM     32  C   UNL A   1      33.011  34.561  28.484  1.00  0.00     0.251 C 
ATOM     33  H   UNL A   1      31.766  34.370  26.896  1.00  0.00     0.163 HD
ATOM     34  O   UNL A   1      32.564  35.615  28.916  1.00  0.00    -0.269 OA
BRANCH  32  35
ATOM     35  C   UNL A   1      34.282  34.015  28.984  1.00  0.00     0.039 A 
ATOM     36  C   UNL A   1      34.428  33.382  30.224  1.00  0.00     0.014 A 
ATOM     37  C   UNL A   1      35.337  34.098  28.083  1.00  0.00     0.014 A 
ATOM     38  C   UNL A   1      35.660  32.803  30.525  1.00  0.00     0.010 A 
ATOM     39  C   UNL A   1      36.427  33.311  28.271  1.00  0.00     0.010 A 
ATOM     40  C   UNL A   1      36.651  32.787  29.535  1.00  0.00    -0.014 A 
BRANCH  40  41
ATOM     41  C   UNL A   1      37.961  32.183  29.699  1.00  0.00     0.031 A 
ATOM     42  C   UNL A   1      38.028  30.786  29.201  1.00  0.00     0.074 A 
ATOM     43  C   UNL A   1      39.032  32.975  29.946  1.00  0.00     0.049 A 
ATOM     44  N   UNL A   1      38.107  29.704  29.902  1.00  0.00    -0.248 NA
ATOM     45  C   UNL A   1      37.749  30.542  27.774  1.00  0.00     0.031 C 
ATOM     46  C   UNL A   1      39.061  34.446  30.077  1.00  0.00     0.029 A 
ATOM     47  N   UNL A   1      40.351  32.663  29.977  1.00  0.00    -0.354 N 
ATOM     48  C   UNL A   1      38.184  28.669  28.968  1.00  0.00     0.074 A 
ATOM     49  C   UNL A   1      37.658  29.211  27.749  1.00  0.00     0.031 C 
ATOM     50  C   UNL A   1      40.328  34.895  29.929  1.00  0.00     0.029 A 
ATOM     51  C   UNL A   1      41.217  33.752  29.858  1.00  0.00     0.049 A 
ATOM     52  H   UNL A   1      40.675  31.738  30.076  1.00  0.00     0.167 HD
ATOM     53  C   UNL A   1      38.984  27.586  29.188  1.00  0.00     0.034 A 
ATOM     54  C   UNL A   1      42.562  33.705  29.677  1.00  0.00     0.034 A 
ATOM     55  C   UNL A   1      39.465  27.602  30.551  1.00  0.00     0.049 A 
ATOM     56  C   UNL A   1      42.994  32.346  30.063  1.00  0.00     0.074 A 
ATOM     57  C   UNL A   1      38.903  27.513  31.806  1.00  0.00     0.029 A 
ATOM     58  N   UNL A   1      40.710  28.164  30.714  1.00  0.00    -0.354 N 
ATOM     59  N   UNL A   1      42.905  31.892  31.281  1.00  0.00    -0.248 NA
ATOM     60  C   UNL A   1      43.081  31.336  29.021  1.00  0.00     0.031 C 
ATOM     61  C   UNL A   1      39.675  28.393  32.621  1.00  0.00     0.029 A 
ATOM     62  C   UNL A   1      40.722  28.914  31.855  1.00  0.00     0.049 A 
ATOM     63  H   UNL A   1      41.472  28.044  30.103  1.00  0.00     0.167 HD
ATOM     64  C   UNL A   1      42.438  30.593  31.124  1.00  0.00     0.074 A 
ATOM     65  C   UNL A   1      42.700  30.265  29.723  1.00  0.00     0.031 C 
ATOM     66  C   UNL A   1      41.606  30.043  32.058  1.00  0.00     0.034 A 
BRANCH  53  67
ATOM     67  C   UNL A   1      39.731  26.777  28.134  1.00  0.00     0.023 A 
ATOM     68  C   UNL A   1      39.556  25.371  28.191  1.00  0.00     0.012 A 
ATOM     69  C   UNL A   1      40.779  27.242  27.307  1.00  0.00     0.148 A 
ATOM     70  C   UNL A   1      40.433  24.484  27.558  1.00  0.00     0.002 A 
ATOM     71  C   UNL A   1      41.620  26.356  26.636  1.00  0.00     0.091 A 
ATOM     72  F   UNL A   1      41.053  28.541  27.224  1.00  0.00    -0.205 F 
ATOM     73  C   UNL A   1      41.474  24.977  26.787  1.00  0.00     0.022 A 
BRANCH  71  74
ATOM     74  S   UNL A   1      42.976  26.933  25.600  1.00  0.00     0.127 S 
ATOM     75  O   UNL A   1      43.473  25.676  25.048  1.00  0.00    -0.237 OA
ATOM     76  O   UNL A   1      42.275  27.795  24.650  1.00  0.00    -0.237 OA
ATOM     77  O   UNL A   1      43.886  27.639  26.493  1.00  0.00    -0.744 OA
ENDBRANCH  71  74
ENDBRANCH  53  67
BRANCH  54  78
ATOM     78  C   UNL A   1      43.476  34.630  28.964  1.00  0.00     0.023 A 
ATOM     79  C   UNL A   1      43.974  35.783  29.606  1.00  0.00     0.012 A 
ATOM     80  C   UNL A   1      44.092  34.220  27.762  1.00  0.00     0.148 A 
ATOM     81  C   UNL A   1      45.067  36.488  29.081  1.00  0.00     0.002 A 
ATOM     82  C   UNL A   1      45.176  34.923  27.244  1.00  0.00     0.091 A 
ATOM     83  F   UNL A   1      43.665  33.090  27.182  1.00  0.00    -0.205 F 
ATOM     84  C   UNL A   1      45.675  36.053  27.906  1.00  0.00     0.022 A 
BRANCH  82  85
ATOM     85  S   UNL A   1      46.033  34.404  25.751  1.00  0.00     0.127 S 
ATOM     86  O   UNL A   1      47.075  35.424  25.640  1.00  0.00    -0.237 OA
ATOM     87  O   UNL A   1      46.509  33.075  26.128  1.00  0.00    -0.237 OA
ATOM     88  O   UNL A   1      45.034  34.442  24.690  1.00  0.00    -0.744 OA
ENDBRANCH  82  85
ENDBRANCH  54  78
BRANCH  66  89
ATOM     89  C   UNL A   1      41.450  30.781  33.365  1.00  0.00     0.023 A 
ATOM     90  C   UNL A   1      40.376  31.656  33.636  1.00  0.00     0.012 A 
ATOM     91  C   UNL A   1      42.334  30.450  34.401  1.00  0.00     0.148 A 
ATOM     92  C   UNL A   1      40.201  32.202  34.912  1.00  0.00     0.002 A 
ATOM     93  C   UNL A   1      42.130  30.954  35.677  1.00  0.00     0.091 A 
ATOM     94  F   UNL A   1      43.345  29.613  34.123  1.00  0.00    -0.205 F 
ATOM     95  C   UNL A   1      41.072  31.840  35.936  1.00  0.00     0.022 A 
BRANCH  93  96
ATOM     96  S   UNL A   1      43.139  30.419  37.056  1.00  0.00     0.127 S 
ATOM     97  O   UNL A   1      42.951  28.970  37.027  1.00  0.00    -0.237 OA
ATOM     98  O   UNL A   1      44.474  30.873  36.661  1.00  0.00    -0.237 OA
ATOM     99  O   UNL A   1      42.605  31.097  38.231  1.00  0.00    -0.744 OA
ENDBRANCH  93  96
ENDBRANCH  66  89
ENDBRANCH  40  41
ENDBRANCH  32  35
ENDBRANCH  30  31
ENDBRANCH  29  30
ENDBRANCH   1  29
TORSDOF 17
ENDMDL
MODEL 3
REMARK VINA RESULT:     -12.4      3.569      7.609
REMARK SMILES CC1=C(C)C[C@@H](C(=O)Nc2sc3c(c2C#N)CCC3)[C@H](C(=O)NCCCCNC(=O)c2ccc(-c3c4nc(c(-c5cccc(S(=O)(=O)[O-])c5F)c5ccc([nH]5)c(-c5cccc(S(=O)(=O)[O-])c5F)c5nc(c(-c6cccc(S(=O)(=O)[O-])c6F)c6ccc3[nH]6)C=C5)C=C4)cc2)C1
REMARK SMILES IDX 25 1 24 2 23 3 21 4 22 5 20 7 1 8 2 9 3 10 94 11 4 12 5 13
REMARK SMILES IDX 6 14 7 15 8 16 9 17 10 19 11 20 14 21 12 22 13 23 19 24
REMARK SMILES IDX 17 25 18 26 15 27 16 28 26 29 27 30 28 31 29 32 30 34 31 35
REMARK SMILES IDX 32 36 93 37 33 38 92 39 34 40 35 41 36 42 86 43 37 44 91 45
REMARK SMILES IDX 85 46 87 47 38 48 90 49 84 50 83 51 39 53 71 54 51 55 70 56
REMARK SMILES IDX 52 57 55 58 69 59 88 60 53 61 54 62 68 64 89 65 56 66 40 67
REMARK SMILES IDX 41 68 49 69 42 70 44 71 50 72 43 73 45 74 46 75 47 76 48 77
REMARK SMILES IDX 72 78 73 79 81 80 74 81 76 82 82 83 75 84 77 85 78 86 79 87
REMARK SMILES IDX 80 88 57 89 58 90 66 91 59 92 61 93 67 94 60 95 62 96 63 97
REMARK SMILES IDX 64 98 65 99
REMARK H PARENT 23 6 9 18 28 33 87 52 55 63
REMARK Flexibility Score: inf
ROOT
ATOM      1  C   UNL A   1      33.470  29.602  26.977  1.00  0.00     0.023 C 
ENDROOT
BRANCH   1   2
ATOM      2  C   UNL A   1      32.692  29.277  25.711  1.00  0.00     0.116 C 
BRANCH   2   3
ATOM      3  N   UNL A   1      33.506  29.237  24.520  1.00  0.00    -0.356 N 
ATOM      4  C   UNL A   1      33.803  28.177  23.712  1.00  0.00     0.224 C 
ATOM      5  O   UNL A   1      34.607  28.370  22.796  1.00  0.00    -0.275 OA
ATOM      6  H   UNL A   1      33.904  30.097  24.251  1.00  0.00     0.163 HD
BRANCH   4   7
ATOM      7  C   UNL A   1      33.239  26.768  23.968  1.00  0.00     0.095 C 
ATOM      8  C   UNL A   1      35.605  24.302  25.931  1.00  0.00     0.039 C 
ATOM      9  C   UNL A   1      34.754  24.802  24.792  1.00  0.00    -0.074 C 
ATOM     10  C   UNL A   1      34.782  24.247  23.562  1.00  0.00    -0.074 C 
ATOM     11  C   UNL A   1      33.989  26.071  25.118  1.00  0.00     0.045 C 
ATOM     12  C   UNL A   1      35.618  23.045  23.194  1.00  0.00     0.039 C 
ATOM     13  C   UNL A   1      34.069  24.854  22.379  1.00  0.00     0.045 C 
ATOM     14  C   UNL A   1      33.088  26.003  22.647  1.00  0.00     0.095 C 
BRANCH  14  15
ATOM     15  C   UNL A   1      31.664  25.571  22.251  1.00  0.00     0.229 C 
ATOM     16  O   UNL A   1      31.126  26.104  21.269  1.00  0.00    -0.274 OA
ATOM     17  N   UNL A   1      31.006  24.499  22.787  1.00  0.00    -0.316 N 
ATOM     18  H   UNL A   1      30.148  24.258  22.370  1.00  0.00     0.170 HD
BRANCH  17  19
ATOM     19  C   UNL A   1      31.412  23.726  23.840  1.00  0.00     0.114 A 
ATOM     20  S   UNL A   1      31.985  22.161  23.421  1.00  0.00    -0.121 S 
ATOM     21  C   UNL A   1      31.309  23.902  25.208  1.00  0.00     0.090 A 
ATOM     22  C   UNL A   1      32.469  21.919  25.006  1.00  0.00     0.011 A 
ATOM     23  C   UNL A   1      32.065  22.903  25.866  1.00  0.00    -0.014 A 
ATOM     24  C   UNL A   1      33.230  20.826  25.647  1.00  0.00     0.047 C 
ATOM     25  C   UNL A   1      32.524  22.637  27.252  1.00  0.00     0.038 C 
ATOM     26  C   UNL A   1      33.495  21.425  27.062  1.00  0.00     0.010 C 
BRANCH  21  27
ATOM     27  C   UNL A   1      30.551  24.938  25.826  1.00  0.00     0.103 C 
ATOM     28  N   UNL A   1      29.935  25.753  26.395  1.00  0.00    -0.192 NA
ENDBRANCH  21  27
ENDBRANCH  17  19
ENDBRANCH  14  15
ENDBRANCH   4   7
ENDBRANCH   2   3
ENDBRANCH   1   2
BRANCH   1  29
ATOM     29  C   UNL A   1      33.625  31.090  27.271  1.00  0.00     0.023 C 
BRANCH  29  30
ATOM     30  C   UNL A   1      34.923  31.433  27.986  1.00  0.00     0.116 C 
BRANCH  30  31
ATOM     31  N   UNL A   1      34.723  32.232  29.204  1.00  0.00    -0.352 N 
ATOM     32  C   UNL A   1      35.250  31.978  30.460  1.00  0.00     0.251 C 
ATOM     33  H   UNL A   1      34.156  33.032  29.118  1.00  0.00     0.163 HD
ATOM     34  O   UNL A   1      34.775  32.466  31.477  1.00  0.00    -0.269 OA
BRANCH  32  35
ATOM     35  C   UNL A   1      36.463  31.149  30.513  1.00  0.00     0.039 A 
ATOM     36  C   UNL A   1      36.469  29.759  30.347  1.00  0.00     0.014 A 
ATOM     37  C   UNL A   1      37.644  31.868  30.658  1.00  0.00     0.014 A 
ATOM     38  C   UNL A   1      37.702  29.108  30.300  1.00  0.00     0.010 A 
ATOM     39  C   UNL A   1      38.822  31.269  30.346  1.00  0.00     0.010 A 
ATOM     40  C   UNL A   1      38.868  29.884  30.310  1.00  0.00    -0.014 A 
BRANCH  40  41
ATOM     41  C   UNL A   1      40.212  29.341  30.225  1.00  0.00     0.031 A 
ATOM     42  C   UNL A   1      40.835  29.112  31.553  1.00  0.00     0.074 A 
ATOM     43  C   UNL A   1      40.637  28.797  29.059  1.00  0.00     0.049 A 
ATOM     44  N   UNL A   1      41.791  29.785  32.101  1.00  0.00    -0.248 NA
ATOM     45  C   UNL A   1      40.177  28.170  32.477  1.00  0.00     0.031 C 
ATOM     46  C   UNL A   1      39.888  28.667  27.793  1.00  0.00     0.029 A 
ATOM     47  N   UNL A   1      41.769  28.099  28.791  1.00  0.00    -0.354 N 
ATOM     48  C   UNL A   1      42.036  29.148  33.318  1.00  0.00     0.074 A 
ATOM     49  C   UNL A   1      40.847  28.400  33.608  1.00  0.00     0.031 C 
ATOM     50  C   UNL A   1      40.481  27.744  27.003  1.00  0.00     0.029 A 
ATOM     51  C   UNL A   1      41.728  27.339  27.621  1.00  0.00     0.049 A 
ATOM     52  H   UNL A   1      42.560  28.127  29.377  1.00  0.00     0.167 HD
ATOM     53  C   UNL A   1      43.307  29.018  33.796  1.00  0.00     0.034 A 
ATOM     54  C   UNL A   1      42.640  26.416  27.219  1.00  0.00     0.034 A 
ATOM     55  C   UNL A   1      44.212  29.824  33.008  1.00  0.00     0.049 A 
ATOM     56  C   UNL A   1      43.872  26.674  27.992  1.00  0.00     0.074 A 
ATOM     57  C   UNL A   1      44.384  31.167  32.755  1.00  0.00     0.029 A 
ATOM     58  N   UNL A   1      44.855  29.145  31.999  1.00  0.00    -0.354 N 
ATOM     59  N   UNL A   1      44.571  27.767  27.869  1.00  0.00    -0.248 NA
ATOM     60  C   UNL A   1      44.065  25.941  29.232  1.00  0.00     0.031 C 
ATOM     61  C   UNL A   1      44.783  31.238  31.387  1.00  0.00     0.029 A 
ATOM     62  C   UNL A   1      44.919  29.939  30.890  1.00  0.00     0.049 A 
ATOM     63  H   UNL A   1      45.212  28.230  32.067  1.00  0.00     0.167 HD
ATOM     64  C   UNL A   1      44.900  28.106  29.176  1.00  0.00     0.074 A 
ATOM     65  C   UNL A   1      44.686  26.883  29.948  1.00  0.00     0.031 C 
ATOM     66  C   UNL A   1      45.004  29.418  29.541  1.00  0.00     0.034 A 
BRANCH  53  67
ATOM     67  C   UNL A   1      43.855  27.860  34.624  1.00  0.00     0.023 A 
ATOM     68  C   UNL A   1      44.616  28.217  35.766  1.00  0.00     0.012 A 
ATOM     69  C   UNL A   1      43.926  26.505  34.226  1.00  0.00     0.148 A 
ATOM     70  C   UNL A   1      45.476  27.316  36.400  1.00  0.00     0.002 A 
ATOM     71  C   UNL A   1      44.745  25.596  34.893  1.00  0.00     0.091 A 
ATOM     72  F   UNL A   1      43.285  26.082  33.139  1.00  0.00    -0.205 F 
ATOM     73  C   UNL A   1      45.549  26.005  35.957  1.00  0.00     0.022 A 
BRANCH  71  74
ATOM     74  S   UNL A   1      44.867  23.874  34.381  1.00  0.00     0.127 S 
ATOM     75  O   UNL A   1      45.590  23.998  33.119  1.00  0.00    -0.237 OA
ATOM     76  O   UNL A   1      45.635  23.293  35.482  1.00  0.00    -0.237 OA
ATOM     77  O   UNL A   1      43.497  23.388  34.284  1.00  0.00    -0.744 OA
ENDBRANCH  71  74
ENDBRANCH  53  67
BRANCH  54  78
ATOM     78  C   UNL A   1      42.477  25.177  26.420  1.00  0.00     0.023 A 
ATOM     79  C   UNL A   1      43.399  24.853  25.403  1.00  0.00     0.012 A 
ATOM     80  C   UNL A   1      41.591  24.171  26.860  1.00  0.00     0.148 A 
ATOM     81  C   UNL A   1      43.452  23.560  24.861  1.00  0.00     0.002 A 
ATOM     82  C   UNL A   1      41.648  22.889  26.319  1.00  0.00     0.091 A 
ATOM     83  F   UNL A   1      40.758  24.454  27.870  1.00  0.00    -0.205 F 
ATOM     84  C   UNL A   1      42.585  22.576  25.325  1.00  0.00     0.022 A 
BRANCH  82  85
ATOM     85  S   UNL A   1      40.584  21.557  26.891  1.00  0.00     0.127 S 
ATOM     86  O   UNL A   1      39.262  22.049  26.503  1.00  0.00    -0.237 OA
ATOM     87  O   UNL A   1      41.075  20.427  26.107  1.00  0.00    -0.237 OA
ATOM     88  O   UNL A   1      40.798  21.472  28.330  1.00  0.00    -0.744 OA
ENDBRANCH  82  85
ENDBRANCH  54  78
BRANCH  66  89
ATOM     89  C   UNL A   1      45.024  30.444  28.435  1.00  0.00     0.023 A 
ATOM     90  C   UNL A   1      43.854  30.989  27.862  1.00  0.00     0.012 A 
ATOM     91  C   UNL A   1      46.268  30.985  28.082  1.00  0.00     0.148 A 
ATOM     92  C   UNL A   1      43.929  32.039  26.941  1.00  0.00     0.002 A 
ATOM     93  C   UNL A   1      46.336  32.059  27.206  1.00  0.00     0.091 A 
ATOM     94  F   UNL A   1      47.366  30.457  28.641  1.00  0.00    -0.205 F 
ATOM     95  C   UNL A   1      45.171  32.583  26.623  1.00  0.00     0.022 A 
BRANCH  93  96
ATOM     96  S   UNL A   1      47.891  32.880  26.866  1.00  0.00     0.127 S 
ATOM     97  O   UNL A   1      47.521  33.801  25.794  1.00  0.00    -0.237 OA
ATOM     98  O   UNL A   1      48.192  33.521  28.148  1.00  0.00    -0.237 OA
ATOM     99  O   UNL A   1      48.827  31.827  26.494  1.00  0.00    -0.744 OA
ENDBRANCH  93  96
ENDBRANCH  66  89
ENDBRANCH  40  41
ENDBRANCH  32  35
ENDBRANCH  30  31
ENDBRANCH  29  30
ENDBRANCH   1  29
TORSDOF 17
ENDMDL
