MODEL 1
REMARK VINA RESULT:     -11.0      0.000      0.000
REMARK SMILES C[C@@]([NH2+]Cc1ccccc1Br)(C(=O)NCCCCNC(=O)c1ccc(-c2c3nc(c(-c4cccc(S(=O)(=O)[O-])c4F)c4ccc([nH]4)c(-c4cccc(S(=O)(=O)[O-])c4F)c4nc(c(-c5cccc(S(=O)(=O)[O-])c5F)c5ccc2[nH]5)C=C4)C=C3)cc1)C(F)(F)F
REMARK SMILES IDX 16 1 15 2 14 3 12 4 13 5 2 7 1 8 3 9 4 12 5 13 6 14 10 15
REMARK SMILES IDX 7 16 9 17 11 18 8 19 85 20 86 21 87 22 88 23 17 24 18 25
REMARK SMILES IDX 19 26 20 27 21 29 22 30 23 31 84 32 24 33 83 34 25 35 26 36
REMARK SMILES IDX 27 37 77 38 28 39 82 40 76 41 78 42 29 43 81 44 75 45 74 46
REMARK SMILES IDX 30 48 62 49 42 50 61 51 43 52 46 53 60 54 79 55 44 56 45 57
REMARK SMILES IDX 59 59 80 60 47 61 31 62 32 63 40 64 33 65 35 66 41 67 34 68
REMARK SMILES IDX 36 69 37 70 38 71 39 72 63 73 64 74 72 75 65 76 67 77 73 78
REMARK SMILES IDX 66 79 68 80 69 81 70 82 71 83 48 84 49 85 57 86 50 87 52 88
REMARK SMILES IDX 58 89 51 90 53 91 54 92 55 93 56 94
REMARK H PARENT 14 6 3 10 3 11 19 28 78 47 46 58
REMARK Flexibility Score: inf
ROOT
ATOM      1  C   UNL A   1      36.624  20.146  25.022  1.00  0.00     0.023 C 
ENDROOT
BRANCH   1   2
ATOM      2  C   UNL A   1      36.153  21.561  25.361  1.00  0.00     0.116 C 
BRANCH   2   3
ATOM      3  N   UNL A   1      35.609  22.222  24.192  1.00  0.00    -0.350 N 
ATOM      4  C   UNL A   1      34.430  22.876  23.991  1.00  0.00     0.290 C 
ATOM      5  O   UNL A   1      34.260  23.314  22.851  1.00  0.00    -0.267 OA
ATOM      6  H   UNL A   1      36.196  22.195  23.403  1.00  0.00     0.163 HD
BRANCH   4   7
ATOM      7  C   UNL A   1      33.402  23.104  25.121  1.00  0.00     0.268 C 
ATOM      8  C   UNL A   1      32.057  23.629  24.568  1.00  0.00     0.101 C 
BRANCH   7   9
ATOM      9  N   UNL A   1      33.055  21.793  25.789  1.00  0.00    -0.322 N 
ATOM     10  H   UNL A   1      32.757  22.005  26.740  1.00  0.00     0.347 HD
ATOM     11  H   UNL A   1      33.902  21.231  25.711  1.00  0.00     0.347 HD
BRANCH   9  12
ATOM     12  C   UNL A   1      32.007  20.973  25.173  1.00  0.00     0.299 C 
BRANCH  12  13
ATOM     13  C   UNL A   1      32.479  19.717  24.479  1.00  0.00     0.020 A 
ATOM     14  C   UNL A   1      33.038  18.701  25.282  1.00  0.00     0.011 A 
ATOM     15  C   UNL A   1      32.378  19.478  23.097  1.00  0.00     0.026 A 
ATOM     16  C   UNL A   1      33.351  17.450  24.749  1.00  0.00     0.001 A 
ATOM     17  C   UNL A   1      32.653  18.210  22.573  1.00  0.00     0.016 A 
ATOM     18  Br  UNL A   1      31.868  20.820  21.846  1.00  0.00    -0.050 Br
ATOM     19  C   UNL A   1      33.119  17.192  23.403  1.00  0.00     0.001 A 
ENDBRANCH  12  13
ENDBRANCH   9  12
ENDBRANCH   7   9
BRANCH   7  20
ATOM     20  C   UNL A   1      33.959  24.286  25.979  1.00  0.00     0.453 C 
ATOM     21  F   UNL A   1      32.967  25.093  26.432  1.00  0.00    -0.164 F 
ATOM     22  F   UNL A   1      34.570  23.798  27.096  1.00  0.00    -0.164 F 
ATOM     23  F   UNL A   1      34.859  25.067  25.355  1.00  0.00    -0.164 F 
ENDBRANCH   7  20
ENDBRANCH   4   7
ENDBRANCH   2   3
ENDBRANCH   1   2
BRANCH   1  24
ATOM     24  C   UNL A   1      38.105  20.045  24.647  1.00  0.00     0.023 C 
BRANCH  24  25
ATOM     25  C   UNL A   1      39.077  20.306  25.790  1.00  0.00     0.116 C 
BRANCH  25  26
ATOM     26  N   UNL A   1      40.047  19.233  25.960  1.00  0.00    -0.352 N 
ATOM     27  C   UNL A   1      41.395  19.328  26.203  1.00  0.00     0.251 C 
ATOM     28  H   UNL A   1      39.689  18.318  25.891  1.00  0.00     0.163 HD
ATOM     29  O   UNL A   1      42.101  18.324  26.174  1.00  0.00    -0.269 OA
BRANCH  27  30
ATOM     30  C   UNL A   1      41.989  20.654  26.471  1.00  0.00     0.039 A 
ATOM     31  C   UNL A   1      42.237  21.514  25.399  1.00  0.00     0.014 A 
ATOM     32  C   UNL A   1      42.262  21.058  27.781  1.00  0.00     0.014 A 
ATOM     33  C   UNL A   1      42.701  22.806  25.648  1.00  0.00     0.010 A 
ATOM     34  C   UNL A   1      42.648  22.371  28.030  1.00  0.00     0.010 A 
ATOM     35  C   UNL A   1      42.877  23.257  26.967  1.00  0.00    -0.014 A 
BRANCH  35  36
ATOM     36  C   UNL A   1      43.288  24.655  27.255  1.00  0.00     0.031 A 
ATOM     37  C   UNL A   1      42.311  25.621  27.867  1.00  0.00     0.074 A 
ATOM     38  C   UNL A   1      44.515  25.078  26.887  1.00  0.00     0.049 A 
ATOM     39  N   UNL A   1      42.467  26.891  28.139  1.00  0.00    -0.248 NA
ATOM     40  C   UNL A   1      40.971  25.101  28.193  1.00  0.00     0.031 C 
ATOM     41  C   UNL A   1      45.525  24.260  26.211  1.00  0.00     0.029 A 
ATOM     42  N   UNL A   1      45.111  26.308  27.006  1.00  0.00    -0.354 N 
ATOM     43  C   UNL A   1      41.244  27.328  28.633  1.00  0.00     0.074 A 
ATOM     44  C   UNL A   1      40.343  26.198  28.589  1.00  0.00     0.031 C 
ATOM     45  C   UNL A   1      46.613  25.009  25.977  1.00  0.00     0.029 A 
ATOM     46  C   UNL A   1      46.371  26.367  26.455  1.00  0.00     0.049 A 
ATOM     47  H   UNL A   1      44.678  27.077  27.442  1.00  0.00     0.167 HD
ATOM     48  C   UNL A   1      40.909  28.550  29.111  1.00  0.00     0.034 A 
ATOM     49  C   UNL A   1      47.229  27.399  26.338  1.00  0.00     0.034 A 
ATOM     50  C   UNL A   1      41.819  29.661  29.187  1.00  0.00     0.049 A 
ATOM     51  C   UNL A   1      46.843  28.738  26.906  1.00  0.00     0.074 A 
ATOM     52  C   UNL A   1      41.600  30.915  29.730  1.00  0.00     0.029 A 
ATOM     53  N   UNL A   1      43.115  29.658  28.698  1.00  0.00    -0.354 N 
ATOM     54  N   UNL A   1      45.736  29.089  27.513  1.00  0.00    -0.248 NA
ATOM     55  C   UNL A   1      47.839  29.814  26.807  1.00  0.00     0.031 C 
ATOM     56  C   UNL A   1      42.756  31.680  29.544  1.00  0.00     0.029 A 
ATOM     57  C   UNL A   1      43.707  30.890  28.917  1.00  0.00     0.049 A 
ATOM     58  H   UNL A   1      43.552  28.892  28.260  1.00  0.00     0.167 HD
ATOM     59  C   UNL A   1      45.916  30.411  27.901  1.00  0.00     0.074 A 
ATOM     60  C   UNL A   1      47.248  30.793  27.479  1.00  0.00     0.031 C 
ATOM     61  C   UNL A   1      45.052  31.240  28.538  1.00  0.00     0.034 A 
BRANCH  48  62
ATOM     62  C   UNL A   1      39.509  28.735  29.638  1.00  0.00     0.023 A 
ATOM     63  C   UNL A   1      39.208  28.351  30.961  1.00  0.00     0.012 A 
ATOM     64  C   UNL A   1      38.511  29.342  28.850  1.00  0.00     0.148 A 
ATOM     65  C   UNL A   1      37.927  28.533  31.481  1.00  0.00     0.002 A 
ATOM     66  C   UNL A   1      37.249  29.564  29.392  1.00  0.00     0.091 A 
ATOM     67  F   UNL A   1      38.810  29.682  27.590  1.00  0.00    -0.205 F 
ATOM     68  C   UNL A   1      36.952  29.148  30.700  1.00  0.00     0.022 A 
BRANCH  66  69
ATOM     69  S   UNL A   1      35.948  30.421  28.499  1.00  0.00     0.127 S 
ATOM     70  O   UNL A   1      36.721  31.331  27.654  1.00  0.00    -0.237 OA
ATOM     71  O   UNL A   1      35.297  29.327  27.779  1.00  0.00    -0.237 OA
ATOM     72  O   UNL A   1      35.121  31.064  29.510  1.00  0.00    -0.744 OA
ENDBRANCH  66  69
ENDBRANCH  48  62
BRANCH  49  73
ATOM     73  C   UNL A   1      48.560  27.193  25.700  1.00  0.00     0.023 A 
ATOM     74  C   UNL A   1      49.634  26.710  26.474  1.00  0.00     0.012 A 
ATOM     75  C   UNL A   1      48.764  27.455  24.332  1.00  0.00     0.148 A 
ATOM     76  C   UNL A   1      50.895  26.528  25.905  1.00  0.00     0.002 A 
ATOM     77  C   UNL A   1      50.007  27.215  23.759  1.00  0.00     0.091 A 
ATOM     78  F   UNL A   1      47.731  27.923  23.615  1.00  0.00    -0.205 F 
ATOM     79  C   UNL A   1      51.079  26.770  24.546  1.00  0.00     0.022 A 
BRANCH  77  80
ATOM     80  S   UNL A   1      50.299  27.372  21.993  1.00  0.00     0.127 S 
ATOM     81  O   UNL A   1      51.687  26.933  21.880  1.00  0.00    -0.237 OA
ATOM     82  O   UNL A   1      49.311  26.443  21.441  1.00  0.00    -0.237 OA
ATOM     83  O   UNL A   1      50.048  28.771  21.675  1.00  0.00    -0.744 OA
ENDBRANCH  77  80
ENDBRANCH  49  73
BRANCH  61  84
ATOM     84  C   UNL A   1      45.527  32.633  28.861  1.00  0.00     0.023 A 
ATOM     85  C   UNL A   1      46.192  32.888  30.075  1.00  0.00     0.012 A 
ATOM     86  C   UNL A   1      45.377  33.675  27.922  1.00  0.00     0.148 A 
ATOM     87  C   UNL A   1      46.669  34.165  30.368  1.00  0.00     0.002 A 
ATOM     88  C   UNL A   1      45.902  34.931  28.197  1.00  0.00     0.091 A 
ATOM     89  F   UNL A   1      44.726  33.416  26.779  1.00  0.00    -0.205 F 
ATOM     90  C   UNL A   1      46.536  35.181  29.425  1.00  0.00     0.022 A 
BRANCH  88  91
ATOM     91  S   UNL A   1      45.866  36.273  27.004  1.00  0.00     0.127 S 
ATOM     92  O   UNL A   1      44.437  36.576  26.940  1.00  0.00    -0.237 OA
ATOM     93  O   UNL A   1      46.676  37.297  27.666  1.00  0.00    -0.237 OA
ATOM     94  O   UNL A   1      46.448  35.740  25.780  1.00  0.00    -0.744 OA
ENDBRANCH  88  91
ENDBRANCH  61  84
ENDBRANCH  35  36
ENDBRANCH  27  30
ENDBRANCH  25  26
ENDBRANCH  24  25
ENDBRANCH   1  24
TORSDOF 18
ENDMDL
MODEL 2
REMARK VINA RESULT:     -11.0      3.588      8.871
REMARK SMILES C[C@@]([NH2+]Cc1ccccc1Br)(C(=O)NCCCCNC(=O)c1ccc(-c2c3nc(c(-c4cccc(S(=O)(=O)[O-])c4F)c4ccc([nH]4)c(-c4cccc(S(=O)(=O)[O-])c4F)c4nc(c(-c5cccc(S(=O)(=O)[O-])c5F)c5ccc2[nH]5)C=C4)C=C3)cc1)C(F)(F)F
REMARK SMILES IDX 16 1 15 2 14 3 12 4 13 5 2 7 1 8 3 9 4 12 5 13 6 14 10 15
REMARK SMILES IDX 7 16 9 17 11 18 8 19 85 20 86 21 87 22 88 23 17 24 18 25
REMARK SMILES IDX 19 26 20 27 21 29 22 30 23 31 84 32 24 33 83 34 25 35 26 36
REMARK SMILES IDX 27 37 77 38 28 39 82 40 76 41 78 42 29 43 81 44 75 45 74 46
REMARK SMILES IDX 30 48 62 49 42 50 61 51 43 52 46 53 60 54 79 55 44 56 45 57
REMARK SMILES IDX 59 59 80 60 47 61 31 62 32 63 40 64 33 65 35 66 41 67 34 68
REMARK SMILES IDX 36 69 37 70 38 71 39 72 63 73 64 74 72 75 65 76 67 77 73 78
REMARK SMILES IDX 66 79 68 80 69 81 70 82 71 83 48 84 49 85 57 86 50 87 52 88
REMARK SMILES IDX 58 89 51 90 53 91 54 92 55 93 56 94
REMARK H PARENT 14 6 3 10 3 11 19 28 78 47 46 58
REMARK Flexibility Score: inf
ROOT
ATOM      1  C   UNL A   1      34.745  21.580  25.534  1.00  0.00     0.023 C 
ENDROOT
BRANCH   1   2
ATOM      2  C   UNL A   1      33.438  22.148  24.979  1.00  0.00     0.116 C 
BRANCH   2   3
ATOM      3  N   UNL A   1      33.513  22.316  23.542  1.00  0.00    -0.350 N 
ATOM      4  C   UNL A   1      33.224  23.381  22.741  1.00  0.00     0.290 C 
ATOM      5  O   UNL A   1      33.376  23.187  21.532  1.00  0.00    -0.267 OA
ATOM      6  H   UNL A   1      33.829  21.520  23.057  1.00  0.00     0.163 HD
BRANCH   4   7
ATOM      7  C   UNL A   1      32.791  24.753  23.304  1.00  0.00     0.268 C 
ATOM      8  C   UNL A   1      32.458  25.752  22.172  1.00  0.00     0.101 C 
BRANCH   7   9
ATOM      9  N   UNL A   1      31.504  24.617  24.086  1.00  0.00    -0.322 N 
ATOM     10  H   UNL A   1      31.755  24.456  25.060  1.00  0.00     0.347 HD
ATOM     11  H   UNL A   1      31.004  23.854  23.631  1.00  0.00     0.347 HD
BRANCH   9  12
ATOM     12  C   UNL A   1      30.568  25.746  24.055  1.00  0.00     0.299 C 
BRANCH  12  13
ATOM     13  C   UNL A   1      30.919  26.914  24.947  1.00  0.00     0.020 A 
ATOM     14  C   UNL A   1      31.255  26.630  26.286  1.00  0.00     0.011 A 
ATOM     15  C   UNL A   1      30.960  28.256  24.531  1.00  0.00     0.026 A 
ATOM     16  C   UNL A   1      31.746  27.626  27.134  1.00  0.00     0.001 A 
ATOM     17  C   UNL A   1      31.493  29.243  25.368  1.00  0.00     0.016 A 
ATOM     18  Br  UNL A   1      30.319  28.838  22.836  1.00  0.00    -0.050 Br
ATOM     19  C   UNL A   1      31.903  28.923  26.661  1.00  0.00     0.001 A 
ENDBRANCH  12  13
ENDBRANCH   9  12
ENDBRANCH   7   9
BRANCH   7  20
ATOM     20  C   UNL A   1      34.057  25.355  23.995  1.00  0.00     0.453 C 
ATOM     21  F   UNL A   1      34.046  25.152  25.336  1.00  0.00    -0.164 F 
ATOM     22  F   UNL A   1      35.176  24.721  23.539  1.00  0.00    -0.164 F 
ATOM     23  F   UNL A   1      34.246  26.670  23.788  1.00  0.00    -0.164 F 
ENDBRANCH   7  20
ENDBRANCH   4   7
ENDBRANCH   2   3
ENDBRANCH   1   2
BRANCH   1  24
ATOM     24  C   UNL A   1      35.513  22.537  26.449  1.00  0.00     0.023 C 
BRANCH  24  25
ATOM     25  C   UNL A   1      36.804  23.091  25.861  1.00  0.00     0.116 C 
BRANCH  25  26
ATOM     26  N   UNL A   1      37.953  22.236  26.120  1.00  0.00    -0.352 N 
ATOM     27  C   UNL A   1      39.211  22.595  26.538  1.00  0.00     0.251 C 
ATOM     28  H   UNL A   1      37.810  21.272  25.976  1.00  0.00     0.163 HD
ATOM     29  O   UNL A   1      40.114  21.763  26.567  1.00  0.00    -0.269 OA
BRANCH  27  30
ATOM     30  C   UNL A   1      39.471  23.998  26.921  1.00  0.00     0.039 A 
ATOM     31  C   UNL A   1      39.234  24.395  28.238  1.00  0.00     0.014 A 
ATOM     32  C   UNL A   1      39.985  24.905  25.990  1.00  0.00     0.014 A 
ATOM     33  C   UNL A   1      39.572  25.689  28.638  1.00  0.00     0.010 A 
ATOM     34  C   UNL A   1      40.394  26.167  26.410  1.00  0.00     0.010 A 
ATOM     35  C   UNL A   1      40.187  26.574  27.736  1.00  0.00    -0.014 A 
BRANCH  35  36
ATOM     36  C   UNL A   1      40.632  27.925  28.164  1.00  0.00     0.031 A 
ATOM     37  C   UNL A   1      42.097  28.266  28.192  1.00  0.00     0.074 A 
ATOM     38  C   UNL A   1      39.723  28.816  28.609  1.00  0.00     0.049 A 
ATOM     39  N   UNL A   1      42.680  29.368  28.587  1.00  0.00    -0.248 NA
ATOM     40  C   UNL A   1      43.036  27.223  27.742  1.00  0.00     0.031 C 
ATOM     41  C   UNL A   1      38.281  28.575  28.709  1.00  0.00     0.029 A 
ATOM     42  N   UNL A   1      39.880  30.093  29.087  1.00  0.00    -0.354 N 
ATOM     43  C   UNL A   1      44.045  29.143  28.466  1.00  0.00     0.074 A 
ATOM     44  C   UNL A   1      44.208  27.784  27.997  1.00  0.00     0.031 C 
ATOM     45  C   UNL A   1      37.688  29.668  29.214  1.00  0.00     0.029 A 
ATOM     46  C   UNL A   1      38.704  30.674  29.503  1.00  0.00     0.049 A 
ATOM     47  H   UNL A   1      40.751  30.550  29.128  1.00  0.00     0.167 HD
ATOM     48  C   UNL A   1      45.071  29.997  28.694  1.00  0.00     0.034 A 
ATOM     49  C   UNL A   1      38.472  31.876  30.065  1.00  0.00     0.034 A 
ATOM     50  C   UNL A   1      44.903  31.358  29.126  1.00  0.00     0.049 A 
ATOM     51  C   UNL A   1      39.627  32.818  30.278  1.00  0.00     0.074 A 
ATOM     52  C   UNL A   1      45.874  32.328  29.306  1.00  0.00     0.029 A 
ATOM     53  N   UNL A   1      43.690  31.940  29.456  1.00  0.00    -0.354 N 
ATOM     54  N   UNL A   1      40.897  32.641  30.008  1.00  0.00    -0.248 NA
ATOM     55  C   UNL A   1      39.312  34.141  30.837  1.00  0.00     0.031 C 
ATOM     56  C   UNL A   1      45.249  33.490  29.771  1.00  0.00     0.029 A 
ATOM     57  C   UNL A   1      43.886  33.253  29.847  1.00  0.00     0.049 A 
ATOM     58  H   UNL A   1      42.817  31.487  29.417  1.00  0.00     0.167 HD
ATOM     59  C   UNL A   1      41.527  33.839  30.328  1.00  0.00     0.074 A 
ATOM     60  C   UNL A   1      40.493  34.742  30.793  1.00  0.00     0.031 C 
ATOM     61  C   UNL A   1      42.842  34.158  30.258  1.00  0.00     0.034 A 
BRANCH  48  62
ATOM     62  C   UNL A   1      46.469  29.498  28.430  1.00  0.00     0.023 A 
ATOM     63  C   UNL A   1      47.061  29.724  27.170  1.00  0.00     0.012 A 
ATOM     64  C   UNL A   1      47.216  28.863  29.441  1.00  0.00     0.148 A 
ATOM     65  C   UNL A   1      48.361  29.293  26.908  1.00  0.00     0.002 A 
ATOM     66  C   UNL A   1      48.529  28.480  29.187  1.00  0.00     0.091 A 
ATOM     67  F   UNL A   1      46.631  28.640  30.626  1.00  0.00    -0.205 F 
ATOM     68  C   UNL A   1      49.097  28.681  27.918  1.00  0.00     0.022 A 
BRANCH  66  69
ATOM     69  S   UNL A   1      49.589  27.759  30.445  1.00  0.00     0.127 S 
ATOM     70  O   UNL A   1      50.838  27.572  29.706  1.00  0.00    -0.237 OA
ATOM     71  O   UNL A   1      49.631  28.818  31.454  1.00  0.00    -0.237 OA
ATOM     72  O   UNL A   1      48.930  26.533  30.874  1.00  0.00    -0.744 OA
ENDBRANCH  66  69
ENDBRANCH  48  62
BRANCH  49  73
ATOM     73  C   UNL A   1      37.082  32.280  30.419  1.00  0.00     0.023 A 
ATOM     74  C   UNL A   1      36.612  32.077  31.731  1.00  0.00     0.012 A 
ATOM     75  C   UNL A   1      36.231  32.878  29.470  1.00  0.00     0.148 A 
ATOM     76  C   UNL A   1      35.308  32.429  32.082  1.00  0.00     0.002 A 
ATOM     77  C   UNL A   1      34.954  33.280  29.842  1.00  0.00     0.091 A 
ATOM     78  F   UNL A   1      36.694  33.054  28.223  1.00  0.00    -0.205 F 
ATOM     79  C   UNL A   1      34.483  33.039  31.141  1.00  0.00     0.022 A 
BRANCH  77  80
ATOM     80  S   UNL A   1      33.871  34.192  28.735  1.00  0.00     0.127 S 
ATOM     81  O   UNL A   1      33.464  33.153  27.793  1.00  0.00    -0.237 OA
ATOM     82  O   UNL A   1      32.819  34.643  29.648  1.00  0.00    -0.237 OA
ATOM     83  O   UNL A   1      34.686  35.265  28.184  1.00  0.00    -0.744 OA
ENDBRANCH  77  80
ENDBRANCH  49  73
BRANCH  61  84
ATOM     84  C   UNL A   1      43.246  35.556  30.649  1.00  0.00     0.023 A 
ATOM     85  C   UNL A   1      43.636  35.833  31.974  1.00  0.00     0.012 A 
ATOM     86  C   UNL A   1      43.308  36.579  29.681  1.00  0.00     0.148 A 
ATOM     87  C   UNL A   1      44.047  37.114  32.338  1.00  0.00     0.002 A 
ATOM     88  C   UNL A   1      43.770  37.839  30.040  1.00  0.00     0.091 A 
ATOM     89  F   UNL A   1      42.917  36.300  28.430  1.00  0.00    -0.205 F 
ATOM     90  C   UNL A   1      44.126  38.112  31.370  1.00  0.00     0.022 A 
BRANCH  88  91
ATOM     91  S   UNL A   1      43.999  39.158  28.842  1.00  0.00     0.127 S 
ATOM     92  O   UNL A   1      42.634  39.367  28.364  1.00  0.00    -0.237 OA
ATOM     93  O   UNL A   1      44.527  40.242  29.673  1.00  0.00    -0.237 OA
ATOM     94  O   UNL A   1      44.937  38.645  27.852  1.00  0.00    -0.744 OA
ENDBRANCH  88  91
ENDBRANCH  61  84
ENDBRANCH  35  36
ENDBRANCH  27  30
ENDBRANCH  25  26
ENDBRANCH  24  25
ENDBRANCH   1  24
TORSDOF 18
ENDMDL
MODEL 3
REMARK VINA RESULT:     -11.0      1.740      2.754
REMARK SMILES C[C@@]([NH2+]Cc1ccccc1Br)(C(=O)NCCCCNC(=O)c1ccc(-c2c3nc(c(-c4cccc(S(=O)(=O)[O-])c4F)c4ccc([nH]4)c(-c4cccc(S(=O)(=O)[O-])c4F)c4nc(c(-c5cccc(S(=O)(=O)[O-])c5F)c5ccc2[nH]5)C=C4)C=C3)cc1)C(F)(F)F
REMARK SMILES IDX 16 1 15 2 14 3 12 4 13 5 2 7 1 8 3 9 4 12 5 13 6 14 10 15
REMARK SMILES IDX 7 16 9 17 11 18 8 19 85 20 86 21 87 22 88 23 17 24 18 25
REMARK SMILES IDX 19 26 20 27 21 29 22 30 23 31 84 32 24 33 83 34 25 35 26 36
REMARK SMILES IDX 27 37 77 38 28 39 82 40 76 41 78 42 29 43 81 44 75 45 74 46
REMARK SMILES IDX 30 48 62 49 42 50 61 51 43 52 46 53 60 54 79 55 44 56 45 57
REMARK SMILES IDX 59 59 80 60 47 61 31 62 32 63 40 64 33 65 35 66 41 67 34 68
REMARK SMILES IDX 36 69 37 70 38 71 39 72 63 73 64 74 72 75 65 76 67 77 73 78
REMARK SMILES IDX 66 79 68 80 69 81 70 82 71 83 48 84 49 85 57 86 50 87 52 88
REMARK SMILES IDX 58 89 51 90 53 91 54 92 55 93 56 94
REMARK H PARENT 14 6 3 10 3 11 19 28 78 47 46 58
REMARK Flexibility Score: inf
ROOT
ATOM      1  C   UNL A   1      36.465  20.116  24.954  1.00  0.00     0.023 C 
ENDROOT
BRANCH   1   2
ATOM      2  C   UNL A   1      36.061  21.515  25.422  1.00  0.00     0.116 C 
BRANCH   2   3
ATOM      3  N   UNL A   1      35.192  21.445  26.580  1.00  0.00    -0.350 N 
ATOM      4  C   UNL A   1      34.039  22.106  26.884  1.00  0.00     0.290 C 
ATOM      5  O   UNL A   1      33.549  21.828  27.982  1.00  0.00    -0.267 OA
ATOM      6  H   UNL A   1      35.488  20.807  27.269  1.00  0.00     0.163 HD
BRANCH   4   7
ATOM      7  C   UNL A   1      33.360  23.089  25.906  1.00  0.00     0.268 C 
ATOM      8  C   UNL A   1      32.303  23.962  26.621  1.00  0.00     0.101 C 
BRANCH   7   9
ATOM      9  N   UNL A   1      34.371  24.077  25.367  1.00  0.00    -0.322 N 
ATOM     10  H   UNL A   1      34.646  23.756  24.440  1.00  0.00     0.347 HD
ATOM     11  H   UNL A   1      35.115  24.090  26.064  1.00  0.00     0.347 HD
BRANCH   9  12
ATOM     12  C   UNL A   1      33.952  25.477  25.242  1.00  0.00     0.299 C 
BRANCH  12  13
ATOM     13  C   UNL A   1      33.188  25.823  23.985  1.00  0.00     0.020 A 
ATOM     14  C   UNL A   1      33.618  25.231  22.780  1.00  0.00     0.011 A 
ATOM     15  C   UNL A   1      32.067  26.668  23.937  1.00  0.00     0.026 A 
ATOM     16  C   UNL A   1      32.877  25.367  21.605  1.00  0.00     0.001 A 
ATOM     17  C   UNL A   1      31.302  26.768  22.769  1.00  0.00     0.016 A 
ATOM     18  Br  UNL A   1      31.496  27.723  25.416  1.00  0.00    -0.050 Br
ATOM     19  C   UNL A   1      31.697  26.102  21.610  1.00  0.00     0.001 A 
ENDBRANCH  12  13
ENDBRANCH   9  12
ENDBRANCH   7   9
BRANCH   7  20
ATOM     20  C   UNL A   1      32.532  22.209  24.915  1.00  0.00     0.453 C 
ATOM     21  F   UNL A   1      31.523  22.909  24.339  1.00  0.00    -0.164 F 
ATOM     22  F   UNL A   1      33.328  21.804  23.884  1.00  0.00    -0.164 F 
ATOM     23  F   UNL A   1      31.997  21.098  25.451  1.00  0.00    -0.164 F 
ENDBRANCH   7  20
ENDBRANCH   4   7
ENDBRANCH   2   3
ENDBRANCH   1   2
BRANCH   1  24
ATOM     24  C   UNL A   1      37.972  19.920  24.771  1.00  0.00     0.023 C 
BRANCH  24  25
ATOM     25  C   UNL A   1      38.793  20.028  26.050  1.00  0.00     0.116 C 
BRANCH  25  26
ATOM     26  N   UNL A   1      40.000  19.213  26.014  1.00  0.00    -0.352 N 
ATOM     27  C   UNL A   1      41.306  19.613  26.154  1.00  0.00     0.251 C 
ATOM     28  H   UNL A   1      39.860  18.249  25.869  1.00  0.00     0.163 HD
ATOM     29  O   UNL A   1      42.221  18.818  25.950  1.00  0.00    -0.269 OA
BRANCH  27  30
ATOM     30  C   UNL A   1      41.598  21.013  26.522  1.00  0.00     0.039 A 
ATOM     31  C   UNL A   1      42.171  21.280  27.767  1.00  0.00     0.014 A 
ATOM     32  C   UNL A   1      41.342  22.052  25.623  1.00  0.00     0.014 A 
ATOM     33  C   UNL A   1      42.545  22.587  28.085  1.00  0.00     0.010 A 
ATOM     34  C   UNL A   1      41.788  23.338  25.910  1.00  0.00     0.010 A 
ATOM     35  C   UNL A   1      42.389  23.621  27.145  1.00  0.00    -0.014 A 
BRANCH  35  36
ATOM     36  C   UNL A   1      42.859  24.999  27.432  1.00  0.00     0.031 A 
ATOM     37  C   UNL A   1      41.937  25.994  28.084  1.00  0.00     0.074 A 
ATOM     38  C   UNL A   1      44.088  25.382  27.029  1.00  0.00     0.049 A 
ATOM     39  N   UNL A   1      42.148  27.254  28.363  1.00  0.00    -0.248 NA
ATOM     40  C   UNL A   1      40.591  25.519  28.448  1.00  0.00     0.031 C 
ATOM     41  C   UNL A   1      45.046  24.535  26.314  1.00  0.00     0.029 A 
ATOM     42  N   UNL A   1      44.732  26.589  27.140  1.00  0.00    -0.354 N 
ATOM     43  C   UNL A   1      40.959  27.730  28.900  1.00  0.00     0.074 A 
ATOM     44  C   UNL A   1      40.016  26.633  28.874  1.00  0.00     0.031 C 
ATOM     45  C   UNL A   1      46.153  25.247  26.052  1.00  0.00     0.029 A 
ATOM     46  C   UNL A   1      45.975  26.607  26.550  1.00  0.00     0.049 A 
ATOM     47  H   UNL A   1      44.342  27.368  27.597  1.00  0.00     0.167 HD
ATOM     48  C   UNL A   1      40.684  28.958  29.399  1.00  0.00     0.034 A 
ATOM     49  C   UNL A   1      46.866  27.609  26.414  1.00  0.00     0.034 A 
ATOM     50  C   UNL A   1      41.635  30.035  29.456  1.00  0.00     0.049 A 
ATOM     51  C   UNL A   1      46.547  28.955  27.007  1.00  0.00     0.074 A 
ATOM     52  C   UNL A   1      41.479  31.291  30.017  1.00  0.00     0.029 A 
ATOM     53  N   UNL A   1      42.914  29.990  28.926  1.00  0.00    -0.354 N 
ATOM     54  N   UNL A   1      45.473  29.339  27.653  1.00  0.00    -0.248 NA
ATOM     55  C   UNL A   1      47.578  29.996  26.886  1.00  0.00     0.031 C 
ATOM     56  C   UNL A   1      42.656  32.015  29.801  1.00  0.00     0.029 A 
ATOM     57  C   UNL A   1      43.557  31.198  29.137  1.00  0.00     0.049 A 
ATOM     58  H   UNL A   1      43.308  29.213  28.467  1.00  0.00     0.167 HD
ATOM     59  C   UNL A   1      45.713  30.650  28.047  1.00  0.00     0.074 A 
ATOM     60  C   UNL A   1      47.045  30.988  27.585  1.00  0.00     0.031 C 
ATOM     61  C   UNL A   1      44.901  31.503  28.718  1.00  0.00     0.034 A 
BRANCH  48  62
ATOM     62  C   UNL A   1      39.308  29.188  29.973  1.00  0.00     0.023 A 
ATOM     63  C   UNL A   1      39.003  28.703  31.261  1.00  0.00     0.012 A 
ATOM     64  C   UNL A   1      38.343  29.934  29.268  1.00  0.00     0.148 A 
ATOM     65  C   UNL A   1      37.746  28.922  31.824  1.00  0.00     0.002 A 
ATOM     66  C   UNL A   1      37.109  30.189  29.856  1.00  0.00     0.091 A 
ATOM     67  F   UNL A   1      38.645  30.370  28.037  1.00  0.00    -0.205 F 
ATOM     68  C   UNL A   1      36.804  29.674  31.126  1.00  0.00     0.022 A 
BRANCH  66  69
ATOM     69  S   UNL A   1      35.857  31.214  29.076  1.00  0.00     0.127 S 
ATOM     70  O   UNL A   1      35.215  30.260  28.172  1.00  0.00    -0.237 OA
ATOM     71  O   UNL A   1      35.037  31.618  30.218  1.00  0.00    -0.237 OA
ATOM     72  O   UNL A   1      36.574  32.302  28.425  1.00  0.00    -0.744 OA
ENDBRANCH  66  69
ENDBRANCH  48  62
BRANCH  49  73
ATOM     73  C   UNL A   1      48.168  27.362  25.733  1.00  0.00     0.023 A 
ATOM     74  C   UNL A   1      49.288  26.973  26.493  1.00  0.00     0.012 A 
ATOM     75  C   UNL A   1      48.298  27.492  24.337  1.00  0.00     0.148 A 
ATOM     76  C   UNL A   1      50.523  26.755  25.881  1.00  0.00     0.002 A 
ATOM     77  C   UNL A   1      49.516  27.216  23.727  1.00  0.00     0.091 A 
ATOM     78  F   UNL A   1      47.223  27.872  23.631  1.00  0.00    -0.205 F 
ATOM     79  C   UNL A   1      50.635  26.866  24.498  1.00  0.00     0.022 A 
BRANCH  77  80
ATOM     80  S   UNL A   1      49.718  27.204  21.941  1.00  0.00     0.127 S 
ATOM     81  O   UNL A   1      48.733  26.204  21.536  1.00  0.00    -0.237 OA
ATOM     82  O   UNL A   1      49.376  28.583  21.591  1.00  0.00    -0.237 OA
ATOM     83  O   UNL A   1      51.112  26.854  21.705  1.00  0.00    -0.744 OA
ENDBRANCH  77  80
ENDBRANCH  49  73
BRANCH  61  84
ATOM     84  C   UNL A   1      45.436  32.875  29.038  1.00  0.00     0.023 A 
ATOM     85  C   UNL A   1      46.141  33.095  30.238  1.00  0.00     0.012 A 
ATOM     86  C   UNL A   1      45.302  33.929  28.111  1.00  0.00     0.148 A 
ATOM     87  C   UNL A   1      46.674  34.351  30.526  1.00  0.00     0.002 A 
ATOM     88  C   UNL A   1      45.881  35.162  28.382  1.00  0.00     0.091 A 
ATOM     89  F   UNL A   1      44.613  33.704  26.983  1.00  0.00    -0.205 F 
ATOM     90  C   UNL A   1      46.555  35.379  29.595  1.00  0.00     0.022 A 
BRANCH  88  91
ATOM     91  S   UNL A   1      45.865  36.514  27.199  1.00  0.00     0.127 S 
ATOM     92  O   UNL A   1      46.475  35.891  26.026  1.00  0.00    -0.237 OA
ATOM     93  O   UNL A   1      44.434  36.793  27.068  1.00  0.00    -0.237 OA
ATOM     94  O   UNL A   1      46.636  37.590  27.807  1.00  0.00    -0.744 OA
ENDBRANCH  88  91
ENDBRANCH  61  84
ENDBRANCH  35  36
ENDBRANCH  27  30
ENDBRANCH  25  26
ENDBRANCH  24  25
ENDBRANCH   1  24
TORSDOF 18
ENDMDL
