MODEL 1
REMARK VINA RESULT:     -12.7      0.000      0.000
REMARK SMILES Cc1ccnc(C(=O)c2[nH]c3ccc(OC(F)(F)F)cc3c2CC(=O)NCCCCNC(=O)c2ccc(-c3c4nc(c(-c5cccc(S(=O)(=O)[O-])c5F)c5ccc([nH]5)c(-c5cccc(S(=O)(=O)[O-])c5F)c5nc(c(-c6cccc(S(=O)(=O)[O-])c6F)c6ccc3[nH]6)C=C5)C=C4)cc2)c1
REMARK SMILES IDX 28 1 27 2 26 3 24 4 25 5 23 7 22 8 9 9 10 10 11 11 21 13
REMARK SMILES IDX 12 14 20 15 13 16 14 17 7 18 8 19 6 20 1 21 2 22 3 23 97 24
REMARK SMILES IDX 4 25 5 26 15 27 16 28 17 29 18 30 19 31 29 32 30 33 31 34
REMARK SMILES IDX 32 35 33 37 34 38 35 39 96 40 36 41 95 42 37 43 38 44 39 45
REMARK SMILES IDX 89 46 40 47 94 48 88 49 90 50 41 51 93 52 87 53 86 54 42 56
REMARK SMILES IDX 74 57 54 58 73 59 55 60 58 61 72 62 91 63 56 64 57 65 71 67
REMARK SMILES IDX 92 68 59 69 43 70 44 71 52 72 45 73 47 74 53 75 46 76 48 77
REMARK SMILES IDX 49 78 50 79 51 80 75 81 76 82 84 83 77 84 79 85 85 86 78 87
REMARK SMILES IDX 80 88 81 89 82 90 83 91 60 92 61 93 69 94 62 95 64 96 70 97
REMARK SMILES IDX 63 98 65 99 66 100 67 101 68 102
REMARK H PARENT 26 6 10 12 31 36 90 55 58 66
REMARK Flexibility Score: inf
ROOT
ATOM      1  C   UNL A   1      34.530  30.892  27.757  1.00  0.00     0.023 C 
ENDROOT
BRANCH   1   2
ATOM      2  C   UNL A   1      34.222  29.475  27.278  1.00  0.00     0.116 C 
BRANCH   2   3
ATOM      3  N   UNL A   1      32.996  28.940  27.832  1.00  0.00    -0.356 N 
ATOM      4  C   UNL A   1      32.143  28.011  27.308  1.00  0.00     0.224 C 
ATOM      5  O   UNL A   1      31.251  27.562  28.034  1.00  0.00    -0.275 OA
ATOM      6  H   UNL A   1      32.740  29.299  28.712  1.00  0.00     0.163 HD
BRANCH   4   7
ATOM      7  C   UNL A   1      32.364  27.435  25.916  1.00  0.00     0.138 C 
BRANCH   7   8
ATOM      8  C   UNL A   1      31.128  26.946  25.214  1.00  0.00    -0.002 A 
ATOM      9  C   UNL A   1      30.596  25.660  25.233  1.00  0.00     0.093 A 
ATOM     10  N   UNL A   1      29.396  25.704  24.558  1.00  0.00    -0.352 N 
ATOM     11  C   UNL A   1      29.207  26.935  23.982  1.00  0.00     0.046 A 
ATOM     12  H   UNL A   1      28.761  24.954  24.499  1.00  0.00     0.167 HD
ATOM     13  C   UNL A   1      30.285  27.731  24.356  1.00  0.00     0.008 A 
ATOM     14  C   UNL A   1      28.158  27.408  23.188  1.00  0.00     0.030 A 
ATOM     15  C   UNL A   1      30.319  29.065  23.897  1.00  0.00     0.057 A 
ATOM     16  C   UNL A   1      28.215  28.740  22.753  1.00  0.00     0.049 A 
ATOM     17  C   UNL A   1      29.282  29.567  23.099  1.00  0.00     0.130 A 
BRANCH   9  18
ATOM     18  C   UNL A   1      31.083  24.474  25.917  1.00  0.00     0.227 C 
ATOM     19  O   UNL A   1      31.095  24.414  27.141  1.00  0.00    -0.285 OA
BRANCH  18  20
ATOM     20  C   UNL A   1      31.556  23.303  25.086  1.00  0.00     0.113 A 
ATOM     21  C   UNL A   1      32.730  19.706  25.392  1.00  0.00     0.044 C 
ATOM     22  C   UNL A   1      32.339  21.038  24.826  1.00  0.00    -0.047 A 
ATOM     23  C   UNL A   1      32.434  21.273  23.454  1.00  0.00     0.023 A 
ATOM     24  C   UNL A   1      31.872  22.066  25.652  1.00  0.00     0.036 A 
ATOM     25  C   UNL A   1      32.082  22.522  22.970  1.00  0.00     0.112 A 
ATOM     26  N   UNL A   1      31.661  23.534  23.753  1.00  0.00    -0.253 NA
ENDBRANCH  18  20
ENDBRANCH   9  18
BRANCH  17  27
ATOM     27  O   UNL A   1      29.445  30.877  22.741  1.00  0.00    -0.406 OA
BRANCH  27  28
ATOM     28  C   UNL A   1      28.891  31.869  23.585  1.00  0.00     0.573 C 
ATOM     29  F   UNL A   1      27.607  31.583  23.893  1.00  0.00    -0.132 F 
ATOM     30  F   UNL A   1      29.607  32.005  24.720  1.00  0.00    -0.132 F 
ATOM     31  F   UNL A   1      28.908  33.052  22.931  1.00  0.00    -0.132 F 
ENDBRANCH  27  28
ENDBRANCH  17  27
ENDBRANCH   7   8
ENDBRANCH   4   7
ENDBRANCH   2   3
ENDBRANCH   1   2
BRANCH   1  32
ATOM     32  C   UNL A   1      33.334  31.843  27.819  1.00  0.00     0.023 C 
BRANCH  32  33
ATOM     33  C   UNL A   1      33.491  33.155  27.058  1.00  0.00     0.116 C 
BRANCH  33  34
ATOM     34  N   UNL A   1      32.863  34.290  27.720  1.00  0.00    -0.352 N 
ATOM     35  C   UNL A   1      33.195  34.881  28.917  1.00  0.00     0.251 C 
ATOM     36  H   UNL A   1      32.096  34.687  27.247  1.00  0.00     0.163 HD
ATOM     37  O   UNL A   1      32.496  35.780  29.369  1.00  0.00    -0.269 OA
BRANCH  35  38
ATOM     38  C   UNL A   1      34.371  34.398  29.677  1.00  0.00     0.039 A 
ATOM     39  C   UNL A   1      34.156  33.696  30.867  1.00  0.00     0.014 A 
ATOM     40  C   UNL A   1      35.672  34.621  29.220  1.00  0.00     0.014 A 
ATOM     41  C   UNL A   1      35.241  33.153  31.560  1.00  0.00     0.010 A 
ATOM     42  C   UNL A   1      36.749  34.032  29.881  1.00  0.00     0.010 A 
ATOM     43  C   UNL A   1      36.542  33.289  31.051  1.00  0.00    -0.014 A 
BRANCH  43  44
ATOM     44  C   UNL A   1      37.700  32.636  31.710  1.00  0.00     0.031 A 
ATOM     45  C   UNL A   1      38.397  31.482  31.050  1.00  0.00     0.074 A 
ATOM     46  C   UNL A   1      38.057  33.022  32.950  1.00  0.00     0.049 A 
ATOM     47  N   UNL A   1      39.387  30.754  31.497  1.00  0.00    -0.248 NA
ATOM     48  C   UNL A   1      37.906  31.077  29.722  1.00  0.00     0.031 C 
ATOM     49  C   UNL A   1      37.409  34.080  33.726  1.00  0.00     0.029 A 
ATOM     50  N   UNL A   1      39.040  32.552  33.785  1.00  0.00    -0.354 N 
ATOM     51  C   UNL A   1      39.614  29.786  30.528  1.00  0.00     0.074 A 
ATOM     52  C   UNL A   1      38.646  30.006  29.475  1.00  0.00     0.031 C 
ATOM     53  C   UNL A   1      38.018  34.188  34.918  1.00  0.00     0.029 A 
ATOM     54  C   UNL A   1      39.085  33.195  34.999  1.00  0.00     0.049 A 
ATOM     55  H   UNL A   1      39.655  31.824  33.537  1.00  0.00     0.167 HD
ATOM     56  C   UNL A   1      40.566  28.823  30.498  1.00  0.00     0.034 A 
ATOM     57  C   UNL A   1      39.901  33.012  36.055  1.00  0.00     0.034 A 
ATOM     58  C   UNL A   1      41.571  28.649  31.510  1.00  0.00     0.049 A 
ATOM     59  C   UNL A   1      40.977  31.964  35.978  1.00  0.00     0.074 A 
ATOM     60  C   UNL A   1      42.642  27.771  31.519  1.00  0.00     0.029 A 
ATOM     61  N   UNL A   1      41.632  29.367  32.694  1.00  0.00    -0.354 N 
ATOM     62  N   UNL A   1      41.281  31.168  34.982  1.00  0.00    -0.248 NA
ATOM     63  C   UNL A   1      41.842  31.811  37.157  1.00  0.00     0.031 C 
ATOM     64  C   UNL A   1      43.354  27.966  32.709  1.00  0.00     0.029 A 
ATOM     65  C   UNL A   1      42.719  28.954  33.444  1.00  0.00     0.049 A 
ATOM     66  H   UNL A   1      40.994  30.067  32.962  1.00  0.00     0.167 HD
ATOM     67  C   UNL A   1      42.387  30.439  35.402  1.00  0.00     0.074 A 
ATOM     68  C   UNL A   1      42.711  30.900  36.737  1.00  0.00     0.031 C 
ATOM     69  C   UNL A   1      43.063  29.465  34.745  1.00  0.00     0.034 A 
BRANCH  56  70
ATOM     70  C   UNL A   1      40.611  27.941  29.283  1.00  0.00     0.023 A 
ATOM     71  C   UNL A   1      39.765  26.816  29.225  1.00  0.00     0.012 A 
ATOM     72  C   UNL A   1      41.457  28.226  28.195  1.00  0.00     0.148 A 
ATOM     73  C   UNL A   1      39.779  25.973  28.115  1.00  0.00     0.002 A 
ATOM     74  C   UNL A   1      41.444  27.395  27.079  1.00  0.00     0.091 A 
ATOM     75  F   UNL A   1      42.281  29.281  28.275  1.00  0.00    -0.205 F 
ATOM     76  C   UNL A   1      40.611  26.267  27.038  1.00  0.00     0.022 A 
BRANCH  74  77
ATOM     77  S   UNL A   1      42.462  27.760  25.644  1.00  0.00     0.127 S 
ATOM     78  O   UNL A   1      43.807  27.729  26.211  1.00  0.00    -0.237 OA
ATOM     79  O   UNL A   1      42.161  26.649  24.738  1.00  0.00    -0.237 OA
ATOM     80  O   UNL A   1      41.990  29.055  25.172  1.00  0.00    -0.744 OA
ENDBRANCH  74  77
ENDBRANCH  56  70
BRANCH  57  81
ATOM     81  C   UNL A   1      39.798  33.921  37.229  1.00  0.00     0.023 A 
ATOM     82  C   UNL A   1      40.321  35.224  37.120  1.00  0.00     0.012 A 
ATOM     83  C   UNL A   1      39.146  33.537  38.416  1.00  0.00     0.148 A 
ATOM     84  C   UNL A   1      40.206  36.127  38.177  1.00  0.00     0.002 A 
ATOM     85  C   UNL A   1      38.998  34.456  39.450  1.00  0.00     0.091 A 
ATOM     86  F   UNL A   1      38.672  32.286  38.505  1.00  0.00    -0.205 F 
ATOM     87  C   UNL A   1      39.535  35.748  39.336  1.00  0.00     0.022 A 
BRANCH  85  88
ATOM     88  S   UNL A   1      38.047  34.091  40.930  1.00  0.00     0.127 S 
ATOM     89  O   UNL A   1      36.906  33.366  40.381  1.00  0.00    -0.237 OA
ATOM     90  O   UNL A   1      38.983  33.273  41.703  1.00  0.00    -0.237 OA
ATOM     91  O   UNL A   1      37.752  35.385  41.529  1.00  0.00    -0.744 OA
ENDBRANCH  85  88
ENDBRANCH  57  81
BRANCH  69  92
ATOM     92  C   UNL A   1      44.230  28.832  35.453  1.00  0.00     0.023 A 
ATOM     93  C   UNL A   1      45.520  29.362  35.257  1.00  0.00     0.012 A 
ATOM     94  C   UNL A   1      44.043  27.775  36.363  1.00  0.00     0.148 A 
ATOM     95  C   UNL A   1      46.612  28.839  35.950  1.00  0.00     0.002 A 
ATOM     96  C   UNL A   1      45.132  27.280  37.074  1.00  0.00     0.091 A 
ATOM     97  F   UNL A   1      42.812  27.265  36.516  1.00  0.00    -0.205 F 
ATOM     98  C   UNL A   1      46.417  27.806  36.865  1.00  0.00     0.022 A 
BRANCH  96  99
ATOM     99  S   UNL A   1      44.931  26.005  38.323  1.00  0.00     0.127 S 
ATOM    100  O   UNL A   1      44.438  24.880  37.532  1.00  0.00    -0.237 OA
ATOM    101  O   UNL A   1      46.291  25.837  38.837  1.00  0.00    -0.237 OA
ATOM    102  O   UNL A   1      43.995  26.563  39.292  1.00  0.00    -0.744 OA
ENDBRANCH  96  99
ENDBRANCH  69  92
ENDBRANCH  43  44
ENDBRANCH  35  38
ENDBRANCH  33  34
ENDBRANCH  32  33
ENDBRANCH   1  32
TORSDOF 19
ENDMDL
MODEL 2
REMARK VINA RESULT:     -12.6      5.637     10.303
REMARK SMILES Cc1ccnc(C(=O)c2[nH]c3ccc(OC(F)(F)F)cc3c2CC(=O)NCCCCNC(=O)c2ccc(-c3c4nc(c(-c5cccc(S(=O)(=O)[O-])c5F)c5ccc([nH]5)c(-c5cccc(S(=O)(=O)[O-])c5F)c5nc(c(-c6cccc(S(=O)(=O)[O-])c6F)c6ccc3[nH]6)C=C5)C=C4)cc2)c1
REMARK SMILES IDX 28 1 27 2 26 3 24 4 25 5 23 7 22 8 9 9 10 10 11 11 21 13
REMARK SMILES IDX 12 14 20 15 13 16 14 17 7 18 8 19 6 20 1 21 2 22 3 23 97 24
REMARK SMILES IDX 4 25 5 26 15 27 16 28 17 29 18 30 19 31 29 32 30 33 31 34
REMARK SMILES IDX 32 35 33 37 34 38 35 39 96 40 36 41 95 42 37 43 38 44 39 45
REMARK SMILES IDX 89 46 40 47 94 48 88 49 90 50 41 51 93 52 87 53 86 54 42 56
REMARK SMILES IDX 74 57 54 58 73 59 55 60 58 61 72 62 91 63 56 64 57 65 71 67
REMARK SMILES IDX 92 68 59 69 43 70 44 71 52 72 45 73 47 74 53 75 46 76 48 77
REMARK SMILES IDX 49 78 50 79 51 80 75 81 76 82 84 83 77 84 79 85 85 86 78 87
REMARK SMILES IDX 80 88 81 89 82 90 83 91 60 92 61 93 69 94 62 95 64 96 70 97
REMARK SMILES IDX 63 98 65 99 66 100 67 101 68 102
REMARK H PARENT 26 6 10 12 31 36 90 55 58 66
REMARK Flexibility Score: inf
ROOT
ATOM      1  C   UNL A   1      35.359  23.496  24.091  1.00  0.00     0.023 C 
ENDROOT
BRANCH   1   2
ATOM      2  C   UNL A   1      34.582  24.627  24.761  1.00  0.00     0.116 C 
BRANCH   2   3
ATOM      3  N   UNL A   1      34.400  25.779  23.903  1.00  0.00    -0.356 N 
ATOM      4  C   UNL A   1      33.567  26.851  24.058  1.00  0.00     0.224 C 
ATOM      5  O   UNL A   1      33.705  27.814  23.298  1.00  0.00    -0.275 OA
ATOM      6  H   UNL A   1      34.955  25.791  23.090  1.00  0.00     0.163 HD
BRANCH   4   7
ATOM      7  C   UNL A   1      32.586  26.924  25.220  1.00  0.00     0.138 C 
BRANCH   7   8
ATOM      8  C   UNL A   1      31.157  26.604  24.882  1.00  0.00    -0.002 A 
ATOM      9  C   UNL A   1      30.465  25.428  25.154  1.00  0.00     0.093 A 
ATOM     10  N   UNL A   1      29.155  25.628  24.781  1.00  0.00    -0.352 N 
ATOM     11  C   UNL A   1      29.009  26.836  24.147  1.00  0.00     0.046 A 
ATOM     12  H   UNL A   1      28.423  24.991  24.948  1.00  0.00     0.167 HD
ATOM     13  C   UNL A   1      30.250  27.464  24.175  1.00  0.00     0.008 A 
ATOM     14  C   UNL A   1      27.875  27.427  23.581  1.00  0.00     0.030 A 
ATOM     15  C   UNL A   1      30.362  28.744  23.591  1.00  0.00     0.057 A 
ATOM     16  C   UNL A   1      28.015  28.703  23.015  1.00  0.00     0.049 A 
ATOM     17  C   UNL A   1      29.242  29.361  23.015  1.00  0.00     0.130 A 
BRANCH   9  18
ATOM     18  C   UNL A   1      30.930  24.220  25.817  1.00  0.00     0.227 C 
ATOM     19  O   UNL A   1      30.923  24.132  27.040  1.00  0.00    -0.285 OA
BRANCH  18  20
ATOM     20  C   UNL A   1      31.403  23.064  24.966  1.00  0.00     0.113 A 
ATOM     21  C   UNL A   1      32.660  19.491  25.217  1.00  0.00     0.044 C 
ATOM     22  C   UNL A   1      32.225  20.817  24.670  1.00  0.00    -0.047 A 
ATOM     23  C   UNL A   1      32.275  21.062  23.298  1.00  0.00     0.023 A 
ATOM     24  C   UNL A   1      31.761  21.831  25.516  1.00  0.00     0.036 A 
ATOM     25  C   UNL A   1      31.883  22.305  22.832  1.00  0.00     0.112 A 
ATOM     26  N   UNL A   1      31.464  23.304  23.632  1.00  0.00    -0.253 NA
ENDBRANCH  18  20
ENDBRANCH   9  18
BRANCH  17  27
ATOM     27  O   UNL A   1      29.499  30.602  22.501  1.00  0.00    -0.406 OA
BRANCH  27  28
ATOM     28  C   UNL A   1      28.607  31.652  22.825  1.00  0.00     0.573 C 
ATOM     29  F   UNL A   1      28.060  31.465  24.046  1.00  0.00    -0.132 F 
ATOM     30  F   UNL A   1      29.225  32.851  22.788  1.00  0.00    -0.132 F 
ATOM     31  F   UNL A   1      27.605  31.665  21.919  1.00  0.00    -0.132 F 
ENDBRANCH  27  28
ENDBRANCH  17  27
ENDBRANCH   7   8
ENDBRANCH   4   7
ENDBRANCH   2   3
ENDBRANCH   1   2
BRANCH   1  32
ATOM     32  C   UNL A   1      35.391  22.172  24.857  1.00  0.00     0.023 C 
BRANCH  32  33
ATOM     33  C   UNL A   1      36.383  22.099  26.013  1.00  0.00     0.116 C 
BRANCH  33  34
ATOM     34  N   UNL A   1      37.387  21.058  25.853  1.00  0.00    -0.352 N 
ATOM     35  C   UNL A   1      38.750  21.141  26.025  1.00  0.00     0.251 C 
ATOM     36  H   UNL A   1      37.045  20.175  25.584  1.00  0.00     0.163 HD
ATOM     37  O   UNL A   1      39.459  20.178  25.759  1.00  0.00    -0.269 OA
BRANCH  35  38
ATOM     38  C   UNL A   1      39.358  22.409  26.488  1.00  0.00     0.039 A 
ATOM     39  C   UNL A   1      40.431  22.348  27.384  1.00  0.00     0.014 A 
ATOM     40  C   UNL A   1      38.889  23.646  26.040  1.00  0.00     0.014 A 
ATOM     41  C   UNL A   1      41.081  23.522  27.770  1.00  0.00     0.010 A 
ATOM     42  C   UNL A   1      39.572  24.812  26.383  1.00  0.00     0.010 A 
ATOM     43  C   UNL A   1      40.676  24.760  27.244  1.00  0.00    -0.014 A 
BRANCH  43  44
ATOM     44  C   UNL A   1      41.413  26.009  27.557  1.00  0.00     0.031 A 
ATOM     45  C   UNL A   1      40.752  27.104  28.341  1.00  0.00     0.074 A 
ATOM     46  C   UNL A   1      42.647  26.192  27.047  1.00  0.00     0.049 A 
ATOM     47  N   UNL A   1      41.218  28.283  28.662  1.00  0.00    -0.248 NA
ATOM     48  C   UNL A   1      39.378  26.854  28.808  1.00  0.00     0.031 C 
ATOM     49  C   UNL A   1      43.366  25.232  26.209  1.00  0.00     0.029 A 
ATOM     50  N   UNL A   1      43.504  27.259  27.142  1.00  0.00    -0.354 N 
ATOM     51  C   UNL A   1      40.188  28.928  29.334  1.00  0.00     0.074 A 
ATOM     52  C   UNL A   1      39.064  28.018  29.359  1.00  0.00     0.031 C 
ATOM     53  C   UNL A   1      44.560  25.747  25.875  1.00  0.00     0.029 A 
ATOM     54  C   UNL A   1      44.684  27.080  26.458  1.00  0.00     0.049 A 
ATOM     55  H   UNL A   1      43.296  28.075  27.652  1.00  0.00     0.167 HD
ATOM     56  C   UNL A   1      40.190  30.153  29.912  1.00  0.00     0.034 A 
ATOM     57  C   UNL A   1      45.748  27.895  26.324  1.00  0.00     0.034 A 
ATOM     58  C   UNL A   1      41.328  31.029  29.947  1.00  0.00     0.049 A 
ATOM     59  C   UNL A   1      45.740  29.232  27.012  1.00  0.00     0.074 A 
ATOM     60  C   UNL A   1      41.461  32.243  30.597  1.00  0.00     0.029 A 
ATOM     61  N   UNL A   1      42.532  30.784  29.305  1.00  0.00    -0.354 N 
ATOM     62  N   UNL A   1      44.818  29.756  27.783  1.00  0.00    -0.248 NA
ATOM     63  C   UNL A   1      46.930  30.077  26.836  1.00  0.00     0.031 C 
ATOM     64  C   UNL A   1      42.752  32.729  30.354  1.00  0.00     0.029 A 
ATOM     65  C   UNL A   1      43.415  31.823  29.541  1.00  0.00     0.049 A 
ATOM     66  H   UNL A   1      42.730  29.988  28.762  1.00  0.00     0.167 HD
ATOM     67  C   UNL A   1      45.327  30.977  28.208  1.00  0.00     0.074 A 
ATOM     68  C   UNL A   1      46.645  31.109  27.621  1.00  0.00     0.031 C 
ATOM     69  C   UNL A   1      44.746  31.912  29.000  1.00  0.00     0.034 A 
BRANCH  56  70
ATOM     70  C   UNL A   1      38.938  30.575  30.628  1.00  0.00     0.023 A 
ATOM     71  C   UNL A   1      38.856  30.394  32.023  1.00  0.00     0.012 A 
ATOM     72  C   UNL A   1      37.861  31.167  29.943  1.00  0.00     0.148 A 
ATOM     73  C   UNL A   1      37.711  30.773  32.722  1.00  0.00     0.002 A 
ATOM     74  C   UNL A   1      36.733  31.569  30.653  1.00  0.00     0.091 A 
ATOM     75  F   UNL A   1      37.937  31.305  28.611  1.00  0.00    -0.205 F 
ATOM     76  C   UNL A   1      36.653  31.368  32.039  1.00  0.00     0.022 A 
BRANCH  74  77
ATOM     77  S   UNL A   1      35.363  32.386  29.826  1.00  0.00     0.127 S 
ATOM     78  O   UNL A   1      34.386  32.507  30.905  1.00  0.00    -0.237 OA
ATOM     79  O   UNL A   1      35.951  33.656  29.396  1.00  0.00    -0.237 OA
ATOM     80  O   UNL A   1      35.007  31.495  28.730  1.00  0.00    -0.744 OA
ENDBRANCH  74  77
ENDBRANCH  56  70
BRANCH  57  81
ATOM     81  C   UNL A   1      46.955  27.413  25.598  1.00  0.00     0.023 A 
ATOM     82  C   UNL A   1      47.805  26.491  26.239  1.00  0.00     0.012 A 
ATOM     83  C   UNL A   1      47.235  27.804  24.275  1.00  0.00     0.148 A 
ATOM     84  C   UNL A   1      48.921  25.976  25.581  1.00  0.00     0.002 A 
ATOM     85  C   UNL A   1      48.327  27.254  23.610  1.00  0.00     0.091 A 
ATOM     86  F   UNL A   1      46.423  28.696  23.690  1.00  0.00    -0.205 F 
ATOM     87  C   UNL A   1      49.175  26.348  24.264  1.00  0.00     0.022 A 
BRANCH  85  88
ATOM     88  S   UNL A   1      48.661  27.587  21.876  1.00  0.00     0.127 S 
ATOM     89  O   UNL A   1      47.331  27.913  21.372  1.00  0.00    -0.237 OA
ATOM     90  O   UNL A   1      49.586  28.718  21.952  1.00  0.00    -0.237 OA
ATOM     91  O   UNL A   1      49.257  26.363  21.356  1.00  0.00    -0.744 OA
ENDBRANCH  85  88
ENDBRANCH  57  81
BRANCH  69  92
ATOM     92  C   UNL A   1      45.531  33.160  29.290  1.00  0.00     0.023 A 
ATOM     93  C   UNL A   1      46.372  33.195  30.419  1.00  0.00     0.012 A 
ATOM     94  C   UNL A   1      45.501  34.260  28.412  1.00  0.00     0.148 A 
ATOM     95  C   UNL A   1      47.163  34.314  30.678  1.00  0.00     0.002 A 
ATOM     96  C   UNL A   1      46.317  35.360  28.660  1.00  0.00     0.091 A 
ATOM     97  F   UNL A   1      44.674  34.221  27.357  1.00  0.00    -0.205 F 
ATOM     98  C   UNL A   1      47.144  35.391  29.794  1.00  0.00     0.022 A 
BRANCH  96  99
ATOM     99  S   UNL A   1      46.394  36.743  27.516  1.00  0.00     0.127 S 
ATOM    100  O   UNL A   1      47.437  37.573  28.114  1.00  0.00    -0.237 OA
ATOM    101  O   UNL A   1      46.775  36.101  26.257  1.00  0.00    -0.237 OA
ATOM    102  O   UNL A   1      45.052  37.311  27.511  1.00  0.00    -0.744 OA
ENDBRANCH  96  99
ENDBRANCH  69  92
ENDBRANCH  43  44
ENDBRANCH  35  38
ENDBRANCH  33  34
ENDBRANCH  32  33
ENDBRANCH   1  32
TORSDOF 19
ENDMDL
MODEL 3
REMARK VINA RESULT:     -12.4      4.435      9.314
REMARK SMILES Cc1ccnc(C(=O)c2[nH]c3ccc(OC(F)(F)F)cc3c2CC(=O)NCCCCNC(=O)c2ccc(-c3c4nc(c(-c5cccc(S(=O)(=O)[O-])c5F)c5ccc([nH]5)c(-c5cccc(S(=O)(=O)[O-])c5F)c5nc(c(-c6cccc(S(=O)(=O)[O-])c6F)c6ccc3[nH]6)C=C5)C=C4)cc2)c1
REMARK SMILES IDX 28 1 27 2 26 3 24 4 25 5 23 7 22 8 9 9 10 10 11 11 21 13
REMARK SMILES IDX 12 14 20 15 13 16 14 17 7 18 8 19 6 20 1 21 2 22 3 23 97 24
REMARK SMILES IDX 4 25 5 26 15 27 16 28 17 29 18 30 19 31 29 32 30 33 31 34
REMARK SMILES IDX 32 35 33 37 34 38 35 39 96 40 36 41 95 42 37 43 38 44 39 45
REMARK SMILES IDX 89 46 40 47 94 48 88 49 90 50 41 51 93 52 87 53 86 54 42 56
REMARK SMILES IDX 74 57 54 58 73 59 55 60 58 61 72 62 91 63 56 64 57 65 71 67
REMARK SMILES IDX 92 68 59 69 43 70 44 71 52 72 45 73 47 74 53 75 46 76 48 77
REMARK SMILES IDX 49 78 50 79 51 80 75 81 76 82 84 83 77 84 79 85 85 86 78 87
REMARK SMILES IDX 80 88 81 89 82 90 83 91 60 92 61 93 69 94 62 95 64 96 70 97
REMARK SMILES IDX 63 98 65 99 66 100 67 101 68 102
REMARK H PARENT 26 6 10 12 31 36 90 55 58 66
REMARK Flexibility Score: inf
ROOT
ATOM      1  C   UNL A   1      32.190  27.906  27.297  1.00  0.00     0.023 C 
ENDROOT
BRANCH   1   2
ATOM      2  C   UNL A   1      31.282  27.163  26.319  1.00  0.00     0.116 C 
BRANCH   2   3
ATOM      3  N   UNL A   1      30.864  25.864  26.803  1.00  0.00    -0.356 N 
ATOM      4  C   UNL A   1      31.447  24.642  26.618  1.00  0.00     0.224 C 
ATOM      5  O   UNL A   1      31.025  23.688  27.276  1.00  0.00    -0.275 OA
ATOM      6  H   UNL A   1      30.041  25.860  27.342  1.00  0.00     0.163 HD
BRANCH   4   7
ATOM      7  C   UNL A   1      32.676  24.483  25.734  1.00  0.00     0.138 C 
BRANCH   7   8
ATOM      8  C   UNL A   1      32.429  23.856  24.390  1.00  0.00    -0.002 A 
ATOM      9  C   UNL A   1      32.243  24.506  23.174  1.00  0.00     0.093 A 
ATOM     10  N   UNL A   1      32.179  23.536  22.197  1.00  0.00    -0.352 N 
ATOM     11  C   UNL A   1      32.172  22.283  22.756  1.00  0.00     0.046 A 
ATOM     12  H   UNL A   1      32.144  23.718  21.231  1.00  0.00     0.167 HD
ATOM     13  C   UNL A   1      32.306  22.449  24.131  1.00  0.00     0.008 A 
ATOM     14  C   UNL A   1      32.086  21.026  22.151  1.00  0.00     0.030 A 
ATOM     15  C   UNL A   1      32.341  21.293  24.941  1.00  0.00     0.057 A 
ATOM     16  C   UNL A   1      32.131  19.895  22.980  1.00  0.00     0.049 A 
ATOM     17  C   UNL A   1      32.256  20.019  24.362  1.00  0.00     0.130 A 
BRANCH   9  18
ATOM     18  C   UNL A   1      32.233  25.930  22.885  1.00  0.00     0.227 C 
ATOM     19  O   UNL A   1      33.260  26.512  22.555  1.00  0.00    -0.285 OA
BRANCH  18  20
ATOM     20  C   UNL A   1      30.922  26.678  22.977  1.00  0.00     0.113 A 
ATOM     21  C   UNL A   1      29.317  30.009  22.116  1.00  0.00     0.044 C 
ATOM     22  C   UNL A   1      29.528  28.611  22.616  1.00  0.00    -0.047 A 
ATOM     23  C   UNL A   1      28.489  27.927  23.247  1.00  0.00     0.023 A 
ATOM     24  C   UNL A   1      30.760  27.966  22.462  1.00  0.00     0.036 A 
ATOM     25  C   UNL A   1      28.726  26.645  23.713  1.00  0.00     0.112 A 
ATOM     26  N   UNL A   1      29.914  26.019  23.602  1.00  0.00    -0.253 NA
ENDBRANCH  18  20
ENDBRANCH   9  18
BRANCH  17  27
ATOM     27  O   UNL A   1      32.315  18.996  25.268  1.00  0.00    -0.406 OA
BRANCH  27  28
ATOM     28  C   UNL A   1      33.220  17.937  25.015  1.00  0.00     0.573 C 
ATOM     29  F   UNL A   1      34.413  18.409  24.593  1.00  0.00    -0.132 F 
ATOM     30  F   UNL A   1      33.401  17.172  26.111  1.00  0.00    -0.132 F 
ATOM     31  F   UNL A   1      32.712  17.158  24.035  1.00  0.00    -0.132 F 
ENDBRANCH  27  28
ENDBRANCH  17  27
ENDBRANCH   7   8
ENDBRANCH   4   7
ENDBRANCH   2   3
ENDBRANCH   1   2
BRANCH   1  32
ATOM     32  C   UNL A   1      33.659  28.013  26.884  1.00  0.00     0.023 C 
BRANCH  32  33
ATOM     33  C   UNL A   1      34.014  29.208  26.006  1.00  0.00     0.116 C 
BRANCH  33  34
ATOM     34  N   UNL A   1      33.860  30.490  26.677  1.00  0.00    -0.352 N 
ATOM     35  C   UNL A   1      34.636  31.041  27.672  1.00  0.00     0.251 C 
ATOM     36  H   UNL A   1      33.097  31.037  26.381  1.00  0.00     0.163 HD
ATOM     37  O   UNL A   1      34.305  32.102  28.187  1.00  0.00    -0.269 OA
BRANCH  35  38
ATOM     38  C   UNL A   1      35.843  30.327  28.145  1.00  0.00     0.039 A 
ATOM     39  C   UNL A   1      36.998  30.370  27.358  1.00  0.00     0.014 A 
ATOM     40  C   UNL A   1      35.847  29.631  29.357  1.00  0.00     0.014 A 
ATOM     41  C   UNL A   1      38.177  29.780  27.820  1.00  0.00     0.010 A 
ATOM     42  C   UNL A   1      37.037  29.092  29.842  1.00  0.00     0.010 A 
ATOM     43  C   UNL A   1      38.212  29.167  29.082  1.00  0.00    -0.014 A 
BRANCH  43  44
ATOM     44  C   UNL A   1      39.475  28.624  29.641  1.00  0.00     0.031 A 
ATOM     45  C   UNL A   1      40.110  29.264  30.842  1.00  0.00     0.074 A 
ATOM     46  C   UNL A   1      40.098  27.614  29.004  1.00  0.00     0.049 A 
ATOM     47  N   UNL A   1      41.236  28.964  31.435  1.00  0.00    -0.248 NA
ATOM     48  C   UNL A   1      39.399  30.405  31.443  1.00  0.00     0.031 C 
ATOM     49  C   UNL A   1      39.618  26.959  27.787  1.00  0.00     0.029 A 
ATOM     50  N   UNL A   1      41.282  26.978  29.280  1.00  0.00    -0.354 N 
ATOM     51  C   UNL A   1      41.388  29.896  32.453  1.00  0.00     0.074 A 
ATOM     52  C   UNL A   1      40.250  30.786  32.386  1.00  0.00     0.031 C 
ATOM     53  C   UNL A   1      40.492  26.006  27.427  1.00  0.00     0.029 A 
ATOM     54  C   UNL A   1      41.603  25.995  28.375  1.00  0.00     0.049 A 
ATOM     55  H   UNL A   1      41.847  27.203  30.054  1.00  0.00     0.167 HD
ATOM     56  C   UNL A   1      42.369  29.982  33.383  1.00  0.00     0.034 A 
ATOM     57  C   UNL A   1      42.667  25.171  28.320  1.00  0.00     0.034 A 
ATOM     58  C   UNL A   1      43.464  29.057  33.491  1.00  0.00     0.049 A 
ATOM     59  C   UNL A   1      43.720  25.259  29.390  1.00  0.00     0.074 A 
ATOM     60  C   UNL A   1      44.449  28.997  34.462  1.00  0.00     0.029 A 
ATOM     61  N   UNL A   1      43.718  28.027  32.599  1.00  0.00    -0.354 N 
ATOM     62  N   UNL A   1      43.761  26.042  30.441  1.00  0.00    -0.248 NA
ATOM     63  C   UNL A   1      44.856  24.332  29.283  1.00  0.00     0.031 C 
ATOM     64  C   UNL A   1      45.296  27.924  34.159  1.00  0.00     0.029 A 
ATOM     65  C   UNL A   1      44.844  27.326  32.993  1.00  0.00     0.049 A 
ATOM     66  H   UNL A   1      43.177  27.825  31.802  1.00  0.00     0.167 HD
ATOM     67  C   UNL A   1      44.910  25.683  31.137  1.00  0.00     0.074 A 
ATOM     68  C   UNL A   1      45.528  24.602  30.396  1.00  0.00     0.031 C 
ATOM     69  C   UNL A   1      45.414  26.214  32.278  1.00  0.00     0.034 A 
BRANCH  56  70
ATOM     70  C   UNL A   1      42.247  31.072  34.410  1.00  0.00     0.023 A 
ATOM     71  C   UNL A   1      41.622  30.783  35.639  1.00  0.00     0.012 A 
ATOM     72  C   UNL A   1      42.763  32.361  34.182  1.00  0.00     0.148 A 
ATOM     73  C   UNL A   1      41.489  31.769  36.616  1.00  0.00     0.002 A 
ATOM     74  C   UNL A   1      42.652  33.330  35.174  1.00  0.00     0.091 A 
ATOM     75  F   UNL A   1      43.327  32.632  32.996  1.00  0.00    -0.205 F 
ATOM     76  C   UNL A   1      42.011  33.039  36.388  1.00  0.00     0.022 A 
BRANCH  74  77
ATOM     77  S   UNL A   1      43.353  34.969  34.948  1.00  0.00     0.127 S 
ATOM     78  O   UNL A   1      44.773  34.670  34.781  1.00  0.00    -0.237 OA
ATOM     79  O   UNL A   1      42.687  35.444  33.733  1.00  0.00    -0.237 OA
ATOM     80  O   UNL A   1      42.984  35.700  36.152  1.00  0.00    -0.744 OA
ENDBRANCH  74  77
ENDBRANCH  56  70
BRANCH  57  81
ATOM     81  C   UNL A   1      42.726  24.115  27.272  1.00  0.00     0.023 A 
ATOM     82  C   UNL A   1      43.511  24.347  26.125  1.00  0.00     0.012 A 
ATOM     83  C   UNL A   1      42.072  22.878  27.421  1.00  0.00     0.148 A 
ATOM     84  C   UNL A   1      43.634  23.369  25.139  1.00  0.00     0.002 A 
ATOM     85  C   UNL A   1      42.233  21.892  26.453  1.00  0.00     0.091 A 
ATOM     86  F   UNL A   1      41.316  22.686  28.511  1.00  0.00    -0.205 F 
ATOM     87  C   UNL A   1      43.006  22.138  25.307  1.00  0.00     0.022 A 
BRANCH  85  88
ATOM     88  S   UNL A   1      41.557  20.238  26.646  1.00  0.00     0.127 S 
ATOM     89  O   UNL A   1      41.924  19.615  25.378  1.00  0.00    -0.237 OA
ATOM     90  O   UNL A   1      42.288  19.740  27.811  1.00  0.00    -0.237 OA
ATOM     91  O   UNL A   1      40.131  20.428  26.874  1.00  0.00    -0.744 OA
ENDBRANCH  85  88
ENDBRANCH  57  81
BRANCH  69  92
ATOM     92  C   UNL A   1      46.695  25.631  32.807  1.00  0.00     0.023 A 
ATOM     93  C   UNL A   1      47.920  26.220  32.437  1.00  0.00     0.012 A 
ATOM     94  C   UNL A   1      46.686  24.563  33.723  1.00  0.00     0.148 A 
ATOM     95  C   UNL A   1      49.121  25.744  32.963  1.00  0.00     0.002 A 
ATOM     96  C   UNL A   1      47.885  24.115  34.268  1.00  0.00     0.091 A 
ATOM     97  F   UNL A   1      45.513  23.997  34.043  1.00  0.00    -0.205 F 
ATOM     98  C   UNL A   1      49.103  24.700  33.886  1.00  0.00     0.022 A 
BRANCH  96  99
ATOM     99  S   UNL A   1      47.919  22.827  35.520  1.00  0.00     0.127 S 
ATOM    100  O   UNL A   1      49.353  22.608  35.690  1.00  0.00    -0.237 OA
ATOM    101  O   UNL A   1      47.262  23.467  36.661  1.00  0.00    -0.237 OA
ATOM    102  O   UNL A   1      47.167  21.717  34.948  1.00  0.00    -0.744 OA
ENDBRANCH  96  99
ENDBRANCH  69  92
ENDBRANCH  43  44
ENDBRANCH  35  38
ENDBRANCH  33  34
ENDBRANCH  32  33
ENDBRANCH   1  32
TORSDOF 19
ENDMDL
