MODEL 1
REMARK VINA RESULT:     -11.4      0.000      0.000
REMARK SMILES CC(C)N(CC1CC1)C(=O)N1CC[C@H](C(=O)NCCCCNC(=O)c2ccc(-c3c4nc(c(-c5cccc(S(=O)(=O)[O-])c5F)c5ccc([nH]5)c(-c5cccc(S(=O)(=O)[O-])c5F)c5nc(c(-c6cccc(S(=O)(=O)[O-])c6F)c6ccc3[nH]6)C=C5)C=C4)cc2)[C@H]1C
REMARK SMILES IDX 19 1 18 2 17 3 15 4 16 5 14 7 11 8 12 9 88 10 13 11 89 12
REMARK SMILES IDX 9 13 10 14 4 15 2 16 1 17 3 18 5 19 6 20 7 21 8 22 20 23
REMARK SMILES IDX 21 24 22 25 23 26 24 28 25 29 26 30 87 31 27 32 86 33 28 34
REMARK SMILES IDX 29 35 30 36 80 37 31 38 85 39 79 40 81 41 32 42 84 43 78 44
REMARK SMILES IDX 77 45 33 47 65 48 45 49 64 50 46 51 49 52 63 53 82 54 47 55
REMARK SMILES IDX 48 56 62 58 83 59 50 60 34 61 35 62 43 63 36 64 38 65 44 66
REMARK SMILES IDX 37 67 39 68 40 69 41 70 42 71 66 72 67 73 75 74 68 75 70 76
REMARK SMILES IDX 76 77 69 78 71 79 72 80 73 81 74 82 51 83 52 84 60 85 53 86
REMARK SMILES IDX 55 87 61 88 54 89 56 90 57 91 58 92 59 93
REMARK H PARENT 17 6 22 27 81 46 49 57
REMARK Flexibility Score: inf
ROOT
ATOM      1  C   UNL A   1      34.226  21.044  26.004  1.00  0.00     0.023 C 
ENDROOT
BRANCH   1   2
ATOM      2  C   UNL A   1      34.228  21.897  27.270  1.00  0.00     0.116 C 
BRANCH   2   3
ATOM      3  N   UNL A   1      32.905  22.343  27.638  1.00  0.00    -0.356 N 
ATOM      4  C   UNL A   1      32.010  23.110  26.973  1.00  0.00     0.225 C 
ATOM      5  O   UNL A   1      30.897  23.238  27.499  1.00  0.00    -0.275 OA
ATOM      6  H   UNL A   1      32.603  22.037  28.524  1.00  0.00     0.163 HD
BRANCH   4   7
ATOM      7  C   UNL A   1      32.256  23.774  25.621  1.00  0.00     0.102 C 
ATOM      8  N   UNL A   1      31.972  26.135  25.346  1.00  0.00    -0.321 N 
ATOM      9  C   UNL A   1      30.909  25.502  24.568  1.00  0.00     0.122 C 
ATOM     10  C   UNL A   1      32.990  25.127  25.699  1.00  0.00     0.096 C 
ATOM     11  C   UNL A   1      31.119  23.997  24.639  1.00  0.00     0.037 C 
ATOM     12  C   UNL A   1      34.146  25.057  24.687  1.00  0.00     0.032 C 
BRANCH   8  13
ATOM     13  C   UNL A   1      31.633  27.282  26.055  1.00  0.00     0.320 C 
ATOM     14  O   UNL A   1      31.011  27.162  27.117  1.00  0.00    -0.248 OA
BRANCH  13  15
ATOM     15  N   UNL A   1      31.905  28.546  25.551  1.00  0.00    -0.322 N 
BRANCH  15  16
ATOM     16  C   UNL A   1      33.026  29.326  26.147  1.00  0.00     0.080 C 
ATOM     17  C   UNL A   1      32.562  30.367  27.180  1.00  0.00     0.031 C 
ATOM     18  C   UNL A   1      34.148  28.457  26.711  1.00  0.00     0.031 C 
ENDBRANCH  15  16
BRANCH  15  19
ATOM     19  C   UNL A   1      31.014  29.310  24.691  1.00  0.00     0.125 C 
BRANCH  19  20
ATOM     20  C   UNL A   1      31.037  28.926  23.235  1.00  0.00     0.009 C 
ATOM     21  C   UNL A   1      29.822  28.330  22.561  1.00  0.00     0.006 C 
ATOM     22  C   UNL A   1      30.322  29.677  22.132  1.00  0.00     0.006 C 
ENDBRANCH  19  20
ENDBRANCH  15  19
ENDBRANCH  13  15
ENDBRANCH   8  13
ENDBRANCH   4   7
ENDBRANCH   2   3
ENDBRANCH   1   2
BRANCH   1  23
ATOM     23  C   UNL A   1      35.230  21.482  24.943  1.00  0.00     0.023 C 
BRANCH  23  24
ATOM     24  C   UNL A   1      36.608  21.856  25.469  1.00  0.00     0.116 C 
BRANCH  24  25
ATOM     25  N   UNL A   1      37.554  20.749  25.488  1.00  0.00    -0.352 N 
ATOM     26  C   UNL A   1      38.870  20.768  25.900  1.00  0.00     0.251 C 
ATOM     27  H   UNL A   1      37.214  19.882  25.168  1.00  0.00     0.163 HD
ATOM     28  O   UNL A   1      39.586  19.788  25.773  1.00  0.00    -0.269 OA
BRANCH  26  29
ATOM     29  C   UNL A   1      39.410  22.023  26.468  1.00  0.00     0.039 A 
ATOM     30  C   UNL A   1      40.437  21.953  27.411  1.00  0.00     0.014 A 
ATOM     31  C   UNL A   1      38.953  23.260  26.006  1.00  0.00     0.014 A 
ATOM     32  C   UNL A   1      41.060  23.128  27.835  1.00  0.00     0.010 A 
ATOM     33  C   UNL A   1      39.627  24.420  26.368  1.00  0.00     0.010 A 
ATOM     34  C   UNL A   1      40.686  24.367  27.286  1.00  0.00    -0.014 A 
BRANCH  34  35
ATOM     35  C   UNL A   1      41.402  25.619  27.643  1.00  0.00     0.031 A 
ATOM     36  C   UNL A   1      40.687  26.709  28.394  1.00  0.00     0.074 A 
ATOM     37  C   UNL A   1      42.658  25.819  27.193  1.00  0.00     0.049 A 
ATOM     38  N   UNL A   1      41.123  27.892  28.739  1.00  0.00    -0.248 NA
ATOM     39  C   UNL A   1      39.288  26.453  28.778  1.00  0.00     0.031 C 
ATOM     40  C   UNL A   1      43.420  24.884  26.361  1.00  0.00     0.029 A 
ATOM     41  N   UNL A   1      43.503  26.890  27.343  1.00  0.00    -0.354 N 
ATOM     42  C   UNL A   1      40.044  28.536  29.333  1.00  0.00     0.074 A 
ATOM     43  C   UNL A   1      38.924  27.624  29.278  1.00  0.00     0.031 C 
ATOM     44  C   UNL A   1      44.615  25.425  26.071  1.00  0.00     0.029 A 
ATOM     45  C   UNL A   1      44.699  26.750  26.677  1.00  0.00     0.049 A 
ATOM     46  H   UNL A   1      43.275  27.686  27.877  1.00  0.00     0.167 HD
ATOM     47  C   UNL A   1      39.998  29.764  29.900  1.00  0.00     0.034 A 
ATOM     48  C   UNL A   1      45.743  27.594  26.565  1.00  0.00     0.034 A 
ATOM     49  C   UNL A   1      41.134  30.637  30.019  1.00  0.00     0.049 A 
ATOM     50  C   UNL A   1      45.697  28.914  27.288  1.00  0.00     0.074 A 
ATOM     51  C   UNL A   1      41.225  31.842  30.693  1.00  0.00     0.029 A 
ATOM     52  N   UNL A   1      42.373  30.405  29.445  1.00  0.00    -0.354 N 
ATOM     53  N   UNL A   1      44.734  29.418  28.021  1.00  0.00    -0.248 NA
ATOM     54  C   UNL A   1      46.896  29.762  27.207  1.00  0.00     0.031 C 
ATOM     55  C   UNL A   1      42.517  32.346  30.513  1.00  0.00     0.029 A 
ATOM     56  C   UNL A   1      43.234  31.446  29.742  1.00  0.00     0.049 A 
ATOM     57  H   UNL A   1      42.607  29.614  28.906  1.00  0.00     0.167 HD
ATOM     58  C   UNL A   1      45.222  30.623  28.514  1.00  0.00     0.074 A 
ATOM     59  C   UNL A   1      46.576  30.761  28.018  1.00  0.00     0.031 C 
ATOM     60  C   UNL A   1      44.598  31.541  29.293  1.00  0.00     0.034 A 
BRANCH  47  61
ATOM     61  C   UNL A   1      38.695  30.216  30.501  1.00  0.00     0.023 A 
ATOM     62  C   UNL A   1      38.374  29.846  31.822  1.00  0.00     0.012 A 
ATOM     63  C   UNL A   1      37.827  31.067  29.790  1.00  0.00     0.148 A 
ATOM     64  C   UNL A   1      37.196  30.294  32.420  1.00  0.00     0.002 A 
ATOM     65  C   UNL A   1      36.677  31.546  30.407  1.00  0.00     0.091 A 
ATOM     66  F   UNL A   1      38.140  31.390  28.527  1.00  0.00    -0.205 F 
ATOM     67  C   UNL A   1      36.356  31.152  31.717  1.00  0.00     0.022 A 
BRANCH  65  68
ATOM     68  S   UNL A   1      35.568  32.718  29.617  1.00  0.00     0.127 S 
ATOM     69  O   UNL A   1      35.684  32.332  28.212  1.00  0.00    -0.237 OA
ATOM     70  O   UNL A   1      34.284  32.389  30.236  1.00  0.00    -0.237 OA
ATOM     71  O   UNL A   1      36.081  34.041  29.945  1.00  0.00    -0.744 OA
ENDBRANCH  65  68
ENDBRANCH  47  61
BRANCH  48  72
ATOM     72  C   UNL A   1      46.953  27.189  25.792  1.00  0.00     0.023 A 
ATOM     73  C   UNL A   1      47.909  26.348  26.394  1.00  0.00     0.012 A 
ATOM     74  C   UNL A   1      47.151  27.611  24.463  1.00  0.00     0.148 A 
ATOM     75  C   UNL A   1      49.059  25.967  25.702  1.00  0.00     0.002 A 
ATOM     76  C   UNL A   1      48.271  27.183  23.761  1.00  0.00     0.091 A 
ATOM     77  F   UNL A   1      46.238  28.422  23.910  1.00  0.00    -0.205 F 
ATOM     78  C   UNL A   1      49.235  26.376  24.383  1.00  0.00     0.022 A 
BRANCH  76  79
ATOM     79  S   UNL A   1      48.504  27.553  22.018  1.00  0.00     0.127 S 
ATOM     80  O   UNL A   1      48.724  26.223  21.456  1.00  0.00    -0.237 OA
ATOM     81  O   UNL A   1      47.226  28.169  21.660  1.00  0.00    -0.237 OA
ATOM     82  O   UNL A   1      49.639  28.465  21.966  1.00  0.00    -0.744 OA
ENDBRANCH  76  79
ENDBRANCH  48  72
BRANCH  60  83
ATOM     83  C   UNL A   1      45.375  32.768  29.689  1.00  0.00     0.023 A 
ATOM     84  C   UNL A   1      46.178  32.741  30.848  1.00  0.00     0.012 A 
ATOM     85  C   UNL A   1      45.380  33.913  28.870  1.00  0.00     0.148 A 
ATOM     86  C   UNL A   1      46.949  33.847  31.199  1.00  0.00     0.002 A 
ATOM     87  C   UNL A   1      46.188  34.994  29.201  1.00  0.00     0.091 A 
ATOM     88  F   UNL A   1      44.595  33.927  27.782  1.00  0.00    -0.205 F 
ATOM     89  C   UNL A   1      46.965  34.968  30.371  1.00  0.00     0.022 A 
BRANCH  87  90
ATOM     90  S   UNL A   1      46.344  36.436  28.141  1.00  0.00     0.127 S 
ATOM     91  O   UNL A   1      46.624  35.824  26.844  1.00  0.00    -0.237 OA
ATOM     92  O   UNL A   1      45.021  37.051  28.253  1.00  0.00    -0.237 OA
ATOM     93  O   UNL A   1      47.426  37.232  28.708  1.00  0.00    -0.744 OA
ENDBRANCH  87  90
ENDBRANCH  60  83
ENDBRANCH  34  35
ENDBRANCH  26  29
ENDBRANCH  24  25
ENDBRANCH  23  24
ENDBRANCH   1  23
TORSDOF 19
ENDMDL
MODEL 2
REMARK VINA RESULT:     -11.3      1.928      7.744
REMARK SMILES CC(C)N(CC1CC1)C(=O)N1CC[C@H](C(=O)NCCCCNC(=O)c2ccc(-c3c4nc(c(-c5cccc(S(=O)(=O)[O-])c5F)c5ccc([nH]5)c(-c5cccc(S(=O)(=O)[O-])c5F)c5nc(c(-c6cccc(S(=O)(=O)[O-])c6F)c6ccc3[nH]6)C=C5)C=C4)cc2)[C@H]1C
REMARK SMILES IDX 19 1 18 2 17 3 15 4 16 5 14 7 11 8 12 9 88 10 13 11 89 12
REMARK SMILES IDX 9 13 10 14 4 15 2 16 1 17 3 18 5 19 6 20 7 21 8 22 20 23
REMARK SMILES IDX 21 24 22 25 23 26 24 28 25 29 26 30 87 31 27 32 86 33 28 34
REMARK SMILES IDX 29 35 30 36 80 37 31 38 85 39 79 40 81 41 32 42 84 43 78 44
REMARK SMILES IDX 77 45 33 47 65 48 45 49 64 50 46 51 49 52 63 53 82 54 47 55
REMARK SMILES IDX 48 56 62 58 83 59 50 60 34 61 35 62 43 63 36 64 38 65 44 66
REMARK SMILES IDX 37 67 39 68 40 69 41 70 42 71 66 72 67 73 75 74 68 75 70 76
REMARK SMILES IDX 76 77 69 78 71 79 72 80 73 81 74 82 51 83 52 84 60 85 53 86
REMARK SMILES IDX 55 87 61 88 54 89 56 90 57 91 58 92 59 93
REMARK H PARENT 17 6 22 27 81 46 49 57
REMARK Flexibility Score: inf
ROOT
ATOM      1  C   UNL A   1      35.172  21.755  26.348  1.00  0.00     0.023 C 
ENDROOT
BRANCH   1   2
ATOM      2  C   UNL A   1      33.835  21.043  26.540  1.00  0.00     0.116 C 
BRANCH   2   3
ATOM      3  N   UNL A   1      32.869  21.859  27.236  1.00  0.00    -0.356 N 
ATOM      4  C   UNL A   1      32.171  22.947  26.834  1.00  0.00     0.225 C 
ATOM      5  O   UNL A   1      31.321  23.378  27.623  1.00  0.00    -0.275 OA
ATOM      6  H   UNL A   1      32.688  21.577  28.162  1.00  0.00     0.163 HD
BRANCH   4   7
ATOM      7  C   UNL A   1      32.320  23.634  25.479  1.00  0.00     0.102 C 
ATOM      8  N   UNL A   1      31.885  25.975  25.238  1.00  0.00    -0.321 N 
ATOM      9  C   UNL A   1      30.830  25.285  24.498  1.00  0.00     0.122 C 
ATOM     10  C   UNL A   1      32.975  25.028  25.538  1.00  0.00     0.096 C 
ATOM     11  C   UNL A   1      31.131  23.794  24.547  1.00  0.00     0.037 C 
ATOM     12  C   UNL A   1      34.090  25.034  24.480  1.00  0.00     0.032 C 
BRANCH   8  13
ATOM     13  C   UNL A   1      31.508  27.095  25.971  1.00  0.00     0.320 C 
ATOM     14  O   UNL A   1      30.708  26.953  26.903  1.00  0.00    -0.248 OA
BRANCH  13  15
ATOM     15  N   UNL A   1      31.947  28.364  25.622  1.00  0.00    -0.322 N 
BRANCH  15  16
ATOM     16  C   UNL A   1      32.292  29.324  26.707  1.00  0.00     0.080 C 
ATOM     17  C   UNL A   1      33.764  29.245  27.146  1.00  0.00     0.031 C 
ATOM     18  C   UNL A   1      31.888  30.765  26.405  1.00  0.00     0.031 C 
ENDBRANCH  15  16
BRANCH  15  19
ATOM     19  C   UNL A   1      31.822  28.954  24.297  1.00  0.00     0.125 C 
BRANCH  19  20
ATOM     20  C   UNL A   1      30.411  29.195  23.830  1.00  0.00     0.009 C 
ATOM     21  C   UNL A   1      30.106  29.506  22.382  1.00  0.00     0.006 C 
ATOM     22  C   UNL A   1      29.602  28.231  22.989  1.00  0.00     0.006 C 
ENDBRANCH  19  20
ENDBRANCH  15  19
ENDBRANCH  13  15
ENDBRANCH   8  13
ENDBRANCH   4   7
ENDBRANCH   2   3
ENDBRANCH   1   2
BRANCH   1  23
ATOM     23  C   UNL A   1      35.670  21.793  24.908  1.00  0.00     0.023 C 
BRANCH  23  24
ATOM     24  C   UNL A   1      37.162  22.045  24.745  1.00  0.00     0.116 C 
BRANCH  24  25
ATOM     25  N   UNL A   1      37.998  20.925  25.156  1.00  0.00    -0.352 N 
ATOM     26  C   UNL A   1      39.149  20.964  25.916  1.00  0.00     0.251 C 
ATOM     27  H   UNL A   1      37.709  20.034  24.856  1.00  0.00     0.163 HD
ATOM     28  O   UNL A   1      39.812  19.958  26.109  1.00  0.00    -0.269 OA
BRANCH  26  29
ATOM     29  C   UNL A   1      39.586  22.268  26.463  1.00  0.00     0.039 A 
ATOM     30  C   UNL A   1      40.616  22.296  27.405  1.00  0.00     0.014 A 
ATOM     31  C   UNL A   1      39.030  23.456  25.983  1.00  0.00     0.014 A 
ATOM     32  C   UNL A   1      41.142  23.525  27.809  1.00  0.00     0.010 A 
ATOM     33  C   UNL A   1      39.607  24.672  26.325  1.00  0.00     0.010 A 
ATOM     34  C   UNL A   1      40.668  24.720  27.242  1.00  0.00    -0.014 A 
BRANCH  34  35
ATOM     35  C   UNL A   1      41.281  26.032  27.577  1.00  0.00     0.031 A 
ATOM     36  C   UNL A   1      42.707  26.318  27.195  1.00  0.00     0.074 A 
ATOM     37  C   UNL A   1      40.588  26.918  28.322  1.00  0.00     0.049 A 
ATOM     38  N   UNL A   1      43.431  27.375  27.454  1.00  0.00    -0.248 NA
ATOM     39  C   UNL A   1      43.428  25.267  26.456  1.00  0.00     0.031 C 
ATOM     40  C   UNL A   1      39.237  26.711  28.848  1.00  0.00     0.029 A 
ATOM     41  N   UNL A   1      40.941  28.157  28.796  1.00  0.00    -0.354 N 
ATOM     42  C   UNL A   1      44.699  27.098  26.957  1.00  0.00     0.074 A 
ATOM     43  C   UNL A   1      44.655  25.763  26.405  1.00  0.00     0.031 C 
ATOM     44  C   UNL A   1      38.878  27.783  29.575  1.00  0.00     0.029 A 
ATOM     45  C   UNL A   1      39.977  28.743  29.583  1.00  0.00     0.049 A 
ATOM     46  H   UNL A   1      41.803  28.587  28.592  1.00  0.00     0.167 HD
ATOM     47  C   UNL A   1      45.793  27.894  26.935  1.00  0.00     0.034 A 
ATOM     48  C   UNL A   1      39.980  29.919  30.243  1.00  0.00     0.034 A 
ATOM     49  C   UNL A   1      45.811  29.248  27.418  1.00  0.00     0.049 A 
ATOM     50  C   UNL A   1      41.177  30.823  30.118  1.00  0.00     0.074 A 
ATOM     51  C   UNL A   1      46.828  30.181  27.320  1.00  0.00     0.029 A 
ATOM     52  N   UNL A   1      44.770  29.859  28.096  1.00  0.00    -0.354 N 
ATOM     53  N   UNL A   1      42.296  30.623  29.465  1.00  0.00    -0.248 NA
ATOM     54  C   UNL A   1      41.097  32.133  30.783  1.00  0.00     0.031 C 
ATOM     55  C   UNL A   1      46.405  31.354  27.954  1.00  0.00     0.029 A 
ATOM     56  C   UNL A   1      45.120  31.155  28.431  1.00  0.00     0.049 A 
ATOM     57  H   UNL A   1      43.906  29.434  28.308  1.00  0.00     0.167 HD
ATOM     58  C   UNL A   1      43.037  31.791  29.612  1.00  0.00     0.074 A 
ATOM     59  C   UNL A   1      42.229  32.703  30.394  1.00  0.00     0.031 C 
ATOM     60  C   UNL A   1      44.282  32.074  29.156  1.00  0.00     0.034 A 
BRANCH  47  61
ATOM     61  C   UNL A   1      47.049  27.352  26.307  1.00  0.00     0.023 A 
ATOM     62  C   UNL A   1      47.336  27.650  24.960  1.00  0.00     0.012 A 
ATOM     63  C   UNL A   1      47.979  26.618  27.068  1.00  0.00     0.148 A 
ATOM     64  C   UNL A   1      48.517  27.202  24.370  1.00  0.00     0.002 A 
ATOM     65  C   UNL A   1      49.175  26.213  26.486  1.00  0.00     0.091 A 
ATOM     66  F   UNL A   1      47.677  26.327  28.342  1.00  0.00    -0.205 F 
ATOM     67  C   UNL A   1      49.440  26.495  25.136  1.00  0.00     0.022 A 
BRANCH  65  68
ATOM     68  S   UNL A   1      50.464  25.365  27.406  1.00  0.00     0.127 S 
ATOM     69  O   UNL A   1      49.745  24.196  27.911  1.00  0.00    -0.237 OA
ATOM     70  O   UNL A   1      51.445  25.073  26.361  1.00  0.00    -0.237 OA
ATOM     71  O   UNL A   1      50.918  26.305  28.421  1.00  0.00    -0.744 OA
ENDBRANCH  65  68
ENDBRANCH  47  61
BRANCH  48  72
ATOM     72  C   UNL A   1      38.781  30.342  31.022  1.00  0.00     0.023 A 
ATOM     73  C   UNL A   1      38.693  30.014  32.389  1.00  0.00     0.012 A 
ATOM     74  C   UNL A   1      37.742  31.083  30.427  1.00  0.00     0.148 A 
ATOM     75  C   UNL A   1      37.575  30.381  33.139  1.00  0.00     0.002 A 
ATOM     76  C   UNL A   1      36.657  31.494  31.193  1.00  0.00     0.091 A 
ATOM     77  F   UNL A   1      37.835  31.376  29.122  1.00  0.00    -0.205 F 
ATOM     78  C   UNL A   1      36.563  31.129  32.545  1.00  0.00     0.022 A 
BRANCH  76  79
ATOM     79  S   UNL A   1      35.379  32.574  30.538  1.00  0.00     0.127 S 
ATOM     80  O   UNL A   1      34.832  31.766  29.452  1.00  0.00    -0.237 OA
ATOM     81  O   UNL A   1      34.494  32.738  31.692  1.00  0.00    -0.237 OA
ATOM     82  O   UNL A   1      36.072  33.794  30.142  1.00  0.00    -0.744 OA
ENDBRANCH  76  79
ENDBRANCH  48  72
BRANCH  60  83
ATOM     83  C   UNL A   1      44.845  33.436  29.459  1.00  0.00     0.023 A 
ATOM     84  C   UNL A   1      44.616  34.500  28.563  1.00  0.00     0.012 A 
ATOM     85  C   UNL A   1      45.525  33.682  30.667  1.00  0.00     0.148 A 
ATOM     86  C   UNL A   1      45.081  35.781  28.854  1.00  0.00     0.002 A 
ATOM     87  C   UNL A   1      45.943  34.972  30.972  1.00  0.00     0.091 A 
ATOM     88  F   UNL A   1      45.750  32.653  31.498  1.00  0.00    -0.205 F 
ATOM     89  C   UNL A   1      45.733  36.021  30.063  1.00  0.00     0.022 A 
BRANCH  87  90
ATOM     90  S   UNL A   1      46.702  35.387  32.547  1.00  0.00     0.127 S 
ATOM     91  O   UNL A   1      47.854  34.488  32.570  1.00  0.00    -0.237 OA
ATOM     92  O   UNL A   1      47.034  36.801  32.372  1.00  0.00    -0.237 OA
ATOM     93  O   UNL A   1      45.684  35.130  33.559  1.00  0.00    -0.744 OA
ENDBRANCH  87  90
ENDBRANCH  60  83
ENDBRANCH  34  35
ENDBRANCH  26  29
ENDBRANCH  24  25
ENDBRANCH  23  24
ENDBRANCH   1  23
TORSDOF 19
ENDMDL
MODEL 3
REMARK VINA RESULT:     -11.1      5.246      8.168
REMARK SMILES CC(C)N(CC1CC1)C(=O)N1CC[C@H](C(=O)NCCCCNC(=O)c2ccc(-c3c4nc(c(-c5cccc(S(=O)(=O)[O-])c5F)c5ccc([nH]5)c(-c5cccc(S(=O)(=O)[O-])c5F)c5nc(c(-c6cccc(S(=O)(=O)[O-])c6F)c6ccc3[nH]6)C=C5)C=C4)cc2)[C@H]1C
REMARK SMILES IDX 19 1 18 2 17 3 15 4 16 5 14 7 11 8 12 9 88 10 13 11 89 12
REMARK SMILES IDX 9 13 10 14 4 15 2 16 1 17 3 18 5 19 6 20 7 21 8 22 20 23
REMARK SMILES IDX 21 24 22 25 23 26 24 28 25 29 26 30 87 31 27 32 86 33 28 34
REMARK SMILES IDX 29 35 30 36 80 37 31 38 85 39 79 40 81 41 32 42 84 43 78 44
REMARK SMILES IDX 77 45 33 47 65 48 45 49 64 50 46 51 49 52 63 53 82 54 47 55
REMARK SMILES IDX 48 56 62 58 83 59 50 60 34 61 35 62 43 63 36 64 38 65 44 66
REMARK SMILES IDX 37 67 39 68 40 69 41 70 42 71 66 72 67 73 75 74 68 75 70 76
REMARK SMILES IDX 76 77 69 78 71 79 72 80 73 81 74 82 51 83 52 84 60 85 53 86
REMARK SMILES IDX 55 87 61 88 54 89 56 90 57 91 58 92 59 93
REMARK H PARENT 17 6 22 27 81 46 49 57
REMARK Flexibility Score: inf
ROOT
ATOM      1  C   UNL A   1      34.047  29.012  25.924  1.00  0.00     0.023 C 
ENDROOT
BRANCH   1   2
ATOM      2  C   UNL A   1      33.528  27.615  25.599  1.00  0.00     0.116 C 
BRANCH   2   3
ATOM      3  N   UNL A   1      33.149  27.475  24.213  1.00  0.00    -0.356 N 
ATOM      4  C   UNL A   1      32.251  26.657  23.616  1.00  0.00     0.225 C 
ATOM      5  O   UNL A   1      32.059  26.839  22.407  1.00  0.00    -0.275 OA
ATOM      6  H   UNL A   1      33.625  28.077  23.596  1.00  0.00     0.163 HD
BRANCH   4   7
ATOM      7  C   UNL A   1      31.438  25.579  24.327  1.00  0.00     0.102 C 
ATOM      8  N   UNL A   1      31.943  23.259  24.018  1.00  0.00    -0.321 N 
ATOM      9  C   UNL A   1      30.642  23.481  23.389  1.00  0.00     0.122 C 
ATOM     10  C   UNL A   1      32.274  24.409  24.881  1.00  0.00     0.096 C 
ATOM     11  C   UNL A   1      30.243  24.926  23.653  1.00  0.00     0.037 C 
ATOM     12  C   UNL A   1      31.839  24.212  26.343  1.00  0.00     0.032 C 
BRANCH   8  13
ATOM     13  C   UNL A   1      32.826  22.415  23.354  1.00  0.00     0.320 C 
ATOM     14  O   UNL A   1      33.032  22.601  22.149  1.00  0.00    -0.248 OA
BRANCH  13  15
ATOM     15  N   UNL A   1      33.404  21.330  23.996  1.00  0.00    -0.322 N 
BRANCH  15  16
ATOM     16  C   UNL A   1      32.554  20.143  24.297  1.00  0.00     0.080 C 
ATOM     17  C   UNL A   1      32.291  19.255  23.070  1.00  0.00     0.031 C 
ATOM     18  C   UNL A   1      33.054  19.312  25.477  1.00  0.00     0.031 C 
ENDBRANCH  15  16
BRANCH  15  19
ATOM     19  C   UNL A   1      34.691  21.350  24.674  1.00  0.00     0.125 C 
BRANCH  19  20
ATOM     20  C   UNL A   1      35.506  22.601  24.472  1.00  0.00     0.009 C 
ATOM     21  C   UNL A   1      36.983  22.636  24.791  1.00  0.00     0.006 C 
ATOM     22  C   UNL A   1      36.528  22.799  23.372  1.00  0.00     0.006 C 
ENDBRANCH  19  20
ENDBRANCH  15  19
ENDBRANCH  13  15
ENDBRANCH   8  13
ENDBRANCH   4   7
ENDBRANCH   2   3
ENDBRANCH   1   2
BRANCH   1  23
ATOM     23  C   UNL A   1      33.007  30.120  25.804  1.00  0.00     0.023 C 
BRANCH  23  24
ATOM     24  C   UNL A   1      32.508  30.687  27.126  1.00  0.00     0.116 C 
BRANCH  24  25
ATOM     25  N   UNL A   1      32.620  32.135  27.228  1.00  0.00    -0.352 N 
ATOM     26  C   UNL A   1      33.670  32.868  27.744  1.00  0.00     0.251 C 
ATOM     27  H   UNL A   1      31.856  32.656  26.888  1.00  0.00     0.163 HD
ATOM     28  O   UNL A   1      33.596  34.080  27.860  1.00  0.00    -0.269 OA
BRANCH  26  29
ATOM     29  C   UNL A   1      34.879  32.142  28.193  1.00  0.00     0.039 A 
ATOM     30  C   UNL A   1      36.120  32.773  28.100  1.00  0.00     0.014 A 
ATOM     31  C   UNL A   1      34.766  30.877  28.774  1.00  0.00     0.014 A 
ATOM     32  C   UNL A   1      37.243  32.163  28.663  1.00  0.00     0.010 A 
ATOM     33  C   UNL A   1      35.867  30.310  29.403  1.00  0.00     0.010 A 
ATOM     34  C   UNL A   1      37.117  30.946  29.354  1.00  0.00    -0.014 A 
BRANCH  34  35
ATOM     35  C   UNL A   1      38.275  30.328  30.050  1.00  0.00     0.031 A 
ATOM     36  C   UNL A   1      38.615  30.737  31.457  1.00  0.00     0.074 A 
ATOM     37  C   UNL A   1      39.084  29.484  29.377  1.00  0.00     0.049 A 
ATOM     38  N   UNL A   1      39.618  30.358  32.205  1.00  0.00    -0.248 NA
ATOM     39  C   UNL A   1      37.735  31.729  32.099  1.00  0.00     0.031 C 
ATOM     40  C   UNL A   1      38.923  29.094  27.974  1.00  0.00     0.029 A 
ATOM     41  N   UNL A   1      40.223  28.828  29.773  1.00  0.00    -0.354 N 
ATOM     42  C   UNL A   1      39.519  31.096  33.378  1.00  0.00     0.074 A 
ATOM     43  C   UNL A   1      38.374  31.966  33.235  1.00  0.00     0.031 C 
ATOM     44  C   UNL A   1      39.929  28.273  27.627  1.00  0.00     0.029 A 
ATOM     45  C   UNL A   1      40.814  28.092  28.772  1.00  0.00     0.049 A 
ATOM     46  H   UNL A   1      40.584  28.880  30.689  1.00  0.00     0.167 HD
ATOM     47  C   UNL A   1      40.293  31.034  34.486  1.00  0.00     0.034 A 
ATOM     48  C   UNL A   1      41.945  27.359  28.776  1.00  0.00     0.034 A 
ATOM     49  C   UNL A   1      41.385  30.114  34.652  1.00  0.00     0.049 A 
ATOM     50  C   UNL A   1      42.731  27.235  30.054  1.00  0.00     0.074 A 
ATOM     51  C   UNL A   1      42.145  29.878  35.784  1.00  0.00     0.029 A 
ATOM     52  N   UNL A   1      41.878  29.284  33.659  1.00  0.00    -0.354 N 
ATOM     53  N   UNL A   1      42.500  27.786  31.220  1.00  0.00    -0.248 NA
ATOM     54  C   UNL A   1      43.908  26.352  30.030  1.00  0.00     0.031 C 
ATOM     55  C   UNL A   1      43.109  28.915  35.469  1.00  0.00     0.029 A 
ATOM     56  C   UNL A   1      42.937  28.540  34.147  1.00  0.00     0.049 A 
ATOM     57  H   UNL A   1      41.526  29.230  32.741  1.00  0.00     0.167 HD
ATOM     58  C   UNL A   1      43.479  27.294  32.076  1.00  0.00     0.074 A 
ATOM     59  C   UNL A   1      44.291  26.379  31.300  1.00  0.00     0.031 C 
ATOM     60  C   UNL A   1      43.698  27.588  33.381  1.00  0.00     0.034 A 
BRANCH  47  61
ATOM     61  C   UNL A   1      39.949  31.937  35.640  1.00  0.00     0.023 A 
ATOM     62  C   UNL A   1      40.587  33.188  35.756  1.00  0.00     0.012 A 
ATOM     63  C   UNL A   1      38.943  31.584  36.559  1.00  0.00     0.148 A 
ATOM     64  C   UNL A   1      40.249  34.065  36.786  1.00  0.00     0.002 A 
ATOM     65  C   UNL A   1      38.580  32.481  37.558  1.00  0.00     0.091 A 
ATOM     66  F   UNL A   1      38.364  30.381  36.444  1.00  0.00    -0.205 F 
ATOM     67  C   UNL A   1      39.239  33.716  37.678  1.00  0.00     0.022 A 
BRANCH  65  68
ATOM     68  S   UNL A   1      37.238  32.162  38.708  1.00  0.00     0.127 S 
ATOM     69  O   UNL A   1      37.028  30.727  38.525  1.00  0.00    -0.237 OA
ATOM     70  O   UNL A   1      37.839  32.532  39.990  1.00  0.00    -0.237 OA
ATOM     71  O   UNL A   1      36.135  33.013  38.286  1.00  0.00    -0.744 OA
ENDBRANCH  65  68
ENDBRANCH  47  61
BRANCH  48  72
ATOM     72  C   UNL A   1      42.365  26.627  27.547  1.00  0.00     0.023 A 
ATOM     73  C   UNL A   1      43.053  27.317  26.530  1.00  0.00     0.012 A 
ATOM     74  C   UNL A   1      42.107  25.251  27.388  1.00  0.00     0.148 A 
ATOM     75  C   UNL A   1      43.443  26.662  25.361  1.00  0.00     0.002 A 
ATOM     76  C   UNL A   1      42.546  24.592  26.245  1.00  0.00     0.091 A 
ATOM     77  F   UNL A   1      41.439  24.612  28.358  1.00  0.00    -0.205 F 
ATOM     78  C   UNL A   1      43.198  25.299  25.223  1.00  0.00     0.022 A 
BRANCH  76  79
ATOM     79  S   UNL A   1      42.392  22.812  26.051  1.00  0.00     0.127 S 
ATOM     80  O   UNL A   1      42.953  22.607  24.718  1.00  0.00    -0.237 OA
ATOM     81  O   UNL A   1      43.217  22.310  27.151  1.00  0.00    -0.237 OA
ATOM     82  O   UNL A   1      40.970  22.531  26.197  1.00  0.00    -0.744 OA
ENDBRANCH  76  79
ENDBRANCH  48  72
BRANCH  60  83
ATOM     83  C   UNL A   1      44.840  26.894  34.073  1.00  0.00     0.023 A 
ATOM     84  C   UNL A   1      46.127  27.468  34.043  1.00  0.00     0.012 A 
ATOM     85  C   UNL A   1      44.622  25.722  34.824  1.00  0.00     0.148 A 
ATOM     86  C   UNL A   1      47.184  26.870  34.726  1.00  0.00     0.002 A 
ATOM     87  C   UNL A   1      45.671  25.158  35.541  1.00  0.00     0.091 A 
ATOM     88  F   UNL A   1      43.395  25.180  34.825  1.00  0.00    -0.205 F 
ATOM     89  C   UNL A   1      46.955  25.724  35.484  1.00  0.00     0.022 A 
BRANCH  87  90
ATOM     90  S   UNL A   1      45.441  23.740  36.620  1.00  0.00     0.127 S 
ATOM     91  O   UNL A   1      44.736  24.338  37.753  1.00  0.00    -0.237 OA
ATOM     92  O   UNL A   1      44.626  22.848  35.796  1.00  0.00    -0.237 OA
ATOM     93  O   UNL A   1      46.779  23.238  36.907  1.00  0.00    -0.744 OA
ENDBRANCH  87  90
ENDBRANCH  60  83
ENDBRANCH  34  35
ENDBRANCH  26  29
ENDBRANCH  24  25
ENDBRANCH  23  24
ENDBRANCH   1  23
TORSDOF 19
ENDMDL
