MODEL 1
REMARK VINA RESULT:     -10.9      0.000      0.000
REMARK SMILES CC(C)(C[S@](=O)c1cccc(Cl)c1)C(=O)NCCCCNC(=O)c1ccc(-c2c3nc(c(-c4cccc(S(=O)(=O)[O-])c4F)c4ccc([nH]4)c(-c4cccc(S(=O)(=O)[O-])c4F)c4nc(c(-c5cccc(S(=O)(=O)[O-])c5F)c5ccc2[nH]5)C=C4)C=C3)cc1
REMARK SMILES IDX 18 1 17 2 16 3 14 4 15 5 2 7 1 8 3 9 4 10 5 11 6 12 7 13
REMARK SMILES IDX 8 14 13 15 9 16 11 17 10 18 12 19 19 20 20 21 21 22 22 23
REMARK SMILES IDX 23 25 24 26 25 27 86 28 26 29 85 30 27 31 28 32 29 33 79 34
REMARK SMILES IDX 30 35 84 36 78 37 80 38 31 39 83 40 77 41 76 42 32 44 64 45
REMARK SMILES IDX 44 46 63 47 45 48 48 49 62 50 81 51 46 52 47 53 61 55 82 56
REMARK SMILES IDX 49 57 33 58 34 59 42 60 35 61 37 62 43 63 36 64 38 65 39 66
REMARK SMILES IDX 40 67 41 68 65 69 66 70 74 71 67 72 69 73 75 74 68 75 70 76
REMARK SMILES IDX 71 77 72 78 73 79 50 80 51 81 59 82 52 83 54 84 60 85 53 86
REMARK SMILES IDX 55 87 56 88 57 89 58 90
REMARK H PARENT 16 6 21 24 80 43 48 54
REMARK Flexibility Score: inf
ROOT
ATOM      1  C   UNL A   1      33.775  26.371  24.704  1.00  0.00     0.023 C 
ENDROOT
BRANCH   1   2
ATOM      2  C   UNL A   1      33.990  25.029  25.399  1.00  0.00     0.116 C 
BRANCH   2   3
ATOM      3  N   UNL A   1      35.377  24.769  25.721  1.00  0.00    -0.356 N 
ATOM      4  C   UNL A   1      36.239  23.772  25.385  1.00  0.00     0.226 C 
ATOM      5  O   UNL A   1      37.426  23.963  25.673  1.00  0.00    -0.274 OA
ATOM      6  H   UNL A   1      35.779  25.454  26.303  1.00  0.00     0.163 HD
BRANCH   4   7
ATOM      7  C   UNL A   1      35.809  22.507  24.613  1.00  0.00     0.055 C 
ATOM      8  C   UNL A   1      37.080  21.703  24.248  1.00  0.00     0.022 C 
ATOM      9  C   UNL A   1      35.205  22.934  23.255  1.00  0.00     0.022 C 
BRANCH   7  10
ATOM     10  C   UNL A   1      34.807  21.602  25.363  1.00  0.00     0.126 C 
BRANCH  10  11
ATOM     11  S   UNL A   1      33.116  21.437  24.699  1.00  0.00     0.054 S 
ATOM     12  O   UNL A   1      32.128  21.459  25.821  1.00  0.00    -0.254 OA
BRANCH  11  13
ATOM     13  C   UNL A   1      33.169  19.742  24.095  1.00  0.00     0.040 A 
ATOM     14  C   UNL A   1      32.393  19.342  23.002  1.00  0.00     0.018 A 
ATOM     15  C   UNL A   1      34.032  18.820  24.697  1.00  0.00     0.038 A 
ATOM     16  C   UNL A   1      32.420  18.020  22.557  1.00  0.00     0.003 A 
ATOM     17  C   UNL A   1      34.074  17.506  24.232  1.00  0.00     0.042 A 
ATOM     18  C   UNL A   1      33.262  17.098  23.176  1.00  0.00     0.020 A 
ATOM     19  Cl  UNL A   1      35.141  16.376  24.972  1.00  0.00    -0.084 Cl
ENDBRANCH  11  13
ENDBRANCH  10  11
ENDBRANCH   7  10
ENDBRANCH   4   7
ENDBRANCH   2   3
ENDBRANCH   1   2
BRANCH   1  20
ATOM     20  C   UNL A   1      33.248  27.495  25.597  1.00  0.00     0.023 C 
BRANCH  20  21
ATOM     21  C   UNL A   1      34.307  28.311  26.331  1.00  0.00     0.116 C 
BRANCH  21  22
ATOM     22  N   UNL A   1      33.854  29.642  26.717  1.00  0.00    -0.352 N 
ATOM     23  C   UNL A   1      34.462  30.541  27.561  1.00  0.00     0.251 C 
ATOM     24  H   UNL A   1      33.001  29.935  26.321  1.00  0.00     0.163 HD
ATOM     25  O   UNL A   1      33.903  31.596  27.848  1.00  0.00    -0.269 OA
BRANCH  23  26
ATOM     26  C   UNL A   1      35.776  30.207  28.149  1.00  0.00     0.039 A 
ATOM     27  C   UNL A   1      35.823  29.615  29.414  1.00  0.00     0.014 A 
ATOM     28  C   UNL A   1      36.951  30.431  27.428  1.00  0.00     0.014 A 
ATOM     29  C   UNL A   1      37.046  29.172  29.924  1.00  0.00     0.010 A 
ATOM     30  C   UNL A   1      38.157  29.930  27.909  1.00  0.00     0.010 A 
ATOM     31  C   UNL A   1      38.217  29.292  29.157  1.00  0.00    -0.014 A 
BRANCH  31  32
ATOM     32  C   UNL A   1      39.521  28.757  29.626  1.00  0.00     0.031 A 
ATOM     33  C   UNL A   1      40.270  29.474  30.717  1.00  0.00     0.074 A 
ATOM     34  C   UNL A   1      40.083  27.706  28.994  1.00  0.00     0.049 A 
ATOM     35  N   UNL A   1      41.480  29.264  31.163  1.00  0.00    -0.248 NA
ATOM     36  C   UNL A   1      39.575  30.597  31.370  1.00  0.00     0.031 C 
ATOM     37  C   UNL A   1      39.486  26.968  27.879  1.00  0.00     0.029 A 
ATOM     38  N   UNL A   1      41.301  27.100  29.178  1.00  0.00    -0.354 N 
ATOM     39  C   UNL A   1      41.709  30.251  32.113  1.00  0.00     0.074 A 
ATOM     40  C   UNL A   1      40.523  31.077  32.162  1.00  0.00     0.031 C 
ATOM     41  C   UNL A   1      40.339  26.010  27.478  1.00  0.00     0.029 A 
ATOM     42  C   UNL A   1      41.554  26.085  28.283  1.00  0.00     0.049 A 
ATOM     43  H   UNL A   1      41.934  27.366  29.884  1.00  0.00     0.167 HD
ATOM     44  C   UNL A   1      42.797  30.437  32.897  1.00  0.00     0.034 A 
ATOM     45  C   UNL A   1      42.646  25.311  28.125  1.00  0.00     0.034 A 
ATOM     46  C   UNL A   1      43.949  29.577  32.892  1.00  0.00     0.049 A 
ATOM     47  C   UNL A   1      43.819  25.505  29.050  1.00  0.00     0.074 A 
ATOM     48  C   UNL A   1      45.075  29.642  33.693  1.00  0.00     0.029 A 
ATOM     49  N   UNL A   1      44.115  28.486  32.053  1.00  0.00    -0.354 N 
ATOM     50  N   UNL A   1      43.963  26.364  30.030  1.00  0.00    -0.248 NA
ATOM     51  C   UNL A   1      44.965  24.601  28.872  1.00  0.00     0.031 C 
ATOM     52  C   UNL A   1      45.922  28.587  33.340  1.00  0.00     0.029 A 
ATOM     53  C   UNL A   1      45.318  27.861  32.326  1.00  0.00     0.049 A 
ATOM     54  H   UNL A   1      43.472  28.200  31.365  1.00  0.00     0.167 HD
ATOM     55  C   UNL A   1      45.191  26.074  30.613  1.00  0.00     0.074 A 
ATOM     56  C   UNL A   1      45.746  24.952  29.885  1.00  0.00     0.031 C 
ATOM     57  C   UNL A   1      45.814  26.692  31.647  1.00  0.00     0.034 A 
BRANCH  44  58
ATOM     58  C   UNL A   1      42.760  31.572  33.885  1.00  0.00     0.023 A 
ATOM     59  C   UNL A   1      43.253  32.835  33.497  1.00  0.00     0.012 A 
ATOM     60  C   UNL A   1      42.192  31.414  35.164  1.00  0.00     0.148 A 
ATOM     61  C   UNL A   1      43.212  33.915  34.377  1.00  0.00     0.002 A 
ATOM     62  C   UNL A   1      42.117  32.507  36.021  1.00  0.00     0.091 A 
ATOM     63  F   UNL A   1      41.748  30.202  35.523  1.00  0.00    -0.205 F 
ATOM     64  C   UNL A   1      42.634  33.754  35.633  1.00  0.00     0.022 A 
BRANCH  62  65
ATOM     65  S   UNL A   1      41.327  32.422  37.632  1.00  0.00     0.127 S 
ATOM     66  O   UNL A   1      41.311  33.829  38.028  1.00  0.00    -0.237 OA
ATOM     67  O   UNL A   1      40.013  31.868  37.304  1.00  0.00    -0.237 OA
ATOM     68  O   UNL A   1      42.166  31.552  38.444  1.00  0.00    -0.744 OA
ENDBRANCH  62  65
ENDBRANCH  44  58
BRANCH  45  69
ATOM     69  C   UNL A   1      42.653  24.220  27.109  1.00  0.00     0.023 A 
ATOM     70  C   UNL A   1      43.293  24.441  25.874  1.00  0.00     0.012 A 
ATOM     71  C   UNL A   1      42.048  22.972  27.353  1.00  0.00     0.148 A 
ATOM     72  C   UNL A   1      43.302  23.456  24.888  1.00  0.00     0.002 A 
ATOM     73  C   UNL A   1      42.103  21.975  26.384  1.00  0.00     0.091 A 
ATOM     74  F   UNL A   1      41.426  22.783  28.525  1.00  0.00    -0.205 F 
ATOM     75  C   UNL A   1      42.716  22.220  25.145  1.00  0.00     0.022 A 
BRANCH  73  76
ATOM     76  S   UNL A   1      41.481  20.317  26.685  1.00  0.00     0.127 S 
ATOM     77  O   UNL A   1      41.850  19.629  25.452  1.00  0.00    -0.237 OA
ATOM     78  O   UNL A   1      42.242  19.911  27.867  1.00  0.00    -0.237 OA
ATOM     79  O   UNL A   1      40.054  20.483  26.926  1.00  0.00    -0.744 OA
ENDBRANCH  73  76
ENDBRANCH  45  69
BRANCH  57  80
ATOM     80  C   UNL A   1      47.138  26.141  32.102  1.00  0.00     0.023 A 
ATOM     81  C   UNL A   1      48.327  26.609  31.513  1.00  0.00     0.012 A 
ATOM     82  C   UNL A   1      47.203  25.234  33.178  1.00  0.00     0.148 A 
ATOM     83  C   UNL A   1      49.567  26.166  31.977  1.00  0.00     0.002 A 
ATOM     84  C   UNL A   1      48.442  24.830  33.662  1.00  0.00     0.091 A 
ATOM     85  F   UNL A   1      46.056  24.785  33.708  1.00  0.00    -0.205 F 
ATOM     86  C   UNL A   1      49.624  25.289  33.057  1.00  0.00     0.022 A 
BRANCH  84  87
ATOM     87  S   UNL A   1      48.609  23.776  35.107  1.00  0.00     0.127 S 
ATOM     88  O   UNL A   1      47.982  22.538  34.647  1.00  0.00    -0.237 OA
ATOM     89  O   UNL A   1      50.060  23.699  35.272  1.00  0.00    -0.237 OA
ATOM     90  O   UNL A   1      47.916  24.467  36.187  1.00  0.00    -0.744 OA
ENDBRANCH  84  87
ENDBRANCH  57  80
ENDBRANCH  31  32
ENDBRANCH  23  26
ENDBRANCH  21  22
ENDBRANCH  20  21
ENDBRANCH   1  20
TORSDOF 17
ENDMDL
MODEL 2
REMARK VINA RESULT:     -10.7      3.813      9.110
REMARK SMILES CC(C)(C[S@](=O)c1cccc(Cl)c1)C(=O)NCCCCNC(=O)c1ccc(-c2c3nc(c(-c4cccc(S(=O)(=O)[O-])c4F)c4ccc([nH]4)c(-c4cccc(S(=O)(=O)[O-])c4F)c4nc(c(-c5cccc(S(=O)(=O)[O-])c5F)c5ccc2[nH]5)C=C4)C=C3)cc1
REMARK SMILES IDX 18 1 17 2 16 3 14 4 15 5 2 7 1 8 3 9 4 10 5 11 6 12 7 13
REMARK SMILES IDX 8 14 13 15 9 16 11 17 10 18 12 19 19 20 20 21 21 22 22 23
REMARK SMILES IDX 23 25 24 26 25 27 86 28 26 29 85 30 27 31 28 32 29 33 79 34
REMARK SMILES IDX 30 35 84 36 78 37 80 38 31 39 83 40 77 41 76 42 32 44 64 45
REMARK SMILES IDX 44 46 63 47 45 48 48 49 62 50 81 51 46 52 47 53 61 55 82 56
REMARK SMILES IDX 49 57 33 58 34 59 42 60 35 61 37 62 43 63 36 64 38 65 39 66
REMARK SMILES IDX 40 67 41 68 65 69 66 70 74 71 67 72 69 73 75 74 68 75 70 76
REMARK SMILES IDX 71 77 72 78 73 79 50 80 51 81 59 82 52 83 54 84 60 85 53 86
REMARK SMILES IDX 55 87 56 88 57 89 58 90
REMARK H PARENT 16 6 21 24 80 43 48 54
REMARK Flexibility Score: inf
ROOT
ATOM      1  C   UNL A   1      32.077  30.152  26.826  1.00  0.00     0.023 C 
ENDROOT
BRANCH   1   2
ATOM      2  C   UNL A   1      33.102  29.585  25.848  1.00  0.00     0.116 C 
BRANCH   2   3
ATOM      3  N   UNL A   1      32.606  29.492  24.491  1.00  0.00    -0.356 N 
ATOM      4  C   UNL A   1      32.137  28.458  23.742  1.00  0.00     0.226 C 
ATOM      5  O   UNL A   1      31.601  28.766  22.671  1.00  0.00    -0.274 OA
ATOM      6  H   UNL A   1      32.608  30.352  24.013  1.00  0.00     0.163 HD
BRANCH   4   7
ATOM      7  C   UNL A   1      32.177  26.988  24.209  1.00  0.00     0.055 C 
ATOM      8  C   UNL A   1      31.130  26.805  25.333  1.00  0.00     0.022 C 
ATOM      9  C   UNL A   1      33.540  26.719  24.889  1.00  0.00     0.022 C 
BRANCH   7  10
ATOM     10  C   UNL A   1      31.943  25.949  23.092  1.00  0.00     0.126 C 
BRANCH  10  11
ATOM     11  S   UNL A   1      33.382  25.046  22.424  1.00  0.00     0.054 S 
ATOM     12  O   UNL A   1      33.285  24.972  20.935  1.00  0.00    -0.254 OA
BRANCH  11  13
ATOM     13  C   UNL A   1      33.041  23.391  23.044  1.00  0.00     0.040 A 
ATOM     14  C   UNL A   1      32.549  22.392  22.197  1.00  0.00     0.018 A 
ATOM     15  C   UNL A   1      33.315  23.083  24.380  1.00  0.00     0.038 A 
ATOM     16  C   UNL A   1      32.262  21.119  22.692  1.00  0.00     0.003 A 
ATOM     17  C   UNL A   1      33.050  21.801  24.864  1.00  0.00     0.042 A 
ATOM     18  C   UNL A   1      32.512  20.823  24.030  1.00  0.00     0.020 A 
ATOM     19  Cl  UNL A   1      33.394  21.425  26.508  1.00  0.00    -0.084 Cl
ENDBRANCH  11  13
ENDBRANCH  10  11
ENDBRANCH   7  10
ENDBRANCH   4   7
ENDBRANCH   2   3
ENDBRANCH   1   2
BRANCH   1  20
ATOM     20  C   UNL A   1      31.880  31.667  26.765  1.00  0.00     0.023 C 
BRANCH  20  21
ATOM     21  C   UNL A   1      32.982  32.506  27.404  1.00  0.00     0.116 C 
BRANCH  21  22
ATOM     22  N   UNL A   1      32.590  33.887  27.659  1.00  0.00    -0.352 N 
ATOM     23  C   UNL A   1      33.124  34.775  28.562  1.00  0.00     0.251 C 
ATOM     24  H   UNL A   1      31.846  34.229  27.111  1.00  0.00     0.163 HD
ATOM     25  O   UNL A   1      32.621  35.885  28.711  1.00  0.00    -0.269 OA
BRANCH  23  26
ATOM     26  C   UNL A   1      34.285  34.365  29.380  1.00  0.00     0.039 A 
ATOM     27  C   UNL A   1      34.063  33.697  30.587  1.00  0.00     0.014 A 
ATOM     28  C   UNL A   1      35.586  34.594  28.927  1.00  0.00     0.014 A 
ATOM     29  C   UNL A   1      35.148  33.186  31.304  1.00  0.00     0.010 A 
ATOM     30  C   UNL A   1      36.659  34.027  29.607  1.00  0.00     0.010 A 
ATOM     31  C   UNL A   1      36.452  33.314  30.798  1.00  0.00    -0.014 A 
BRANCH  31  32
ATOM     32  C   UNL A   1      37.624  32.711  31.484  1.00  0.00     0.031 A 
ATOM     33  C   UNL A   1      38.343  31.552  30.849  1.00  0.00     0.074 A 
ATOM     34  C   UNL A   1      37.965  33.126  32.721  1.00  0.00     0.049 A 
ATOM     35  N   UNL A   1      39.283  30.792  31.345  1.00  0.00    -0.248 NA
ATOM     36  C   UNL A   1      37.924  31.178  29.487  1.00  0.00     0.031 C 
ATOM     37  C   UNL A   1      37.303  34.197  33.470  1.00  0.00     0.029 A 
ATOM     38  N   UNL A   1      38.931  32.670  33.582  1.00  0.00    -0.354 N 
ATOM     39  C   UNL A   1      39.537  29.826  30.379  1.00  0.00     0.074 A 
ATOM     40  C   UNL A   1      38.634  30.079  29.278  1.00  0.00     0.031 C 
ATOM     41  C   UNL A   1      37.881  34.313  34.677  1.00  0.00     0.029 A 
ATOM     42  C   UNL A   1      38.932  33.308  34.802  1.00  0.00     0.049 A 
ATOM     43  H   UNL A   1      39.566  31.952  33.349  1.00  0.00     0.167 HD
ATOM     44  C   UNL A   1      40.460  28.836  30.392  1.00  0.00     0.034 A 
ATOM     45  C   UNL A   1      39.688  33.098  35.898  1.00  0.00     0.034 A 
ATOM     46  C   UNL A   1      41.399  28.626  31.461  1.00  0.00     0.049 A 
ATOM     47  C   UNL A   1      40.744  32.025  35.862  1.00  0.00     0.074 A 
ATOM     48  C   UNL A   1      42.415  27.690  31.542  1.00  0.00     0.029 A 
ATOM     49  N   UNL A   1      41.446  29.372  32.628  1.00  0.00    -0.354 N 
ATOM     50  N   UNL A   1      41.055  31.205  34.887  1.00  0.00    -0.248 NA
ATOM     51  C   UNL A   1      41.579  31.870  37.064  1.00  0.00     0.031 C 
ATOM     52  C   UNL A   1      43.079  27.874  32.758  1.00  0.00     0.029 A 
ATOM     53  C   UNL A   1      42.482  28.928  33.430  1.00  0.00     0.049 A 
ATOM     54  H   UNL A   1      40.832  30.108  32.853  1.00  0.00     0.167 HD
ATOM     55  C   UNL A   1      42.146  30.472  35.339  1.00  0.00     0.074 A 
ATOM     56  C   UNL A   1      42.452  30.953  36.671  1.00  0.00     0.031 C 
ATOM     57  C   UNL A   1      42.824  29.478  34.715  1.00  0.00     0.034 A 
BRANCH  44  58
ATOM     58  C   UNL A   1      40.551  27.949  29.179  1.00  0.00     0.023 A 
ATOM     59  C   UNL A   1      39.663  26.860  29.057  1.00  0.00     0.012 A 
ATOM     60  C   UNL A   1      41.462  28.219  28.140  1.00  0.00     0.148 A 
ATOM     61  C   UNL A   1      39.702  26.034  27.936  1.00  0.00     0.002 A 
ATOM     62  C   UNL A   1      41.467  27.415  27.006  1.00  0.00     0.091 A 
ATOM     63  F   UNL A   1      42.312  29.245  28.284  1.00  0.00    -0.205 F 
ATOM     64  C   UNL A   1      40.595  26.317  26.906  1.00  0.00     0.022 A 
BRANCH  62  65
ATOM     65  S   UNL A   1      42.528  27.739  25.593  1.00  0.00     0.127 S 
ATOM     66  O   UNL A   1      42.280  26.562  24.762  1.00  0.00    -0.237 OA
ATOM     67  O   UNL A   1      41.972  28.985  25.066  1.00  0.00    -0.237 OA
ATOM     68  O   UNL A   1      43.879  27.855  26.126  1.00  0.00    -0.744 OA
ENDBRANCH  62  65
ENDBRANCH  44  58
BRANCH  45  69
ATOM     69  C   UNL A   1      39.540  33.978  37.092  1.00  0.00     0.023 A 
ATOM     70  C   UNL A   1      40.009  35.305  37.025  1.00  0.00     0.012 A 
ATOM     71  C   UNL A   1      38.934  33.525  38.279  1.00  0.00     0.148 A 
ATOM     72  C   UNL A   1      39.910  36.154  38.126  1.00  0.00     0.002 A 
ATOM     73  C   UNL A   1      38.794  34.393  39.359  1.00  0.00     0.091 A 
ATOM     74  F   UNL A   1      38.510  32.256  38.335  1.00  0.00    -0.205 F 
ATOM     75  C   UNL A   1      39.295  35.701  39.290  1.00  0.00     0.022 A 
BRANCH  73  76
ATOM     76  S   UNL A   1      37.903  33.925  40.848  1.00  0.00     0.127 S 
ATOM     77  O   UNL A   1      36.716  33.279  40.297  1.00  0.00    -0.237 OA
ATOM     78  O   UNL A   1      38.849  33.019  41.501  1.00  0.00    -0.237 OA
ATOM     79  O   UNL A   1      37.681  35.172  41.567  1.00  0.00    -0.744 OA
ENDBRANCH  73  76
ENDBRANCH  45  69
BRANCH  57  80
ATOM     80  C   UNL A   1      44.004  28.875  35.429  1.00  0.00     0.023 A 
ATOM     81  C   UNL A   1      45.275  29.465  35.296  1.00  0.00     0.012 A 
ATOM     82  C   UNL A   1      43.829  27.787  36.307  1.00  0.00     0.148 A 
ATOM     83  C   UNL A   1      46.364  28.965  36.012  1.00  0.00     0.002 A 
ATOM     84  C   UNL A   1      44.909  27.322  37.049  1.00  0.00     0.091 A 
ATOM     85  F   UNL A   1      42.614  27.229  36.401  1.00  0.00    -0.205 F 
ATOM     86  C   UNL A   1      46.178  27.905  36.896  1.00  0.00     0.022 A 
BRANCH  84  87
ATOM     87  S   UNL A   1      44.738  26.024  38.278  1.00  0.00     0.127 S 
ATOM     88  O   UNL A   1      43.784  26.620  39.211  1.00  0.00    -0.237 OA
ATOM     89  O   UNL A   1      44.206  24.913  37.489  1.00  0.00    -0.237 OA
ATOM     90  O   UNL A   1      46.077  25.798  38.808  1.00  0.00    -0.744 OA
ENDBRANCH  84  87
ENDBRANCH  57  80
ENDBRANCH  31  32
ENDBRANCH  23  26
ENDBRANCH  21  22
ENDBRANCH  20  21
ENDBRANCH   1  20
TORSDOF 17
ENDMDL
MODEL 3
REMARK VINA RESULT:     -10.7      2.238      8.174
REMARK SMILES CC(C)(C[S@](=O)c1cccc(Cl)c1)C(=O)NCCCCNC(=O)c1ccc(-c2c3nc(c(-c4cccc(S(=O)(=O)[O-])c4F)c4ccc([nH]4)c(-c4cccc(S(=O)(=O)[O-])c4F)c4nc(c(-c5cccc(S(=O)(=O)[O-])c5F)c5ccc2[nH]5)C=C4)C=C3)cc1
REMARK SMILES IDX 18 1 17 2 16 3 14 4 15 5 2 7 1 8 3 9 4 10 5 11 6 12 7 13
REMARK SMILES IDX 8 14 13 15 9 16 11 17 10 18 12 19 19 20 20 21 21 22 22 23
REMARK SMILES IDX 23 25 24 26 25 27 86 28 26 29 85 30 27 31 28 32 29 33 79 34
REMARK SMILES IDX 30 35 84 36 78 37 80 38 31 39 83 40 77 41 76 42 32 44 64 45
REMARK SMILES IDX 44 46 63 47 45 48 48 49 62 50 81 51 46 52 47 53 61 55 82 56
REMARK SMILES IDX 49 57 33 58 34 59 42 60 35 61 37 62 43 63 36 64 38 65 39 66
REMARK SMILES IDX 40 67 41 68 65 69 66 70 74 71 67 72 69 73 75 74 68 75 70 76
REMARK SMILES IDX 71 77 72 78 73 79 50 80 51 81 59 82 52 83 54 84 60 85 53 86
REMARK SMILES IDX 55 87 56 88 57 89 58 90
REMARK H PARENT 16 6 21 24 80 43 48 54
REMARK Flexibility Score: inf
ROOT
ATOM      1  C   UNL A   1      32.183  26.928  26.253  1.00  0.00     0.023 C 
ENDROOT
BRANCH   1   2
ATOM      2  C   UNL A   1      32.098  25.668  25.395  1.00  0.00     0.116 C 
BRANCH   2   3
ATOM      3  N   UNL A   1      32.841  25.769  24.156  1.00  0.00    -0.356 N 
ATOM      4  C   UNL A   1      33.775  24.978  23.566  1.00  0.00     0.226 C 
ATOM      5  O   UNL A   1      34.063  25.261  22.398  1.00  0.00    -0.274 OA
ATOM      6  H   UNL A   1      32.625  26.576  23.636  1.00  0.00     0.163 HD
BRANCH   4   7
ATOM      7  C   UNL A   1      34.392  23.741  24.252  1.00  0.00     0.055 C 
ATOM      8  C   UNL A   1      35.309  24.227  25.400  1.00  0.00     0.022 C 
ATOM      9  C   UNL A   1      35.344  23.041  23.254  1.00  0.00     0.022 C 
BRANCH   7  10
ATOM     10  C   UNL A   1      33.366  22.721  24.790  1.00  0.00     0.126 C 
BRANCH  10  11
ATOM     11  S   UNL A   1      33.980  21.257  25.690  1.00  0.00     0.054 S 
ATOM     12  O   UNL A   1      35.475  21.254  25.689  1.00  0.00    -0.254 OA
BRANCH  11  13
ATOM     13  C   UNL A   1      33.464  19.947  24.568  1.00  0.00     0.040 A 
ATOM     14  C   UNL A   1      32.512  20.187  23.570  1.00  0.00     0.018 A 
ATOM     15  C   UNL A   1      34.053  18.683  24.663  1.00  0.00     0.038 A 
ATOM     16  C   UNL A   1      32.098  19.160  22.722  1.00  0.00     0.003 A 
ATOM     17  C   UNL A   1      33.653  17.666  23.796  1.00  0.00     0.042 A 
ATOM     18  C   UNL A   1      32.669  17.894  22.837  1.00  0.00     0.020 A 
ATOM     19  Cl  UNL A   1      34.385  16.112  23.913  1.00  0.00    -0.084 Cl
ENDBRANCH  11  13
ENDBRANCH  10  11
ENDBRANCH   7  10
ENDBRANCH   4   7
ENDBRANCH   2   3
ENDBRANCH   1   2
BRANCH   1  20
ATOM     20  C   UNL A   1      31.868  28.237  25.528  1.00  0.00     0.023 C 
BRANCH  20  21
ATOM     21  C   UNL A   1      32.935  29.323  25.628  1.00  0.00     0.116 C 
BRANCH  21  22
ATOM     22  N   UNL A   1      32.428  30.593  26.135  1.00  0.00    -0.352 N 
ATOM     23  C   UNL A   1      33.006  31.441  27.049  1.00  0.00     0.251 C 
ATOM     24  H   UNL A   1      31.558  30.881  25.774  1.00  0.00     0.163 HD
ATOM     25  O   UNL A   1      32.405  32.440  27.434  1.00  0.00    -0.269 OA
BRANCH  23  26
ATOM     26  C   UNL A   1      34.342  31.117  27.593  1.00  0.00     0.039 A 
ATOM     27  C   UNL A   1      35.297  32.132  27.699  1.00  0.00     0.014 A 
ATOM     28  C   UNL A   1      34.628  29.826  28.043  1.00  0.00     0.014 A 
ATOM     29  C   UNL A   1      36.515  31.871  28.332  1.00  0.00     0.010 A 
ATOM     30  C   UNL A   1      35.813  29.587  28.732  1.00  0.00     0.010 A 
ATOM     31  C   UNL A   1      36.765  30.606  28.889  1.00  0.00    -0.014 A 
BRANCH  31  32
ATOM     32  C   UNL A   1      38.010  30.312  29.644  1.00  0.00     0.031 A 
ATOM     33  C   UNL A   1      39.024  29.363  29.067  1.00  0.00     0.074 A 
ATOM     34  C   UNL A   1      38.171  30.802  30.891  1.00  0.00     0.049 A 
ATOM     35  N   UNL A   1      40.094  28.859  29.624  1.00  0.00    -0.248 NA
ATOM     36  C   UNL A   1      38.785  28.893  27.692  1.00  0.00     0.031 C 
ATOM     37  C   UNL A   1      37.227  31.680  31.586  1.00  0.00     0.029 A 
ATOM     38  N   UNL A   1      39.172  30.600  31.808  1.00  0.00    -0.354 N 
ATOM     39  C   UNL A   1      40.629  27.982  28.689  1.00  0.00     0.074 A 
ATOM     40  C   UNL A   1      39.752  28.001  27.538  1.00  0.00     0.031 C 
ATOM     41  C   UNL A   1      37.693  31.939  32.820  1.00  0.00     0.029 A 
ATOM     42  C   UNL A   1      38.950  31.223  33.015  1.00  0.00     0.049 A 
ATOM     43  H   UNL A   1      39.974  30.060  31.620  1.00  0.00     0.167 HD
ATOM     44  C   UNL A   1      41.764  27.249  28.766  1.00  0.00     0.034 A 
ATOM     45  C   UNL A   1      39.673  31.210  34.153  1.00  0.00     0.034 A 
ATOM     46  C   UNL A   1      42.666  27.279  29.885  1.00  0.00     0.049 A 
ATOM     47  C   UNL A   1      40.961  30.428  34.189  1.00  0.00     0.074 A 
ATOM     48  C   UNL A   1      43.874  26.621  30.035  1.00  0.00     0.029 A 
ATOM     49  N   UNL A   1      42.465  28.017  31.041  1.00  0.00    -0.354 N 
ATOM     50  N   UNL A   1      41.515  29.707  33.246  1.00  0.00    -0.248 NA
ATOM     51  C   UNL A   1      41.741  30.487  35.435  1.00  0.00     0.031 C 
ATOM     52  C   UNL A   1      44.407  26.967  31.281  1.00  0.00     0.029 A 
ATOM     53  C   UNL A   1      43.533  27.845  31.903  1.00  0.00     0.049 A 
ATOM     54  H   UNL A   1      41.679  28.581  31.221  1.00  0.00     0.167 HD
ATOM     55  C   UNL A   1      42.726  29.266  33.766  1.00  0.00     0.074 A 
ATOM     56  C   UNL A   1      42.832  29.811  35.103  1.00  0.00     0.031 C 
ATOM     57  C   UNL A   1      43.660  28.466  33.195  1.00  0.00     0.034 A 
BRANCH  44  58
ATOM     58  C   UNL A   1      42.135  26.407  27.574  1.00  0.00     0.023 A 
ATOM     59  C   UNL A   1      42.855  26.998  26.515  1.00  0.00     0.012 A 
ATOM     60  C   UNL A   1      41.830  25.034  27.523  1.00  0.00     0.148 A 
ATOM     61  C   UNL A   1      43.238  26.243  25.408  1.00  0.00     0.002 A 
ATOM     62  C   UNL A   1      42.252  24.278  26.434  1.00  0.00     0.091 A 
ATOM     63  F   UNL A   1      41.127  24.495  28.528  1.00  0.00    -0.205 F 
ATOM     64  C   UNL A   1      42.946  24.883  25.372  1.00  0.00     0.022 A 
BRANCH  62  65
ATOM     65  S   UNL A   1      41.989  22.504  26.326  1.00  0.00     0.127 S 
ATOM     66  O   UNL A   1      40.531  22.424  26.268  1.00  0.00    -0.237 OA
ATOM     67  O   UNL A   1      42.667  22.166  25.074  1.00  0.00    -0.237 OA
ATOM     68  O   UNL A   1      42.601  21.936  27.519  1.00  0.00    -0.744 OA
ENDBRANCH  62  65
ENDBRANCH  44  58
BRANCH  45  69
ATOM     69  C   UNL A   1      39.249  32.030  35.322  1.00  0.00     0.023 A 
ATOM     70  C   UNL A   1      38.363  31.470  36.263  1.00  0.00     0.012 A 
ATOM     71  C   UNL A   1      39.717  33.343  35.520  1.00  0.00     0.148 A 
ATOM     72  C   UNL A   1      37.923  32.211  37.360  1.00  0.00     0.002 A 
ATOM     73  C   UNL A   1      39.314  34.061  36.642  1.00  0.00     0.091 A 
ATOM     74  F   UNL A   1      40.545  33.869  34.607  1.00  0.00    -0.205 F 
ATOM     75  C   UNL A   1      38.405  33.503  37.554  1.00  0.00     0.022 A 
BRANCH  73  76
ATOM     76  S   UNL A   1      39.985  35.682  37.029  1.00  0.00     0.127 S 
ATOM     77  O   UNL A   1      39.304  35.997  38.281  1.00  0.00    -0.237 OA
ATOM     78  O   UNL A   1      41.415  35.400  37.161  1.00  0.00    -0.237 OA
ATOM     79  O   UNL A   1      39.646  36.518  35.885  1.00  0.00    -0.744 OA
ENDBRANCH  73  76
ENDBRANCH  45  69
BRANCH  57  80
ATOM     80  C   UNL A   1      44.911  28.174  33.979  1.00  0.00     0.023 A 
ATOM     81  C   UNL A   1      46.009  29.050  33.891  1.00  0.00     0.012 A 
ATOM     82  C   UNL A   1      44.956  27.088  34.875  1.00  0.00     0.148 A 
ATOM     83  C   UNL A   1      47.147  28.836  34.671  1.00  0.00     0.002 A 
ATOM     84  C   UNL A   1      46.075  26.905  35.679  1.00  0.00     0.091 A 
ATOM     85  F   UNL A   1      43.907  26.255  34.926  1.00  0.00    -0.205 F 
ATOM     86  C   UNL A   1      47.174  27.774  35.572  1.00  0.00     0.022 A 
BRANCH  84  87
ATOM     87  S   UNL A   1      46.157  25.621  36.931  1.00  0.00     0.127 S 
ATOM     88  O   UNL A   1      47.459  25.883  37.542  1.00  0.00    -0.237 OA
ATOM     89  O   UNL A   1      45.010  25.939  37.782  1.00  0.00    -0.237 OA
ATOM     90  O   UNL A   1      46.042  24.357  36.215  1.00  0.00    -0.744 OA
ENDBRANCH  84  87
ENDBRANCH  57  80
ENDBRANCH  31  32
ENDBRANCH  23  26
ENDBRANCH  21  22
ENDBRANCH  20  21
ENDBRANCH   1  20
TORSDOF 17
ENDMDL
