MODEL 1
REMARK VINA RESULT:     -11.2      0.000      0.000
REMARK SMILES CC[C@](C)(NS(=O)(=O)c1ccc(OC)c(F)c1)C(=O)NCCCCNC(=O)c1ccc(-c2c3nc(c(-c4cccc(S(=O)(=O)[O-])c4F)c4ccc([nH]4)c(-c4cccc(S(=O)(=O)[O-])c4F)c4nc(c(-c5cccc(S(=O)(=O)[O-])c5F)c5ccc2[nH]5)C=C4)C=C3)cc1
REMARK SMILES IDX 22 1 21 2 20 3 18 4 19 5 3 7 4 8 2 9 1 10 5 11 6 13 7 14
REMARK SMILES IDX 8 15 9 16 10 17 17 18 11 19 15 20 12 21 16 22 13 23 14 24
REMARK SMILES IDX 23 25 24 26 25 27 26 28 27 30 28 31 29 32 90 33 30 34 89 35
REMARK SMILES IDX 31 36 32 37 33 38 83 39 34 40 88 41 82 42 84 43 35 44 87 45
REMARK SMILES IDX 81 46 80 47 36 49 68 50 48 51 67 52 49 53 52 54 66 55 85 56
REMARK SMILES IDX 50 57 51 58 65 60 86 61 53 62 37 63 38 64 46 65 39 66 41 67
REMARK SMILES IDX 47 68 40 69 42 70 43 71 44 72 45 73 69 74 70 75 78 76 71 77
REMARK SMILES IDX 73 78 79 79 72 80 74 81 75 82 76 83 77 84 54 85 55 86 63 87
REMARK SMILES IDX 56 88 58 89 64 90 57 91 59 92 60 93 61 94 62 95
REMARK H PARENT 20 6 5 12 25 29 84 48 52 59
REMARK Flexibility Score: inf
ROOT
ATOM      1  C   UNL A   1      33.079  26.665  26.063  1.00  0.00     0.023 C 
ENDROOT
BRANCH   1   2
ATOM      2  C   UNL A   1      32.916  25.278  25.440  1.00  0.00     0.116 C 
BRANCH   2   3
ATOM      3  N   UNL A   1      33.159  24.128  26.297  1.00  0.00    -0.354 N 
ATOM      4  C   UNL A   1      34.116  23.160  26.327  1.00  0.00     0.241 C 
ATOM      5  O   UNL A   1      34.380  22.755  27.469  1.00  0.00    -0.273 OA
ATOM      6  H   UNL A   1      32.485  24.027  27.009  1.00  0.00     0.163 HD
BRANCH   4   7
ATOM      7  C   UNL A   1      34.787  22.496  25.093  1.00  0.00     0.108 C 
ATOM      8  C   UNL A   1      35.504  21.213  25.636  1.00  0.00     0.040 C 
BRANCH   7   9
ATOM      9  C   UNL A   1      35.839  23.458  24.493  1.00  0.00     0.030 C 
ATOM     10  C   UNL A   1      36.632  23.015  23.267  1.00  0.00     0.006 C 
ENDBRANCH   7   9
BRANCH   7  11
ATOM     11  N   UNL A   1      33.882  21.883  24.085  1.00  0.00    -0.196 NA
ATOM     12  H   UNL A   1      34.518  21.345  23.496  1.00  0.00     0.142 HD
BRANCH  11  13
ATOM     13  S   UNL A   1      32.555  20.904  24.207  1.00  0.00     0.241 S 
ATOM     14  O   UNL A   1      31.742  21.402  25.292  1.00  0.00    -0.207 OA
ATOM     15  O   UNL A   1      32.028  20.910  22.861  1.00  0.00    -0.207 OA
BRANCH  13  16
ATOM     16  C   UNL A   1      32.987  19.212  24.538  1.00  0.00     0.085 A 
ATOM     17  C   UNL A   1      32.755  18.577  25.751  1.00  0.00     0.026 A 
ATOM     18  C   UNL A   1      33.555  18.467  23.496  1.00  0.00     0.065 A 
ATOM     19  C   UNL A   1      32.901  17.190  25.868  1.00  0.00     0.051 A 
ATOM     20  C   UNL A   1      33.773  17.091  23.646  1.00  0.00     0.166 A 
ATOM     21  C   UNL A   1      33.400  16.426  24.812  1.00  0.00     0.154 A 
ATOM     22  F   UNL A   1      34.333  16.438  22.618  1.00  0.00    -0.203 F 
BRANCH  21  23
ATOM     23  O   UNL A   1      33.450  15.089  25.079  1.00  0.00    -0.494 OA
ATOM     24  C   UNL A   1      32.255  14.446  25.518  1.00  0.00     0.278 C 
ENDBRANCH  21  23
ENDBRANCH  13  16
ENDBRANCH  11  13
ENDBRANCH   7  11
ENDBRANCH   4   7
ENDBRANCH   2   3
ENDBRANCH   1   2
BRANCH   1  25
ATOM     25  C   UNL A   1      32.473  27.850  25.315  1.00  0.00     0.023 C 
BRANCH  25  26
ATOM     26  C   UNL A   1      33.440  28.993  25.054  1.00  0.00     0.116 C 
BRANCH  26  27
ATOM     27  N   UNL A   1      32.896  30.262  25.515  1.00  0.00    -0.352 N 
ATOM     28  C   UNL A   1      33.158  30.961  26.666  1.00  0.00     0.251 C 
ATOM     29  H   UNL A   1      32.241  30.681  24.910  1.00  0.00     0.163 HD
ATOM     30  O   UNL A   1      32.398  31.863  27.008  1.00  0.00    -0.269 OA
BRANCH  28  31
ATOM     31  C   UNL A   1      34.354  30.648  27.481  1.00  0.00     0.039 A 
ATOM     32  C   UNL A   1      35.330  31.633  27.661  1.00  0.00     0.014 A 
ATOM     33  C   UNL A   1      34.549  29.368  28.005  1.00  0.00     0.014 A 
ATOM     34  C   UNL A   1      36.493  31.336  28.377  1.00  0.00     0.010 A 
ATOM     35  C   UNL A   1      35.665  29.098  28.788  1.00  0.00     0.010 A 
ATOM     36  C   UNL A   1      36.666  30.065  28.950  1.00  0.00    -0.014 A 
BRANCH  36  37
ATOM     37  C   UNL A   1      37.911  29.703  29.672  1.00  0.00     0.031 A 
ATOM     38  C   UNL A   1      38.170  30.271  31.042  1.00  0.00     0.074 A 
ATOM     39  C   UNL A   1      38.833  28.927  29.070  1.00  0.00     0.049 A 
ATOM     40  N   UNL A   1      39.221  30.130  31.807  1.00  0.00    -0.248 NA
ATOM     41  C   UNL A   1      37.126  31.138  31.619  1.00  0.00     0.031 C 
ATOM     42  C   UNL A   1      38.722  28.380  27.716  1.00  0.00     0.029 A 
ATOM     43  N   UNL A   1      40.053  28.483  29.510  1.00  0.00    -0.354 N 
ATOM     44  C   UNL A   1      38.984  30.919  32.927  1.00  0.00     0.074 A 
ATOM     45  C   UNL A   1      37.709  31.567  32.729  1.00  0.00     0.031 C 
ATOM     46  C   UNL A   1      39.823  27.663  27.442  1.00  0.00     0.029 A 
ATOM     47  C   UNL A   1      40.730  27.722  28.585  1.00  0.00     0.049 A 
ATOM     48  H   UNL A   1      40.412  28.691  30.403  1.00  0.00     0.167 HD
ATOM     49  C   UNL A   1      39.743  31.061  34.038  1.00  0.00     0.034 A 
ATOM     50  C   UNL A   1      41.943  27.139  28.654  1.00  0.00     0.034 A 
ATOM     51  C   UNL A   1      40.976  30.357  34.257  1.00  0.00     0.049 A 
ATOM     52  C   UNL A   1      42.741  27.264  29.922  1.00  0.00     0.074 A 
ATOM     53  C   UNL A   1      41.774  30.356  35.387  1.00  0.00     0.029 A 
ATOM     54  N   UNL A   1      41.586  29.526  33.331  1.00  0.00    -0.354 N 
ATOM     55  N   UNL A   1      42.434  27.899  31.029  1.00  0.00    -0.248 NA
ATOM     56  C   UNL A   1      44.035  26.567  29.972  1.00  0.00     0.031 C 
ATOM     57  C   UNL A   1      42.877  29.538  35.137  1.00  0.00     0.029 A 
ATOM     58  C   UNL A   1      42.755  29.009  33.861  1.00  0.00     0.049 A 
ATOM     59  H   UNL A   1      41.240  29.332  32.430  1.00  0.00     0.167 HD
ATOM     60  C   UNL A   1      43.477  27.653  31.913  1.00  0.00     0.074 A 
ATOM     61  C   UNL A   1      44.417  26.795  31.222  1.00  0.00     0.031 C 
ATOM     62  C   UNL A   1      43.649  28.110  33.178  1.00  0.00     0.034 A 
BRANCH  49  63
ATOM     63  C   UNL A   1      39.234  31.954  35.139  1.00  0.00     0.023 A 
ATOM     64  C   UNL A   1      38.315  31.443  36.077  1.00  0.00     0.012 A 
ATOM     65  C   UNL A   1      39.736  33.260  35.306  1.00  0.00     0.148 A 
ATOM     66  C   UNL A   1      37.884  32.222  37.150  1.00  0.00     0.002 A 
ATOM     67  C   UNL A   1      39.339  34.014  36.403  1.00  0.00     0.091 A 
ATOM     68  F   UNL A   1      40.596  33.736  34.393  1.00  0.00    -0.205 F 
ATOM     69  C   UNL A   1      38.405  33.501  37.320  1.00  0.00     0.022 A 
BRANCH  67  70
ATOM     70  S   UNL A   1      40.013  35.640  36.764  1.00  0.00     0.127 S 
ATOM     71  O   UNL A   1      39.579  36.406  35.595  1.00  0.00    -0.237 OA
ATOM     72  O   UNL A   1      39.329  35.987  38.009  1.00  0.00    -0.237 OA
ATOM     73  O   UNL A   1      41.454  35.461  36.888  1.00  0.00    -0.744 OA
ENDBRANCH  67  70
ENDBRANCH  49  63
BRANCH  50  74
ATOM     74  C   UNL A   1      42.426  26.314  27.511  1.00  0.00     0.023 A 
ATOM     75  C   UNL A   1      43.367  26.860  26.616  1.00  0.00     0.012 A 
ATOM     76  C   UNL A   1      42.020  24.975  27.346  1.00  0.00     0.148 A 
ATOM     77  C   UNL A   1      43.880  26.095  25.567  1.00  0.00     0.002 A 
ATOM     78  C   UNL A   1      42.578  24.201  26.335  1.00  0.00     0.091 A 
ATOM     79  F   UNL A   1      41.113  24.477  28.199  1.00  0.00    -0.205 F 
ATOM     80  C   UNL A   1      43.497  24.763  25.434  1.00  0.00     0.022 A 
BRANCH  78  81
ATOM     81  S   UNL A   1      42.259  22.438  26.190  1.00  0.00     0.127 S 
ATOM     82  O   UNL A   1      43.083  22.079  25.040  1.00  0.00    -0.237 OA
ATOM     83  O   UNL A   1      42.740  21.936  27.477  1.00  0.00    -0.237 OA
ATOM     84  O   UNL A   1      40.818  22.317  26.004  1.00  0.00    -0.744 OA
ENDBRANCH  78  81
ENDBRANCH  50  74
BRANCH  62  85
ATOM     85  C   UNL A   1      44.884  27.683  33.925  1.00  0.00     0.023 A 
ATOM     86  C   UNL A   1      46.020  28.514  33.923  1.00  0.00     0.012 A 
ATOM     87  C   UNL A   1      44.868  26.530  34.736  1.00  0.00     0.148 A 
ATOM     88  C   UNL A   1      47.130  28.196  34.704  1.00  0.00     0.002 A 
ATOM     89  C   UNL A   1      45.957  26.246  35.549  1.00  0.00     0.091 A 
ATOM     90  F   UNL A   1      43.780  25.747  34.711  1.00  0.00    -0.205 F 
ATOM     91  C   UNL A   1      47.093  27.072  35.528  1.00  0.00     0.022 A 
BRANCH  89  92
ATOM     92  S   UNL A   1      45.956  24.886  36.723  1.00  0.00     0.127 S 
ATOM     93  O   UNL A   1      46.984  25.311  37.671  1.00  0.00    -0.237 OA
ATOM     94  O   UNL A   1      44.589  24.929  37.245  1.00  0.00    -0.237 OA
ATOM     95  O   UNL A   1      46.272  23.690  35.954  1.00  0.00    -0.744 OA
ENDBRANCH  89  92
ENDBRANCH  62  85
ENDBRANCH  36  37
ENDBRANCH  28  31
ENDBRANCH  26  27
ENDBRANCH  25  26
ENDBRANCH   1  25
TORSDOF 19
ENDMDL
MODEL 2
REMARK VINA RESULT:     -11.2      5.513      8.681
REMARK SMILES CC[C@](C)(NS(=O)(=O)c1ccc(OC)c(F)c1)C(=O)NCCCCNC(=O)c1ccc(-c2c3nc(c(-c4cccc(S(=O)(=O)[O-])c4F)c4ccc([nH]4)c(-c4cccc(S(=O)(=O)[O-])c4F)c4nc(c(-c5cccc(S(=O)(=O)[O-])c5F)c5ccc2[nH]5)C=C4)C=C3)cc1
REMARK SMILES IDX 22 1 21 2 20 3 18 4 19 5 3 7 4 8 2 9 1 10 5 11 6 13 7 14
REMARK SMILES IDX 8 15 9 16 10 17 17 18 11 19 15 20 12 21 16 22 13 23 14 24
REMARK SMILES IDX 23 25 24 26 25 27 26 28 27 30 28 31 29 32 90 33 30 34 89 35
REMARK SMILES IDX 31 36 32 37 33 38 83 39 34 40 88 41 82 42 84 43 35 44 87 45
REMARK SMILES IDX 81 46 80 47 36 49 68 50 48 51 67 52 49 53 52 54 66 55 85 56
REMARK SMILES IDX 50 57 51 58 65 60 86 61 53 62 37 63 38 64 46 65 39 66 41 67
REMARK SMILES IDX 47 68 40 69 42 70 43 71 44 72 45 73 69 74 70 75 78 76 71 77
REMARK SMILES IDX 73 78 79 79 72 80 74 81 75 82 76 83 77 84 54 85 55 86 63 87
REMARK SMILES IDX 56 88 58 89 64 90 57 91 59 92 60 93 61 94 62 95
REMARK H PARENT 20 6 5 12 25 29 84 48 52 59
REMARK Flexibility Score: inf
ROOT
ATOM      1  C   UNL A   1      36.711  19.857  24.834  1.00  0.00     0.023 C 
ENDROOT
BRANCH   1   2
ATOM      2  C   UNL A   1      36.572  21.288  25.353  1.00  0.00     0.116 C 
BRANCH   2   3
ATOM      3  N   UNL A   1      35.625  21.519  26.433  1.00  0.00    -0.354 N 
ATOM      4  C   UNL A   1      34.267  21.458  26.525  1.00  0.00     0.241 C 
ATOM      5  O   UNL A   1      33.859  21.101  27.641  1.00  0.00    -0.273 OA
ATOM      6  H   UNL A   1      36.058  21.775  27.280  1.00  0.00     0.163 HD
BRANCH   4   7
ATOM      7  C   UNL A   1      33.254  21.877  25.425  1.00  0.00     0.108 C 
ATOM      8  C   UNL A   1      33.207  20.683  24.411  1.00  0.00     0.040 C 
BRANCH   7   9
ATOM      9  C   UNL A   1      33.766  23.145  24.701  1.00  0.00     0.030 C 
ATOM     10  C   UNL A   1      34.272  23.025  23.266  1.00  0.00     0.006 C 
ENDBRANCH   7   9
BRANCH   7  11
ATOM     11  N   UNL A   1      31.822  21.942  25.819  1.00  0.00    -0.196 NA
ATOM     12  H   UNL A   1      31.718  21.152  26.456  1.00  0.00     0.142 HD
BRANCH  11  13
ATOM     13  S   UNL A   1      30.896  23.120  26.517  1.00  0.00     0.241 S 
ATOM     14  O   UNL A   1      29.565  22.586  26.694  1.00  0.00    -0.207 OA
ATOM     15  O   UNL A   1      31.674  23.493  27.677  1.00  0.00    -0.207 OA
BRANCH  13  16
ATOM     16  C   UNL A   1      30.801  24.589  25.520  1.00  0.00     0.085 A 
ATOM     17  C   UNL A   1      30.337  24.609  24.212  1.00  0.00     0.026 A 
ATOM     18  C   UNL A   1      31.178  25.803  26.110  1.00  0.00     0.065 A 
ATOM     19  C   UNL A   1      30.068  25.823  23.570  1.00  0.00     0.051 A 
ATOM     20  C   UNL A   1      30.980  27.013  25.430  1.00  0.00     0.166 A 
ATOM     21  C   UNL A   1      30.373  27.042  24.176  1.00  0.00     0.154 A 
ATOM     22  F   UNL A   1      31.375  28.138  26.042  1.00  0.00    -0.203 F 
BRANCH  21  23
ATOM     23  O   UNL A   1      30.020  28.128  23.429  1.00  0.00    -0.494 OA
ATOM     24  C   UNL A   1      31.060  28.906  22.842  1.00  0.00     0.278 C 
ENDBRANCH  21  23
ENDBRANCH  13  16
ENDBRANCH  11  13
ENDBRANCH   7  11
ENDBRANCH   4   7
ENDBRANCH   2   3
ENDBRANCH   1   2
BRANCH   1  25
ATOM     25  C   UNL A   1      38.067  19.175  24.999  1.00  0.00     0.023 C 
BRANCH  25  26
ATOM     26  C   UNL A   1      39.111  20.013  25.720  1.00  0.00     0.116 C 
BRANCH  26  27
ATOM     27  N   UNL A   1      40.252  19.205  26.123  1.00  0.00    -0.352 N 
ATOM     28  C   UNL A   1      41.537  19.587  26.410  1.00  0.00     0.251 C 
ATOM     29  H   UNL A   1      40.074  18.239  26.201  1.00  0.00     0.163 HD
ATOM     30  O   UNL A   1      42.422  18.735  26.457  1.00  0.00    -0.269 OA
BRANCH  28  31
ATOM     31  C   UNL A   1      41.859  21.006  26.679  1.00  0.00     0.039 A 
ATOM     32  C   UNL A   1      41.850  21.919  25.619  1.00  0.00     0.014 A 
ATOM     33  C   UNL A   1      42.241  21.424  27.957  1.00  0.00     0.014 A 
ATOM     34  C   UNL A   1      42.210  23.250  25.846  1.00  0.00     0.010 A 
ATOM     35  C   UNL A   1      42.516  22.766  28.198  1.00  0.00     0.010 A 
ATOM     36  C   UNL A   1      42.542  23.683  27.140  1.00  0.00    -0.014 A 
BRANCH  36  37
ATOM     37  C   UNL A   1      42.978  25.077  27.403  1.00  0.00     0.031 A 
ATOM     38  C   UNL A   1      42.026  26.045  28.055  1.00  0.00     0.074 A 
ATOM     39  C   UNL A   1      44.194  25.488  26.994  1.00  0.00     0.049 A 
ATOM     40  N   UNL A   1      42.191  27.317  28.311  1.00  0.00    -0.248 NA
ATOM     41  C   UNL A   1      40.702  25.526  28.445  1.00  0.00     0.031 C 
ATOM     42  C   UNL A   1      45.171  24.658  26.287  1.00  0.00     0.029 A 
ATOM     43  N   UNL A   1      44.805  26.711  27.094  1.00  0.00    -0.354 N 
ATOM     44  C   UNL A   1      40.985  27.755  28.847  1.00  0.00     0.074 A 
ATOM     45  C   UNL A   1      40.083  26.627  28.847  1.00  0.00     0.031 C 
ATOM     46  C   UNL A   1      46.264  25.393  26.029  1.00  0.00     0.029 A 
ATOM     47  C   UNL A   1      46.056  26.750  26.524  1.00  0.00     0.049 A 
ATOM     48  H   UNL A   1      44.387  27.488  27.531  1.00  0.00     0.167 HD
ATOM     49  C   UNL A   1      40.670  28.979  29.332  1.00  0.00     0.034 A 
ATOM     50  C   UNL A   1      46.935  27.767  26.416  1.00  0.00     0.034 A 
ATOM     51  C   UNL A   1      41.597  30.075  29.393  1.00  0.00     0.049 A 
ATOM     52  C   UNL A   1      46.584  29.101  27.015  1.00  0.00     0.074 A 
ATOM     53  C   UNL A   1      41.408  31.326  29.952  1.00  0.00     0.029 A 
ATOM     54  N   UNL A   1      42.886  30.050  28.884  1.00  0.00    -0.354 N 
ATOM     55  N   UNL A   1      45.490  29.457  27.647  1.00  0.00    -0.248 NA
ATOM     56  C   UNL A   1      47.593  30.166  26.920  1.00  0.00     0.031 C 
ATOM     57  C   UNL A   1      42.578  32.065  29.764  1.00  0.00     0.029 A 
ATOM     58  C   UNL A   1      43.504  31.266  29.111  1.00  0.00     0.049 A 
ATOM     59  H   UNL A   1      43.299  29.281  28.430  1.00  0.00     0.167 HD
ATOM     60  C   UNL A   1      45.692  30.771  28.052  1.00  0.00     0.074 A 
ATOM     61  C   UNL A   1      47.021  31.144  27.610  1.00  0.00     0.031 C 
ATOM     62  C   UNL A   1      44.848  31.600  28.714  1.00  0.00     0.034 A 
BRANCH  49  63
ATOM     63  C   UNL A   1      39.292  29.185  29.903  1.00  0.00     0.023 A 
ATOM     64  C   UNL A   1      39.019  28.768  31.222  1.00  0.00     0.012 A 
ATOM     65  C   UNL A   1      38.301  29.877  29.179  1.00  0.00     0.148 A 
ATOM     66  C   UNL A   1      37.776  29.013  31.802  1.00  0.00     0.002 A 
ATOM     67  C   UNL A   1      37.081  30.160  29.780  1.00  0.00     0.091 A 
ATOM     68  F   UNL A   1      38.573  30.250  27.919  1.00  0.00    -0.205 F 
ATOM     69  C   UNL A   1      36.813  29.720  31.088  1.00  0.00     0.022 A 
BRANCH  67  70
ATOM     70  S   UNL A   1      35.803  31.137  28.980  1.00  0.00     0.127 S 
ATOM     71  O   UNL A   1      35.143  30.133  28.145  1.00  0.00    -0.237 OA
ATOM     72  O   UNL A   1      35.011  31.598  30.120  1.00  0.00    -0.237 OA
ATOM     73  O   UNL A   1      36.497  32.191  28.252  1.00  0.00    -0.744 OA
ENDBRANCH  67  70
ENDBRANCH  49  63
BRANCH  50  74
ATOM     74  C   UNL A   1      48.264  27.524  25.787  1.00  0.00     0.023 A 
ATOM     75  C   UNL A   1      49.332  27.069  26.585  1.00  0.00     0.012 A 
ATOM     76  C   UNL A   1      48.459  27.670  24.399  1.00  0.00     0.148 A 
ATOM     77  C   UNL A   1      50.573  26.782  26.017  1.00  0.00     0.002 A 
ATOM     78  C   UNL A   1      49.680  27.326  23.832  1.00  0.00     0.091 A 
ATOM     79  F   UNL A   1      47.436  28.119  23.658  1.00  0.00    -0.205 F 
ATOM     80  C   UNL A   1      50.744  26.897  24.640  1.00  0.00     0.022 A 
BRANCH  78  81
ATOM     81  S   UNL A   1      49.936  27.296  22.053  1.00  0.00     0.127 S 
ATOM     82  O   UNL A   1      51.310  26.812  21.957  1.00  0.00    -0.237 OA
ATOM     83  O   UNL A   1      48.913  26.346  21.615  1.00  0.00    -0.237 OA
ATOM     84  O   UNL A   1      49.710  28.664  21.603  1.00  0.00    -0.744 OA
ENDBRANCH  78  81
ENDBRANCH  50  74
BRANCH  62  85
ATOM     85  C   UNL A   1      45.326  32.990  29.035  1.00  0.00     0.023 A 
ATOM     86  C   UNL A   1      46.035  33.223  30.229  1.00  0.00     0.012 A 
ATOM     87  C   UNL A   1      45.190  34.030  28.094  1.00  0.00     0.148 A 
ATOM     88  C   UNL A   1      46.588  34.476  30.490  1.00  0.00     0.002 A 
ATOM     89  C   UNL A   1      45.786  35.260  28.337  1.00  0.00     0.091 A 
ATOM     90  F   UNL A   1      44.498  33.789  26.971  1.00  0.00    -0.205 F 
ATOM     91  C   UNL A   1      46.478  35.488  29.539  1.00  0.00     0.022 A 
BRANCH  89  92
ATOM     92  S   UNL A   1      45.791  36.586  27.125  1.00  0.00     0.127 S 
ATOM     93  O   UNL A   1      44.363  36.866  26.986  1.00  0.00    -0.237 OA
ATOM     94  O   UNL A   1      46.553  37.631  27.812  1.00  0.00    -0.237 OA
ATOM     95  O   UNL A   1      46.440  36.046  25.939  1.00  0.00    -0.744 OA
ENDBRANCH  89  92
ENDBRANCH  62  85
ENDBRANCH  36  37
ENDBRANCH  28  31
ENDBRANCH  26  27
ENDBRANCH  25  26
ENDBRANCH   1  25
TORSDOF 19
ENDMDL
MODEL 3
REMARK VINA RESULT:     -11.0      2.388      4.117
REMARK SMILES CC[C@](C)(NS(=O)(=O)c1ccc(OC)c(F)c1)C(=O)NCCCCNC(=O)c1ccc(-c2c3nc(c(-c4cccc(S(=O)(=O)[O-])c4F)c4ccc([nH]4)c(-c4cccc(S(=O)(=O)[O-])c4F)c4nc(c(-c5cccc(S(=O)(=O)[O-])c5F)c5ccc2[nH]5)C=C4)C=C3)cc1
REMARK SMILES IDX 22 1 21 2 20 3 18 4 19 5 3 7 4 8 2 9 1 10 5 11 6 13 7 14
REMARK SMILES IDX 8 15 9 16 10 17 17 18 11 19 15 20 12 21 16 22 13 23 14 24
REMARK SMILES IDX 23 25 24 26 25 27 26 28 27 30 28 31 29 32 90 33 30 34 89 35
REMARK SMILES IDX 31 36 32 37 33 38 83 39 34 40 88 41 82 42 84 43 35 44 87 45
REMARK SMILES IDX 81 46 80 47 36 49 68 50 48 51 67 52 49 53 52 54 66 55 85 56
REMARK SMILES IDX 50 57 51 58 65 60 86 61 53 62 37 63 38 64 46 65 39 66 41 67
REMARK SMILES IDX 47 68 40 69 42 70 43 71 44 72 45 73 69 74 70 75 78 76 71 77
REMARK SMILES IDX 73 78 79 79 72 80 74 81 75 82 76 83 77 84 54 85 55 86 63 87
REMARK SMILES IDX 56 88 58 89 64 90 57 91 59 92 60 93 61 94 62 95
REMARK H PARENT 20 6 5 12 25 29 84 48 52 59
REMARK Flexibility Score: inf
ROOT
ATOM      1  C   UNL A   1      31.189  27.821  26.701  1.00  0.00     0.023 C 
ENDROOT
BRANCH   1   2
ATOM      2  C   UNL A   1      32.091  26.587  26.669  1.00  0.00     0.116 C 
BRANCH   2   3
ATOM      3  N   UNL A   1      31.447  25.286  26.769  1.00  0.00    -0.354 N 
ATOM      4  C   UNL A   1      31.829  24.018  26.451  1.00  0.00     0.241 C 
ATOM      5  O   UNL A   1      31.351  23.151  27.200  1.00  0.00    -0.273 OA
ATOM      6  H   UNL A   1      30.538  25.332  27.147  1.00  0.00     0.163 HD
BRANCH   4   7
ATOM      7  C   UNL A   1      32.688  23.599  25.227  1.00  0.00     0.108 C 
ATOM      8  C   UNL A   1      32.377  22.083  24.986  1.00  0.00     0.040 C 
BRANCH   7   9
ATOM      9  C   UNL A   1      34.189  23.769  25.562  1.00  0.00     0.030 C 
ATOM     10  C   UNL A   1      35.207  22.858  24.881  1.00  0.00     0.006 C 
ENDBRANCH   7   9
BRANCH   7  11
ATOM     11  N   UNL A   1      32.295  24.160  23.906  1.00  0.00    -0.196 NA
ATOM     12  H   UNL A   1      31.276  24.155  23.944  1.00  0.00     0.142 HD
BRANCH  11  13
ATOM     13  S   UNL A   1      32.643  25.580  23.135  1.00  0.00     0.241 S 
ATOM     14  O   UNL A   1      33.807  26.152  23.773  1.00  0.00    -0.207 OA
ATOM     15  O   UNL A   1      32.713  25.182  21.747  1.00  0.00    -0.207 OA
BRANCH  13  16
ATOM     16  C   UNL A   1      31.304  26.747  23.224  1.00  0.00     0.085 A 
ATOM     17  C   UNL A   1      31.432  28.096  22.926  1.00  0.00     0.026 A 
ATOM     18  C   UNL A   1      30.038  26.261  23.576  1.00  0.00     0.065 A 
ATOM     19  C   UNL A   1      30.299  28.906  22.789  1.00  0.00     0.051 A 
ATOM     20  C   UNL A   1      28.916  27.098  23.514  1.00  0.00     0.166 A 
ATOM     21  C   UNL A   1      29.024  28.414  23.068  1.00  0.00     0.154 A 
ATOM     22  F   UNL A   1      27.735  26.578  23.877  1.00  0.00    -0.203 F 
BRANCH  21  23
ATOM     23  O   UNL A   1      28.028  29.322  22.854  1.00  0.00    -0.494 OA
ATOM     24  C   UNL A   1      28.063  30.088  21.652  1.00  0.00     0.278 C 
ENDBRANCH  21  23
ENDBRANCH  13  16
ENDBRANCH  11  13
ENDBRANCH   7  11
ENDBRANCH   4   7
ENDBRANCH   2   3
ENDBRANCH   1   2
BRANCH   1  25
ATOM     25  C   UNL A   1      31.807  29.134  27.176  1.00  0.00     0.023 C 
BRANCH  25  26
ATOM     26  C   UNL A   1      32.511  29.929  26.087  1.00  0.00     0.116 C 
BRANCH  26  27
ATOM     27  N   UNL A   1      32.453  31.358  26.356  1.00  0.00    -0.352 N 
ATOM     28  C   UNL A   1      33.171  32.111  27.249  1.00  0.00     0.251 C 
ATOM     29  H   UNL A   1      31.800  31.860  25.815  1.00  0.00     0.163 HD
ATOM     30  O   UNL A   1      32.786  33.244  27.527  1.00  0.00    -0.269 OA
BRANCH  28  31
ATOM     31  C   UNL A   1      34.408  31.577  27.861  1.00  0.00     0.039 A 
ATOM     32  C   UNL A   1      34.423  30.257  28.325  1.00  0.00     0.014 A 
ATOM     33  C   UNL A   1      35.527  32.393  28.044  1.00  0.00     0.014 A 
ATOM     34  C   UNL A   1      35.563  29.757  28.960  1.00  0.00     0.010 A 
ATOM     35  C   UNL A   1      36.690  31.869  28.599  1.00  0.00     0.010 A 
ATOM     36  C   UNL A   1      36.707  30.560  29.097  1.00  0.00    -0.014 A 
BRANCH  36  37
ATOM     37  C   UNL A   1      37.914  30.075  29.811  1.00  0.00     0.031 A 
ATOM     38  C   UNL A   1      38.200  30.562  31.207  1.00  0.00     0.074 A 
ATOM     39  C   UNL A   1      38.783  29.259  29.183  1.00  0.00     0.049 A 
ATOM     40  N   UNL A   1      39.229  30.311  31.973  1.00  0.00    -0.248 NA
ATOM     41  C   UNL A   1      37.217  31.479  31.813  1.00  0.00     0.031 C 
ATOM     42  C   UNL A   1      38.646  28.781  27.806  1.00  0.00     0.029 A 
ATOM     43  N   UNL A   1      39.962  28.707  29.612  1.00  0.00    -0.354 N 
ATOM     44  C   UNL A   1      39.039  31.066  33.125  1.00  0.00     0.074 A 
ATOM     45  C   UNL A   1      37.817  31.815  32.946  1.00  0.00     0.031 C 
ATOM     46  C   UNL A   1      39.694  27.996  27.508  1.00  0.00     0.029 A 
ATOM     47  C   UNL A   1      40.590  27.939  28.660  1.00  0.00     0.049 A 
ATOM     48  H   UNL A   1      40.326  28.849  30.516  1.00  0.00     0.167 HD
ATOM     49  C   UNL A   1      39.795  31.103  34.247  1.00  0.00     0.034 A 
ATOM     50  C   UNL A   1      41.756  27.264  28.712  1.00  0.00     0.034 A 
ATOM     51  C   UNL A   1      40.969  30.300  34.443  1.00  0.00     0.049 A 
ATOM     52  C   UNL A   1      42.548  27.274  29.991  1.00  0.00     0.074 A 
ATOM     53  C   UNL A   1      41.752  30.191  35.578  1.00  0.00     0.029 A 
ATOM     54  N   UNL A   1      41.527  29.467  33.487  1.00  0.00    -0.354 N 
ATOM     55  N   UNL A   1      42.276  27.882  31.122  1.00  0.00    -0.248 NA
ATOM     56  C   UNL A   1      43.786  26.482  30.020  1.00  0.00     0.031 C 
ATOM     57  C   UNL A   1      42.795  29.305  35.301  1.00  0.00     0.029 A 
ATOM     58  C   UNL A   1      42.648  28.842  34.002  1.00  0.00     0.049 A 
ATOM     59  H   UNL A   1      41.176  29.338  32.576  1.00  0.00     0.167 HD
ATOM     60  C   UNL A   1      43.289  27.521  32.003  1.00  0.00     0.074 A 
ATOM     61  C   UNL A   1      44.170  26.626  31.281  1.00  0.00     0.031 C 
ATOM     62  C   UNL A   1      43.481  27.909  33.287  1.00  0.00     0.034 A 
BRANCH  49  63
ATOM     63  C   UNL A   1      39.341  31.983  35.382  1.00  0.00     0.023 A 
ATOM     64  C   UNL A   1      38.486  31.454  36.370  1.00  0.00     0.012 A 
ATOM     65  C   UNL A   1      39.835  33.294  35.526  1.00  0.00     0.148 A 
ATOM     66  C   UNL A   1      38.111  32.222  37.471  1.00  0.00     0.002 A 
ATOM     67  C   UNL A   1      39.495  34.037  36.650  1.00  0.00     0.091 A 
ATOM     68  F   UNL A   1      40.633  33.787  34.566  1.00  0.00    -0.205 F 
ATOM     69  C   UNL A   1      38.625  33.506  37.618  1.00  0.00     0.022 A 
BRANCH  67  70
ATOM     70  S   UNL A   1      40.169  35.670  36.980  1.00  0.00     0.127 S 
ATOM     71  O   UNL A   1      39.654  36.437  35.846  1.00  0.00    -0.237 OA
ATOM     72  O   UNL A   1      39.558  35.999  38.267  1.00  0.00    -0.237 OA
ATOM     73  O   UNL A   1      41.617  35.510  37.014  1.00  0.00    -0.744 OA
ENDBRANCH  67  70
ENDBRANCH  49  63
BRANCH  50  74
ATOM     74  C   UNL A   1      42.189  26.455  27.537  1.00  0.00     0.023 A 
ATOM     75  C   UNL A   1      43.009  27.048  26.558  1.00  0.00     0.012 A 
ATOM     76  C   UNL A   1      41.859  25.091  27.421  1.00  0.00     0.148 A 
ATOM     77  C   UNL A   1      43.476  26.303  25.474  1.00  0.00     0.002 A 
ATOM     78  C   UNL A   1      42.374  24.340  26.372  1.00  0.00     0.091 A 
ATOM     79  F   UNL A   1      41.065  24.548  28.356  1.00  0.00    -0.205 F 
ATOM     80  C   UNL A   1      43.171  24.947  25.388  1.00  0.00     0.022 A 
BRANCH  78  81
ATOM     81  S   UNL A   1      42.160  22.558  26.271  1.00  0.00     0.127 S 
ATOM     82  O   UNL A   1      42.831  22.247  25.012  1.00  0.00    -0.237 OA
ATOM     83  O   UNL A   1      42.856  22.100  27.473  1.00  0.00    -0.237 OA
ATOM     84  O   UNL A   1      40.720  22.337  26.295  1.00  0.00    -0.744 OA
ENDBRANCH  78  81
ENDBRANCH  50  74
BRANCH  62  85
ATOM     85  C   UNL A   1      44.672  27.359  34.025  1.00  0.00     0.023 A 
ATOM     86  C   UNL A   1      45.881  28.080  34.028  1.00  0.00     0.012 A 
ATOM     87  C   UNL A   1      44.550  26.203  34.822  1.00  0.00     0.148 A 
ATOM     88  C   UNL A   1      46.959  27.650  34.799  1.00  0.00     0.002 A 
ATOM     89  C   UNL A   1      45.610  25.809  35.628  1.00  0.00     0.091 A 
ATOM     90  F   UNL A   1      43.394  25.526  34.793  1.00  0.00    -0.205 F 
ATOM     91  C   UNL A   1      46.819  26.525  35.611  1.00  0.00     0.022 A 
BRANCH  89  92
ATOM     92  S   UNL A   1      45.486  24.441  36.785  1.00  0.00     0.127 S 
ATOM     93  O   UNL A   1      46.863  24.329  37.262  1.00  0.00    -0.237 OA
ATOM     94  O   UNL A   1      44.538  24.958  37.774  1.00  0.00    -0.237 OA
ATOM     95  O   UNL A   1      44.997  23.305  36.016  1.00  0.00    -0.744 OA
ENDBRANCH  89  92
ENDBRANCH  62  85
ENDBRANCH  36  37
ENDBRANCH  28  31
ENDBRANCH  26  27
ENDBRANCH  25  26
ENDBRANCH   1  25
TORSDOF 19
ENDMDL
