MODEL 1
REMARK VINA RESULT:     -10.6      0.000      0.000
REMARK SMILES CCOC(=O)CN(C)C(=O)N1CC[C@H](C(=O)NCCCCNC(=O)c2ccc(-c3c4nc(c(-c5cccc(S(=O)(=O)[O-])c5F)c5ccc([nH]5)c(-c5cccc(S(=O)(=O)[O-])c5F)c5nc(c(-c6cccc(S(=O)(=O)[O-])c6F)c6ccc3[nH]6)C=C5)C=C4)cc2)[C@H]1C
REMARK SMILES IDX 18 1 17 2 15 3 16 4 14 6 11 7 12 8 88 9 13 10 89 11 9 12
REMARK SMILES IDX 10 13 7 14 8 15 6 16 4 17 5 18 3 19 2 20 1 21 19 22 20 23
REMARK SMILES IDX 21 24 22 25 23 26 24 28 25 29 26 30 87 31 27 32 86 33 28 34
REMARK SMILES IDX 29 35 30 36 80 37 31 38 85 39 79 40 81 41 32 42 84 43 78 44
REMARK SMILES IDX 77 45 33 47 65 48 45 49 64 50 46 51 49 52 63 53 82 54 47 55
REMARK SMILES IDX 48 56 62 58 83 59 50 60 34 61 35 62 43 63 36 64 38 65 44 66
REMARK SMILES IDX 37 67 39 68 40 69 41 70 42 71 66 72 67 73 75 74 68 75 70 76
REMARK SMILES IDX 76 77 69 78 71 79 72 80 73 81 74 82 51 83 52 84 60 85 53 86
REMARK SMILES IDX 55 87 61 88 54 89 56 90 57 91 58 92 59 93
REMARK H PARENT 17 5 22 27 81 46 49 57
REMARK Flexibility Score: inf
ROOT
ATOM      1  C   UNL A   1      33.479  27.798  23.865  1.00  0.00     0.116 C 
ENDROOT
BRANCH   1   2
ATOM      2  N   UNL A   1      33.337  26.730  22.899  1.00  0.00    -0.356 N 
ATOM      3  C   UNL A   1      32.402  25.783  22.680  1.00  0.00     0.225 C 
ATOM      4  O   UNL A   1      32.573  25.092  21.665  1.00  0.00    -0.275 OA
ATOM      5  H   UNL A   1      34.087  26.684  22.264  1.00  0.00     0.163 HD
BRANCH   3   6
ATOM      6  C   UNL A   1      31.225  25.421  23.585  1.00  0.00     0.102 C 
ATOM      7  N   UNL A   1      31.638  24.031  25.468  1.00  0.00    -0.321 N 
ATOM      8  C   UNL A   1      31.336  23.152  24.341  1.00  0.00     0.122 C 
ATOM      9  C   UNL A   1      31.313  25.431  25.120  1.00  0.00     0.096 C 
ATOM     10  C   UNL A   1      30.707  24.018  23.270  1.00  0.00     0.037 C 
ATOM     11  C   UNL A   1      29.944  25.857  25.681  1.00  0.00     0.032 C 
BRANCH   7  12
ATOM     12  C   UNL A   1      32.501  23.519  26.413  1.00  0.00     0.320 C 
ATOM     13  O   UNL A   1      32.064  23.166  27.513  1.00  0.00    -0.248 OA
BRANCH  12  14
ATOM     14  N   UNL A   1      33.827  23.315  26.116  1.00  0.00    -0.317 N 
ATOM     15  C   UNL A   1      34.785  24.357  25.829  1.00  0.00     0.149 C 
BRANCH  14  16
ATOM     16  C   UNL A   1      34.372  21.979  26.406  1.00  0.00     0.243 C 
BRANCH  16  17
ATOM     17  C   UNL A   1      34.776  21.100  25.219  1.00  0.00     0.325 C 
ATOM     18  O   UNL A   1      35.406  21.530  24.259  1.00  0.00    -0.250 OA
BRANCH  17  19
ATOM     19  O   UNL A   1      34.339  19.815  25.336  1.00  0.00    -0.465 OA
BRANCH  19  20
ATOM     20  C   UNL A   1      33.368  19.409  24.361  1.00  0.00     0.229 C 
ATOM     21  C   UNL A   1      32.515  18.284  24.922  1.00  0.00     0.049 C 
ENDBRANCH  19  20
ENDBRANCH  17  19
ENDBRANCH  16  17
ENDBRANCH  14  16
ENDBRANCH  12  14
ENDBRANCH   7  12
ENDBRANCH   3   6
ENDBRANCH   1   2
BRANCH   1  22
ATOM     22  C   UNL A   1      32.434  28.893  23.689  1.00  0.00     0.023 C 
BRANCH  22  23
ATOM     23  C   UNL A   1      31.766  29.373  24.976  1.00  0.00     0.023 C 
BRANCH  23  24
ATOM     24  C   UNL A   1      32.707  29.892  26.061  1.00  0.00     0.116 C 
BRANCH  24  25
ATOM     25  N   UNL A   1      32.345  31.193  26.610  1.00  0.00    -0.352 N 
ATOM     26  C   UNL A   1      33.130  32.045  27.360  1.00  0.00     0.251 C 
ATOM     27  H   UNL A   1      31.429  31.502  26.423  1.00  0.00     0.163 HD
ATOM     28  O   UNL A   1      32.706  33.116  27.756  1.00  0.00    -0.269 OA
BRANCH  26  29
ATOM     29  C   UNL A   1      34.492  31.590  27.702  1.00  0.00     0.039 A 
ATOM     30  C   UNL A   1      35.522  32.530  27.764  1.00  0.00     0.014 A 
ATOM     31  C   UNL A   1      34.694  30.271  28.113  1.00  0.00     0.014 A 
ATOM     32  C   UNL A   1      36.741  32.170  28.343  1.00  0.00     0.010 A 
ATOM     33  C   UNL A   1      35.883  29.935  28.746  1.00  0.00     0.010 A 
ATOM     34  C   UNL A   1      36.906  30.887  28.890  1.00  0.00    -0.014 A 
BRANCH  34  35
ATOM     35  C   UNL A   1      38.106  30.519  29.679  1.00  0.00     0.031 A 
ATOM     36  C   UNL A   1      39.073  29.506  29.140  1.00  0.00     0.074 A 
ATOM     37  C   UNL A   1      38.236  30.980  30.940  1.00  0.00     0.049 A 
ATOM     38  N   UNL A   1      40.084  28.933  29.737  1.00  0.00    -0.248 NA
ATOM     39  C   UNL A   1      38.850  29.048  27.758  1.00  0.00     0.031 C 
ATOM     40  C   UNL A   1      37.310  31.899  31.607  1.00  0.00     0.029 A 
ATOM     41  N   UNL A   1      39.176  30.704  31.902  1.00  0.00    -0.354 N 
ATOM     42  C   UNL A   1      40.585  28.011  28.828  1.00  0.00     0.074 A 
ATOM     43  C   UNL A   1      39.756  28.086  27.644  1.00  0.00     0.031 C 
ATOM     44  C   UNL A   1      37.724  32.103  32.868  1.00  0.00     0.029 A 
ATOM     45  C   UNL A   1      38.924  31.310  33.111  1.00  0.00     0.049 A 
ATOM     46  H   UNL A   1      39.957  30.126  31.742  1.00  0.00     0.167 HD
ATOM     47  C   UNL A   1      41.658  27.196  28.955  1.00  0.00     0.034 A 
ATOM     48  C   UNL A   1      39.580  31.229  34.285  1.00  0.00     0.034 A 
ATOM     49  C   UNL A   1      42.524  27.180  30.101  1.00  0.00     0.049 A 
ATOM     50  C   UNL A   1      40.810  30.368  34.375  1.00  0.00     0.074 A 
ATOM     51  C   UNL A   1      43.707  26.484  30.276  1.00  0.00     0.029 A 
ATOM     52  N   UNL A   1      42.304  27.898  31.266  1.00  0.00    -0.354 N 
ATOM     53  N   UNL A   1      41.369  29.631  33.446  1.00  0.00    -0.248 NA
ATOM     54  C   UNL A   1      41.517  30.346  35.666  1.00  0.00     0.031 C 
ATOM     55  C   UNL A   1      44.201  26.780  31.551  1.00  0.00     0.029 A 
ATOM     56  C   UNL A   1      43.325  27.659  32.168  1.00  0.00     0.049 A 
ATOM     57  H   UNL A   1      41.533  28.490  31.428  1.00  0.00     0.167 HD
ATOM     58  C   UNL A   1      42.505  29.080  34.028  1.00  0.00     0.074 A 
ATOM     59  C   UNL A   1      42.566  29.584  35.385  1.00  0.00     0.031 C 
ATOM     60  C   UNL A   1      43.402  28.215  33.495  1.00  0.00     0.034 A 
BRANCH  47  61
ATOM     61  C   UNL A   1      41.999  26.310  27.789  1.00  0.00     0.023 A 
ATOM     62  C   UNL A   1      42.781  26.830  26.736  1.00  0.00     0.012 A 
ATOM     63  C   UNL A   1      41.591  24.964  27.749  1.00  0.00     0.148 A 
ATOM     64  C   UNL A   1      43.127  26.032  25.648  1.00  0.00     0.002 A 
ATOM     65  C   UNL A   1      41.968  24.164  26.676  1.00  0.00     0.091 A 
ATOM     66  F   UNL A   1      40.822  24.496  28.744  1.00  0.00    -0.205 F 
ATOM     67  C   UNL A   1      42.729  24.699  25.623  1.00  0.00     0.022 A 
BRANCH  65  68
ATOM     68  S   UNL A   1      41.557  22.417  26.587  1.00  0.00     0.127 S 
ATOM     69  O   UNL A   1      42.248  22.013  25.365  1.00  0.00    -0.237 OA
ATOM     70  O   UNL A   1      42.144  21.894  27.821  1.00  0.00    -0.237 OA
ATOM     71  O   UNL A   1      40.102  22.356  26.540  1.00  0.00    -0.744 OA
ENDBRANCH  65  68
ENDBRANCH  47  61
BRANCH  48  72
ATOM     72  C   UNL A   1      39.128  32.046  35.447  1.00  0.00     0.023 A 
ATOM     73  C   UNL A   1      38.197  31.493  36.347  1.00  0.00     0.012 A 
ATOM     74  C   UNL A   1      39.638  33.335  35.691  1.00  0.00     0.148 A 
ATOM     75  C   UNL A   1      37.765  32.217  37.459  1.00  0.00     0.002 A 
ATOM     76  C   UNL A   1      39.240  34.033  36.828  1.00  0.00     0.091 A 
ATOM     77  F   UNL A   1      40.509  33.854  34.814  1.00  0.00    -0.205 F 
ATOM     78  C   UNL A   1      38.295  33.481  37.706  1.00  0.00     0.022 A 
BRANCH  76  79
ATOM     79  S   UNL A   1      39.974  35.609  37.281  1.00  0.00     0.127 S 
ATOM     80  O   UNL A   1      39.608  36.449  36.144  1.00  0.00    -0.237 OA
ATOM     81  O   UNL A   1      39.282  35.926  38.530  1.00  0.00    -0.237 OA
ATOM     82  O   UNL A   1      41.396  35.334  37.444  1.00  0.00    -0.744 OA
ENDBRANCH  76  79
ENDBRANCH  48  72
BRANCH  60  83
ATOM     83  C   UNL A   1      44.539  27.762  34.366  1.00  0.00     0.023 A 
ATOM     84  C   UNL A   1      45.726  28.520  34.397  1.00  0.00     0.012 A 
ATOM     85  C   UNL A   1      44.400  26.653  35.224  1.00  0.00     0.148 A 
ATOM     86  C   UNL A   1      46.765  28.172  35.259  1.00  0.00     0.002 A 
ATOM     87  C   UNL A   1      45.424  26.336  36.107  1.00  0.00     0.091 A 
ATOM     88  F   UNL A   1      43.270  25.934  35.161  1.00  0.00    -0.205 F 
ATOM     89  C   UNL A   1      46.609  27.089  36.122  1.00  0.00     0.022 A 
BRANCH  87  90
ATOM     90  S   UNL A   1      45.273  25.013  37.314  1.00  0.00     0.127 S 
ATOM     91  O   UNL A   1      44.058  25.398  38.030  1.00  0.00    -0.237 OA
ATOM     92  O   UNL A   1      45.131  23.830  36.465  1.00  0.00    -0.237 OA
ATOM     93  O   UNL A   1      46.501  25.046  38.098  1.00  0.00    -0.744 OA
ENDBRANCH  87  90
ENDBRANCH  60  83
ENDBRANCH  34  35
ENDBRANCH  26  29
ENDBRANCH  24  25
ENDBRANCH  23  24
ENDBRANCH  22  23
ENDBRANCH   1  22
TORSDOF 20
ENDMDL
MODEL 2
REMARK VINA RESULT:     -10.6      5.201     10.377
REMARK SMILES CCOC(=O)CN(C)C(=O)N1CC[C@H](C(=O)NCCCCNC(=O)c2ccc(-c3c4nc(c(-c5cccc(S(=O)(=O)[O-])c5F)c5ccc([nH]5)c(-c5cccc(S(=O)(=O)[O-])c5F)c5nc(c(-c6cccc(S(=O)(=O)[O-])c6F)c6ccc3[nH]6)C=C5)C=C4)cc2)[C@H]1C
REMARK SMILES IDX 18 1 17 2 15 3 16 4 14 6 11 7 12 8 88 9 13 10 89 11 9 12
REMARK SMILES IDX 10 13 7 14 8 15 6 16 4 17 5 18 3 19 2 20 1 21 19 22 20 23
REMARK SMILES IDX 21 24 22 25 23 26 24 28 25 29 26 30 87 31 27 32 86 33 28 34
REMARK SMILES IDX 29 35 30 36 80 37 31 38 85 39 79 40 81 41 32 42 84 43 78 44
REMARK SMILES IDX 77 45 33 47 65 48 45 49 64 50 46 51 49 52 63 53 82 54 47 55
REMARK SMILES IDX 48 56 62 58 83 59 50 60 34 61 35 62 43 63 36 64 38 65 44 66
REMARK SMILES IDX 37 67 39 68 40 69 41 70 42 71 66 72 67 73 75 74 68 75 70 76
REMARK SMILES IDX 76 77 69 78 71 79 72 80 73 81 74 82 51 83 52 84 60 85 53 86
REMARK SMILES IDX 55 87 61 88 54 89 56 90 57 91 58 92 59 93
REMARK H PARENT 17 5 22 27 81 46 49 57
REMARK Flexibility Score: inf
ROOT
ATOM      1  C   UNL A   1      34.748  23.317  24.783  1.00  0.00     0.116 C 
ENDROOT
BRANCH   1   2
ATOM      2  N   UNL A   1      34.034  23.276  26.041  1.00  0.00    -0.356 N 
ATOM      3  C   UNL A   1      32.728  23.275  26.376  1.00  0.00     0.225 C 
ATOM      4  O   UNL A   1      32.489  23.119  27.583  1.00  0.00    -0.275 OA
ATOM      5  H   UNL A   1      34.632  23.242  26.822  1.00  0.00     0.163 HD
BRANCH   3   6
ATOM      6  C   UNL A   1      31.537  23.533  25.454  1.00  0.00     0.102 C 
ATOM      7  N   UNL A   1      31.292  25.699  24.509  1.00  0.00    -0.321 N 
ATOM      8  C   UNL A   1      30.591  25.706  25.791  1.00  0.00     0.122 C 
ATOM      9  C   UNL A   1      31.651  24.314  24.135  1.00  0.00     0.096 C 
ATOM     10  C   UNL A   1      30.417  24.258  26.199  1.00  0.00     0.037 C 
ATOM     11  C   UNL A   1      30.652  23.716  23.128  1.00  0.00     0.032 C 
BRANCH   7  12
ATOM     12  C   UNL A   1      31.835  26.903  24.116  1.00  0.00     0.320 C 
ATOM     13  O   UNL A   1      32.547  26.954  23.108  1.00  0.00    -0.248 OA
BRANCH  12  14
ATOM     14  N   UNL A   1      31.524  28.064  24.783  1.00  0.00    -0.317 N 
ATOM     15  C   UNL A   1      32.210  28.561  25.952  1.00  0.00     0.149 C 
BRANCH  14  16
ATOM     16  C   UNL A   1      30.638  29.011  24.085  1.00  0.00     0.243 C 
BRANCH  16  17
ATOM     17  C   UNL A   1      29.569  28.432  23.154  1.00  0.00     0.325 C 
ATOM     18  O   UNL A   1      28.785  27.557  23.506  1.00  0.00    -0.250 OA
BRANCH  17  19
ATOM     19  O   UNL A   1      29.604  28.971  21.904  1.00  0.00    -0.465 OA
BRANCH  19  20
ATOM     20  C   UNL A   1      29.461  30.397  21.850  1.00  0.00     0.229 C 
ATOM     21  C   UNL A   1      28.237  30.761  21.026  1.00  0.00     0.049 C 
ENDBRANCH  19  20
ENDBRANCH  17  19
ENDBRANCH  16  17
ENDBRANCH  14  16
ENDBRANCH  12  14
ENDBRANCH   7  12
ENDBRANCH   3   6
ENDBRANCH   1   2
BRANCH   1  22
ATOM     22  C   UNL A   1      34.970  21.932  24.186  1.00  0.00     0.023 C 
BRANCH  22  23
ATOM     23  C   UNL A   1      35.859  21.002  25.009  1.00  0.00     0.023 C 
BRANCH  23  24
ATOM     24  C   UNL A   1      37.242  21.544  25.366  1.00  0.00     0.116 C 
BRANCH  24  25
ATOM     25  N   UNL A   1      38.304  20.544  25.375  1.00  0.00    -0.352 N 
ATOM     26  C   UNL A   1      39.544  20.631  25.973  1.00  0.00     0.251 C 
ATOM     27  H   UNL A   1      38.113  19.705  24.896  1.00  0.00     0.163 HD
ATOM     28  O   UNL A   1      40.345  19.716  25.911  1.00  0.00    -0.269 OA
BRANCH  26  29
ATOM     29  C   UNL A   1      39.883  21.896  26.655  1.00  0.00     0.039 A 
ATOM     30  C   UNL A   1      40.817  21.874  27.692  1.00  0.00     0.014 A 
ATOM     31  C   UNL A   1      39.393  23.103  26.151  1.00  0.00     0.014 A 
ATOM     32  C   UNL A   1      41.346  23.079  28.160  1.00  0.00     0.010 A 
ATOM     33  C   UNL A   1      39.968  24.293  26.572  1.00  0.00     0.010 A 
ATOM     34  C   UNL A   1      40.966  24.291  27.560  1.00  0.00    -0.014 A 
BRANCH  34  35
ATOM     35  C   UNL A   1      41.635  25.573  27.890  1.00  0.00     0.031 A 
ATOM     36  C   UNL A   1      40.871  26.655  28.595  1.00  0.00     0.074 A 
ATOM     37  C   UNL A   1      42.876  25.814  27.416  1.00  0.00     0.049 A 
ATOM     38  N   UNL A   1      41.220  27.894  28.826  1.00  0.00    -0.248 NA
ATOM     39  C   UNL A   1      39.520  26.310  29.070  1.00  0.00     0.031 C 
ATOM     40  C   UNL A   1      43.683  24.871  26.638  1.00  0.00     0.029 A 
ATOM     41  N   UNL A   1      43.656  26.942  27.481  1.00  0.00    -0.354 N 
ATOM     42  C   UNL A   1      40.116  28.490  29.422  1.00  0.00     0.074 A 
ATOM     43  C   UNL A   1      39.079  27.484  29.502  1.00  0.00     0.031 C 
ATOM     44  C   UNL A   1      44.839  25.462  26.293  1.00  0.00     0.029 A 
ATOM     45  C   UNL A   1      44.844  26.831  26.797  1.00  0.00     0.049 A 
ATOM     46  H   UNL A   1      43.389  27.753  27.971  1.00  0.00     0.167 HD
ATOM     47  C   UNL A   1      39.988  29.753  29.890  1.00  0.00     0.034 A 
ATOM     48  C   UNL A   1      45.823  27.734  26.591  1.00  0.00     0.034 A 
ATOM     49  C   UNL A   1      41.047  30.725  29.879  1.00  0.00     0.049 A 
ATOM     50  C   UNL A   1      45.682  29.110  27.183  1.00  0.00     0.074 A 
ATOM     51  C   UNL A   1      41.059  31.989  30.440  1.00  0.00     0.029 A 
ATOM     52  N   UNL A   1      42.282  30.539  29.280  1.00  0.00    -0.354 N 
ATOM     53  N   UNL A   1      44.698  29.603  27.895  1.00  0.00    -0.248 NA
ATOM     54  C   UNL A   1      46.797  30.046  26.967  1.00  0.00     0.031 C 
ATOM     55  C   UNL A   1      42.305  32.569  30.178  1.00  0.00     0.029 A 
ATOM     56  C   UNL A   1      43.065  31.666  29.453  1.00  0.00     0.049 A 
ATOM     57  H   UNL A   1      42.562  29.725  28.801  1.00  0.00     0.167 HD
ATOM     58  C   UNL A   1      45.084  30.895  28.235  1.00  0.00     0.074 A 
ATOM     59  C   UNL A   1      46.401  31.101  27.668  1.00  0.00     0.031 C 
ATOM     60  C   UNL A   1      44.398  31.833  28.932  1.00  0.00     0.034 A 
BRANCH  47  61
ATOM     61  C   UNL A   1      38.679  30.129  30.525  1.00  0.00     0.023 A 
ATOM     62  C   UNL A   1      38.401  29.693  31.837  1.00  0.00     0.012 A 
ATOM     63  C   UNL A   1      37.746  30.943  29.853  1.00  0.00     0.148 A 
ATOM     64  C   UNL A   1      37.202  30.036  32.460  1.00  0.00     0.002 A 
ATOM     65  C   UNL A   1      36.568  31.309  30.494  1.00  0.00     0.091 A 
ATOM     66  F   UNL A   1      38.015  31.323  28.595  1.00  0.00    -0.205 F 
ATOM     67  C   UNL A   1      36.292  30.850  31.793  1.00  0.00     0.022 A 
BRANCH  65  68
ATOM     68  S   UNL A   1      35.365  32.408  29.738  1.00  0.00     0.127 S 
ATOM     69  O   UNL A   1      36.207  33.528  29.324  1.00  0.00    -0.237 OA
ATOM     70  O   UNL A   1      34.846  31.596  28.638  1.00  0.00    -0.237 OA
ATOM     71  O   UNL A   1      34.390  32.703  30.780  1.00  0.00    -0.744 OA
ENDBRANCH  65  68
ENDBRANCH  47  61
BRANCH  48  72
ATOM     72  C   UNL A   1      47.055  27.338  25.852  1.00  0.00     0.023 A 
ATOM     73  C   UNL A   1      48.035  26.579  26.520  1.00  0.00     0.012 A 
ATOM     74  C   UNL A   1      47.244  27.664  24.496  1.00  0.00     0.148 A 
ATOM     75  C   UNL A   1      49.193  26.169  25.858  1.00  0.00     0.002 A 
ATOM     76  C   UNL A   1      48.378  27.211  23.827  1.00  0.00     0.091 A 
ATOM     77  F   UNL A   1      46.310  28.403  23.881  1.00  0.00    -0.205 F 
ATOM     78  C   UNL A   1      49.359  26.474  24.509  1.00  0.00     0.022 A 
BRANCH  76  79
ATOM     79  S   UNL A   1      48.600  27.453  22.061  1.00  0.00     0.127 S 
ATOM     80  O   UNL A   1      49.867  28.176  22.014  1.00  0.00    -0.237 OA
ATOM     81  O   UNL A   1      48.655  26.079  21.562  1.00  0.00    -0.237 OA
ATOM     82  O   UNL A   1      47.422  28.194  21.627  1.00  0.00    -0.744 OA
ENDBRANCH  76  79
ENDBRANCH  48  72
BRANCH  60  83
ATOM     83  C   UNL A   1      45.056  33.169  29.140  1.00  0.00     0.023 A 
ATOM     84  C   UNL A   1      45.863  33.369  30.277  1.00  0.00     0.012 A 
ATOM     85  C   UNL A   1      44.959  34.184  28.168  1.00  0.00     0.148 A 
ATOM     86  C   UNL A   1      46.553  34.567  30.453  1.00  0.00     0.002 A 
ATOM     87  C   UNL A   1      45.681  35.361  28.331  1.00  0.00     0.091 A 
ATOM     88  F   UNL A   1      44.169  33.979  27.105  1.00  0.00    -0.205 F 
ATOM     89  C   UNL A   1      46.472  35.557  29.475  1.00  0.00     0.022 A 
BRANCH  87  90
ATOM     90  S   UNL A   1      45.705  36.651  27.081  1.00  0.00     0.127 S 
ATOM     91  O   UNL A   1      46.610  37.631  27.681  1.00  0.00    -0.237 OA
ATOM     92  O   UNL A   1      46.251  35.950  25.918  1.00  0.00    -0.237 OA
ATOM     93  O   UNL A   1      44.323  37.084  26.928  1.00  0.00    -0.744 OA
ENDBRANCH  87  90
ENDBRANCH  60  83
ENDBRANCH  34  35
ENDBRANCH  26  29
ENDBRANCH  24  25
ENDBRANCH  23  24
ENDBRANCH  22  23
ENDBRANCH   1  22
TORSDOF 20
ENDMDL
MODEL 3
REMARK VINA RESULT:     -10.5      1.956      2.663
REMARK SMILES CCOC(=O)CN(C)C(=O)N1CC[C@H](C(=O)NCCCCNC(=O)c2ccc(-c3c4nc(c(-c5cccc(S(=O)(=O)[O-])c5F)c5ccc([nH]5)c(-c5cccc(S(=O)(=O)[O-])c5F)c5nc(c(-c6cccc(S(=O)(=O)[O-])c6F)c6ccc3[nH]6)C=C5)C=C4)cc2)[C@H]1C
REMARK SMILES IDX 18 1 17 2 15 3 16 4 14 6 11 7 12 8 88 9 13 10 89 11 9 12
REMARK SMILES IDX 10 13 7 14 8 15 6 16 4 17 5 18 3 19 2 20 1 21 19 22 20 23
REMARK SMILES IDX 21 24 22 25 23 26 24 28 25 29 26 30 87 31 27 32 86 33 28 34
REMARK SMILES IDX 29 35 30 36 80 37 31 38 85 39 79 40 81 41 32 42 84 43 78 44
REMARK SMILES IDX 77 45 33 47 65 48 45 49 64 50 46 51 49 52 63 53 82 54 47 55
REMARK SMILES IDX 48 56 62 58 83 59 50 60 34 61 35 62 43 63 36 64 38 65 44 66
REMARK SMILES IDX 37 67 39 68 40 69 41 70 42 71 66 72 67 73 75 74 68 75 70 76
REMARK SMILES IDX 76 77 69 78 71 79 72 80 73 81 74 82 51 83 52 84 60 85 53 86
REMARK SMILES IDX 55 87 61 88 54 89 56 90 57 91 58 92 59 93
REMARK H PARENT 17 5 22 27 81 46 49 57
REMARK Flexibility Score: inf
ROOT
ATOM      1  C   UNL A   1      32.923  30.246  26.405  1.00  0.00     0.116 C 
ENDROOT
BRANCH   1   2
ATOM      2  N   UNL A   1      33.396  29.450  25.293  1.00  0.00    -0.356 N 
ATOM      3  C   UNL A   1      33.172  28.183  24.886  1.00  0.00     0.225 C 
ATOM      4  O   UNL A   1      33.682  27.877  23.798  1.00  0.00    -0.275 OA
ATOM      5  H   UNL A   1      34.018  29.938  24.707  1.00  0.00     0.163 HD
BRANCH   3   6
ATOM      6  C   UNL A   1      32.445  27.081  25.655  1.00  0.00     0.102 C 
ATOM      7  N   UNL A   1      31.466  25.303  24.420  1.00  0.00    -0.321 N 
ATOM      8  C   UNL A   1      30.460  26.357  24.530  1.00  0.00     0.122 C 
ATOM      9  C   UNL A   1      32.599  25.587  25.326  1.00  0.00     0.096 C 
ATOM     10  C   UNL A   1      30.933  27.297  25.620  1.00  0.00     0.037 C 
ATOM     11  C   UNL A   1      32.497  24.788  26.638  1.00  0.00     0.032 C 
BRANCH   7  12
ATOM     12  C   UNL A   1      31.399  24.528  23.282  1.00  0.00     0.320 C 
ATOM     13  O   UNL A   1      30.390  23.852  23.060  1.00  0.00    -0.248 OA
BRANCH  12  14
ATOM     14  N   UNL A   1      32.406  24.567  22.347  1.00  0.00    -0.317 N 
ATOM     15  C   UNL A   1      32.925  25.767  21.734  1.00  0.00     0.149 C 
BRANCH  14  16
ATOM     16  C   UNL A   1      33.209  23.344  22.188  1.00  0.00     0.243 C 
BRANCH  16  17
ATOM     17  C   UNL A   1      33.593  22.574  23.454  1.00  0.00     0.325 C 
ATOM     18  O   UNL A   1      33.077  21.504  23.763  1.00  0.00    -0.250 OA
BRANCH  17  19
ATOM     19  O   UNL A   1      34.535  23.213  24.200  1.00  0.00    -0.465 OA
BRANCH  19  20
ATOM     20  C   UNL A   1      35.788  22.525  24.321  1.00  0.00     0.229 C 
ATOM     21  C   UNL A   1      36.681  22.872  23.141  1.00  0.00     0.049 C 
ENDBRANCH  19  20
ENDBRANCH  17  19
ENDBRANCH  16  17
ENDBRANCH  14  16
ENDBRANCH  12  14
ENDBRANCH   7  12
ENDBRANCH   3   6
ENDBRANCH   1   2
BRANCH   1  22
ATOM     22  C   UNL A   1      31.522  30.801  26.177  1.00  0.00     0.023 C 
BRANCH  22  23
ATOM     23  C   UNL A   1      31.325  32.262  26.576  1.00  0.00     0.023 C 
BRANCH  23  24
ATOM     24  C   UNL A   1      32.599  33.047  26.883  1.00  0.00     0.116 C 
BRANCH  24  25
ATOM     25  N   UNL A   1      32.427  34.140  27.831  1.00  0.00    -0.352 N 
ATOM     26  C   UNL A   1      33.268  34.509  28.862  1.00  0.00     0.251 C 
ATOM     27  H   UNL A   1      31.612  34.682  27.724  1.00  0.00     0.163 HD
ATOM     28  O   UNL A   1      33.010  35.454  29.585  1.00  0.00    -0.269 OA
BRANCH  26  29
ATOM     29  C   UNL A   1      34.473  33.686  29.082  1.00  0.00     0.039 A 
ATOM     30  C   UNL A   1      35.715  34.189  28.687  1.00  0.00     0.014 A 
ATOM     31  C   UNL A   1      34.375  32.506  29.821  1.00  0.00     0.014 A 
ATOM     32  C   UNL A   1      36.878  33.554  29.127  1.00  0.00     0.010 A 
ATOM     33  C   UNL A   1      35.533  31.917  30.310  1.00  0.00     0.010 A 
ATOM     34  C   UNL A   1      36.793  32.450  29.990  1.00  0.00    -0.014 A 
BRANCH  34  35
ATOM     35  C   UNL A   1      37.992  31.861  30.633  1.00  0.00     0.031 A 
ATOM     36  C   UNL A   1      38.761  30.779  29.933  1.00  0.00     0.074 A 
ATOM     37  C   UNL A   1      38.290  32.193  31.907  1.00  0.00     0.049 A 
ATOM     38  N   UNL A   1      39.729  30.029  30.389  1.00  0.00    -0.248 NA
ATOM     39  C   UNL A   1      38.361  30.472  28.549  1.00  0.00     0.031 C 
ATOM     40  C   UNL A   1      37.559  33.166  32.723  1.00  0.00     0.029 A 
ATOM     41  N   UNL A   1      39.260  31.714  32.753  1.00  0.00    -0.354 N 
ATOM     42  C   UNL A   1      40.019  29.129  29.371  1.00  0.00     0.074 A 
ATOM     43  C   UNL A   1      39.112  29.413  28.280  1.00  0.00     0.031 C 
ATOM     44  C   UNL A   1      38.102  33.206  33.951  1.00  0.00     0.029 A 
ATOM     45  C   UNL A   1      39.196  32.244  34.021  1.00  0.00     0.049 A 
ATOM     46  H   UNL A   1      39.936  31.054  32.478  1.00  0.00     0.167 HD
ATOM     47  C   UNL A   1      40.975  28.172  29.337  1.00  0.00     0.034 A 
ATOM     48  C   UNL A   1      39.931  31.977  35.119  1.00  0.00     0.034 A 
ATOM     49  C   UNL A   1      41.924  27.946  30.392  1.00  0.00     0.049 A 
ATOM     50  C   UNL A   1      41.033  30.957  35.030  1.00  0.00     0.074 A 
ATOM     51  C   UNL A   1      43.008  27.088  30.404  1.00  0.00     0.029 A 
ATOM     52  N   UNL A   1      41.903  28.585  31.622  1.00  0.00    -0.354 N 
ATOM     53  N   UNL A   1      41.404  30.235  34.001  1.00  0.00    -0.248 NA
ATOM     54  C   UNL A   1      41.835  30.733  36.242  1.00  0.00     0.031 C 
ATOM     55  C   UNL A   1      43.644  27.207  31.644  1.00  0.00     0.029 A 
ATOM     56  C   UNL A   1      42.953  28.137  32.404  1.00  0.00     0.049 A 
ATOM     57  H   UNL A   1      41.239  29.257  31.899  1.00  0.00     0.167 HD
ATOM     58  C   UNL A   1      42.497  29.491  34.431  1.00  0.00     0.074 A 
ATOM     59  C   UNL A   1      42.741  29.866  35.809  1.00  0.00     0.031 C 
ATOM     60  C   UNL A   1      43.218  28.565  33.754  1.00  0.00     0.034 A 
BRANCH  47  61
ATOM     61  C   UNL A   1      41.091  27.351  28.083  1.00  0.00     0.023 A 
ATOM     62  C   UNL A   1      41.727  27.908  26.954  1.00  0.00     0.012 A 
ATOM     63  C   UNL A   1      40.617  26.027  28.029  1.00  0.00     0.148 A 
ATOM     64  C   UNL A   1      41.864  27.169  25.780  1.00  0.00     0.002 A 
ATOM     65  C   UNL A   1      40.788  25.285  26.866  1.00  0.00     0.091 A 
ATOM     66  F   UNL A   1      39.988  25.526  29.102  1.00  0.00    -0.205 F 
ATOM     67  C   UNL A   1      41.403  25.857  25.740  1.00  0.00     0.022 A 
BRANCH  65  68
ATOM     68  S   UNL A   1      40.284  23.564  26.741  1.00  0.00     0.127 S 
ATOM     69  O   UNL A   1      38.892  23.695  26.317  1.00  0.00    -0.237 OA
ATOM     70  O   UNL A   1      41.188  23.046  25.714  1.00  0.00    -0.237 OA
ATOM     71  O   UNL A   1      40.490  22.996  28.066  1.00  0.00    -0.744 OA
ENDBRANCH  65  68
ENDBRANCH  47  61
BRANCH  48  72
ATOM     72  C   UNL A   1      39.695  32.745  36.374  1.00  0.00     0.023 A 
ATOM     73  C   UNL A   1      40.380  33.960  36.568  1.00  0.00     0.012 A 
ATOM     74  C   UNL A   1      38.776  32.311  37.348  1.00  0.00     0.148 A 
ATOM     75  C   UNL A   1      40.170  34.721  37.719  1.00  0.00     0.002 A 
ATOM     76  C   UNL A   1      38.536  33.097  38.471  1.00  0.00     0.091 A 
ATOM     77  F   UNL A   1      38.148  31.143  37.157  1.00  0.00    -0.205 F 
ATOM     78  C   UNL A   1      39.240  34.295  38.665  1.00  0.00     0.022 A 
BRANCH  76  79
ATOM     79  S   UNL A   1      37.261  32.681  39.667  1.00  0.00     0.127 S 
ATOM     80  O   UNL A   1      36.064  32.649  38.831  1.00  0.00    -0.237 OA
ATOM     81  O   UNL A   1      37.707  31.376  40.156  1.00  0.00    -0.237 OA
ATOM     82  O   UNL A   1      37.316  33.739  40.668  1.00  0.00    -0.744 OA
ENDBRANCH  76  79
ENDBRANCH  48  72
BRANCH  60  83
ATOM     83  C   UNL A   1      44.350  27.893  34.479  1.00  0.00     0.023 A 
ATOM     84  C   UNL A   1      45.630  28.481  34.450  1.00  0.00     0.012 A 
ATOM     85  C   UNL A   1      44.130  26.745  35.265  1.00  0.00     0.148 A 
ATOM     86  C   UNL A   1      46.679  27.928  35.182  1.00  0.00     0.002 A 
ATOM     87  C   UNL A   1      45.171  26.222  36.023  1.00  0.00     0.091 A 
ATOM     88  F   UNL A   1      42.909  26.191  35.260  1.00  0.00    -0.205 F 
ATOM     89  C   UNL A   1      46.447  26.807  35.978  1.00  0.00     0.022 A 
BRANCH  87  90
ATOM     90  S   UNL A   1      44.939  24.836  37.142  1.00  0.00     0.127 S 
ATOM     91  O   UNL A   1      44.578  23.762  36.217  1.00  0.00    -0.237 OA
ATOM     92  O   UNL A   1      46.264  24.698  37.748  1.00  0.00    -0.237 OA
ATOM     93  O   UNL A   1      43.893  25.243  38.070  1.00  0.00    -0.744 OA
ENDBRANCH  87  90
ENDBRANCH  60  83
ENDBRANCH  34  35
ENDBRANCH  26  29
ENDBRANCH  24  25
ENDBRANCH  23  24
ENDBRANCH  22  23
ENDBRANCH   1  22
TORSDOF 20
ENDMDL
