MODEL 1
REMARK VINA RESULT:     -12.5      0.000      0.000
REMARK SMILES CN(C)c1nccnc1N1CCC(Oc2ccc3ccccc3c2)(C(=O)NCCCCNC(=O)c2ccc(-c3c4nc(c(-c5cccc(S(=O)(=O)[O-])c5F)c5ccc([nH]5)c(-c5cccc(S(=O)(=O)[O-])c5F)c5nc(c(-c6cccc(S(=O)(=O)[O-])c6F)c6ccc3[nH]6)C=C5)C=C4)cc2)CC1
REMARK SMILES IDX 30 1 29 2 28 3 27 4 25 5 26 6 13 8 10 9 11 10 99 11 12 12
REMARK SMILES IDX 98 13 9 14 4 15 5 16 6 17 8 18 7 19 2 20 1 21 3 22 14 23
REMARK SMILES IDX 15 24 16 25 24 26 17 27 23 28 18 29 22 30 19 31 21 32 20 33
REMARK SMILES IDX 31 34 32 35 33 36 34 38 35 39 36 40 97 41 37 42 96 43 38 44
REMARK SMILES IDX 39 45 40 46 90 47 41 48 95 49 89 50 91 51 42 52 94 53 88 54
REMARK SMILES IDX 87 55 43 57 75 58 55 59 74 60 56 61 59 62 73 63 92 64 57 65
REMARK SMILES IDX 58 66 72 68 93 69 60 70 44 71 45 72 53 73 46 74 48 75 54 76
REMARK SMILES IDX 47 77 49 78 50 79 51 80 52 81 76 82 77 83 85 84 78 85 80 86
REMARK SMILES IDX 86 87 79 88 81 89 82 90 83 91 84 92 61 93 62 94 70 95 63 96
REMARK SMILES IDX 65 97 71 98 64 99 66 100 67 101 68 102 69 103
REMARK H PARENT 27 7 32 37 91 56 59 67
REMARK Flexibility Score: inf
ROOT
ATOM      1  C   UNL A   1      34.114  31.908  27.234  1.00  0.00     0.023 C 
ENDROOT
BRANCH   1   2
ATOM      2  C   UNL A   1      34.688  30.737  28.029  1.00  0.00     0.023 C 
BRANCH   2   3
ATOM      3  C   UNL A   1      34.406  29.364  27.424  1.00  0.00     0.116 C 
BRANCH   3   4
ATOM      4  N   UNL A   1      33.170  28.809  27.935  1.00  0.00    -0.353 N 
ATOM      5  C   UNL A   1      32.249  28.001  27.332  1.00  0.00     0.264 C 
ATOM      6  O   UNL A   1      31.323  27.607  28.048  1.00  0.00    -0.270 OA
ATOM      7  H   UNL A   1      32.960  29.051  28.866  1.00  0.00     0.163 HD
BRANCH   5   8
ATOM      8  C   UNL A   1      32.369  27.606  25.829  1.00  0.00     0.190 C 
ATOM      9  N   UNL A   1      32.305  24.751  25.957  1.00  0.00    -0.353 N 
ATOM     10  C   UNL A   1      31.065  25.469  26.127  1.00  0.00     0.123 C 
ATOM     11  C   UNL A   1      33.573  25.388  26.284  1.00  0.00     0.123 C 
ATOM     12  C   UNL A   1      31.157  26.775  25.368  1.00  0.00     0.080 C 
ATOM     13  C   UNL A   1      33.659  26.775  25.632  1.00  0.00     0.080 C 
BRANCH   9  14
ATOM     14  C   UNL A   1      32.314  23.571  25.237  1.00  0.00     0.171 A 
ATOM     15  C   UNL A   1      32.364  23.559  23.805  1.00  0.00     0.171 A 
ATOM     16  N   UNL A   1      32.229  22.391  23.121  1.00  0.00    -0.234 NA
ATOM     17  C   UNL A   1      32.109  21.269  23.862  1.00  0.00     0.134 A 
ATOM     18  N   UNL A   1      32.220  22.419  25.955  1.00  0.00    -0.234 NA
ATOM     19  C   UNL A   1      32.114  21.282  25.241  1.00  0.00     0.134 A 
BRANCH  15  20
ATOM     20  N   UNL A   1      32.609  24.727  23.064  1.00  0.00    -0.360 N 
ATOM     21  C   UNL A   1      31.549  25.165  22.179  1.00  0.00     0.145 C 
ATOM     22  C   UNL A   1      33.988  24.911  22.622  1.00  0.00     0.145 C 
ENDBRANCH  15  20
ENDBRANCH   9  14
BRANCH   8  23
ATOM     23  O   UNL A   1      32.488  28.917  25.208  1.00  0.00    -0.477 OA
BRANCH  23  24
ATOM     24  C   UNL A   1      31.607  29.267  24.230  1.00  0.00     0.121 A 
ATOM     25  C   UNL A   1      31.549  28.608  23.008  1.00  0.00     0.047 A 
ATOM     26  C   UNL A   1      30.637  30.215  24.551  1.00  0.00     0.055 A 
ATOM     27  C   UNL A   1      30.615  28.989  22.047  1.00  0.00     0.012 A 
ATOM     28  C   UNL A   1      29.656  30.578  23.614  1.00  0.00    -0.015 A 
ATOM     29  C   UNL A   1      29.666  29.978  22.333  1.00  0.00    -0.018 A 
ATOM     30  C   UNL A   1      28.657  31.516  23.919  1.00  0.00     0.009 A 
ATOM     31  C   UNL A   1      28.713  30.362  21.380  1.00  0.00     0.009 A 
ATOM     32  C   UNL A   1      27.700  31.872  22.966  1.00  0.00     0.001 A 
ATOM     33  C   UNL A   1      27.735  31.305  21.695  1.00  0.00     0.001 A 
ENDBRANCH  23  24
ENDBRANCH   8  23
ENDBRANCH   5   8
ENDBRANCH   3   4
ENDBRANCH   2   3
ENDBRANCH   1   2
BRANCH   1  34
ATOM     34  C   UNL A   1      32.703  32.325  27.632  1.00  0.00     0.116 C 
BRANCH  34  35
ATOM     35  N   UNL A   1      32.554  33.767  27.762  1.00  0.00    -0.352 N 
ATOM     36  C   UNL A   1      33.238  34.632  28.579  1.00  0.00     0.251 C 
ATOM     37  H   UNL A   1      31.870  34.177  27.185  1.00  0.00     0.163 HD
ATOM     38  O   UNL A   1      32.883  35.806  28.664  1.00  0.00    -0.269 OA
BRANCH  36  39
ATOM     39  C   UNL A   1      34.381  34.138  29.375  1.00  0.00     0.039 A 
ATOM     40  C   UNL A   1      34.128  33.380  30.521  1.00  0.00     0.014 A 
ATOM     41  C   UNL A   1      35.695  34.405  28.982  1.00  0.00     0.014 A 
ATOM     42  C   UNL A   1      35.196  32.841  31.239  1.00  0.00     0.010 A 
ATOM     43  C   UNL A   1      36.753  33.797  29.651  1.00  0.00     0.010 A 
ATOM     44  C   UNL A   1      36.517  33.018  30.793  1.00  0.00    -0.014 A 
BRANCH  44  45
ATOM     45  C   UNL A   1      37.660  32.393  31.506  1.00  0.00     0.031 A 
ATOM     46  C   UNL A   1      38.419  31.257  30.874  1.00  0.00     0.074 A 
ATOM     47  C   UNL A   1      37.968  32.799  32.753  1.00  0.00     0.049 A 
ATOM     48  N   UNL A   1      39.418  30.565  31.357  1.00  0.00    -0.248 NA
ATOM     49  C   UNL A   1      37.980  30.820  29.537  1.00  0.00     0.031 C 
ATOM     50  C   UNL A   1      37.257  33.834  33.508  1.00  0.00     0.029 A 
ATOM     51  N   UNL A   1      38.946  32.374  33.618  1.00  0.00    -0.354 N 
ATOM     52  C   UNL A   1      39.706  29.596  30.403  1.00  0.00     0.074 A 
ATOM     53  C   UNL A   1      38.749  29.762  29.331  1.00  0.00     0.031 C 
ATOM     54  C   UNL A   1      37.828  33.971  34.715  1.00  0.00     0.029 A 
ATOM     55  C   UNL A   1      38.924  33.015  34.835  1.00  0.00     0.049 A 
ATOM     56  H   UNL A   1      39.602  31.677  33.389  1.00  0.00     0.167 HD
ATOM     57  C   UNL A   1      40.696  28.672  30.402  1.00  0.00     0.034 A 
ATOM     58  C   UNL A   1      39.696  32.848  35.927  1.00  0.00     0.034 A 
ATOM     59  C   UNL A   1      41.670  28.535  31.451  1.00  0.00     0.049 A 
ATOM     60  C   UNL A   1      40.813  31.841  35.883  1.00  0.00     0.074 A 
ATOM     61  C   UNL A   1      42.760  27.685  31.508  1.00  0.00     0.029 A 
ATOM     62  N   UNL A   1      41.666  29.259  32.634  1.00  0.00    -0.354 N 
ATOM     63  N   UNL A   1      41.167  31.041  34.907  1.00  0.00    -0.248 NA
ATOM     64  C   UNL A   1      41.663  31.741  37.079  1.00  0.00     0.031 C 
ATOM     65  C   UNL A   1      43.401  27.877  32.736  1.00  0.00     0.029 A 
ATOM     66  C   UNL A   1      42.731  28.872  33.429  1.00  0.00     0.049 A 
ATOM     67  H   UNL A   1      41.005  29.948  32.872  1.00  0.00     0.167 HD
ATOM     68  C   UNL A   1      42.303  30.374  35.353  1.00  0.00     0.074 A 
ATOM     69  C   UNL A   1      42.590  30.880  36.679  1.00  0.00     0.031 C 
ATOM     70  C   UNL A   1      43.036  29.421  34.726  1.00  0.00     0.034 A 
BRANCH  57  71
ATOM     71  C   UNL A   1      40.808  27.767  29.202  1.00  0.00     0.023 A 
ATOM     72  C   UNL A   1      40.014  26.604  29.128  1.00  0.00     0.012 A 
ATOM     73  C   UNL A   1      41.652  28.094  28.122  1.00  0.00     0.148 A 
ATOM     74  C   UNL A   1      40.085  25.761  28.020  1.00  0.00     0.002 A 
ATOM     75  C   UNL A   1      41.681  27.277  26.999  1.00  0.00     0.091 A 
ATOM     76  F   UNL A   1      42.414  29.193  28.217  1.00  0.00    -0.205 F 
ATOM     77  C   UNL A   1      40.909  26.103  26.952  1.00  0.00     0.022 A 
BRANCH  75  78
ATOM     78  S   UNL A   1      42.646  27.671  25.536  1.00  0.00     0.127 S 
ATOM     79  O   UNL A   1      42.386  26.506  24.690  1.00  0.00    -0.237 OA
ATOM     80  O   UNL A   1      42.016  28.909  25.077  1.00  0.00    -0.237 OA
ATOM     81  O   UNL A   1      44.022  27.819  25.988  1.00  0.00    -0.744 OA
ENDBRANCH  75  78
ENDBRANCH  57  71
BRANCH  58  82
ATOM     82  C   UNL A   1      39.484  33.702  37.130  1.00  0.00     0.023 A 
ATOM     83  C   UNL A   1      39.935  35.036  37.122  1.00  0.00     0.012 A 
ATOM     84  C   UNL A   1      38.827  33.207  38.273  1.00  0.00     0.148 A 
ATOM     85  C   UNL A   1      39.773  35.850  38.243  1.00  0.00     0.002 A 
ATOM     86  C   UNL A   1      38.616  34.041  39.365  1.00  0.00     0.091 A 
ATOM     87  F   UNL A   1      38.412  31.932  38.265  1.00  0.00    -0.205 F 
ATOM     88  C   UNL A   1      39.105  35.356  39.360  1.00  0.00     0.022 A 
BRANCH  86  89
ATOM     89  S   UNL A   1      37.653  33.532  40.793  1.00  0.00     0.127 S 
ATOM     90  O   UNL A   1      38.423  32.392  41.283  1.00  0.00    -0.237 OA
ATOM     91  O   UNL A   1      37.713  34.726  41.638  1.00  0.00    -0.237 OA
ATOM     92  O   UNL A   1      36.324  33.225  40.283  1.00  0.00    -0.744 OA
ENDBRANCH  86  89
ENDBRANCH  58  82
BRANCH  70  93
ATOM     93  C   UNL A   1      44.251  28.891  35.442  1.00  0.00     0.023 A 
ATOM     94  C   UNL A   1      45.517  29.466  35.208  1.00  0.00     0.012 A 
ATOM     95  C   UNL A   1      44.126  27.863  36.397  1.00  0.00     0.148 A 
ATOM     96  C   UNL A   1      46.643  28.997  35.882  1.00  0.00     0.002 A 
ATOM     97  C   UNL A   1      45.244  27.439  37.105  1.00  0.00     0.091 A 
ATOM     98  F   UNL A   1      42.917  27.317  36.594  1.00  0.00    -0.205 F 
ATOM     99  C   UNL A   1      46.505  27.993  36.838  1.00  0.00     0.022 A 
BRANCH  97 100
ATOM    100  S   UNL A   1      45.142  26.222  38.424  1.00  0.00     0.127 S 
ATOM    101  O   UNL A   1      46.551  26.044  38.773  1.00  0.00    -0.237 OA
ATOM    102  O   UNL A   1      44.347  26.925  39.433  1.00  0.00    -0.237 OA
ATOM    103  O   UNL A   1      44.488  25.056  37.845  1.00  0.00    -0.744 OA
ENDBRANCH  97 100
ENDBRANCH  70  93
ENDBRANCH  44  45
ENDBRANCH  36  39
ENDBRANCH  34  35
ENDBRANCH   1  34
TORSDOF 18
ENDMDL
MODEL 2
REMARK VINA RESULT:     -12.4      5.716     11.864
REMARK SMILES CN(C)c1nccnc1N1CCC(Oc2ccc3ccccc3c2)(C(=O)NCCCCNC(=O)c2ccc(-c3c4nc(c(-c5cccc(S(=O)(=O)[O-])c5F)c5ccc([nH]5)c(-c5cccc(S(=O)(=O)[O-])c5F)c5nc(c(-c6cccc(S(=O)(=O)[O-])c6F)c6ccc3[nH]6)C=C5)C=C4)cc2)CC1
REMARK SMILES IDX 30 1 29 2 28 3 27 4 25 5 26 6 13 8 10 9 11 10 99 11 12 12
REMARK SMILES IDX 98 13 9 14 4 15 5 16 6 17 8 18 7 19 2 20 1 21 3 22 14 23
REMARK SMILES IDX 15 24 16 25 24 26 17 27 23 28 18 29 22 30 19 31 21 32 20 33
REMARK SMILES IDX 31 34 32 35 33 36 34 38 35 39 36 40 97 41 37 42 96 43 38 44
REMARK SMILES IDX 39 45 40 46 90 47 41 48 95 49 89 50 91 51 42 52 94 53 88 54
REMARK SMILES IDX 87 55 43 57 75 58 55 59 74 60 56 61 59 62 73 63 92 64 57 65
REMARK SMILES IDX 58 66 72 68 93 69 60 70 44 71 45 72 53 73 46 74 48 75 54 76
REMARK SMILES IDX 47 77 49 78 50 79 51 80 52 81 76 82 77 83 85 84 78 85 80 86
REMARK SMILES IDX 86 87 79 88 81 89 82 90 83 91 84 92 61 93 62 94 70 95 63 96
REMARK SMILES IDX 65 97 71 98 64 99 66 100 67 101 68 102 69 103
REMARK H PARENT 27 7 32 37 91 56 59 67
REMARK Flexibility Score: inf
ROOT
ATOM      1  C   UNL A   1      39.190  21.500  25.725  1.00  0.00     0.023 C 
ENDROOT
BRANCH   1   2
ATOM      2  C   UNL A   1      39.060  22.908  26.305  1.00  0.00     0.023 C 
BRANCH   2   3
ATOM      3  C   UNL A   1      37.817  23.668  25.848  1.00  0.00     0.116 C 
BRANCH   3   4
ATOM      4  N   UNL A   1      37.537  23.422  24.448  1.00  0.00    -0.353 N 
ATOM      5  C   UNL A   1      36.346  23.239  23.805  1.00  0.00     0.264 C 
ATOM      6  O   UNL A   1      36.406  23.136  22.576  1.00  0.00    -0.270 OA
ATOM      7  H   UNL A   1      38.331  23.383  23.867  1.00  0.00     0.163 HD
BRANCH   5   8
ATOM      8  C   UNL A   1      34.999  23.166  24.586  1.00  0.00     0.190 C 
ATOM      9  N   UNL A   1      33.499  25.280  23.383  1.00  0.00    -0.353 N 
ATOM     10  C   UNL A   1      33.650  24.048  22.648  1.00  0.00     0.123 C 
ATOM     11  C   UNL A   1      34.491  25.671  24.374  1.00  0.00     0.123 C 
ATOM     12  C   UNL A   1      33.813  22.914  23.637  1.00  0.00     0.080 C 
ATOM     13  C   UNL A   1      34.779  24.505  25.330  1.00  0.00     0.080 C 
BRANCH   9  14
ATOM     14  C   UNL A   1      32.290  25.951  23.344  1.00  0.00     0.171 A 
ATOM     15  C   UNL A   1      31.220  25.631  24.241  1.00  0.00     0.171 A 
ATOM     16  N   UNL A   1      29.997  26.208  24.088  1.00  0.00    -0.234 NA
ATOM     17  C   UNL A   1      29.881  27.120  23.100  1.00  0.00     0.134 A 
ATOM     18  N   UNL A   1      32.148  26.896  22.375  1.00  0.00    -0.234 NA
ATOM     19  C   UNL A   1      30.930  27.461  22.272  1.00  0.00     0.134 A 
BRANCH  15  20
ATOM     20  N   UNL A   1      31.403  24.768  25.334  1.00  0.00    -0.360 N 
ATOM     21  C   UNL A   1      30.721  23.492  25.271  1.00  0.00     0.145 C 
ATOM     22  C   UNL A   1      31.515  25.419  26.635  1.00  0.00     0.145 C 
ENDBRANCH  15  20
ENDBRANCH   9  14
BRANCH   8  23
ATOM     23  O   UNL A   1      35.280  22.086  25.520  1.00  0.00    -0.477 OA
BRANCH  23  24
ATOM     24  C   UNL A   1      34.536  20.946  25.455  1.00  0.00     0.121 A 
ATOM     25  C   UNL A   1      33.201  20.905  25.836  1.00  0.00     0.047 A 
ATOM     26  C   UNL A   1      35.113  19.841  24.832  1.00  0.00     0.055 A 
ATOM     27  C   UNL A   1      32.476  19.720  25.730  1.00  0.00     0.012 A 
ATOM     28  C   UNL A   1      34.382  18.652  24.671  1.00  0.00    -0.015 A 
ATOM     29  C   UNL A   1      33.056  18.583  25.156  1.00  0.00    -0.018 A 
ATOM     30  C   UNL A   1      34.933  17.530  24.030  1.00  0.00     0.009 A 
ATOM     31  C   UNL A   1      32.333  17.388  25.031  1.00  0.00     0.009 A 
ATOM     32  C   UNL A   1      34.193  16.354  23.894  1.00  0.00     0.001 A 
ATOM     33  C   UNL A   1      32.899  16.279  24.404  1.00  0.00     0.001 A 
ENDBRANCH  23  24
ENDBRANCH   8  23
ENDBRANCH   5   8
ENDBRANCH   3   4
ENDBRANCH   2   3
ENDBRANCH   1   2
BRANCH   1  34
ATOM     34  C   UNL A   1      39.519  20.414  26.742  1.00  0.00     0.116 C 
BRANCH  34  35
ATOM     35  N   UNL A   1      40.501  19.458  26.251  1.00  0.00    -0.352 N 
ATOM     36  C   UNL A   1      41.825  19.663  25.952  1.00  0.00     0.251 C 
ATOM     37  H   UNL A   1      40.170  18.542  26.114  1.00  0.00     0.163 HD
ATOM     38  O   UNL A   1      42.476  18.772  25.409  1.00  0.00    -0.269 OA
BRANCH  36  39
ATOM     39  C   UNL A   1      42.453  20.964  26.259  1.00  0.00     0.039 A 
ATOM     40  C   UNL A   1      42.766  21.828  25.207  1.00  0.00     0.014 A 
ATOM     41  C   UNL A   1      42.713  21.339  27.580  1.00  0.00     0.014 A 
ATOM     42  C   UNL A   1      43.287  23.092  25.486  1.00  0.00     0.010 A 
ATOM     43  C   UNL A   1      43.152  22.629  27.859  1.00  0.00     0.010 A 
ATOM     44  C   UNL A   1      43.455  23.516  26.816  1.00  0.00    -0.014 A 
BRANCH  44  45
ATOM     45  C   UNL A   1      43.942  24.883  27.131  1.00  0.00     0.031 A 
ATOM     46  C   UNL A   1      43.003  25.911  27.703  1.00  0.00     0.074 A 
ATOM     47  C   UNL A   1      45.212  25.222  26.834  1.00  0.00     0.049 A 
ATOM     48  N   UNL A   1      43.236  27.161  28.008  1.00  0.00    -0.248 NA
ATOM     49  C   UNL A   1      41.610  25.489  27.935  1.00  0.00     0.031 C 
ATOM     50  C   UNL A   1      46.199  24.342  26.203  1.00  0.00     0.029 A 
ATOM     51  N   UNL A   1      45.887  26.405  27.003  1.00  0.00    -0.354 N 
ATOM     52  C   UNL A   1      42.021  27.682  28.435  1.00  0.00     0.074 A 
ATOM     53  C   UNL A   1      41.041  26.624  28.312  1.00  0.00     0.031 C 
ATOM     54  C   UNL A   1      47.352  25.011  26.048  1.00  0.00     0.029 A 
ATOM     55  C   UNL A   1      47.181  26.375  26.538  1.00  0.00     0.049 A 
ATOM     56  H   UNL A   1      45.483  27.201  27.418  1.00  0.00     0.167 HD
ATOM     57  C   UNL A   1      41.748  28.918  28.918  1.00  0.00     0.034 A 
ATOM     58  C   UNL A   1      48.123  27.338  26.506  1.00  0.00     0.034 A 
ATOM     59  C   UNL A   1      42.731  29.955  29.076  1.00  0.00     0.049 A 
ATOM     60  C   UNL A   1      47.805  28.690  27.084  1.00  0.00     0.074 A 
ATOM     61  C   UNL A   1      42.574  31.212  29.630  1.00  0.00     0.029 A 
ATOM     62  N   UNL A   1      44.053  29.859  28.670  1.00  0.00    -0.354 N 
ATOM     63  N   UNL A   1      46.691  29.114  27.629  1.00  0.00    -0.248 NA
ATOM     64  C   UNL A   1      48.886  29.686  27.078  1.00  0.00     0.031 C 
ATOM     65  C   UNL A   1      43.795  31.887  29.536  1.00  0.00     0.029 A 
ATOM     66  C   UNL A   1      44.722  31.038  28.956  1.00  0.00     0.049 A 
ATOM     67  H   UNL A   1      44.458  29.071  28.243  1.00  0.00     0.167 HD
ATOM     68  C   UNL A   1      46.948  30.408  28.069  1.00  0.00     0.074 A 
ATOM     69  C   UNL A   1      48.331  30.690  27.745  1.00  0.00     0.031 C 
ATOM     70  C   UNL A   1      46.113  31.287  28.676  1.00  0.00     0.034 A 
BRANCH  57  71
ATOM     71  C   UNL A   1      40.335  29.200  29.360  1.00  0.00     0.023 A 
ATOM     72  C   UNL A   1      39.375  29.610  28.412  1.00  0.00     0.012 A 
ATOM     73  C   UNL A   1      39.941  29.005  30.699  1.00  0.00     0.148 A 
ATOM     74  C   UNL A   1      38.057  29.859  28.793  1.00  0.00     0.002 A 
ATOM     75  C   UNL A   1      38.615  29.207  31.062  1.00  0.00     0.091 A 
ATOM     76  F   UNL A   1      40.870  28.634  31.591  1.00  0.00    -0.205 F 
ATOM     77  C   UNL A   1      37.675  29.647  30.114  1.00  0.00     0.022 A 
BRANCH  75  78
ATOM     78  S   UNL A   1      38.002  28.883  32.719  1.00  0.00     0.127 S 
ATOM     79  O   UNL A   1      36.644  29.423  32.642  1.00  0.00    -0.237 OA
ATOM     80  O   UNL A   1      38.073  27.423  32.793  1.00  0.00    -0.237 OA
ATOM     81  O   UNL A   1      38.900  29.583  33.626  1.00  0.00    -0.744 OA
ENDBRANCH  75  78
ENDBRANCH  57  71
BRANCH  58  82
ATOM     82  C   UNL A   1      49.481  27.039  25.967  1.00  0.00     0.023 A 
ATOM     83  C   UNL A   1      50.438  26.428  26.800  1.00  0.00     0.012 A 
ATOM     84  C   UNL A   1      49.823  27.340  24.635  1.00  0.00     0.148 A 
ATOM     85  C   UNL A   1      51.724  26.160  26.330  1.00  0.00     0.002 A 
ATOM     86  C   UNL A   1      51.087  27.016  24.156  1.00  0.00     0.091 A 
ATOM     87  F   UNL A   1      48.901  27.927  23.860  1.00  0.00    -0.205 F 
ATOM     88  C   UNL A   1      52.045  26.444  25.006  1.00  0.00     0.022 A 
BRANCH  86  89
ATOM     89  S   UNL A   1      51.546  27.226  22.431  1.00  0.00     0.127 S 
ATOM     90  O   UNL A   1      51.734  28.671  22.345  1.00  0.00    -0.237 OA
ATOM     91  O   UNL A   1      52.776  26.437  22.349  1.00  0.00    -0.237 OA
ATOM     92  O   UNL A   1      50.434  26.685  21.660  1.00  0.00    -0.744 OA
ENDBRANCH  86  89
ENDBRANCH  58  82
BRANCH  70  93
ATOM     93  C   UNL A   1      46.680  32.625  29.076  1.00  0.00     0.023 A 
ATOM     94  C   UNL A   1      47.296  32.784  30.333  1.00  0.00     0.012 A 
ATOM     95  C   UNL A   1      46.656  33.709  28.176  1.00  0.00     0.148 A 
ATOM     96  C   UNL A   1      47.842  34.012  30.704  1.00  0.00     0.002 A 
ATOM     97  C   UNL A   1      47.250  34.913  28.531  1.00  0.00     0.091 A 
ATOM     98  F   UNL A   1      46.050  33.544  26.992  1.00  0.00    -0.205 F 
ATOM     99  C   UNL A   1      47.830  35.071  29.800  1.00  0.00     0.022 A 
BRANCH  97 100
ATOM    100  S   UNL A   1      47.370  36.299  27.394  1.00  0.00     0.127 S 
ATOM    101  O   UNL A   1      45.989  36.780  27.364  1.00  0.00    -0.237 OA
ATOM    102  O   UNL A   1      48.311  37.184  28.082  1.00  0.00    -0.237 OA
ATOM    103  O   UNL A   1      47.867  35.747  26.140  1.00  0.00    -0.744 OA
ENDBRANCH  97 100
ENDBRANCH  70  93
ENDBRANCH  44  45
ENDBRANCH  36  39
ENDBRANCH  34  35
ENDBRANCH   1  34
TORSDOF 18
ENDMDL
MODEL 3
REMARK VINA RESULT:     -12.4      6.167     11.752
REMARK SMILES CN(C)c1nccnc1N1CCC(Oc2ccc3ccccc3c2)(C(=O)NCCCCNC(=O)c2ccc(-c3c4nc(c(-c5cccc(S(=O)(=O)[O-])c5F)c5ccc([nH]5)c(-c5cccc(S(=O)(=O)[O-])c5F)c5nc(c(-c6cccc(S(=O)(=O)[O-])c6F)c6ccc3[nH]6)C=C5)C=C4)cc2)CC1
REMARK SMILES IDX 30 1 29 2 28 3 27 4 25 5 26 6 13 8 10 9 11 10 99 11 12 12
REMARK SMILES IDX 98 13 9 14 4 15 5 16 6 17 8 18 7 19 2 20 1 21 3 22 14 23
REMARK SMILES IDX 15 24 16 25 24 26 17 27 23 28 18 29 22 30 19 31 21 32 20 33
REMARK SMILES IDX 31 34 32 35 33 36 34 38 35 39 36 40 97 41 37 42 96 43 38 44
REMARK SMILES IDX 39 45 40 46 90 47 41 48 95 49 89 50 91 51 42 52 94 53 88 54
REMARK SMILES IDX 87 55 43 57 75 58 55 59 74 60 56 61 59 62 73 63 92 64 57 65
REMARK SMILES IDX 58 66 72 68 93 69 60 70 44 71 45 72 53 73 46 74 48 75 54 76
REMARK SMILES IDX 47 77 49 78 50 79 51 80 52 81 76 82 77 83 85 84 78 85 80 86
REMARK SMILES IDX 86 87 79 88 81 89 82 90 83 91 84 92 61 93 62 94 70 95 63 96
REMARK SMILES IDX 65 97 71 98 64 99 66 100 67 101 68 102 69 103
REMARK H PARENT 27 7 32 37 91 56 59 67
REMARK Flexibility Score: inf
ROOT
ATOM      1  C   UNL A   1      38.135  20.052  24.889  1.00  0.00     0.023 C 
ENDROOT
BRANCH   1   2
ATOM      2  C   UNL A   1      37.392  21.307  24.433  1.00  0.00     0.023 C 
BRANCH   2   3
ATOM      3  C   UNL A   1      37.270  22.392  25.500  1.00  0.00     0.116 C 
BRANCH   3   4
ATOM      4  N   UNL A   1      36.265  22.048  26.485  1.00  0.00    -0.353 N 
ATOM      5  C   UNL A   1      34.902  22.067  26.399  1.00  0.00     0.264 C 
ATOM      6  O   UNL A   1      34.292  21.632  27.381  1.00  0.00    -0.270 OA
ATOM      7  H   UNL A   1      36.620  21.751  27.354  1.00  0.00     0.163 HD
BRANCH   5   8
ATOM      8  C   UNL A   1      34.171  22.610  25.134  1.00  0.00     0.190 C 
ATOM      9  N   UNL A   1      33.196  25.136  26.048  1.00  0.00    -0.353 N 
ATOM     10  C   UNL A   1      34.599  25.021  25.731  1.00  0.00     0.123 C 
ATOM     11  C   UNL A   1      32.435  23.963  26.451  1.00  0.00     0.123 C 
ATOM     12  C   UNL A   1      34.768  23.952  24.673  1.00  0.00     0.080 C 
ATOM     13  C   UNL A   1      32.673  22.808  25.468  1.00  0.00     0.080 C 
BRANCH   9  14
ATOM     14  C   UNL A   1      32.517  26.293  25.712  1.00  0.00     0.171 A 
ATOM     15  C   UNL A   1      31.947  26.484  24.411  1.00  0.00     0.171 A 
ATOM     16  N   UNL A   1      31.409  27.685  24.065  1.00  0.00    -0.234 NA
ATOM     17  C   UNL A   1      31.394  28.636  25.021  1.00  0.00     0.134 A 
ATOM     18  N   UNL A   1      32.461  27.264  26.663  1.00  0.00    -0.234 NA
ATOM     19  C   UNL A   1      31.898  28.429  26.288  1.00  0.00     0.134 A 
BRANCH  15  20
ATOM     20  N   UNL A   1      31.870  25.438  23.477  1.00  0.00    -0.360 N 
ATOM     21  C   UNL A   1      32.707  25.559  22.301  1.00  0.00     0.145 C 
ATOM     22  C   UNL A   1      30.549  24.838  23.316  1.00  0.00     0.145 C 
ENDBRANCH  15  20
ENDBRANCH   9  14
BRANCH   8  23
ATOM     23  O   UNL A   1      34.361  21.502  24.209  1.00  0.00    -0.477 OA
BRANCH  23  24
ATOM     24  C   UNL A   1      33.856  20.279  24.532  1.00  0.00     0.121 A 
ATOM     25  C   UNL A   1      32.493  20.048  24.668  1.00  0.00     0.047 A 
ATOM     26  C   UNL A   1      34.747  19.207  24.564  1.00  0.00     0.055 A 
ATOM     27  C   UNL A   1      32.024  18.772  24.977  1.00  0.00     0.012 A 
ATOM     28  C   UNL A   1      34.287  17.906  24.826  1.00  0.00    -0.015 A 
ATOM     29  C   UNL A   1      32.910  17.693  25.067  1.00  0.00    -0.018 A 
ATOM     30  C   UNL A   1      35.161  16.806  24.845  1.00  0.00     0.009 A 
ATOM     31  C   UNL A   1      32.450  16.403  25.365  1.00  0.00     0.009 A 
ATOM     32  C   UNL A   1      34.683  15.523  25.122  1.00  0.00     0.001 A 
ATOM     33  C   UNL A   1      33.332  15.323  25.393  1.00  0.00     0.001 A 
ENDBRANCH  23  24
ENDBRANCH   8  23
ENDBRANCH   5   8
ENDBRANCH   3   4
ENDBRANCH   2   3
ENDBRANCH   1   2
BRANCH   1  34
ATOM     34  C   UNL A   1      39.115  20.266  26.037  1.00  0.00     0.116 C 
BRANCH  34  35
ATOM     35  N   UNL A   1      40.171  19.265  26.072  1.00  0.00    -0.352 N 
ATOM     36  C   UNL A   1      41.526  19.448  26.202  1.00  0.00     0.251 C 
ATOM     37  H   UNL A   1      39.874  18.330  25.992  1.00  0.00     0.163 HD
ATOM     38  O   UNL A   1      42.289  18.494  26.068  1.00  0.00    -0.269 OA
BRANCH  36  39
ATOM     39  C   UNL A   1      42.059  20.799  26.473  1.00  0.00     0.039 A 
ATOM     40  C   UNL A   1      42.282  21.665  25.400  1.00  0.00     0.014 A 
ATOM     41  C   UNL A   1      42.320  21.216  27.781  1.00  0.00     0.014 A 
ATOM     42  C   UNL A   1      42.712  22.969  25.646  1.00  0.00     0.010 A 
ATOM     43  C   UNL A   1      42.666  22.540  28.028  1.00  0.00     0.010 A 
ATOM     44  C   UNL A   1      42.877  23.429  26.964  1.00  0.00    -0.014 A 
BRANCH  44  45
ATOM     45  C   UNL A   1      43.266  24.834  27.245  1.00  0.00     0.031 A 
ATOM     46  C   UNL A   1      42.280  25.784  27.873  1.00  0.00     0.074 A 
ATOM     47  C   UNL A   1      44.482  25.276  26.868  1.00  0.00     0.049 A 
ATOM     48  N   UNL A   1      42.427  27.051  28.160  1.00  0.00    -0.248 NA
ATOM     49  C   UNL A   1      40.946  25.247  28.194  1.00  0.00     0.031 C 
ATOM     50  C   UNL A   1      45.498  24.478  26.178  1.00  0.00     0.029 A 
ATOM     51  N   UNL A   1      45.063  26.513  26.992  1.00  0.00    -0.354 N 
ATOM     52  C   UNL A   1      41.200  27.471  28.663  1.00  0.00     0.074 A 
ATOM     53  C   UNL A   1      40.308  26.333  28.603  1.00  0.00     0.031 C 
ATOM     54  C   UNL A   1      46.578  25.240  25.949  1.00  0.00     0.029 A 
ATOM     55  C   UNL A   1      46.324  26.588  26.446  1.00  0.00     0.049 A 
ATOM     56  H   UNL A   1      44.620  27.276  27.430  1.00  0.00     0.167 HD
ATOM     57  C   UNL A   1      40.855  28.683  29.159  1.00  0.00     0.034 A 
ATOM     58  C   UNL A   1      47.178  27.627  26.353  1.00  0.00     0.034 A 
ATOM     59  C   UNL A   1      41.755  29.800  29.253  1.00  0.00     0.049 A 
ATOM     60  C   UNL A   1      46.783  28.952  26.948  1.00  0.00     0.074 A 
ATOM     61  C   UNL A   1      41.527  31.044  29.813  1.00  0.00     0.029 A 
ATOM     62  N   UNL A   1      43.053  29.813  28.764  1.00  0.00    -0.354 N 
ATOM     63  N   UNL A   1      45.673  29.285  27.561  1.00  0.00    -0.248 NA
ATOM     64  C   UNL A   1      47.774  30.035  26.872  1.00  0.00     0.031 C 
ATOM     65  C   UNL A   1      42.679  31.818  29.641  1.00  0.00     0.029 A 
ATOM     66  C   UNL A   1      43.636  31.045  29.005  1.00  0.00     0.049 A 
ATOM     67  H   UNL A   1      43.495  29.058  28.314  1.00  0.00     0.167 HD
ATOM     68  C   UNL A   1      45.848  30.598  27.981  1.00  0.00     0.074 A 
ATOM     69  C   UNL A   1      47.179  30.993  27.570  1.00  0.00     0.031 C 
ATOM     70  C   UNL A   1      44.981  31.409  28.638  1.00  0.00     0.034 A 
BRANCH  57  71
ATOM     71  C   UNL A   1      39.453  28.849  29.689  1.00  0.00     0.023 A 
ATOM     72  C   UNL A   1      39.157  28.458  31.011  1.00  0.00     0.012 A 
ATOM     73  C   UNL A   1      38.446  29.442  28.903  1.00  0.00     0.148 A 
ATOM     74  C   UNL A   1      37.873  28.619  31.530  1.00  0.00     0.002 A 
ATOM     75  C   UNL A   1      37.182  29.645  29.443  1.00  0.00     0.091 A 
ATOM     76  F   UNL A   1      38.740  29.790  27.642  1.00  0.00    -0.205 F 
ATOM     77  C   UNL A   1      36.890  29.222  30.751  1.00  0.00     0.022 A 
BRANCH  75  78
ATOM     78  S   UNL A   1      35.869  30.488  28.553  1.00  0.00     0.127 S 
ATOM     79  O   UNL A   1      35.109  29.361  28.013  1.00  0.00    -0.237 OA
ATOM     80  O   UNL A   1      35.193  31.221  29.624  1.00  0.00    -0.237 OA
ATOM     81  O   UNL A   1      36.528  31.328  27.563  1.00  0.00    -0.744 OA
ENDBRANCH  75  78
ENDBRANCH  57  71
BRANCH  58  82
ATOM     82  C   UNL A   1      48.519  27.439  25.730  1.00  0.00     0.023 A 
ATOM     83  C   UNL A   1      49.615  27.083  26.540  1.00  0.00     0.012 A 
ATOM     84  C   UNL A   1      48.712  27.595  24.345  1.00  0.00     0.148 A 
ATOM     85  C   UNL A   1      50.887  26.925  25.989  1.00  0.00     0.002 A 
ATOM     86  C   UNL A   1      49.969  27.379  23.793  1.00  0.00     0.091 A 
ATOM     87  F   UNL A   1      47.658  27.942  23.592  1.00  0.00    -0.205 F 
ATOM     88  C   UNL A   1      51.062  27.063  24.614  1.00  0.00     0.022 A 
BRANCH  86  89
ATOM     89  S   UNL A   1      50.261  27.406  22.020  1.00  0.00     0.127 S 
ATOM     90  O   UNL A   1      49.285  26.433  21.541  1.00  0.00    -0.237 OA
ATOM     91  O   UNL A   1      49.959  28.799  21.687  1.00  0.00    -0.237 OA
ATOM     92  O   UNL A   1      51.660  27.039  21.846  1.00  0.00    -0.744 OA
ENDBRANCH  86  89
ENDBRANCH  58  82
BRANCH  70  93
ATOM     93  C   UNL A   1      45.457  32.792  28.999  1.00  0.00     0.023 A 
ATOM     94  C   UNL A   1      46.128  33.013  30.218  1.00  0.00     0.012 A 
ATOM     95  C   UNL A   1      45.292  33.862  28.097  1.00  0.00     0.148 A 
ATOM     96  C   UNL A   1      46.590  34.285  30.551  1.00  0.00     0.002 A 
ATOM     97  C   UNL A   1      45.804  35.115  28.412  1.00  0.00     0.091 A 
ATOM     98  F   UNL A   1      44.636  33.637  26.949  1.00  0.00    -0.205 F 
ATOM     99  C   UNL A   1      46.439  35.332  29.644  1.00  0.00     0.022 A 
BRANCH  97 100
ATOM    100  S   UNL A   1      45.744  36.495  27.263  1.00  0.00     0.127 S 
ATOM    101  O   UNL A   1      44.304  36.691  27.108  1.00  0.00    -0.237 OA
ATOM    102  O   UNL A   1      46.428  37.551  28.011  1.00  0.00    -0.237 OA
ATOM    103  O   UNL A   1      46.448  36.052  26.066  1.00  0.00    -0.744 OA
ENDBRANCH  97 100
ENDBRANCH  70  93
ENDBRANCH  44  45
ENDBRANCH  36  39
ENDBRANCH  34  35
ENDBRANCH   1  34
TORSDOF 18
ENDMDL
