MODEL 1
REMARK VINA RESULT:     -11.8      0.000      0.000
REMARK SMILES CC1=Nc2nc(NC(=O)CCC(=O)NCCCCNC(=O)c3ccc(-c4c5nc(c(-c6cccc(S(=O)(=O)[O-])c6F)c6ccc([nH]6)c(-c6cccc(S(=O)(=O)[O-])c6F)c6nc(c(-c7cccc(S(=O)(=O)[O-])c7F)c7ccc4[nH]7)C=C6)C=C5)cc3)nn2[C@@H](c2ccc(Cl)cc2)C1
REMARK SMILES IDX 16 1 15 2 14 3 12 4 13 5 11 7 10 8 8 9 7 10 9 12 6 13 1 14
REMARK SMILES IDX 2 15 3 16 95 17 4 18 87 19 5 20 86 21 85 22 88 23 89 24
REMARK SMILES IDX 94 25 90 26 93 27 91 28 92 29 17 30 18 31 19 32 20 33 21 35
REMARK SMILES IDX 22 36 23 37 84 38 24 39 83 40 25 41 26 42 27 43 77 44 28 45
REMARK SMILES IDX 82 46 76 47 78 48 29 49 81 50 75 51 74 52 30 54 62 55 42 56
REMARK SMILES IDX 61 57 43 58 46 59 60 60 79 61 44 62 45 63 59 65 80 66 47 67
REMARK SMILES IDX 31 68 32 69 40 70 33 71 35 72 41 73 34 74 36 75 37 76 38 77
REMARK SMILES IDX 39 78 63 79 64 80 72 81 65 82 67 83 73 84 66 85 68 86 69 87
REMARK SMILES IDX 70 88 71 89 48 90 49 91 57 92 50 93 52 94 58 95 51 96 53 97
REMARK SMILES IDX 54 98 55 99 56 100
REMARK H PARENT 14 6 7 11 19 34 78 53 46 64
REMARK Flexibility Score: inf
ROOT
ATOM      1  C   UNL A   1      34.685  33.665  33.613  1.00  0.00     0.023 C 
ENDROOT
BRANCH   1   2
ATOM      2  C   UNL A   1      34.919  35.124  34.023  1.00  0.00     0.116 C 
BRANCH   2   3
ATOM      3  N   UNL A   1      33.778  36.008  33.890  1.00  0.00    -0.356 N 
ATOM      4  C   UNL A   1      33.143  36.430  32.760  1.00  0.00     0.220 C 
ATOM      5  O   UNL A   1      31.988  36.837  32.842  1.00  0.00    -0.275 OA
ATOM      6  H   UNL A   1      33.410  36.353  34.736  1.00  0.00     0.163 HD
BRANCH   4   7
ATOM      7  C   UNL A   1      33.845  36.481  31.430  1.00  0.00     0.110 C 
BRANCH   7   8
ATOM      8  C   UNL A   1      33.427  35.313  30.542  1.00  0.00     0.110 C 
BRANCH   8   9
ATOM      9  C   UNL A   1      33.127  35.760  29.135  1.00  0.00     0.227 C 
ATOM     10  N   UNL A   1      33.295  34.951  28.062  1.00  0.00    -0.293 N 
ATOM     11  H   UNL A   1      33.073  35.373  27.201  1.00  0.00     0.173 HD
ATOM     12  O   UNL A   1      32.616  36.874  28.949  1.00  0.00    -0.275 OA
BRANCH  10  13
ATOM     13  C   UNL A   1      33.715  33.658  27.958  1.00  0.00     0.250 A 
ATOM     14  C   UNL A   1      37.687  29.500  27.629  1.00  0.00     0.062 C 
ATOM     15  C   UNL A   1      36.386  30.257  27.728  1.00  0.00     0.021 C 
ATOM     16  N   UNL A   1      36.428  31.551  27.761  1.00  0.00    -0.221 NA
ATOM     17  C   UNL A   1      35.119  29.443  27.874  1.00  0.00     0.083 C 
ATOM     18  C   UNL A   1      35.255  32.215  27.836  1.00  0.00     0.250 A 
ATOM     19  C   UNL A   1      33.843  30.202  27.498  1.00  0.00     0.147 C 
ATOM     20  N   UNL A   1      35.041  33.458  28.202  1.00  0.00    -0.174 NA
ATOM     21  N   UNL A   1      34.040  31.649  27.527  1.00  0.00    -0.220 N 
ATOM     22  N   UNL A   1      33.033  32.556  27.650  1.00  0.00    -0.130 NA
BRANCH  19  23
ATOM     23  C   UNL A   1      33.198  29.626  26.253  1.00  0.00    -0.023 A 
ATOM     24  C   UNL A   1      33.871  28.832  25.326  1.00  0.00     0.007 A 
ATOM     25  C   UNL A   1      31.832  29.889  26.021  1.00  0.00     0.007 A 
ATOM     26  C   UNL A   1      33.257  28.469  24.121  1.00  0.00     0.021 A 
ATOM     27  C   UNL A   1      31.197  29.456  24.853  1.00  0.00     0.021 A 
ATOM     28  C   UNL A   1      31.927  28.782  23.884  1.00  0.00     0.041 A 
ATOM     29  Cl  UNL A   1      31.177  28.393  22.385  1.00  0.00    -0.084 Cl
ENDBRANCH  19  23
ENDBRANCH  10  13
ENDBRANCH   8   9
ENDBRANCH   7   8
ENDBRANCH   4   7
ENDBRANCH   2   3
ENDBRANCH   1   2
BRANCH   1  30
ATOM     30  C   UNL A   1      35.739  32.998  32.721  1.00  0.00     0.023 C 
BRANCH  30  31
ATOM     31  C   UNL A   1      36.917  33.895  32.395  1.00  0.00     0.116 C 
BRANCH  31  32
ATOM     32  N   UNL A   1      37.029  34.217  30.960  1.00  0.00    -0.352 N 
ATOM     33  C   UNL A   1      38.027  33.831  30.080  1.00  0.00     0.251 C 
ATOM     34  H   UNL A   1      36.309  34.772  30.583  1.00  0.00     0.163 HD
ATOM     35  O   UNL A   1      38.192  34.387  28.995  1.00  0.00    -0.269 OA
BRANCH  33  36
ATOM     36  C   UNL A   1      38.872  32.700  30.483  1.00  0.00     0.039 A 
ATOM     37  C   UNL A   1      38.407  31.387  30.586  1.00  0.00     0.014 A 
ATOM     38  C   UNL A   1      40.224  32.996  30.564  1.00  0.00     0.014 A 
ATOM     39  C   UNL A   1      39.349  30.364  30.667  1.00  0.00     0.010 A 
ATOM     40  C   UNL A   1      41.107  31.992  30.318  1.00  0.00     0.010 A 
ATOM     41  C   UNL A   1      40.706  30.679  30.497  1.00  0.00    -0.014 A 
BRANCH  41  42
ATOM     42  C   UNL A   1      41.753  29.671  30.437  1.00  0.00     0.031 A 
ATOM     43  C   UNL A   1      42.197  29.158  31.759  1.00  0.00     0.074 A 
ATOM     44  C   UNL A   1      42.141  29.114  29.264  1.00  0.00     0.049 A 
ATOM     45  N   UNL A   1      43.305  29.426  32.363  1.00  0.00    -0.248 NA
ATOM     46  C   UNL A   1      41.238  28.408  32.586  1.00  0.00     0.031 C 
ATOM     47  C   UNL A   1      41.564  29.289  27.917  1.00  0.00     0.029 A 
ATOM     48  N   UNL A   1      43.066  28.147  29.049  1.00  0.00    -0.354 N 
ATOM     49  C   UNL A   1      43.295  28.665  33.530  1.00  0.00     0.074 A 
ATOM     50  C   UNL A   1      41.930  28.250  33.719  1.00  0.00     0.031 C 
ATOM     51  C   UNL A   1      41.952  28.272  27.118  1.00  0.00     0.029 A 
ATOM     52  C   UNL A   1      42.965  27.511  27.816  1.00  0.00     0.049 A 
ATOM     53  H   UNL A   1      43.755  27.914  29.713  1.00  0.00     0.167 HD
ATOM     54  C   UNL A   1      44.457  28.229  34.090  1.00  0.00     0.034 A 
ATOM     55  C   UNL A   1      43.645  26.409  27.416  1.00  0.00     0.034 A 
ATOM     56  C   UNL A   1      45.595  28.885  33.493  1.00  0.00     0.049 A 
ATOM     57  C   UNL A   1      44.834  26.302  28.287  1.00  0.00     0.074 A 
ATOM     58  C   UNL A   1      46.020  30.194  33.377  1.00  0.00     0.029 A 
ATOM     59  N   UNL A   1      46.267  28.178  32.523  1.00  0.00    -0.354 N 
ATOM     60  N   UNL A   1      45.791  27.187  28.282  1.00  0.00    -0.248 NA
ATOM     61  C   UNL A   1      44.720  25.498  29.492  1.00  0.00     0.031 C 
ATOM     62  C   UNL A   1      46.529  30.290  32.048  1.00  0.00     0.029 A 
ATOM     63  C   UNL A   1      46.468  29.023  31.463  1.00  0.00     0.049 A 
ATOM     64  H   UNL A   1      46.550  27.238  32.579  1.00  0.00     0.167 HD
ATOM     65  C   UNL A   1      46.081  27.378  29.626  1.00  0.00     0.074 A 
ATOM     66  C   UNL A   1      45.470  26.239  30.314  1.00  0.00     0.031 C 
ATOM     67  C   UNL A   1      46.516  28.587  30.086  1.00  0.00     0.034 A 
BRANCH  54  68
ATOM     68  C   UNL A   1      44.636  26.955  34.884  1.00  0.00     0.023 A 
ATOM     69  C   UNL A   1      45.394  27.046  36.076  1.00  0.00     0.012 A 
ATOM     70  C   UNL A   1      44.364  25.658  34.397  1.00  0.00     0.148 A 
ATOM     71  C   UNL A   1      45.910  25.911  36.709  1.00  0.00     0.002 A 
ATOM     72  C   UNL A   1      44.821  24.528  35.069  1.00  0.00     0.091 A 
ATOM     73  F   UNL A   1      43.773  25.497  33.212  1.00  0.00    -0.205 F 
ATOM     74  C   UNL A   1      45.622  24.649  36.205  1.00  0.00     0.022 A 
BRANCH  72  75
ATOM     75  S   UNL A   1      44.448  22.868  34.484  1.00  0.00     0.127 S 
ATOM     76  O   UNL A   1      44.902  22.054  35.607  1.00  0.00    -0.237 OA
ATOM     77  O   UNL A   1      42.997  22.932  34.310  1.00  0.00    -0.237 OA
ATOM     78  O   UNL A   1      45.190  22.712  33.240  1.00  0.00    -0.744 OA
ENDBRANCH  72  75
ENDBRANCH  54  68
BRANCH  55  79
ATOM     79  C   UNL A   1      43.171  25.281  26.587  1.00  0.00     0.023 A 
ATOM     80  C   UNL A   1      43.905  24.852  25.465  1.00  0.00     0.012 A 
ATOM     81  C   UNL A   1      42.157  24.437  27.080  1.00  0.00     0.148 A 
ATOM     82  C   UNL A   1      43.652  23.607  24.871  1.00  0.00     0.002 A 
ATOM     83  C   UNL A   1      41.914  23.203  26.490  1.00  0.00     0.091 A 
ATOM     84  F   UNL A   1      41.497  24.810  28.185  1.00  0.00    -0.205 F 
ATOM     85  C   UNL A   1      42.664  22.776  25.390  1.00  0.00     0.022 A 
BRANCH  83  86
ATOM     86  S   UNL A   1      40.689  22.080  27.147  1.00  0.00     0.127 S 
ATOM     87  O   UNL A   1      39.470  22.882  27.051  1.00  0.00    -0.237 OA
ATOM     88  O   UNL A   1      40.774  20.958  26.217  1.00  0.00    -0.237 OA
ATOM     89  O   UNL A   1      41.129  21.800  28.507  1.00  0.00    -0.744 OA
ENDBRANCH  83  86
ENDBRANCH  55  79
BRANCH  67  90
ATOM     90  C   UNL A   1      46.867  29.649  29.074  1.00  0.00     0.023 A 
ATOM     91  C   UNL A   1      48.119  29.702  28.422  1.00  0.00     0.012 A 
ATOM     92  C   UNL A   1      45.831  30.476  28.620  1.00  0.00     0.148 A 
ATOM     93  C   UNL A   1      48.328  30.564  27.341  1.00  0.00     0.002 A 
ATOM     94  C   UNL A   1      46.026  31.295  27.515  1.00  0.00     0.091 A 
ATOM     95  F   UNL A   1      44.649  30.408  29.251  1.00  0.00    -0.205 F 
ATOM     96  C   UNL A   1      47.276  31.349  26.876  1.00  0.00     0.022 A 
BRANCH  94  97
ATOM     97  S   UNL A   1      44.673  32.216  26.786  1.00  0.00     0.127 S 
ATOM     98  O   UNL A   1      45.348  32.964  25.729  1.00  0.00    -0.237 OA
ATOM     99  O   UNL A   1      43.789  31.150  26.314  1.00  0.00    -0.237 OA
ATOM    100  O   UNL A   1      44.109  33.024  27.861  1.00  0.00    -0.744 OA
ENDBRANCH  94  97
ENDBRANCH  67  90
ENDBRANCH  41  42
ENDBRANCH  33  36
ENDBRANCH  31  32
ENDBRANCH  30  31
ENDBRANCH   1  30
TORSDOF 18
ENDMDL
MODEL 2
REMARK VINA RESULT:     -11.5      2.898      3.833
REMARK SMILES CC1=Nc2nc(NC(=O)CCC(=O)NCCCCNC(=O)c3ccc(-c4c5nc(c(-c6cccc(S(=O)(=O)[O-])c6F)c6ccc([nH]6)c(-c6cccc(S(=O)(=O)[O-])c6F)c6nc(c(-c7cccc(S(=O)(=O)[O-])c7F)c7ccc4[nH]7)C=C6)C=C5)cc3)nn2[C@@H](c2ccc(Cl)cc2)C1
REMARK SMILES IDX 16 1 15 2 14 3 12 4 13 5 11 7 10 8 8 9 7 10 9 12 6 13 1 14
REMARK SMILES IDX 2 15 3 16 95 17 4 18 87 19 5 20 86 21 85 22 88 23 89 24
REMARK SMILES IDX 94 25 90 26 93 27 91 28 92 29 17 30 18 31 19 32 20 33 21 35
REMARK SMILES IDX 22 36 23 37 84 38 24 39 83 40 25 41 26 42 27 43 77 44 28 45
REMARK SMILES IDX 82 46 76 47 78 48 29 49 81 50 75 51 74 52 30 54 62 55 42 56
REMARK SMILES IDX 61 57 43 58 46 59 60 60 79 61 44 62 45 63 59 65 80 66 47 67
REMARK SMILES IDX 31 68 32 69 40 70 33 71 35 72 41 73 34 74 36 75 37 76 38 77
REMARK SMILES IDX 39 78 63 79 64 80 72 81 65 82 67 83 73 84 66 85 68 86 69 87
REMARK SMILES IDX 70 88 71 89 48 90 49 91 57 92 50 93 52 94 58 95 51 96 53 97
REMARK SMILES IDX 54 98 55 99 56 100
REMARK H PARENT 14 6 7 11 19 34 78 53 46 64
REMARK Flexibility Score: inf
ROOT
ATOM      1  C   UNL A   1      37.725  33.692  34.073  1.00  0.00     0.023 C 
ENDROOT
BRANCH   1   2
ATOM      2  C   UNL A   1      36.426  34.142  34.753  1.00  0.00     0.116 C 
BRANCH   2   3
ATOM      3  N   UNL A   1      35.212  33.509  34.277  1.00  0.00    -0.356 N 
ATOM      4  C   UNL A   1      34.312  33.957  33.355  1.00  0.00     0.220 C 
ATOM      5  O   UNL A   1      33.583  33.146  32.793  1.00  0.00    -0.275 OA
ATOM      6  H   UNL A   1      35.008  32.632  34.676  1.00  0.00     0.163 HD
BRANCH   4   7
ATOM      7  C   UNL A   1      34.139  35.423  33.067  1.00  0.00     0.110 C 
BRANCH   7   8
ATOM      8  C   UNL A   1      32.892  35.674  32.224  1.00  0.00     0.110 C 
BRANCH   8   9
ATOM      9  C   UNL A   1      33.154  36.666  31.120  1.00  0.00     0.227 C 
ATOM     10  N   UNL A   1      33.572  36.290  29.888  1.00  0.00    -0.293 N 
ATOM     11  H   UNL A   1      33.716  37.039  29.266  1.00  0.00     0.173 HD
ATOM     12  O   UNL A   1      32.888  37.862  31.305  1.00  0.00    -0.275 OA
BRANCH  10  13
ATOM     13  C   UNL A   1      33.829  35.063  29.352  1.00  0.00     0.250 A 
ATOM     14  C   UNL A   1      32.468  30.271  26.462  1.00  0.00     0.062 C 
ATOM     15  C   UNL A   1      33.209  31.350  27.212  1.00  0.00     0.021 C 
ATOM     16  N   UNL A   1      32.546  32.393  27.603  1.00  0.00    -0.221 NA
ATOM     17  C   UNL A   1      34.703  31.179  27.377  1.00  0.00     0.083 C 
ATOM     18  C   UNL A   1      33.220  33.344  28.285  1.00  0.00     0.250 A 
ATOM     19  C   UNL A   1      35.304  32.015  28.511  1.00  0.00     0.147 C 
ATOM     20  N   UNL A   1      32.879  34.595  28.495  1.00  0.00    -0.174 NA
ATOM     21  N   UNL A   1      34.437  33.129  28.889  1.00  0.00    -0.220 N 
ATOM     22  N   UNL A   1      34.865  34.245  29.538  1.00  0.00    -0.130 NA
BRANCH  19  23
ATOM     23  C   UNL A   1      35.819  31.139  29.637  1.00  0.00    -0.023 A 
ATOM     24  C   UNL A   1      35.784  31.503  30.982  1.00  0.00     0.007 A 
ATOM     25  C   UNL A   1      36.351  29.874  29.314  1.00  0.00     0.007 A 
ATOM     26  C   UNL A   1      36.422  30.716  31.949  1.00  0.00     0.021 A 
ATOM     27  C   UNL A   1      36.916  29.052  30.292  1.00  0.00     0.021 A 
ATOM     28  C   UNL A   1      36.989  29.497  31.605  1.00  0.00     0.041 A 
ATOM     29  Cl  UNL A   1      37.825  28.548  32.771  1.00  0.00    -0.084 Cl
ENDBRANCH  19  23
ENDBRANCH  10  13
ENDBRANCH   8   9
ENDBRANCH   7   8
ENDBRANCH   4   7
ENDBRANCH   2   3
ENDBRANCH   1   2
BRANCH   1  30
ATOM     30  C   UNL A   1      38.305  34.595  32.978  1.00  0.00     0.023 C 
BRANCH  30  31
ATOM     31  C   UNL A   1      37.840  34.235  31.581  1.00  0.00     0.116 C 
BRANCH  31  32
ATOM     32  N   UNL A   1      38.710  34.769  30.517  1.00  0.00    -0.352 N 
ATOM     33  C   UNL A   1      39.905  34.242  30.054  1.00  0.00     0.251 C 
ATOM     34  H   UNL A   1      38.406  35.600  30.085  1.00  0.00     0.163 HD
ATOM     35  O   UNL A   1      40.696  34.906  29.387  1.00  0.00    -0.269 OA
BRANCH  33  36
ATOM     36  C   UNL A   1      40.180  32.835  30.368  1.00  0.00     0.039 A 
ATOM     37  C   UNL A   1      39.448  31.769  29.840  1.00  0.00     0.014 A 
ATOM     38  C   UNL A   1      41.352  32.625  31.077  1.00  0.00     0.014 A 
ATOM     39  C   UNL A   1      39.984  30.489  29.953  1.00  0.00     0.010 A 
ATOM     40  C   UNL A   1      42.001  31.444  30.893  1.00  0.00     0.010 A 
ATOM     41  C   UNL A   1      41.286  30.342  30.456  1.00  0.00    -0.014 A 
BRANCH  41  42
ATOM     42  C   UNL A   1      41.983  29.065  30.495  1.00  0.00     0.031 A 
ATOM     43  C   UNL A   1      42.567  28.717  31.816  1.00  0.00     0.074 A 
ATOM     44  C   UNL A   1      41.926  28.190  29.462  1.00  0.00     0.049 A 
ATOM     45  N   UNL A   1      43.815  28.739  32.143  1.00  0.00    -0.248 NA
ATOM     46  C   UNL A   1      41.661  28.491  32.954  1.00  0.00     0.031 C 
ATOM     47  C   UNL A   1      41.121  28.260  28.228  1.00  0.00     0.029 A 
ATOM     48  N   UNL A   1      42.484  26.958  29.362  1.00  0.00    -0.354 N 
ATOM     49  C   UNL A   1      43.872  28.274  33.454  1.00  0.00     0.074 A 
ATOM     50  C   UNL A   1      42.528  28.355  33.962  1.00  0.00     0.031 C 
ATOM     51  C   UNL A   1      41.029  27.033  27.671  1.00  0.00     0.029 A 
ATOM     52  C   UNL A   1      41.934  26.150  28.373  1.00  0.00     0.049 A 
ATOM     53  H   UNL A   1      43.220  26.660  29.945  1.00  0.00     0.167 HD
ATOM     54  C   UNL A   1      44.973  27.617  33.916  1.00  0.00     0.034 A 
ATOM     55  C   UNL A   1      42.184  24.833  28.172  1.00  0.00     0.034 A 
ATOM     56  C   UNL A   1      46.075  27.746  32.993  1.00  0.00     0.049 A 
ATOM     57  C   UNL A   1      43.469  24.537  28.837  1.00  0.00     0.074 A 
ATOM     58  C   UNL A   1      46.795  28.803  32.471  1.00  0.00     0.029 A 
ATOM     59  N   UNL A   1      46.290  26.683  32.146  1.00  0.00    -0.354 N 
ATOM     60  N   UNL A   1      44.599  25.055  28.447  1.00  0.00    -0.248 NA
ATOM     61  C   UNL A   1      43.427  24.071  30.214  1.00  0.00     0.031 C 
ATOM     62  C   UNL A   1      46.990  28.463  31.099  1.00  0.00     0.029 A 
ATOM     63  C   UNL A   1      46.459  27.189  30.885  1.00  0.00     0.049 A 
ATOM     64  H   UNL A   1      46.317  25.733  32.401  1.00  0.00     0.167 HD
ATOM     65  C   UNL A   1      45.232  25.413  29.629  1.00  0.00     0.074 A 
ATOM     66  C   UNL A   1      44.516  24.688  30.681  1.00  0.00     0.031 C 
ATOM     67  C   UNL A   1      46.069  26.491  29.681  1.00  0.00     0.034 A 
BRANCH  54  68
ATOM     68  C   UNL A   1      44.984  26.540  34.976  1.00  0.00     0.023 A 
ATOM     69  C   UNL A   1      44.456  25.278  34.612  1.00  0.00     0.012 A 
ATOM     70  C   UNL A   1      45.203  26.768  36.353  1.00  0.00     0.148 A 
ATOM     71  C   UNL A   1      44.102  24.324  35.571  1.00  0.00     0.002 A 
ATOM     72  C   UNL A   1      44.915  25.788  37.298  1.00  0.00     0.091 A 
ATOM     73  F   UNL A   1      45.571  27.977  36.782  1.00  0.00    -0.205 F 
ATOM     74  C   UNL A   1      44.332  24.578  36.916  1.00  0.00     0.022 A 
BRANCH  72  75
ATOM     75  S   UNL A   1      45.226  26.048  39.051  1.00  0.00     0.127 S 
ATOM     76  O   UNL A   1      44.091  26.885  39.428  1.00  0.00    -0.237 OA
ATOM     77  O   UNL A   1      45.186  24.679  39.566  1.00  0.00    -0.237 OA
ATOM     78  O   UNL A   1      46.538  26.676  39.130  1.00  0.00    -0.744 OA
ENDBRANCH  72  75
ENDBRANCH  54  68
BRANCH  55  79
ATOM     79  C   UNL A   1      41.247  23.769  27.754  1.00  0.00     0.023 A 
ATOM     80  C   UNL A   1      39.940  24.081  27.338  1.00  0.00     0.012 A 
ATOM     81  C   UNL A   1      41.744  22.480  27.476  1.00  0.00     0.148 A 
ATOM     82  C   UNL A   1      39.161  23.144  26.643  1.00  0.00     0.002 A 
ATOM     83  C   UNL A   1      40.969  21.558  26.783  1.00  0.00     0.091 A 
ATOM     84  F   UNL A   1      43.010  22.197  27.812  1.00  0.00    -0.205 F 
ATOM     85  C   UNL A   1      39.679  21.886  26.354  1.00  0.00     0.022 A 
BRANCH  83  86
ATOM     86  S   UNL A   1      41.605  19.947  26.346  1.00  0.00     0.127 S 
ATOM     87  O   UNL A   1      40.423  19.309  25.767  1.00  0.00    -0.237 OA
ATOM     88  O   UNL A   1      42.662  20.282  25.397  1.00  0.00    -0.237 OA
ATOM     89  O   UNL A   1      42.055  19.367  27.605  1.00  0.00    -0.744 OA
ENDBRANCH  83  86
ENDBRANCH  55  79
BRANCH  67  90
ATOM     90  C   UNL A   1      46.447  27.160  28.383  1.00  0.00     0.023 A 
ATOM     91  C   UNL A   1      45.704  28.224  27.825  1.00  0.00     0.012 A 
ATOM     92  C   UNL A   1      47.698  26.847  27.835  1.00  0.00     0.148 A 
ATOM     93  C   UNL A   1      46.203  28.957  26.743  1.00  0.00     0.002 A 
ATOM     94  C   UNL A   1      48.213  27.607  26.793  1.00  0.00     0.091 A 
ATOM     95  F   UNL A   1      48.388  25.834  28.382  1.00  0.00    -0.205 F 
ATOM     96  C   UNL A   1      47.466  28.659  26.238  1.00  0.00     0.022 A 
BRANCH  94  97
ATOM     97  S   UNL A   1      49.886  27.363  26.199  1.00  0.00     0.127 S 
ATOM     98  O   UNL A   1      49.816  26.015  25.639  1.00  0.00    -0.237 OA
ATOM     99  O   UNL A   1      50.024  28.431  25.208  1.00  0.00    -0.237 OA
ATOM    100  O   UNL A   1      50.754  27.512  27.360  1.00  0.00    -0.744 OA
ENDBRANCH  94  97
ENDBRANCH  67  90
ENDBRANCH  41  42
ENDBRANCH  33  36
ENDBRANCH  31  32
ENDBRANCH  30  31
ENDBRANCH   1  30
TORSDOF 18
ENDMDL
MODEL 3
REMARK VINA RESULT:     -11.4      3.301      5.889
REMARK SMILES CC1=Nc2nc(NC(=O)CCC(=O)NCCCCNC(=O)c3ccc(-c4c5nc(c(-c6cccc(S(=O)(=O)[O-])c6F)c6ccc([nH]6)c(-c6cccc(S(=O)(=O)[O-])c6F)c6nc(c(-c7cccc(S(=O)(=O)[O-])c7F)c7ccc4[nH]7)C=C6)C=C5)cc3)nn2[C@@H](c2ccc(Cl)cc2)C1
REMARK SMILES IDX 16 1 15 2 14 3 12 4 13 5 11 7 10 8 8 9 7 10 9 12 6 13 1 14
REMARK SMILES IDX 2 15 3 16 95 17 4 18 87 19 5 20 86 21 85 22 88 23 89 24
REMARK SMILES IDX 94 25 90 26 93 27 91 28 92 29 17 30 18 31 19 32 20 33 21 35
REMARK SMILES IDX 22 36 23 37 84 38 24 39 83 40 25 41 26 42 27 43 77 44 28 45
REMARK SMILES IDX 82 46 76 47 78 48 29 49 81 50 75 51 74 52 30 54 62 55 42 56
REMARK SMILES IDX 61 57 43 58 46 59 60 60 79 61 44 62 45 63 59 65 80 66 47 67
REMARK SMILES IDX 31 68 32 69 40 70 33 71 35 72 41 73 34 74 36 75 37 76 38 77
REMARK SMILES IDX 39 78 63 79 64 80 72 81 65 82 67 83 73 84 66 85 68 86 69 87
REMARK SMILES IDX 70 88 71 89 48 90 49 91 57 92 50 93 52 94 58 95 51 96 53 97
REMARK SMILES IDX 54 98 55 99 56 100
REMARK H PARENT 14 6 7 11 19 34 78 53 46 64
REMARK Flexibility Score: inf
ROOT
ATOM      1  C   UNL A   1      37.254  30.805  32.657  1.00  0.00     0.023 C 
ENDROOT
BRANCH   1   2
ATOM      2  C   UNL A   1      38.327  31.075  33.719  1.00  0.00     0.116 C 
BRANCH   2   3
ATOM      3  N   UNL A   1      38.169  30.363  34.971  1.00  0.00    -0.356 N 
ATOM      4  C   UNL A   1      38.171  30.849  36.245  1.00  0.00     0.220 C 
ATOM      5  O   UNL A   1      37.640  30.192  37.134  1.00  0.00    -0.275 OA
ATOM      6  H   UNL A   1      38.044  29.389  34.891  1.00  0.00     0.163 HD
BRANCH   4   7
ATOM      7  C   UNL A   1      38.870  32.132  36.600  1.00  0.00     0.110 C 
BRANCH   7   8
ATOM      8  C   UNL A   1      37.870  33.216  36.990  1.00  0.00     0.110 C 
BRANCH   8   9
ATOM      9  C   UNL A   1      37.124  33.746  35.794  1.00  0.00     0.227 C 
ATOM     10  N   UNL A   1      37.744  34.385  34.773  1.00  0.00    -0.293 N 
ATOM     11  H   UNL A   1      37.136  34.690  34.061  1.00  0.00     0.173 HD
ATOM     12  O   UNL A   1      35.912  33.511  35.683  1.00  0.00    -0.275 OA
BRANCH  10  13
ATOM     13  C   UNL A   1      39.056  34.681  34.552  1.00  0.00     0.250 A 
ATOM     14  C   UNL A   1      43.865  37.776  35.229  1.00  0.00     0.062 C 
ATOM     15  C   UNL A   1      42.867  36.718  34.832  1.00  0.00     0.021 C 
ATOM     16  N   UNL A   1      41.645  36.840  35.241  1.00  0.00    -0.221 NA
ATOM     17  C   UNL A   1      43.389  35.530  34.053  1.00  0.00     0.083 C 
ATOM     18  C   UNL A   1      40.760  35.892  34.865  1.00  0.00     0.250 A 
ATOM     19  C   UNL A   1      42.307  34.762  33.288  1.00  0.00     0.147 C 
ATOM     20  N   UNL A   1      39.590  35.612  35.392  1.00  0.00    -0.174 NA
ATOM     21  N   UNL A   1      40.971  35.026  33.818  1.00  0.00    -0.220 N 
ATOM     22  N   UNL A   1      39.901  34.206  33.637  1.00  0.00    -0.130 NA
BRANCH  19  23
ATOM     23  C   UNL A   1      42.484  34.893  31.788  1.00  0.00    -0.023 A 
ATOM     24  C   UNL A   1      43.458  35.690  31.188  1.00  0.00     0.007 A 
ATOM     25  C   UNL A   1      41.629  34.156  30.943  1.00  0.00     0.007 A 
ATOM     26  C   UNL A   1      43.460  35.888  29.802  1.00  0.00     0.021 A 
ATOM     27  C   UNL A   1      41.685  34.294  29.554  1.00  0.00     0.021 A 
ATOM     28  C   UNL A   1      42.575  35.196  28.988  1.00  0.00     0.041 A 
ATOM     29  Cl  UNL A   1      42.529  35.473  27.291  1.00  0.00    -0.084 Cl
ENDBRANCH  19  23
ENDBRANCH  10  13
ENDBRANCH   8   9
ENDBRANCH   7   8
ENDBRANCH   4   7
ENDBRANCH   2   3
ENDBRANCH   1   2
BRANCH   1  30
ATOM     30  C   UNL A   1      35.933  31.576  32.766  1.00  0.00     0.023 C 
BRANCH  30  31
ATOM     31  C   UNL A   1      35.747  32.621  31.684  1.00  0.00     0.116 C 
BRANCH  31  32
ATOM     32  N   UNL A   1      34.767  32.231  30.654  1.00  0.00    -0.352 N 
ATOM     33  C   UNL A   1      35.019  31.837  29.349  1.00  0.00     0.251 C 
ATOM     34  H   UNL A   1      33.821  32.253  30.925  1.00  0.00     0.163 HD
ATOM     35  O   UNL A   1      34.139  31.823  28.491  1.00  0.00    -0.269 OA
BRANCH  33  36
ATOM     36  C   UNL A   1      36.387  31.406  29.035  1.00  0.00     0.039 A 
ATOM     37  C   UNL A   1      37.501  32.243  29.129  1.00  0.00     0.014 A 
ATOM     38  C   UNL A   1      36.523  30.043  28.824  1.00  0.00     0.014 A 
ATOM     39  C   UNL A   1      38.763  31.654  29.113  1.00  0.00     0.010 A 
ATOM     40  C   UNL A   1      37.717  29.470  29.134  1.00  0.00     0.010 A 
ATOM     41  C   UNL A   1      38.858  30.254  29.148  1.00  0.00    -0.014 A 
BRANCH  41  42
ATOM     42  C   UNL A   1      40.125  29.547  29.263  1.00  0.00     0.031 A 
ATOM     43  C   UNL A   1      40.581  29.316  30.658  1.00  0.00     0.074 A 
ATOM     44  C   UNL A   1      40.725  28.981  28.189  1.00  0.00     0.049 A 
ATOM     45  N   UNL A   1      41.540  29.925  31.271  1.00  0.00    -0.248 NA
ATOM     46  C   UNL A   1      39.781  28.444  31.531  1.00  0.00     0.031 C 
ATOM     47  C   UNL A   1      40.226  28.850  26.806  1.00  0.00     0.029 A 
ATOM     48  N   UNL A   1      41.875  28.266  28.139  1.00  0.00    -0.354 N 
ATOM     49  C   UNL A   1      41.632  29.323  32.523  1.00  0.00     0.074 A 
ATOM     50  C   UNL A   1      40.404  28.595  32.704  1.00  0.00     0.031 C 
ATOM     51  C   UNL A   1      40.914  27.883  26.161  1.00  0.00     0.029 A 
ATOM     52  C   UNL A   1      42.028  27.491  26.994  1.00  0.00     0.049 A 
ATOM     53  H   UNL A   1      42.549  28.293  28.857  1.00  0.00     0.167 HD
ATOM     54  C   UNL A   1      42.821  29.265  33.186  1.00  0.00     0.034 A 
ATOM     55  C   UNL A   1      42.990  26.562  26.768  1.00  0.00     0.034 A 
ATOM     56  C   UNL A   1      43.802  30.119  32.561  1.00  0.00     0.049 A 
ATOM     57  C   UNL A   1      44.099  26.862  27.697  1.00  0.00     0.074 A 
ATOM     58  C   UNL A   1      43.894  31.472  32.297  1.00  0.00     0.029 A 
ATOM     59  N   UNL A   1      44.698  29.505  31.718  1.00  0.00    -0.354 N 
ATOM     60  N   UNL A   1      44.803  27.956  27.621  1.00  0.00    -0.248 NA
ATOM     61  C   UNL A   1      44.099  26.196  28.989  1.00  0.00     0.031 C 
ATOM     62  C   UNL A   1      44.462  31.546  30.991  1.00  0.00     0.029 A 
ATOM     63  C   UNL A   1      44.762  30.248  30.570  1.00  0.00     0.049 A 
ATOM     64  H   UNL A   1      45.201  28.680  31.907  1.00  0.00     0.167 HD
ATOM     65  C   UNL A   1      44.935  28.364  28.941  1.00  0.00     0.074 A 
ATOM     66  C   UNL A   1      44.577  27.191  29.742  1.00  0.00     0.031 C 
ATOM     67  C   UNL A   1      45.020  29.688  29.263  1.00  0.00     0.034 A 
BRANCH  54  68
ATOM     68  C   UNL A   1      43.252  28.177  34.142  1.00  0.00     0.023 A 
ATOM     69  C   UNL A   1      43.599  28.579  35.454  1.00  0.00     0.012 A 
ATOM     70  C   UNL A   1      43.608  26.864  33.762  1.00  0.00     0.148 A 
ATOM     71  C   UNL A   1      44.321  27.745  36.313  1.00  0.00     0.002 A 
ATOM     72  C   UNL A   1      44.264  26.013  34.645  1.00  0.00     0.091 A 
ATOM     73  F   UNL A   1      43.434  26.461  32.501  1.00  0.00    -0.205 F 
ATOM     74  C   UNL A   1      44.653  26.459  35.909  1.00  0.00     0.022 A 
BRANCH  72  75
ATOM     75  S   UNL A   1      44.688  24.325  34.189  1.00  0.00     0.127 S 
ATOM     76  O   UNL A   1      45.359  23.856  35.398  1.00  0.00    -0.237 OA
ATOM     77  O   UNL A   1      43.369  23.742  33.945  1.00  0.00    -0.237 OA
ATOM     78  O   UNL A   1      45.520  24.434  32.998  1.00  0.00    -0.744 OA
ENDBRANCH  72  75
ENDBRANCH  54  68
BRANCH  55  79
ATOM     79  C   UNL A   1      42.875  25.265  26.069  1.00  0.00     0.023 A 
ATOM     80  C   UNL A   1      43.853  24.855  25.144  1.00  0.00     0.012 A 
ATOM     81  C   UNL A   1      41.961  24.302  26.542  1.00  0.00     0.148 A 
ATOM     82  C   UNL A   1      43.934  23.519  24.724  1.00  0.00     0.002 A 
ATOM     83  C   UNL A   1      42.050  22.980  26.125  1.00  0.00     0.091 A 
ATOM     84  F   UNL A   1      41.068  24.671  27.470  1.00  0.00    -0.205 F 
ATOM     85  C   UNL A   1      43.039  22.577  25.224  1.00  0.00     0.022 A 
BRANCH  83  86
ATOM     86  S   UNL A   1      40.956  21.724  26.772  1.00  0.00     0.127 S 
ATOM     87  O   UNL A   1      41.451  20.524  26.098  1.00  0.00    -0.237 OA
ATOM     88  O   UNL A   1      41.226  21.791  28.205  1.00  0.00    -0.237 OA
ATOM     89  O   UNL A   1      39.621  22.143  26.366  1.00  0.00    -0.744 OA
ENDBRANCH  83  86
ENDBRANCH  55  79
BRANCH  67  90
ATOM     90  C   UNL A   1      45.170  30.684  28.141  1.00  0.00     0.023 A 
ATOM     91  C   UNL A   1      44.067  31.305  27.514  1.00  0.00     0.012 A 
ATOM     92  C   UNL A   1      46.461  31.159  27.867  1.00  0.00     0.148 A 
ATOM     93  C   UNL A   1      44.252  32.375  26.633  1.00  0.00     0.002 A 
ATOM     94  C   UNL A   1      46.638  32.254  27.031  1.00  0.00     0.091 A 
ATOM     95  F   UNL A   1      47.494  30.557  28.475  1.00  0.00    -0.205 F 
ATOM     96  C   UNL A   1      45.537  32.861  26.405  1.00  0.00     0.022 A 
BRANCH  94  97
ATOM     97  S   UNL A   1      48.248  33.010  26.813  1.00  0.00     0.127 S 
ATOM     98  O   UNL A   1      48.528  33.522  28.153  1.00  0.00    -0.237 OA
ATOM     99  O   UNL A   1      49.074  31.872  26.407  1.00  0.00    -0.237 OA
ATOM    100  O   UNL A   1      48.082  34.024  25.779  1.00  0.00    -0.744 OA
ENDBRANCH  94  97
ENDBRANCH  67  90
ENDBRANCH  41  42
ENDBRANCH  33  36
ENDBRANCH  31  32
ENDBRANCH  30  31
ENDBRANCH   1  30
TORSDOF 18
ENDMDL
