MODEL 1
REMARK VINA RESULT:     -12.2      0.000      0.000
REMARK SMILES O=C(NCCCCNC(=O)c1ccc(-c2c3nc(c(-c4cccc(S(=O)(=O)[O-])c4F)c4ccc([nH]4)c(-c4cccc(S(=O)(=O)[O-])c4F)c4nc(c(-c5cccc(S(=O)(=O)[O-])c5F)c5ccc2[nH]5)C=C4)C=C3)cc1)c1ccc(N/C=C\C(=O)c2ccco2)cc1
REMARK SMILES IDX 5 1 4 2 3 3 1 4 2 5 74 7 75 8 89 9 76 10 88 11 77 12 78 13
REMARK SMILES IDX 79 15 80 16 81 17 82 18 83 19 84 20 87 21 85 22 86 23 6 24
REMARK SMILES IDX 7 25 8 26 9 27 10 29 11 30 12 31 73 32 13 33 72 34 14 35
REMARK SMILES IDX 15 36 16 37 66 38 17 39 71 40 65 41 67 42 18 43 70 44 64 45
REMARK SMILES IDX 63 46 19 48 51 49 31 50 50 51 32 52 35 53 49 54 68 55 33 56
REMARK SMILES IDX 34 57 48 59 69 60 36 61 20 62 21 63 29 64 22 65 24 66 30 67
REMARK SMILES IDX 23 68 25 69 26 70 27 71 28 72 52 73 53 74 61 75 54 76 56 77
REMARK SMILES IDX 62 78 55 79 57 80 58 81 59 82 60 83 37 84 38 85 46 86 39 87
REMARK SMILES IDX 41 88 47 89 40 90 42 91 43 92 44 93 45 94
REMARK H PARENT 3 6 78 14 8 28 67 47 35 58
REMARK Flexibility Score: inf
ROOT
ATOM      1  C   UNL A   1      30.804  29.467  24.233  1.00  0.00     0.023 C 
ENDROOT
BRANCH   1   2
ATOM      2  C   UNL A   1      30.982  28.482  23.083  1.00  0.00     0.116 C 
BRANCH   2   3
ATOM      3  N   UNL A   1      32.240  28.665  22.379  1.00  0.00    -0.352 N 
ATOM      4  O   UNL A   1      34.396  28.237  21.847  1.00  0.00    -0.269 OA
ATOM      5  C   UNL A   1      33.355  27.868  22.383  1.00  0.00     0.251 C 
ATOM      6  H   UNL A   1      32.299  29.474  21.822  1.00  0.00     0.163 HD
BRANCH   5   7
ATOM      7  C   UNL A   1      33.319  26.562  23.069  1.00  0.00     0.039 A 
ATOM      8  C   UNL A   1      33.574  26.455  24.440  1.00  0.00     0.016 A 
ATOM      9  C   UNL A   1      33.012  25.428  22.322  1.00  0.00     0.016 A 
ATOM     10  C   UNL A   1      33.601  25.196  25.045  1.00  0.00     0.027 A 
ATOM     11  C   UNL A   1      33.015  24.179  22.940  1.00  0.00     0.027 A 
ATOM     12  C   UNL A   1      33.317  24.043  24.308  1.00  0.00     0.038 A 
BRANCH  12  13
ATOM     13  N   UNL A   1      33.406  22.743  24.832  1.00  0.00    -0.362 N 
ATOM     14  H   UNL A   1      32.656  22.466  25.406  1.00  0.00     0.166 HD
BRANCH  13  15
ATOM     15  C   UNL A   1      34.388  21.805  24.658  1.00  0.00     0.087 C 
ATOM     16  C   UNL A   1      34.311  20.467  24.707  1.00  0.00     0.074 C 
BRANCH  16  17
ATOM     17  C   UNL A   1      33.099  19.629  24.952  1.00  0.00     0.222 C 
ATOM     18  O   UNL A   1      32.055  20.222  25.225  1.00  0.00    -0.286 OA
BRANCH  17  19
ATOM     19  C   UNL A   1      33.200  18.187  24.873  1.00  0.00     0.173 A 
ATOM     20  C   UNL A   1      33.777  17.333  23.946  1.00  0.00     0.054 A 
ATOM     21  O   UNL A   1      32.593  17.442  25.848  1.00  0.00    -0.461 OA
ATOM     22  C   UNL A   1      33.464  16.013  24.353  1.00  0.00     0.043 A 
ATOM     23  C   UNL A   1      32.743  16.135  25.516  1.00  0.00     0.196 A 
ENDBRANCH  17  19
ENDBRANCH  16  17
ENDBRANCH  13  15
ENDBRANCH  12  13
ENDBRANCH   5   7
ENDBRANCH   2   3
ENDBRANCH   1   2
BRANCH   1  24
ATOM     24  C   UNL A   1      31.541  29.110  25.524  1.00  0.00     0.023 C 
BRANCH  24  25
ATOM     25  C   UNL A   1      32.810  29.907  25.801  1.00  0.00     0.116 C 
BRANCH  25  26
ATOM     26  N   UNL A   1      32.546  31.256  26.278  1.00  0.00    -0.352 N 
ATOM     27  C   UNL A   1      33.235  32.000  27.206  1.00  0.00     0.251 C 
ATOM     28  H   UNL A   1      31.762  31.699  25.880  1.00  0.00     0.163 HD
ATOM     29  O   UNL A   1      32.790  33.087  27.565  1.00  0.00    -0.269 OA
BRANCH  27  30
ATOM     30  C   UNL A   1      34.490  31.479  27.794  1.00  0.00     0.039 A 
ATOM     31  C   UNL A   1      35.574  32.348  27.944  1.00  0.00     0.014 A 
ATOM     32  C   UNL A   1      34.600  30.147  28.200  1.00  0.00     0.014 A 
ATOM     33  C   UNL A   1      36.746  31.896  28.558  1.00  0.00     0.010 A 
ATOM     34  C   UNL A   1      35.738  29.720  28.880  1.00  0.00     0.010 A 
ATOM     35  C   UNL A   1      36.827  30.587  29.059  1.00  0.00    -0.014 A 
BRANCH  35  36
ATOM     36  C   UNL A   1      38.042  30.106  29.767  1.00  0.00     0.031 A 
ATOM     37  C   UNL A   1      38.361  30.608  31.150  1.00  0.00     0.074 A 
ATOM     38  C   UNL A   1      38.898  29.277  29.139  1.00  0.00     0.049 A 
ATOM     39  N   UNL A   1      39.395  30.343  31.907  1.00  0.00    -0.248 NA
ATOM     40  C   UNL A   1      37.409  31.557  31.753  1.00  0.00     0.031 C 
ATOM     41  C   UNL A   1      38.751  28.786  27.767  1.00  0.00     0.029 A 
ATOM     42  N   UNL A   1      40.080  28.719  29.563  1.00  0.00    -0.354 N 
ATOM     43  C   UNL A   1      39.234  31.107  33.055  1.00  0.00     0.074 A 
ATOM     44  C   UNL A   1      38.025  31.883  32.879  1.00  0.00     0.031 C 
ATOM     45  C   UNL A   1      39.798  28.001  27.464  1.00  0.00     0.029 A 
ATOM     46  C   UNL A   1      40.701  27.946  28.609  1.00  0.00     0.049 A 
ATOM     47  H   UNL A   1      40.448  28.861  30.465  1.00  0.00     0.167 HD
ATOM     48  C   UNL A   1      39.996  31.136  34.175  1.00  0.00     0.034 A 
ATOM     49  C   UNL A   1      41.864  27.266  28.654  1.00  0.00     0.034 A 
ATOM     50  C   UNL A   1      41.171  30.330  34.369  1.00  0.00     0.049 A 
ATOM     51  C   UNL A   1      42.658  27.263  29.933  1.00  0.00     0.074 A 
ATOM     52  C   UNL A   1      41.981  30.242  35.488  1.00  0.00     0.029 A 
ATOM     53  N   UNL A   1      41.701  29.466  33.425  1.00  0.00    -0.354 N 
ATOM     54  N   UNL A   1      42.405  27.876  31.065  1.00  0.00    -0.248 NA
ATOM     55  C   UNL A   1      43.873  26.435  29.960  1.00  0.00     0.031 C 
ATOM     56  C   UNL A   1      43.001  29.323  35.220  1.00  0.00     0.029 A 
ATOM     57  C   UNL A   1      42.818  28.830  33.938  1.00  0.00     0.049 A 
ATOM     58  H   UNL A   1      41.337  29.325  32.521  1.00  0.00     0.167 HD
ATOM     59  C   UNL A   1      43.403  27.477  31.947  1.00  0.00     0.074 A 
ATOM     60  C   UNL A   1      44.251  26.551  31.226  1.00  0.00     0.031 C 
ATOM     61  C   UNL A   1      43.611  27.857  33.232  1.00  0.00     0.034 A 
BRANCH  48  62
ATOM     62  C   UNL A   1      39.534  32.012  35.310  1.00  0.00     0.023 A 
ATOM     63  C   UNL A   1      39.861  33.384  35.293  1.00  0.00     0.012 A 
ATOM     64  C   UNL A   1      38.740  31.505  36.357  1.00  0.00     0.148 A 
ATOM     65  C   UNL A   1      39.438  34.230  36.317  1.00  0.00     0.002 A 
ATOM     66  C   UNL A   1      38.285  32.364  37.351  1.00  0.00     0.091 A 
ATOM     67  F   UNL A   1      38.456  30.195  36.368  1.00  0.00    -0.205 F 
ATOM     68  C   UNL A   1      38.642  33.722  37.339  1.00  0.00     0.022 A 
BRANCH  66  69
ATOM     69  S   UNL A   1      37.193  31.825  38.673  1.00  0.00     0.127 S 
ATOM     70  O   UNL A   1      36.979  30.421  38.325  1.00  0.00    -0.237 OA
ATOM     71  O   UNL A   1      38.019  32.039  39.862  1.00  0.00    -0.237 OA
ATOM     72  O   UNL A   1      36.015  32.676  38.591  1.00  0.00    -0.744 OA
ENDBRANCH  66  69
ENDBRANCH  48  62
BRANCH  49  73
ATOM     73  C   UNL A   1      42.306  26.461  27.481  1.00  0.00     0.023 A 
ATOM     74  C   UNL A   1      43.061  27.079  26.465  1.00  0.00     0.012 A 
ATOM     75  C   UNL A   1      42.000  25.091  27.369  1.00  0.00     0.148 A 
ATOM     76  C   UNL A   1      43.469  26.359  25.341  1.00  0.00     0.002 A 
ATOM     77  C   UNL A   1      42.456  24.367  26.274  1.00  0.00     0.091 A 
ATOM     78  F   UNL A   1      41.268  24.521  28.337  1.00  0.00    -0.205 F 
ATOM     79  C   UNL A   1      43.175  25.002  25.250  1.00  0.00     0.022 A 
BRANCH  77  80
ATOM     80  S   UNL A   1      42.235  22.588  26.149  1.00  0.00     0.127 S 
ATOM     81  O   UNL A   1      40.780  22.469  26.104  1.00  0.00    -0.237 OA
ATOM     82  O   UNL A   1      42.917  22.280  24.890  1.00  0.00    -0.237 OA
ATOM     83  O   UNL A   1      42.887  22.035  27.328  1.00  0.00    -0.744 OA
ENDBRANCH  77  80
ENDBRANCH  49  73
BRANCH  61  84
ATOM     84  C   UNL A   1      44.773  27.238  33.962  1.00  0.00     0.023 A 
ATOM     85  C   UNL A   1      46.042  27.849  33.903  1.00  0.00     0.012 A 
ATOM     86  C   UNL A   1      44.594  26.088  34.755  1.00  0.00     0.148 A 
ATOM     87  C   UNL A   1      47.123  27.304  34.595  1.00  0.00     0.002 A 
ATOM     88  C   UNL A   1      45.666  25.578  35.479  1.00  0.00     0.091 A 
ATOM     89  F   UNL A   1      43.386  25.508  34.782  1.00  0.00    -0.205 F 
ATOM     90  C   UNL A   1      46.933  26.176  35.390  1.00  0.00     0.022 A 
BRANCH  88  91
ATOM     91  S   UNL A   1      45.483  24.184  36.597  1.00  0.00     0.127 S 
ATOM     92  O   UNL A   1      46.844  24.025  37.105  1.00  0.00    -0.237 OA
ATOM     93  O   UNL A   1      44.522  24.691  37.578  1.00  0.00    -0.237 OA
ATOM     94  O   UNL A   1      44.982  23.086  35.781  1.00  0.00    -0.744 OA
ENDBRANCH  88  91
ENDBRANCH  61  84
ENDBRANCH  35  36
ENDBRANCH  27  30
ENDBRANCH  25  26
ENDBRANCH  24  25
ENDBRANCH   1  24
TORSDOF 18
ENDMDL
MODEL 2
REMARK VINA RESULT:     -11.8      5.098     10.005
REMARK SMILES O=C(NCCCCNC(=O)c1ccc(-c2c3nc(c(-c4cccc(S(=O)(=O)[O-])c4F)c4ccc([nH]4)c(-c4cccc(S(=O)(=O)[O-])c4F)c4nc(c(-c5cccc(S(=O)(=O)[O-])c5F)c5ccc2[nH]5)C=C4)C=C3)cc1)c1ccc(N/C=C\C(=O)c2ccco2)cc1
REMARK SMILES IDX 5 1 4 2 3 3 1 4 2 5 74 7 75 8 89 9 76 10 88 11 77 12 78 13
REMARK SMILES IDX 79 15 80 16 81 17 82 18 83 19 84 20 87 21 85 22 86 23 6 24
REMARK SMILES IDX 7 25 8 26 9 27 10 29 11 30 12 31 73 32 13 33 72 34 14 35
REMARK SMILES IDX 15 36 16 37 66 38 17 39 71 40 65 41 67 42 18 43 70 44 64 45
REMARK SMILES IDX 63 46 19 48 51 49 31 50 50 51 32 52 35 53 49 54 68 55 33 56
REMARK SMILES IDX 34 57 48 59 69 60 36 61 20 62 21 63 29 64 22 65 24 66 30 67
REMARK SMILES IDX 23 68 25 69 26 70 27 71 28 72 52 73 53 74 61 75 54 76 56 77
REMARK SMILES IDX 62 78 55 79 57 80 58 81 59 82 60 83 37 84 38 85 46 86 39 87
REMARK SMILES IDX 41 88 47 89 40 90 42 91 43 92 44 93 45 94
REMARK H PARENT 3 6 78 14 8 28 67 47 35 58
REMARK Flexibility Score: inf
ROOT
ATOM      1  C   UNL A   1      35.275  21.821  26.535  1.00  0.00     0.023 C 
ENDROOT
BRANCH   1   2
ATOM      2  C   UNL A   1      33.940  21.445  27.170  1.00  0.00     0.116 C 
BRANCH   2   3
ATOM      3  N   UNL A   1      33.319  20.299  26.530  1.00  0.00    -0.352 N 
ATOM      4  O   UNL A   1      31.961  19.223  25.076  1.00  0.00    -0.269 OA
ATOM      5  C   UNL A   1      32.533  20.257  25.407  1.00  0.00     0.251 C 
ATOM      6  H   UNL A   1      33.484  19.430  26.964  1.00  0.00     0.163 HD
BRANCH   5   7
ATOM      7  C   UNL A   1      32.341  21.479  24.603  1.00  0.00     0.039 A 
ATOM      8  C   UNL A   1      31.350  22.411  24.925  1.00  0.00     0.016 A 
ATOM      9  C   UNL A   1      33.181  21.695  23.514  1.00  0.00     0.016 A 
ATOM     10  C   UNL A   1      31.148  23.523  24.102  1.00  0.00     0.027 A 
ATOM     11  C   UNL A   1      32.990  22.821  22.715  1.00  0.00     0.027 A 
ATOM     12  C   UNL A   1      31.967  23.747  22.991  1.00  0.00     0.038 A 
BRANCH  12  13
ATOM     13  N   UNL A   1      31.770  24.795  22.078  1.00  0.00    -0.362 N 
ATOM     14  H   UNL A   1      30.831  24.980  21.843  1.00  0.00     0.166 HD
BRANCH  13  15
ATOM     15  C   UNL A   1      32.695  25.597  21.467  1.00  0.00     0.087 C 
ATOM     16  C   UNL A   1      33.081  26.845  21.773  1.00  0.00     0.074 C 
BRANCH  16  17
ATOM     17  C   UNL A   1      32.604  27.699  22.902  1.00  0.00     0.222 C 
ATOM     18  O   UNL A   1      32.119  28.793  22.609  1.00  0.00    -0.286 OA
BRANCH  17  19
ATOM     19  C   UNL A   1      32.738  27.224  24.263  1.00  0.00     0.173 A 
ATOM     20  C   UNL A   1      33.640  26.369  24.876  1.00  0.00     0.054 A 
ATOM     21  O   UNL A   1      31.801  27.618  25.180  1.00  0.00    -0.461 OA
ATOM     22  C   UNL A   1      33.200  26.200  26.212  1.00  0.00     0.043 A 
ATOM     23  C   UNL A   1      32.079  26.982  26.346  1.00  0.00     0.196 A 
ENDBRANCH  17  19
ENDBRANCH  16  17
ENDBRANCH  13  15
ENDBRANCH  12  13
ENDBRANCH   5   7
ENDBRANCH   2   3
ENDBRANCH   1   2
BRANCH   1  24
ATOM     24  C   UNL A   1      35.460  23.306  26.223  1.00  0.00     0.023 C 
BRANCH  24  25
ATOM     25  C   UNL A   1      36.855  23.715  25.766  1.00  0.00     0.116 C 
BRANCH  25  26
ATOM     26  N   UNL A   1      37.845  22.663  25.936  1.00  0.00    -0.352 N 
ATOM     27  C   UNL A   1      39.140  22.753  26.387  1.00  0.00     0.251 C 
ATOM     28  H   UNL A   1      37.544  21.757  25.694  1.00  0.00     0.163 HD
ATOM     29  O   UNL A   1      39.865  21.762  26.354  1.00  0.00    -0.269 OA
BRANCH  27  30
ATOM     30  C   UNL A   1      39.668  24.045  26.880  1.00  0.00     0.039 A 
ATOM     31  C   UNL A   1      40.077  25.004  25.948  1.00  0.00     0.014 A 
ATOM     32  C   UNL A   1      39.755  24.317  28.247  1.00  0.00     0.014 A 
ATOM     33  C   UNL A   1      40.514  26.257  26.388  1.00  0.00     0.010 A 
ATOM     34  C   UNL A   1      40.119  25.590  28.680  1.00  0.00     0.010 A 
ATOM     35  C   UNL A   1      40.510  26.571  27.757  1.00  0.00    -0.014 A 
BRANCH  35  36
ATOM     36  C   UNL A   1      40.916  27.917  28.240  1.00  0.00     0.031 A 
ATOM     37  C   UNL A   1      42.373  28.293  28.297  1.00  0.00     0.074 A 
ATOM     38  C   UNL A   1      39.982  28.774  28.697  1.00  0.00     0.049 A 
ATOM     39  N   UNL A   1      42.924  29.397  28.731  1.00  0.00    -0.248 NA
ATOM     40  C   UNL A   1      43.342  27.285  27.833  1.00  0.00     0.031 C 
ATOM     41  C   UNL A   1      38.546  28.498  28.778  1.00  0.00     0.029 A 
ATOM     42  N   UNL A   1      40.103  30.043  29.207  1.00  0.00    -0.354 N 
ATOM     43  C   UNL A   1      44.296  29.209  28.620  1.00  0.00     0.074 A 
ATOM     44  C   UNL A   1      44.497  27.867  28.119  1.00  0.00     0.031 C 
ATOM     45  C   UNL A   1      37.921  29.565  29.303  1.00  0.00     0.029 A 
ATOM     46  C   UNL A   1      38.910  30.593  29.614  1.00  0.00     0.049 A 
ATOM     47  H   UNL A   1      40.965  30.515  29.276  1.00  0.00     0.167 HD
ATOM     48  C   UNL A   1      45.300  30.083  28.871  1.00  0.00     0.034 A 
ATOM     49  C   UNL A   1      38.642  31.791  30.170  1.00  0.00     0.034 A 
ATOM     50  C   UNL A   1      45.098  31.433  29.323  1.00  0.00     0.049 A 
ATOM     51  C   UNL A   1      39.768  32.768  30.377  1.00  0.00     0.074 A 
ATOM     52  C   UNL A   1      46.044  32.417  29.552  1.00  0.00     0.029 A 
ATOM     53  N   UNL A   1      43.863  31.994  29.608  1.00  0.00    -0.354 N 
ATOM     54  N   UNL A   1      41.047  32.621  30.122  1.00  0.00    -0.248 NA
ATOM     55  C   UNL A   1      39.411  34.093  30.905  1.00  0.00     0.031 C 
ATOM     56  C   UNL A   1      45.381  33.573  29.975  1.00  0.00     0.029 A 
ATOM     57  C   UNL A   1      44.020  33.313  29.997  1.00  0.00     0.049 A 
ATOM     58  H   UNL A   1      43.001  31.523  29.543  1.00  0.00     0.167 HD
ATOM     59  C   UNL A   1      41.638  33.845  30.417  1.00  0.00     0.074 A 
ATOM     60  C   UNL A   1      40.574  34.728  30.849  1.00  0.00     0.031 C 
ATOM     61  C   UNL A   1      42.944  34.200  30.356  1.00  0.00     0.034 A 
BRANCH  48  62
ATOM     62  C   UNL A   1      46.707  29.628  28.584  1.00  0.00     0.023 A 
ATOM     63  C   UNL A   1      47.248  29.842  27.299  1.00  0.00     0.012 A 
ATOM     64  C   UNL A   1      47.511  29.043  29.582  1.00  0.00     0.148 A 
ATOM     65  C   UNL A   1      48.551  29.449  26.999  1.00  0.00     0.002 A 
ATOM     66  C   UNL A   1      48.825  28.694  29.288  1.00  0.00     0.091 A 
ATOM     67  F   UNL A   1      46.975  28.828  30.791  1.00  0.00    -0.205 F 
ATOM     68  C   UNL A   1      49.342  28.884  27.996  1.00  0.00     0.022 A 
BRANCH  66  69
ATOM     69  S   UNL A   1      49.950  28.028  30.521  1.00  0.00     0.127 S 
ATOM     70  O   UNL A   1      49.136  26.975  31.126  1.00  0.00    -0.237 OA
ATOM     71  O   UNL A   1      51.059  27.544  29.698  1.00  0.00    -0.237 OA
ATOM     72  O   UNL A   1      50.286  29.141  31.398  1.00  0.00    -0.744 OA
ENDBRANCH  66  69
ENDBRANCH  48  62
BRANCH  49  73
ATOM     73  C   UNL A   1      37.236  32.170  30.490  1.00  0.00     0.023 A 
ATOM     74  C   UNL A   1      36.741  31.944  31.790  1.00  0.00     0.012 A 
ATOM     75  C   UNL A   1      36.395  32.762  29.530  1.00  0.00     0.148 A 
ATOM     76  C   UNL A   1      35.422  32.265  32.115  1.00  0.00     0.002 A 
ATOM     77  C   UNL A   1      35.099  33.128  29.876  1.00  0.00     0.091 A 
ATOM     78  F   UNL A   1      36.877  32.955  28.294  1.00  0.00    -0.205 F 
ATOM     79  C   UNL A   1      34.605  32.865  31.162  1.00  0.00     0.022 A 
BRANCH  77  80
ATOM     80  S   UNL A   1      34.029  34.026  28.746  1.00  0.00     0.127 S 
ATOM     81  O   UNL A   1      34.901  35.111  28.305  1.00  0.00    -0.237 OA
ATOM     82  O   UNL A   1      33.739  33.016  27.727  1.00  0.00    -0.237 OA
ATOM     83  O   UNL A   1      32.873  34.418  29.541  1.00  0.00    -0.744 OA
ENDBRANCH  77  80
ENDBRANCH  49  73
BRANCH  61  84
ATOM     84  C   UNL A   1      43.298  35.618  30.718  1.00  0.00     0.023 A 
ATOM     85  C   UNL A   1      43.632  35.938  32.049  1.00  0.00     0.012 A 
ATOM     86  C   UNL A   1      43.361  36.619  29.730  1.00  0.00     0.148 A 
ATOM     87  C   UNL A   1      43.989  37.240  32.397  1.00  0.00     0.002 A 
ATOM     88  C   UNL A   1      43.761  37.905  30.076  1.00  0.00     0.091 A 
ATOM     89  F   UNL A   1      43.019  36.303  28.472  1.00  0.00    -0.205 F 
ATOM     90  C   UNL A   1      44.063  38.220  31.409  1.00  0.00     0.022 A 
BRANCH  88  91
ATOM     91  S   UNL A   1      43.972  39.200  28.849  1.00  0.00     0.127 S 
ATOM     92  O   UNL A   1      42.604  39.389  28.372  1.00  0.00    -0.237 OA
ATOM     93  O   UNL A   1      44.498  40.308  29.648  1.00  0.00    -0.237 OA
ATOM     94  O   UNL A   1      44.913  38.668  27.871  1.00  0.00    -0.744 OA
ENDBRANCH  88  91
ENDBRANCH  61  84
ENDBRANCH  35  36
ENDBRANCH  27  30
ENDBRANCH  25  26
ENDBRANCH  24  25
ENDBRANCH   1  24
TORSDOF 18
ENDMDL
MODEL 3
REMARK VINA RESULT:     -11.6      5.454      9.047
REMARK SMILES O=C(NCCCCNC(=O)c1ccc(-c2c3nc(c(-c4cccc(S(=O)(=O)[O-])c4F)c4ccc([nH]4)c(-c4cccc(S(=O)(=O)[O-])c4F)c4nc(c(-c5cccc(S(=O)(=O)[O-])c5F)c5ccc2[nH]5)C=C4)C=C3)cc1)c1ccc(N/C=C\C(=O)c2ccco2)cc1
REMARK SMILES IDX 5 1 4 2 3 3 1 4 2 5 74 7 75 8 89 9 76 10 88 11 77 12 78 13
REMARK SMILES IDX 79 15 80 16 81 17 82 18 83 19 84 20 87 21 85 22 86 23 6 24
REMARK SMILES IDX 7 25 8 26 9 27 10 29 11 30 12 31 73 32 13 33 72 34 14 35
REMARK SMILES IDX 15 36 16 37 66 38 17 39 71 40 65 41 67 42 18 43 70 44 64 45
REMARK SMILES IDX 63 46 19 48 51 49 31 50 50 51 32 52 35 53 49 54 68 55 33 56
REMARK SMILES IDX 34 57 48 59 69 60 36 61 20 62 21 63 29 64 22 65 24 66 30 67
REMARK SMILES IDX 23 68 25 69 26 70 27 71 28 72 52 73 53 74 61 75 54 76 56 77
REMARK SMILES IDX 62 78 55 79 57 80 58 81 59 82 60 83 37 84 38 85 46 86 39 87
REMARK SMILES IDX 41 88 47 89 40 90 42 91 43 92 44 93 45 94
REMARK H PARENT 3 6 78 14 8 28 67 47 35 58
REMARK Flexibility Score: inf
ROOT
ATOM      1  C   UNL A   1      37.005  21.347  24.620  1.00  0.00     0.023 C 
ENDROOT
BRANCH   1   2
ATOM      2  C   UNL A   1      35.653  21.364  25.327  1.00  0.00     0.116 C 
BRANCH   2   3
ATOM      3  N   UNL A   1      34.910  20.130  25.142  1.00  0.00    -0.352 N 
ATOM      4  O   UNL A   1      33.071  18.841  24.869  1.00  0.00    -0.269 OA
ATOM      5  C   UNL A   1      33.581  19.957  24.850  1.00  0.00     0.251 C 
ATOM      6  H   UNL A   1      35.432  19.301  25.241  1.00  0.00     0.163 HD
BRANCH   5   7
ATOM      7  C   UNL A   1      32.741  21.131  24.542  1.00  0.00     0.039 A 
ATOM      8  C   UNL A   1      32.747  21.714  23.271  1.00  0.00     0.016 A 
ATOM      9  C   UNL A   1      31.926  21.646  25.547  1.00  0.00     0.016 A 
ATOM     10  C   UNL A   1      31.994  22.867  23.032  1.00  0.00     0.027 A 
ATOM     11  C   UNL A   1      31.158  22.780  25.291  1.00  0.00     0.027 A 
ATOM     12  C   UNL A   1      31.185  23.412  24.034  1.00  0.00     0.038 A 
BRANCH  12  13
ATOM     13  N   UNL A   1      30.469  24.611  23.889  1.00  0.00    -0.362 N 
ATOM     14  H   UNL A   1      29.812  24.624  23.156  1.00  0.00     0.166 HD
BRANCH  13  15
ATOM     15  C   UNL A   1      30.553  25.764  24.621  1.00  0.00     0.087 C 
ATOM     16  C   UNL A   1      30.517  27.041  24.212  1.00  0.00     0.074 C 
BRANCH  16  17
ATOM     17  C   UNL A   1      30.352  27.551  22.818  1.00  0.00     0.222 C 
ATOM     18  O   UNL A   1      31.016  27.000  21.939  1.00  0.00    -0.286 OA
BRANCH  17  19
ATOM     19  C   UNL A   1      29.451  28.655  22.563  1.00  0.00     0.173 A 
ATOM     20  C   UNL A   1      28.219  29.005  23.093  1.00  0.00     0.054 A 
ATOM     21  O   UNL A   1      29.789  29.554  21.587  1.00  0.00    -0.461 OA
ATOM     22  C   UNL A   1      27.770  30.139  22.372  1.00  0.00     0.043 A 
ATOM     23  C   UNL A   1      28.762  30.433  21.469  1.00  0.00     0.196 A 
ENDBRANCH  17  19
ENDBRANCH  16  17
ENDBRANCH  13  15
ENDBRANCH  12  13
ENDBRANCH   5   7
ENDBRANCH   2   3
ENDBRANCH   1   2
BRANCH   1  24
ATOM     24  C   UNL A   1      37.918  20.175  24.976  1.00  0.00     0.023 C 
BRANCH  24  25
ATOM     25  C   UNL A   1      39.185  20.536  25.744  1.00  0.00     0.116 C 
BRANCH  25  26
ATOM     26  N   UNL A   1      40.131  19.435  25.838  1.00  0.00    -0.352 N 
ATOM     27  C   UNL A   1      41.485  19.470  26.074  1.00  0.00     0.251 C 
ATOM     28  H   UNL A   1      39.747  18.537  25.715  1.00  0.00     0.163 HD
ATOM     29  O   UNL A   1      42.141  18.434  26.004  1.00  0.00    -0.269 OA
BRANCH  27  30
ATOM     30  C   UNL A   1      42.154  20.756  26.378  1.00  0.00     0.039 A 
ATOM     31  C   UNL A   1      42.565  21.568  25.317  1.00  0.00     0.014 A 
ATOM     32  C   UNL A   1      42.370  21.165  27.696  1.00  0.00     0.014 A 
ATOM     33  C   UNL A   1      43.136  22.816  25.580  1.00  0.00     0.010 A 
ATOM     34  C   UNL A   1      42.869  22.439  27.955  1.00  0.00     0.010 A 
ATOM     35  C   UNL A   1      43.265  23.275  26.900  1.00  0.00    -0.014 A 
BRANCH  35  36
ATOM     36  C   UNL A   1      43.817  24.623  27.197  1.00  0.00     0.031 A 
ATOM     37  C   UNL A   1      42.920  25.708  27.734  1.00  0.00     0.074 A 
ATOM     38  C   UNL A   1      45.105  24.897  26.914  1.00  0.00     0.049 A 
ATOM     39  N   UNL A   1      43.204  26.954  28.009  1.00  0.00    -0.248 NA
ATOM     40  C   UNL A   1      41.509  25.352  27.967  1.00  0.00     0.031 C 
ATOM     41  C   UNL A   1      46.057  23.962  26.309  1.00  0.00     0.029 A 
ATOM     42  N   UNL A   1      45.833  26.051  27.072  1.00  0.00    -0.354 N 
ATOM     43  C   UNL A   1      42.012  27.537  28.417  1.00  0.00     0.074 A 
ATOM     44  C   UNL A   1      40.988  26.520  28.313  1.00  0.00     0.031 C 
ATOM     45  C   UNL A   1      47.240  24.578  26.150  1.00  0.00     0.029 A 
ATOM     46  C   UNL A   1      47.129  25.955  26.621  1.00  0.00     0.049 A 
ATOM     47  H   UNL A   1      45.460  26.871  27.469  1.00  0.00     0.167 HD
ATOM     48  C   UNL A   1      41.790  28.792  28.877  1.00  0.00     0.034 A 
ATOM     49  C   UNL A   1      48.117  26.871  26.596  1.00  0.00     0.034 A 
ATOM     50  C   UNL A   1      42.815  29.788  29.026  1.00  0.00     0.049 A 
ATOM     51  C   UNL A   1      47.861  28.237  27.174  1.00  0.00     0.074 A 
ATOM     52  C   UNL A   1      42.705  31.070  29.536  1.00  0.00     0.029 A 
ATOM     53  N   UNL A   1      44.144  29.613  28.672  1.00  0.00    -0.354 N 
ATOM     54  N   UNL A   1      46.759  28.720  27.696  1.00  0.00    -0.248 NA
ATOM     55  C   UNL A   1      48.997  29.171  27.202  1.00  0.00     0.031 C 
ATOM     56  C   UNL A   1      43.969  31.670  29.491  1.00  0.00     0.029 A 
ATOM     57  C   UNL A   1      44.867  30.756  28.965  1.00  0.00     0.049 A 
ATOM     58  H   UNL A   1      44.518  28.795  28.272  1.00  0.00     0.167 HD
ATOM     59  C   UNL A   1      47.080  29.994  28.152  1.00  0.00     0.074 A 
ATOM     60  C   UNL A   1      48.484  30.199  27.865  1.00  0.00     0.031 C 
ATOM     61  C   UNL A   1      46.280  30.919  28.738  1.00  0.00     0.034 A 
BRANCH  48  62
ATOM     62  C   UNL A   1      40.393  29.131  29.329  1.00  0.00     0.023 A 
ATOM     63  C   UNL A   1      39.468  29.625  28.385  1.00  0.00     0.012 A 
ATOM     64  C   UNL A   1      39.975  28.916  30.657  1.00  0.00     0.148 A 
ATOM     65  C   UNL A   1      38.162  29.934  28.761  1.00  0.00     0.002 A 
ATOM     66  C   UNL A   1      38.658  29.185  31.014  1.00  0.00     0.091 A 
ATOM     67  F   UNL A   1      40.872  28.465  31.545  1.00  0.00    -0.205 F 
ATOM     68  C   UNL A   1      37.755  29.705  30.072  1.00  0.00     0.022 A 
BRANCH  66  69
ATOM     69  S   UNL A   1      38.013  28.854  32.659  1.00  0.00     0.127 S 
ATOM     70  O   UNL A   1      38.918  29.643  33.495  1.00  0.00    -0.237 OA
ATOM     71  O   UNL A   1      36.652  29.384  32.568  1.00  0.00    -0.237 OA
ATOM     72  O   UNL A   1      38.093  27.412  32.838  1.00  0.00    -0.744 OA
ENDBRANCH  66  69
ENDBRANCH  48  62
BRANCH  49  73
ATOM     73  C   UNL A   1      49.467  26.501  26.083  1.00  0.00     0.023 A 
ATOM     74  C   UNL A   1      50.292  25.660  26.857  1.00  0.00     0.012 A 
ATOM     75  C   UNL A   1      49.933  26.959  24.836  1.00  0.00     0.148 A 
ATOM     76  C   UNL A   1      51.571  25.315  26.416  1.00  0.00     0.002 A 
ATOM     77  C   UNL A   1      51.186  26.567  24.379  1.00  0.00     0.091 A 
ATOM     78  F   UNL A   1      49.142  27.770  24.120  1.00  0.00    -0.205 F 
ATOM     79  C   UNL A   1      52.014  25.761  25.175  1.00  0.00     0.022 A 
BRANCH  77  80
ATOM     80  S   UNL A   1      51.775  26.988  22.735  1.00  0.00     0.127 S 
ATOM     81  O   UNL A   1      52.758  25.936  22.489  1.00  0.00    -0.237 OA
ATOM     82  O   UNL A   1      50.553  26.888  21.935  1.00  0.00    -0.237 OA
ATOM     83  O   UNL A   1      52.301  28.342  22.849  1.00  0.00    -0.744 OA
ENDBRANCH  77  80
ENDBRANCH  49  73
BRANCH  61  84
ATOM     84  C   UNL A   1      46.910  32.221  29.154  1.00  0.00     0.023 A 
ATOM     85  C   UNL A   1      46.934  33.306  28.255  1.00  0.00     0.012 A 
ATOM     86  C   UNL A   1      47.421  32.391  30.455  1.00  0.00     0.148 A 
ATOM     87  C   UNL A   1      47.489  34.528  28.632  1.00  0.00     0.002 A 
ATOM     88  C   UNL A   1      47.932  33.625  30.840  1.00  0.00     0.091 A 
ATOM     89  F   UNL A   1      47.411  31.342  31.291  1.00  0.00    -0.205 F 
ATOM     90  C   UNL A   1      47.978  34.691  29.927  1.00  0.00     0.022 A 
BRANCH  88  91
ATOM     91  S   UNL A   1      48.496  33.944  32.515  1.00  0.00     0.127 S 
ATOM     92  O   UNL A   1      48.920  35.339  32.430  1.00  0.00    -0.237 OA
ATOM     93  O   UNL A   1      47.282  33.722  33.303  1.00  0.00    -0.237 OA
ATOM     94  O   UNL A   1      49.556  32.975  32.765  1.00  0.00    -0.744 OA
ENDBRANCH  88  91
ENDBRANCH  61  84
ENDBRANCH  35  36
ENDBRANCH  27  30
ENDBRANCH  25  26
ENDBRANCH  24  25
ENDBRANCH   1  24
TORSDOF 18
ENDMDL
