MODEL 1
REMARK VINA RESULT:     -12.4      0.000      0.000
REMARK SMILES C[C@@H](C(=O)NCCCCNC(=O)c1ccc(-c2c3nc(c(-c4cccc(S(=O)(=O)[O-])c4F)c4ccc([nH]4)c(-c4cccc(S(=O)(=O)[O-])c4F)c4nc(c(-c5cccc(S(=O)(=O)[O-])c5F)c5ccc2[nH]5)C=C4)C=C3)cc1)c1ccccc1-c1ccn(C(F)F)c(=O)c1
REMARK SMILES IDX 7 1 6 2 5 3 3 4 4 5 2 7 1 8 76 9 77 10 81 11 78 12 80 13
REMARK SMILES IDX 79 14 82 15 83 16 91 17 84 18 89 19 85 20 90 21 86 22 87 23
REMARK SMILES IDX 88 24 8 25 9 26 10 27 11 28 12 30 13 31 14 32 75 33 15 34
REMARK SMILES IDX 74 35 16 36 17 37 18 38 68 39 19 40 73 41 67 42 69 43 20 44
REMARK SMILES IDX 72 45 66 46 65 47 21 49 53 50 33 51 52 52 34 53 37 54 51 55
REMARK SMILES IDX 70 56 35 57 36 58 50 60 71 61 38 62 22 63 23 64 31 65 24 66
REMARK SMILES IDX 26 67 32 68 25 69 27 70 28 71 29 72 30 73 54 74 55 75 63 76
REMARK SMILES IDX 56 77 58 78 64 79 57 80 59 81 60 82 61 83 62 84 39 85 40 86
REMARK SMILES IDX 48 87 41 88 43 89 49 90 42 91 44 92 45 93 46 94 47 95
REMARK H PARENT 5 6 10 29 69 48 37 59
REMARK Flexibility Score: inf
ROOT
ATOM      1  C   UNL A   1      37.784  19.985  24.642  1.00  0.00     0.023 C 
ENDROOT
BRANCH   1   2
ATOM      2  C   UNL A   1      36.304  19.850  25.016  1.00  0.00     0.116 C 
BRANCH   2   3
ATOM      3  N   UNL A   1      35.852  21.008  25.761  1.00  0.00    -0.356 N 
ATOM      4  C   UNL A   1      35.409  22.225  25.323  1.00  0.00     0.227 C 
ATOM      5  O   UNL A   1      35.204  23.085  26.183  1.00  0.00    -0.274 OA
ATOM      6  H   UNL A   1      35.868  20.901  26.740  1.00  0.00     0.163 HD
BRANCH   4   7
ATOM      7  C   UNL A   1      35.102  22.458  23.826  1.00  0.00     0.106 C 
ATOM      8  C   UNL A   1      36.216  23.220  23.118  1.00  0.00     0.023 C 
BRANCH   7   9
ATOM      9  C   UNL A   1      33.667  22.997  23.613  1.00  0.00    -0.028 A 
ATOM     10  C   UNL A   1      33.584  24.387  23.353  1.00  0.00     0.005 A 
ATOM     11  C   UNL A   1      32.456  22.256  23.605  1.00  0.00    -0.014 A 
ATOM     12  C   UNL A   1      32.367  25.025  23.116  1.00  0.00     0.000 A 
ATOM     13  C   UNL A   1      31.233  22.922  23.389  1.00  0.00     0.009 A 
ATOM     14  C   UNL A   1      31.188  24.294  23.144  1.00  0.00     0.001 A 
BRANCH  11  15
ATOM     15  C   UNL A   1      32.363  20.793  23.792  1.00  0.00    -0.011 A 
ATOM     16  C   UNL A   1      32.442  20.158  25.097  1.00  0.00     0.027 A 
ATOM     17  C   UNL A   1      32.271  20.023  22.695  1.00  0.00     0.080 A 
ATOM     18  C   UNL A   1      32.711  18.850  25.186  1.00  0.00     0.095 A 
ATOM     19  C   UNL A   1      32.400  18.543  22.801  1.00  0.00     0.255 A 
ATOM     20  N   UNL A   1      32.776  18.066  24.050  1.00  0.00    -0.258 N 
ATOM     21  O   UNL A   1      32.222  17.854  21.803  1.00  0.00    -0.269 OA
BRANCH  20  22
ATOM     22  C   UNL A   1      33.188  16.689  24.131  1.00  0.00     0.451 C 
ATOM     23  F   UNL A   1      34.192  16.424  23.263  1.00  0.00    -0.185 F 
ATOM     24  F   UNL A   1      33.608  16.368  25.379  1.00  0.00    -0.185 F 
ENDBRANCH  20  22
ENDBRANCH  11  15
ENDBRANCH   7   9
ENDBRANCH   4   7
ENDBRANCH   2   3
ENDBRANCH   1   2
BRANCH   1  25
ATOM     25  C   UNL A   1      38.491  21.180  25.279  1.00  0.00     0.023 C 
BRANCH  25  26
ATOM     26  C   UNL A   1      39.439  20.822  26.414  1.00  0.00     0.116 C 
BRANCH  26  27
ATOM     27  N   UNL A   1      40.241  19.634  26.148  1.00  0.00    -0.352 N 
ATOM     28  C   UNL A   1      41.617  19.544  26.099  1.00  0.00     0.251 C 
ATOM     29  H   UNL A   1      39.744  18.801  25.984  1.00  0.00     0.163 HD
ATOM     30  O   UNL A   1      42.170  18.506  25.776  1.00  0.00    -0.269 OA
BRANCH  28  31
ATOM     31  C   UNL A   1      42.398  20.759  26.410  1.00  0.00     0.039 A 
ATOM     32  C   UNL A   1      42.773  21.609  25.369  1.00  0.00     0.014 A 
ATOM     33  C   UNL A   1      42.642  21.101  27.741  1.00  0.00     0.014 A 
ATOM     34  C   UNL A   1      43.328  22.854  25.670  1.00  0.00     0.010 A 
ATOM     35  C   UNL A   1      43.122  22.369  28.038  1.00  0.00     0.010 A 
ATOM     36  C   UNL A   1      43.465  23.259  27.007  1.00  0.00    -0.014 A 
BRANCH  36  37
ATOM     37  C   UNL A   1      43.949  24.611  27.377  1.00  0.00     0.031 A 
ATOM     38  C   UNL A   1      42.970  25.633  27.882  1.00  0.00     0.074 A 
ATOM     39  C   UNL A   1      45.221  24.964  27.108  1.00  0.00     0.049 A 
ATOM     40  N   UNL A   1      43.145  26.911  28.091  1.00  0.00    -0.248 NA
ATOM     41  C   UNL A   1      41.600  25.163  28.141  1.00  0.00     0.031 C 
ATOM     42  C   UNL A   1      46.239  24.087  26.525  1.00  0.00     0.029 A 
ATOM     43  N   UNL A   1      45.860  26.173  27.240  1.00  0.00    -0.354 N 
ATOM     44  C   UNL A   1      41.898  27.408  28.445  1.00  0.00     0.074 A 
ATOM     45  C   UNL A   1      40.970  26.300  28.399  1.00  0.00     0.031 C 
ATOM     46  C   UNL A   1      47.365  24.791  26.330  1.00  0.00     0.029 A 
ATOM     47  C   UNL A   1      47.143  26.173  26.743  1.00  0.00     0.049 A 
ATOM     48  H   UNL A   1      45.440  26.963  27.650  1.00  0.00     0.167 HD
ATOM     49  C   UNL A   1      41.560  28.669  28.802  1.00  0.00     0.034 A 
ATOM     50  C   UNL A   1      48.033  27.178  26.614  1.00  0.00     0.034 A 
ATOM     51  C   UNL A   1      42.501  29.748  28.916  1.00  0.00     0.049 A 
ATOM     52  C   UNL A   1      47.661  28.552  27.100  1.00  0.00     0.074 A 
ATOM     53  C   UNL A   1      42.288  31.027  29.396  1.00  0.00     0.029 A 
ATOM     54  N   UNL A   1      43.833  29.675  28.540  1.00  0.00    -0.354 N 
ATOM     55  N   UNL A   1      46.524  28.965  27.605  1.00  0.00    -0.248 NA
ATOM     56  C   UNL A   1      48.701  29.589  27.033  1.00  0.00     0.031 C 
ATOM     57  C   UNL A   1      43.491  31.734  29.300  1.00  0.00     0.029 A 
ATOM     58  C   UNL A   1      44.456  30.889  28.771  1.00  0.00     0.049 A 
ATOM     59  H   UNL A   1      44.272  28.879  28.165  1.00  0.00     0.167 HD
ATOM     60  C   UNL A   1      46.718  30.298  27.947  1.00  0.00     0.074 A 
ATOM     61  C   UNL A   1      48.089  30.620  27.603  1.00  0.00     0.031 C 
ATOM     62  C   UNL A   1      45.837  31.178  28.483  1.00  0.00     0.034 A 
BRANCH  49  63
ATOM     63  C   UNL A   1      40.119  28.928  29.154  1.00  0.00     0.023 A 
ATOM     64  C   UNL A   1      39.170  29.089  28.123  1.00  0.00     0.012 A 
ATOM     65  C   UNL A   1      39.698  28.987  30.495  1.00  0.00     0.148 A 
ATOM     66  C   UNL A   1      37.833  29.345  28.422  1.00  0.00     0.002 A 
ATOM     67  C   UNL A   1      38.356  29.200  30.786  1.00  0.00     0.091 A 
ATOM     68  F   UNL A   1      40.617  28.862  31.464  1.00  0.00    -0.205 F 
ATOM     69  C   UNL A   1      37.424  29.392  29.753  1.00  0.00     0.022 A 
BRANCH  67  70
ATOM     70  S   UNL A   1      37.729  29.196  32.470  1.00  0.00     0.127 S 
ATOM     71  O   UNL A   1      36.373  29.709  32.282  1.00  0.00    -0.237 OA
ATOM     72  O   UNL A   1      37.800  27.780  32.829  1.00  0.00    -0.237 OA
ATOM     73  O   UNL A   1      38.632  30.053  33.227  1.00  0.00    -0.744 OA
ENDBRANCH  67  70
ENDBRANCH  49  63
BRANCH  50  74
ATOM     74  C   UNL A   1      49.383  26.893  26.053  1.00  0.00     0.023 A 
ATOM     75  C   UNL A   1      50.305  26.151  26.816  1.00  0.00     0.012 A 
ATOM     76  C   UNL A   1      49.729  27.287  24.745  1.00  0.00     0.148 A 
ATOM     77  C   UNL A   1      51.558  25.824  26.296  1.00  0.00     0.002 A 
ATOM     78  C   UNL A   1      50.959  26.912  24.214  1.00  0.00     0.091 A 
ATOM     79  F   UNL A   1      48.840  27.999  24.041  1.00  0.00    -0.205 F 
ATOM     80  C   UNL A   1      51.879  26.193  24.992  1.00  0.00     0.022 A 
BRANCH  78  81
ATOM     81  S   UNL A   1      51.405  27.224  22.502  1.00  0.00     0.127 S 
ATOM     82  O   UNL A   1      52.619  26.425  22.361  1.00  0.00    -0.237 OA
ATOM     83  O   UNL A   1      50.238  26.704  21.789  1.00  0.00    -0.237 OA
ATOM     84  O   UNL A   1      51.580  28.666  22.399  1.00  0.00    -0.744 OA
ENDBRANCH  78  81
ENDBRANCH  50  74
BRANCH  62  85
ATOM     85  C   UNL A   1      46.321  32.573  28.773  1.00  0.00     0.023 A 
ATOM     86  C   UNL A   1      46.907  32.863  30.019  1.00  0.00     0.012 A 
ATOM     87  C   UNL A   1      46.303  33.559  27.767  1.00  0.00     0.148 A 
ATOM     88  C   UNL A   1      47.456  34.121  30.267  1.00  0.00     0.002 A 
ATOM     89  C   UNL A   1      46.892  34.796  28.006  1.00  0.00     0.091 A 
ATOM     90  F   UNL A   1      45.724  33.266  26.593  1.00  0.00    -0.205 F 
ATOM     91  C   UNL A   1      47.461  35.081  29.257  1.00  0.00     0.022 A 
BRANCH  89  92
ATOM     92  S   UNL A   1      47.031  36.057  26.734  1.00  0.00     0.127 S 
ATOM     93  O   UNL A   1      47.519  35.280  25.596  1.00  0.00    -0.237 OA
ATOM     94  O   UNL A   1      45.651  36.525  26.607  1.00  0.00    -0.237 OA
ATOM     95  O   UNL A   1      47.960  37.051  27.253  1.00  0.00    -0.744 OA
ENDBRANCH  89  92
ENDBRANCH  62  85
ENDBRANCH  36  37
ENDBRANCH  28  31
ENDBRANCH  26  27
ENDBRANCH  25  26
ENDBRANCH   1  25
TORSDOF 17
ENDMDL
MODEL 2
REMARK VINA RESULT:     -12.2      6.702     12.242
REMARK SMILES C[C@@H](C(=O)NCCCCNC(=O)c1ccc(-c2c3nc(c(-c4cccc(S(=O)(=O)[O-])c4F)c4ccc([nH]4)c(-c4cccc(S(=O)(=O)[O-])c4F)c4nc(c(-c5cccc(S(=O)(=O)[O-])c5F)c5ccc2[nH]5)C=C4)C=C3)cc1)c1ccccc1-c1ccn(C(F)F)c(=O)c1
REMARK SMILES IDX 7 1 6 2 5 3 3 4 4 5 2 7 1 8 76 9 77 10 81 11 78 12 80 13
REMARK SMILES IDX 79 14 82 15 83 16 91 17 84 18 89 19 85 20 90 21 86 22 87 23
REMARK SMILES IDX 88 24 8 25 9 26 10 27 11 28 12 30 13 31 14 32 75 33 15 34
REMARK SMILES IDX 74 35 16 36 17 37 18 38 68 39 19 40 73 41 67 42 69 43 20 44
REMARK SMILES IDX 72 45 66 46 65 47 21 49 53 50 33 51 52 52 34 53 37 54 51 55
REMARK SMILES IDX 70 56 35 57 36 58 50 60 71 61 38 62 22 63 23 64 31 65 24 66
REMARK SMILES IDX 26 67 32 68 25 69 27 70 28 71 29 72 30 73 54 74 55 75 63 76
REMARK SMILES IDX 56 77 58 78 64 79 57 80 59 81 60 82 61 83 62 84 39 85 40 86
REMARK SMILES IDX 48 87 41 88 43 89 49 90 42 91 44 92 45 93 46 94 47 95
REMARK H PARENT 5 6 10 29 69 48 37 59
REMARK Flexibility Score: inf
ROOT
ATOM      1  C   UNL A   1      31.638  31.162  26.721  1.00  0.00     0.023 C 
ENDROOT
BRANCH   1   2
ATOM      2  C   UNL A   1      31.395  30.593  25.318  1.00  0.00     0.116 C 
BRANCH   2   3
ATOM      3  N   UNL A   1      32.468  29.699  24.932  1.00  0.00    -0.356 N 
ATOM      4  C   UNL A   1      32.678  28.383  25.236  1.00  0.00     0.227 C 
ATOM      5  O   UNL A   1      33.750  27.893  24.875  1.00  0.00    -0.274 OA
ATOM      6  H   UNL A   1      33.158  30.107  24.357  1.00  0.00     0.163 HD
BRANCH   4   7
ATOM      7  C   UNL A   1      31.571  27.549  25.921  1.00  0.00     0.106 C 
ATOM      8  C   UNL A   1      31.825  27.363  27.413  1.00  0.00     0.023 C 
BRANCH   7   9
ATOM      9  C   UNL A   1      31.244  26.266  25.123  1.00  0.00    -0.028 A 
ATOM     10  C   UNL A   1      31.748  25.067  25.686  1.00  0.00     0.005 A 
ATOM     11  C   UNL A   1      30.473  26.157  23.936  1.00  0.00    -0.014 A 
ATOM     12  C   UNL A   1      31.522  23.821  25.101  1.00  0.00     0.000 A 
ATOM     13  C   UNL A   1      30.276  24.892  23.346  1.00  0.00     0.009 A 
ATOM     14  C   UNL A   1      30.793  23.734  23.924  1.00  0.00     0.001 A 
BRANCH  11  15
ATOM     15  C   UNL A   1      29.818  27.291  23.250  1.00  0.00    -0.011 A 
ATOM     16  C   UNL A   1      30.534  28.199  22.369  1.00  0.00     0.027 A 
ATOM     17  C   UNL A   1      28.521  27.523  23.516  1.00  0.00     0.080 A 
ATOM     18  C   UNL A   1      30.002  29.390  22.067  1.00  0.00     0.095 A 
ATOM     19  C   UNL A   1      27.867  28.773  23.036  1.00  0.00     0.255 A 
ATOM     20  N   UNL A   1      28.719  29.710  22.468  1.00  0.00    -0.258 N 
ATOM     21  O   UNL A   1      26.663  28.922  23.210  1.00  0.00    -0.269 OA
BRANCH  20  22
ATOM     22  C   UNL A   1      28.192  31.033  22.253  1.00  0.00     0.451 C 
ATOM     23  F   UNL A   1      27.341  31.059  21.202  1.00  0.00    -0.185 F 
ATOM     24  F   UNL A   1      27.533  31.489  23.346  1.00  0.00    -0.185 F 
ENDBRANCH  20  22
ENDBRANCH  11  15
ENDBRANCH   7   9
ENDBRANCH   4   7
ENDBRANCH   2   3
ENDBRANCH   1   2
BRANCH   1  25
ATOM     25  C   UNL A   1      31.545  32.684  26.811  1.00  0.00     0.023 C 
BRANCH  25  26
ATOM     26  C   UNL A   1      32.828  33.371  27.256  1.00  0.00     0.116 C 
BRANCH  26  27
ATOM     27  N   UNL A   1      32.598  34.563  28.064  1.00  0.00    -0.352 N 
ATOM     28  C   UNL A   1      33.319  34.984  29.161  1.00  0.00     0.251 C 
ATOM     29  H   UNL A   1      31.842  35.132  27.794  1.00  0.00     0.163 HD
ATOM     30  O   UNL A   1      32.970  35.957  29.810  1.00  0.00    -0.269 OA
BRANCH  28  31
ATOM     31  C   UNL A   1      34.504  34.194  29.552  1.00  0.00     0.039 A 
ATOM     32  C   UNL A   1      35.751  34.534  29.026  1.00  0.00     0.014 A 
ATOM     33  C   UNL A   1      34.383  33.204  30.529  1.00  0.00     0.014 A 
ATOM     34  C   UNL A   1      36.899  33.930  29.542  1.00  0.00     0.010 A 
ATOM     35  C   UNL A   1      35.529  32.664  31.094  1.00  0.00     0.010 A 
ATOM     36  C   UNL A   1      36.797  33.024  30.610  1.00  0.00    -0.014 A 
BRANCH  36  37
ATOM     37  C   UNL A   1      37.993  32.437  31.263  1.00  0.00     0.031 A 
ATOM     38  C   UNL A   1      38.701  31.285  30.609  1.00  0.00     0.074 A 
ATOM     39  C   UNL A   1      38.338  32.830  32.505  1.00  0.00     0.049 A 
ATOM     40  N   UNL A   1      39.645  30.518  31.087  1.00  0.00    -0.248 NA
ATOM     41  C   UNL A   1      38.254  30.917  29.256  1.00  0.00     0.031 C 
ATOM     42  C   UNL A   1      37.664  33.873  33.282  1.00  0.00     0.029 A 
ATOM     43  N   UNL A   1      39.311  32.360  33.353  1.00  0.00    -0.354 N 
ATOM     44  C   UNL A   1      39.862  29.544  30.122  1.00  0.00     0.074 A 
ATOM     45  C   UNL A   1      38.934  29.801  29.042  1.00  0.00     0.031 C 
ATOM     46  C   UNL A   1      38.228  33.947  34.498  1.00  0.00     0.029 A 
ATOM     47  C   UNL A   1      39.280  32.940  34.599  1.00  0.00     0.049 A 
ATOM     48  H   UNL A   1      39.965  31.672  33.094  1.00  0.00     0.167 HD
ATOM     49  C   UNL A   1      40.769  28.540  30.121  1.00  0.00     0.034 A 
ATOM     50  C   UNL A   1      40.003  32.678  35.707  1.00  0.00     0.034 A 
ATOM     51  C   UNL A   1      41.736  28.334  31.164  1.00  0.00     0.049 A 
ATOM     52  C   UNL A   1      41.065  31.615  35.652  1.00  0.00     0.074 A 
ATOM     53  C   UNL A   1      42.784  27.433  31.200  1.00  0.00     0.029 A 
ATOM     54  N   UNL A   1      41.771  29.040  32.357  1.00  0.00    -0.354 N 
ATOM     55  N   UNL A   1      41.381  30.818  34.661  1.00  0.00    -0.248 NA
ATOM     56  C   UNL A   1      41.896  31.437  36.852  1.00  0.00     0.031 C 
ATOM     57  C   UNL A   1      43.446  27.584  32.422  1.00  0.00     0.029 A 
ATOM     58  C   UNL A   1      42.818  28.590  33.141  1.00  0.00     0.049 A 
ATOM     59  H   UNL A   1      41.143  29.755  32.609  1.00  0.00     0.167 HD
ATOM     60  C   UNL A   1      42.464  30.067  35.101  1.00  0.00     0.074 A 
ATOM     61  C   UNL A   1      42.761  30.515  36.446  1.00  0.00     0.031 C 
ATOM     62  C   UNL A   1      43.141  29.087  34.454  1.00  0.00     0.034 A 
BRANCH  49  63
ATOM     63  C   UNL A   1      40.794  27.626  28.925  1.00  0.00     0.023 A 
ATOM     64  C   UNL A   1      39.832  26.601  28.814  1.00  0.00     0.012 A 
ATOM     65  C   UNL A   1      41.745  27.794  27.902  1.00  0.00     0.148 A 
ATOM     66  C   UNL A   1      39.843  25.732  27.724  1.00  0.00     0.002 A 
ATOM     67  C   UNL A   1      41.723  26.951  26.797  1.00  0.00     0.091 A 
ATOM     68  F   UNL A   1      42.672  28.755  28.036  1.00  0.00    -0.205 F 
ATOM     69  C   UNL A   1      40.782  25.912  26.712  1.00  0.00     0.022 A 
BRANCH  67  70
ATOM     70  S   UNL A   1      42.845  27.162  25.410  1.00  0.00     0.127 S 
ATOM     71  O   UNL A   1      42.259  28.314  24.727  1.00  0.00    -0.237 OA
ATOM     72  O   UNL A   1      44.120  27.432  26.075  1.00  0.00    -0.237 OA
ATOM     73  O   UNL A   1      42.806  25.903  24.678  1.00  0.00    -0.744 OA
ENDBRANCH  67  70
ENDBRANCH  49  63
BRANCH  50  74
ATOM     74  C   UNL A   1      39.777  33.486  36.938  1.00  0.00     0.023 A 
ATOM     75  C   UNL A   1      40.187  34.833  36.964  1.00  0.00     0.012 A 
ATOM     76  C   UNL A   1      39.096  32.952  38.049  1.00  0.00     0.148 A 
ATOM     77  C   UNL A   1      39.942  35.629  38.083  1.00  0.00     0.002 A 
ATOM     78  C   UNL A   1      38.809  33.765  39.139  1.00  0.00     0.091 A 
ATOM     79  F   UNL A   1      38.723  31.666  38.005  1.00  0.00    -0.205 F 
ATOM     80  C   UNL A   1      39.242  35.100  39.165  1.00  0.00     0.022 A 
BRANCH  78  81
ATOM     81  S   UNL A   1      37.797  33.211  40.516  1.00  0.00     0.127 S 
ATOM     82  O   UNL A   1      38.028  34.266  41.499  1.00  0.00    -0.237 OA
ATOM     83  O   UNL A   1      36.460  33.204  39.921  1.00  0.00    -0.237 OA
ATOM     84  O   UNL A   1      38.304  31.892  40.870  1.00  0.00    -0.744 OA
ENDBRANCH  78  81
ENDBRANCH  50  74
BRANCH  62  85
ATOM     85  C   UNL A   1      44.300  28.442  35.165  1.00  0.00     0.023 A 
ATOM     86  C   UNL A   1      45.604  28.931  34.960  1.00  0.00     0.012 A 
ATOM     87  C   UNL A   1      44.079  27.434  36.124  1.00  0.00     0.148 A 
ATOM     88  C   UNL A   1      46.675  28.416  35.690  1.00  0.00     0.002 A 
ATOM     89  C   UNL A   1      45.144  26.957  36.879  1.00  0.00     0.091 A 
ATOM     90  F   UNL A   1      42.831  26.971  36.290  1.00  0.00    -0.205 F 
ATOM     91  C   UNL A   1      46.443  27.441  36.658  1.00  0.00     0.022 A 
BRANCH  89  92
ATOM     92  S   UNL A   1      44.925  25.773  38.213  1.00  0.00     0.127 S 
ATOM     93  O   UNL A   1      43.960  26.463  39.067  1.00  0.00    -0.237 OA
ATOM     94  O   UNL A   1      44.393  24.606  37.509  1.00  0.00    -0.237 OA
ATOM     95  O   UNL A   1      46.245  25.576  38.796  1.00  0.00    -0.744 OA
ENDBRANCH  89  92
ENDBRANCH  62  85
ENDBRANCH  36  37
ENDBRANCH  28  31
ENDBRANCH  26  27
ENDBRANCH  25  26
ENDBRANCH   1  25
TORSDOF 17
ENDMDL
MODEL 3
REMARK VINA RESULT:     -12.2      6.641     10.240
REMARK SMILES C[C@@H](C(=O)NCCCCNC(=O)c1ccc(-c2c3nc(c(-c4cccc(S(=O)(=O)[O-])c4F)c4ccc([nH]4)c(-c4cccc(S(=O)(=O)[O-])c4F)c4nc(c(-c5cccc(S(=O)(=O)[O-])c5F)c5ccc2[nH]5)C=C4)C=C3)cc1)c1ccccc1-c1ccn(C(F)F)c(=O)c1
REMARK SMILES IDX 7 1 6 2 5 3 3 4 4 5 2 7 1 8 76 9 77 10 81 11 78 12 80 13
REMARK SMILES IDX 79 14 82 15 83 16 91 17 84 18 89 19 85 20 90 21 86 22 87 23
REMARK SMILES IDX 88 24 8 25 9 26 10 27 11 28 12 30 13 31 14 32 75 33 15 34
REMARK SMILES IDX 74 35 16 36 17 37 18 38 68 39 19 40 73 41 67 42 69 43 20 44
REMARK SMILES IDX 72 45 66 46 65 47 21 49 53 50 33 51 52 52 34 53 37 54 51 55
REMARK SMILES IDX 70 56 35 57 36 58 50 60 71 61 38 62 22 63 23 64 31 65 24 66
REMARK SMILES IDX 26 67 32 68 25 69 27 70 28 71 29 72 30 73 54 74 55 75 63 76
REMARK SMILES IDX 56 77 58 78 64 79 57 80 59 81 60 82 61 83 62 84 39 85 40 86
REMARK SMILES IDX 48 87 41 88 43 89 49 90 42 91 44 92 45 93 46 94 47 95
REMARK H PARENT 5 6 10 29 69 48 37 59
REMARK Flexibility Score: inf
ROOT
ATOM      1  C   UNL A   1      31.474  30.845  26.647  1.00  0.00     0.023 C 
ENDROOT
BRANCH   1   2
ATOM      2  C   UNL A   1      31.405  30.450  25.168  1.00  0.00     0.116 C 
BRANCH   2   3
ATOM      3  N   UNL A   1      32.504  29.571  24.818  1.00  0.00    -0.356 N 
ATOM      4  C   UNL A   1      32.750  28.275  25.177  1.00  0.00     0.227 C 
ATOM      5  O   UNL A   1      33.836  27.801  24.836  1.00  0.00    -0.274 OA
ATOM      6  H   UNL A   1      33.182  29.974  24.228  1.00  0.00     0.163 HD
BRANCH   4   7
ATOM      7  C   UNL A   1      31.667  27.440  25.896  1.00  0.00     0.106 C 
ATOM      8  C   UNL A   1      31.952  27.280  27.385  1.00  0.00     0.023 C 
BRANCH   7   9
ATOM      9  C   UNL A   1      31.340  26.140  25.124  1.00  0.00    -0.028 A 
ATOM     10  C   UNL A   1      31.874  24.957  25.693  1.00  0.00     0.005 A 
ATOM     11  C   UNL A   1      30.542  26.002  23.958  1.00  0.00    -0.014 A 
ATOM     12  C   UNL A   1      31.653  23.699  25.131  1.00  0.00     0.000 A 
ATOM     13  C   UNL A   1      30.350  24.726  23.391  1.00  0.00     0.009 A 
ATOM     14  C   UNL A   1      30.898  23.584  23.973  1.00  0.00     0.001 A 
BRANCH  11  15
ATOM     15  C   UNL A   1      29.855  27.117  23.272  1.00  0.00    -0.011 A 
ATOM     16  C   UNL A   1      30.532  28.010  22.346  1.00  0.00     0.027 A 
ATOM     17  C   UNL A   1      28.567  27.345  23.578  1.00  0.00     0.080 A 
ATOM     18  C   UNL A   1      29.980  29.190  22.037  1.00  0.00     0.095 A 
ATOM     19  C   UNL A   1      27.886  28.580  23.096  1.00  0.00     0.255 A 
ATOM     20  N   UNL A   1      28.710  29.510  22.477  1.00  0.00    -0.258 N 
ATOM     21  O   UNL A   1      26.688  28.724  23.309  1.00  0.00    -0.269 OA
BRANCH  20  22
ATOM     22  C   UNL A   1      28.166  30.824  22.253  1.00  0.00     0.451 C 
ATOM     23  F   UNL A   1      29.127  31.774  22.326  1.00  0.00    -0.185 F 
ATOM     24  F   UNL A   1      27.569  30.915  21.040  1.00  0.00    -0.185 F 
ENDBRANCH  20  22
ENDBRANCH  11  15
ENDBRANCH   7   9
ENDBRANCH   4   7
ENDBRANCH   2   3
ENDBRANCH   1   2
BRANCH   1  25
ATOM     25  C   UNL A   1      31.385  32.348  26.906  1.00  0.00     0.023 C 
BRANCH  25  26
ATOM     26  C   UNL A   1      32.727  33.062  26.952  1.00  0.00     0.116 C 
BRANCH  26  27
ATOM     27  N   UNL A   1      32.706  34.286  27.745  1.00  0.00    -0.352 N 
ATOM     28  C   UNL A   1      33.552  34.631  28.778  1.00  0.00     0.251 C 
ATOM     29  H   UNL A   1      32.008  34.941  27.516  1.00  0.00     0.163 HD
ATOM     30  O   UNL A   1      33.374  35.649  29.426  1.00  0.00    -0.269 OA
BRANCH  28  31
ATOM     31  C   UNL A   1      34.656  33.704  29.103  1.00  0.00     0.039 A 
ATOM     32  C   UNL A   1      35.972  34.111  28.878  1.00  0.00     0.014 A 
ATOM     33  C   UNL A   1      34.377  32.494  29.740  1.00  0.00     0.014 A 
ATOM     34  C   UNL A   1      37.021  33.332  29.368  1.00  0.00     0.010 A 
ATOM     35  C   UNL A   1      35.419  31.763  30.293  1.00  0.00     0.010 A 
ATOM     36  C   UNL A   1      36.749  32.176  30.117  1.00  0.00    -0.014 A 
BRANCH  36  37
ATOM     37  C   UNL A   1      37.825  31.374  30.750  1.00  0.00     0.031 A 
ATOM     38  C   UNL A   1      38.221  31.661  32.171  1.00  0.00     0.074 A 
ATOM     39  C   UNL A   1      38.544  30.512  30.005  1.00  0.00     0.049 A 
ATOM     40  N   UNL A   1      39.240  31.208  32.850  1.00  0.00    -0.248 NA
ATOM     41  C   UNL A   1      37.385  32.622  32.908  1.00  0.00     0.031 C 
ATOM     42  C   UNL A   1      38.316  30.223  28.587  1.00  0.00     0.029 A 
ATOM     43  N   UNL A   1      39.648  29.761  30.324  1.00  0.00    -0.354 N 
ATOM     44  C   UNL A   1      39.204  31.871  34.069  1.00  0.00     0.074 A 
ATOM     45  C   UNL A   1      38.077  32.777  34.027  1.00  0.00     0.031 C 
ATOM     46  C   UNL A   1      39.263  29.375  28.155  1.00  0.00     0.029 A 
ATOM     47  C   UNL A   1      40.182  29.085  29.252  1.00  0.00     0.049 A 
ATOM     48  H   UNL A   1      40.022  29.712  31.233  1.00  0.00     0.167 HD
ATOM     49  C   UNL A   1      40.020  31.723  35.139  1.00  0.00     0.034 A 
ATOM     50  C   UNL A   1      41.297  28.333  29.156  1.00  0.00     0.034 A 
ATOM     51  C   UNL A   1      41.093  30.770  35.200  1.00  0.00     0.049 A 
ATOM     52  C   UNL A   1      42.139  28.113  30.383  1.00  0.00     0.074 A 
ATOM     53  C   UNL A   1      41.894  30.445  36.280  1.00  0.00     0.029 A 
ATOM     54  N   UNL A   1      41.518  29.991  34.135  1.00  0.00    -0.354 N 
ATOM     55  N   UNL A   1      41.985  28.611  31.586  1.00  0.00    -0.248 NA
ATOM     56  C   UNL A   1      43.286  27.203  30.253  1.00  0.00     0.031 C 
ATOM     57  C   UNL A   1      42.813  29.477  35.864  1.00  0.00     0.029 A 
ATOM     58  C   UNL A   1      42.575  29.189  34.528  1.00  0.00     0.049 A 
ATOM     59  H   UNL A   1      41.126  30.005  33.232  1.00  0.00     0.167 HD
ATOM     60  C   UNL A   1      42.991  28.052  32.365  1.00  0.00     0.074 A 
ATOM     61  C   UNL A   1      43.742  27.165  31.499  1.00  0.00     0.031 C 
ATOM     62  C   UNL A   1      43.274  28.265  33.673  1.00  0.00     0.034 A 
BRANCH  49  63
ATOM     63  C   UNL A   1      39.740  32.572  36.350  1.00  0.00     0.023 A 
ATOM     64  C   UNL A   1      40.428  33.792  36.516  1.00  0.00     0.012 A 
ATOM     65  C   UNL A   1      38.784  32.182  37.305  1.00  0.00     0.148 A 
ATOM     66  C   UNL A   1      40.197  34.590  37.637  1.00  0.00     0.002 A 
ATOM     67  C   UNL A   1      38.529  33.003  38.397  1.00  0.00     0.091 A 
ATOM     68  F   UNL A   1      38.160  31.005  37.148  1.00  0.00    -0.205 F 
ATOM     69  C   UNL A   1      39.243  34.200  38.572  1.00  0.00     0.022 A 
BRANCH  67  70
ATOM     70  S   UNL A   1      37.259  32.617  39.608  1.00  0.00     0.127 S 
ATOM     71  O   UNL A   1      37.403  33.724  40.552  1.00  0.00    -0.237 OA
ATOM     72  O   UNL A   1      36.036  32.657  38.806  1.00  0.00    -0.237 OA
ATOM     73  O   UNL A   1      37.596  31.297  40.124  1.00  0.00    -0.744 OA
ENDBRANCH  67  70
ENDBRANCH  49  63
BRANCH  50  74
ATOM     74  C   UNL A   1      41.636  27.687  27.857  1.00  0.00     0.023 A 
ATOM     75  C   UNL A   1      42.080  28.486  26.786  1.00  0.00     0.012 A 
ATOM     76  C   UNL A   1      41.591  26.288  27.702  1.00  0.00     0.148 A 
ATOM     77  C   UNL A   1      42.454  27.904  25.574  1.00  0.00     0.002 A 
ATOM     78  C   UNL A   1      42.015  25.712  26.509  1.00  0.00     0.091 A 
ATOM     79  F   UNL A   1      41.157  25.549  28.731  1.00  0.00    -0.205 F 
ATOM     80  C   UNL A   1      42.434  26.518  25.440  1.00  0.00     0.022 A 
BRANCH  78  81
ATOM     81  S   UNL A   1      42.153  23.934  26.293  1.00  0.00     0.127 S 
ATOM     82  O   UNL A   1      42.873  23.844  25.026  1.00  0.00    -0.237 OA
ATOM     83  O   UNL A   1      42.929  23.548  27.472  1.00  0.00    -0.237 OA
ATOM     84  O   UNL A   1      40.786  23.433  26.282  1.00  0.00    -0.744 OA
ENDBRANCH  78  81
ENDBRANCH  50  74
BRANCH  62  85
ATOM     85  C   UNL A   1      44.425  27.506  34.278  1.00  0.00     0.023 A 
ATOM     86  C   UNL A   1      45.723  28.047  34.222  1.00  0.00     0.012 A 
ATOM     87  C   UNL A   1      44.196  26.321  35.005  1.00  0.00     0.148 A 
ATOM     88  C   UNL A   1      46.782  27.411  34.868  1.00  0.00     0.002 A 
ATOM     89  C   UNL A   1      45.249  25.717  35.683  1.00  0.00     0.091 A 
ATOM     90  F   UNL A   1      42.955  25.815  35.031  1.00  0.00    -0.205 F 
ATOM     91  C   UNL A   1      46.543  26.256  35.610  1.00  0.00     0.022 A 
BRANCH  89  92
ATOM     92  S   UNL A   1      45.015  24.284  36.742  1.00  0.00     0.127 S 
ATOM     93  O   UNL A   1      44.387  23.335  35.823  1.00  0.00    -0.237 OA
ATOM     94  O   UNL A   1      46.388  23.950  37.120  1.00  0.00    -0.237 OA
ATOM     95  O   UNL A   1      44.177  24.731  37.845  1.00  0.00    -0.744 OA
ENDBRANCH  89  92
ENDBRANCH  62  85
ENDBRANCH  36  37
ENDBRANCH  28  31
ENDBRANCH  26  27
ENDBRANCH  25  26
ENDBRANCH   1  25
TORSDOF 17
ENDMDL
