MODEL 1
REMARK VINA RESULT:     -12.2      0.000      0.000
REMARK SMILES CC(C)C[C@H](Nc1ncnc2scc(-c3ccccc3)c12)C(=O)NCCCCNC(=O)c1ccc(-c2c3nc(c(-c4cccc(S(=O)(=O)[O-])c4F)c4ccc([nH]4)c(-c4cccc(S(=O)(=O)[O-])c4F)c4nc(c(-c5cccc(S(=O)(=O)[O-])c5F)c5ccc2[nH]5)C=C4)C=C3)cc1
REMARK SMILES IDX 26 1 25 2 24 3 22 4 23 5 5 7 4 8 2 9 1 10 3 11 6 12 7 14
REMARK SMILES IDX 8 15 21 16 9 17 11 18 14 19 10 20 12 21 13 22 15 23 16 24
REMARK SMILES IDX 20 25 17 26 19 27 18 28 27 29 28 30 29 31 30 32 31 34 32 35
REMARK SMILES IDX 33 36 94 37 34 38 93 39 35 40 36 41 37 42 87 43 38 44 92 45
REMARK SMILES IDX 86 46 88 47 39 48 91 49 85 50 84 51 40 53 72 54 52 55 71 56
REMARK SMILES IDX 53 57 56 58 70 59 89 60 54 61 55 62 69 64 90 65 57 66 41 67
REMARK SMILES IDX 42 68 50 69 43 70 45 71 51 72 44 73 46 74 47 75 48 76 49 77
REMARK SMILES IDX 73 78 74 79 82 80 75 81 77 82 83 83 76 84 78 85 79 86 80 87
REMARK SMILES IDX 81 88 58 89 59 90 67 91 60 92 62 93 68 94 61 95 63 96 64 97
REMARK SMILES IDX 65 98 66 99
REMARK H PARENT 24 6 6 13 29 33 88 52 56 63
REMARK Flexibility Score: inf
ROOT
ATOM      1  C   UNL A   1      33.930  23.727  24.904  1.00  0.00     0.023 C 
ENDROOT
BRANCH   1   2
ATOM      2  C   UNL A   1      32.498  23.435  24.477  1.00  0.00     0.116 C 
BRANCH   2   3
ATOM      3  N   UNL A   1      31.535  23.461  25.559  1.00  0.00    -0.354 N 
ATOM      4  C   UNL A   1      30.602  24.397  25.905  1.00  0.00     0.242 C 
ATOM      5  O   UNL A   1      29.848  24.104  26.842  1.00  0.00    -0.273 OA
ATOM      6  H   UNL A   1      31.556  22.670  26.144  1.00  0.00     0.163 HD
BRANCH   4   7
ATOM      7  C   UNL A   1      30.476  25.781  25.220  1.00  0.00     0.170 C 
BRANCH   7   8
ATOM      8  C   UNL A   1      30.642  27.031  26.116  1.00  0.00     0.038 C 
BRANCH   8   9
ATOM      9  C   UNL A   1      31.948  27.859  26.064  1.00  0.00    -0.015 C 
ATOM     10  C   UNL A   1      31.920  29.079  26.994  1.00  0.00     0.007 C 
ATOM     11  C   UNL A   1      33.153  26.992  26.448  1.00  0.00     0.007 C 
ENDBRANCH   8   9
ENDBRANCH   7   8
BRANCH   7  12
ATOM     12  N   UNL A   1      29.442  25.776  24.156  1.00  0.00    -0.358 N 
ATOM     13  H   UNL A   1      29.396  24.972  23.590  1.00  0.00     0.162 HD
BRANCH  12  14
ATOM     14  C   UNL A   1      28.545  26.775  23.878  1.00  0.00     0.139 A 
ATOM     15  N   UNL A   1      27.264  26.568  24.254  1.00  0.00    -0.219 NA
ATOM     16  C   UNL A   1      28.873  27.989  23.201  1.00  0.00     0.062 A 
ATOM     17  C   UNL A   1      26.336  27.496  24.018  1.00  0.00     0.225 A 
ATOM     18  C   UNL A   1      27.777  28.829  22.985  1.00  0.00     0.129 A 
ATOM     19  C   UNL A   1      30.083  28.577  22.586  1.00  0.00     0.006 A 
ATOM     20  N   UNL A   1      26.511  28.645  23.386  1.00  0.00    -0.225 NA
ATOM     21  S   UNL A   1      28.134  30.208  22.062  1.00  0.00    -0.123 S 
ATOM     22  C   UNL A   1      29.750  29.727  21.880  1.00  0.00     0.076 A 
BRANCH  19  23
ATOM     23  C   UNL A   1      31.477  28.092  22.438  1.00  0.00    -0.017 A 
ATOM     24  C   UNL A   1      31.736  26.770  22.038  1.00  0.00     0.009 A 
ATOM     25  C   UNL A   1      32.579  28.856  22.832  1.00  0.00     0.009 A 
ATOM     26  C   UNL A   1      33.033  26.239  22.069  1.00  0.00     0.001 A 
ATOM     27  C   UNL A   1      33.880  28.345  22.841  1.00  0.00     0.001 A 
ATOM     28  C   UNL A   1      34.105  27.029  22.471  1.00  0.00     0.000 A 
ENDBRANCH  19  23
ENDBRANCH  12  14
ENDBRANCH   7  12
ENDBRANCH   4   7
ENDBRANCH   2   3
ENDBRANCH   1   2
BRANCH   1  29
ATOM     29  C   UNL A   1      34.920  22.597  24.691  1.00  0.00     0.023 C 
BRANCH  29  30
ATOM     30  C   UNL A   1      35.943  22.483  25.802  1.00  0.00     0.116 C 
BRANCH  30  31
ATOM     31  N   UNL A   1      36.839  21.345  25.614  1.00  0.00    -0.352 N 
ATOM     32  C   UNL A   1      38.206  21.294  25.730  1.00  0.00     0.251 C 
ATOM     33  H   UNL A   1      36.402  20.496  25.373  1.00  0.00     0.163 HD
ATOM     34  O   UNL A   1      38.829  20.309  25.350  1.00  0.00    -0.269 OA
BRANCH  32  35
ATOM     35  C   UNL A   1      38.906  22.456  26.305  1.00  0.00     0.039 A 
ATOM     36  C   UNL A   1      40.048  22.258  27.083  1.00  0.00     0.014 A 
ATOM     37  C   UNL A   1      38.459  23.743  26.006  1.00  0.00     0.014 A 
ATOM     38  C   UNL A   1      40.782  23.365  27.506  1.00  0.00     0.010 A 
ATOM     39  C   UNL A   1      39.256  24.830  26.319  1.00  0.00     0.010 A 
ATOM     40  C   UNL A   1      40.411  24.657  27.095  1.00  0.00    -0.014 A 
BRANCH  40  41
ATOM     41  C   UNL A   1      41.188  25.859  27.480  1.00  0.00     0.031 A 
ATOM     42  C   UNL A   1      40.522  26.937  28.293  1.00  0.00     0.074 A 
ATOM     43  C   UNL A   1      42.438  26.028  27.006  1.00  0.00     0.049 A 
ATOM     44  N   UNL A   1      40.982  28.108  28.643  1.00  0.00    -0.248 NA
ATOM     45  C   UNL A   1      39.135  26.687  28.729  1.00  0.00     0.031 C 
ATOM     46  C   UNL A   1      43.148  25.097  26.127  1.00  0.00     0.029 A 
ATOM     47  N   UNL A   1      43.322  27.063  27.176  1.00  0.00    -0.354 N 
ATOM     48  C   UNL A   1      39.930  28.750  29.285  1.00  0.00     0.074 A 
ATOM     49  C   UNL A   1      38.792  27.860  29.235  1.00  0.00     0.031 C 
ATOM     50  C   UNL A   1      44.364  25.595  25.848  1.00  0.00     0.029 A 
ATOM     51  C   UNL A   1      44.508  26.891  26.501  1.00  0.00     0.049 A 
ATOM     52  H   UNL A   1      43.126  27.854  27.728  1.00  0.00     0.167 HD
ATOM     53  C   UNL A   1      39.921  29.955  29.899  1.00  0.00     0.034 A 
ATOM     54  C   UNL A   1      45.589  27.691  26.422  1.00  0.00     0.034 A 
ATOM     55  C   UNL A   1      41.080  30.794  30.013  1.00  0.00     0.049 A 
ATOM     56  C   UNL A   1      45.585  28.987  27.188  1.00  0.00     0.074 A 
ATOM     57  C   UNL A   1      41.219  31.979  30.712  1.00  0.00     0.029 A 
ATOM     58  N   UNL A   1      42.304  30.532  29.417  1.00  0.00    -0.354 N 
ATOM     59  N   UNL A   1      44.636  29.502  27.933  1.00  0.00    -0.248 NA
ATOM     60  C   UNL A   1      46.811  29.795  27.135  1.00  0.00     0.031 C 
ATOM     61  C   UNL A   1      42.527  32.440  30.528  1.00  0.00     0.029 A 
ATOM     62  C   UNL A   1      43.205  31.533  29.729  1.00  0.00     0.049 A 
ATOM     63  H   UNL A   1      42.501  29.748  28.855  1.00  0.00     0.167 HD
ATOM     64  C   UNL A   1      45.161  30.672  28.466  1.00  0.00     0.074 A 
ATOM     65  C   UNL A   1      46.520  30.779  27.975  1.00  0.00     0.031 C 
ATOM     66  C   UNL A   1      44.572  31.586  29.276  1.00  0.00     0.034 A 
BRANCH  53  67
ATOM     67  C   UNL A   1      38.638  30.400  30.551  1.00  0.00     0.023 A 
ATOM     68  C   UNL A   1      38.410  30.104  31.912  1.00  0.00     0.012 A 
ATOM     69  C   UNL A   1      37.678  31.142  29.836  1.00  0.00     0.148 A 
ATOM     70  C   UNL A   1      37.231  30.502  32.538  1.00  0.00     0.002 A 
ATOM     71  C   UNL A   1      36.526  31.577  30.482  1.00  0.00     0.091 A 
ATOM     72  F   UNL A   1      37.900  31.392  28.538  1.00  0.00    -0.205 F 
ATOM     73  C   UNL A   1      36.295  31.247  31.828  1.00  0.00     0.022 A 
BRANCH  71  74
ATOM     74  S   UNL A   1      35.297  32.610  29.676  1.00  0.00     0.127 S 
ATOM     75  O   UNL A   1      36.100  33.762  29.271  1.00  0.00    -0.237 OA
ATOM     76  O   UNL A   1      34.855  31.756  28.573  1.00  0.00    -0.237 OA
ATOM     77  O   UNL A   1      34.277  32.878  30.681  1.00  0.00    -0.744 OA
ENDBRANCH  71  74
ENDBRANCH  53  67
BRANCH  54  78
ATOM     78  C   UNL A   1      46.794  27.246  25.667  1.00  0.00     0.023 A 
ATOM     79  C   UNL A   1      47.681  26.331  26.269  1.00  0.00     0.012 A 
ATOM     80  C   UNL A   1      47.052  27.688  24.355  1.00  0.00     0.148 A 
ATOM     81  C   UNL A   1      48.819  25.889  25.593  1.00  0.00     0.002 A 
ATOM     82  C   UNL A   1      48.159  27.203  23.667  1.00  0.00     0.091 A 
ATOM     83  F   UNL A   1      46.203  28.566  23.802  1.00  0.00    -0.205 F 
ATOM     84  C   UNL A   1      49.053  26.317  24.289  1.00  0.00     0.022 A 
BRANCH  82  85
ATOM     85  S   UNL A   1      48.468  27.597  21.941  1.00  0.00     0.127 S 
ATOM     86  O   UNL A   1      47.255  28.323  21.578  1.00  0.00    -0.237 OA
ATOM     87  O   UNL A   1      49.676  28.418  22.027  1.00  0.00    -0.237 OA
ATOM     88  O   UNL A   1      48.663  26.315  21.277  1.00  0.00    -0.744 OA
ENDBRANCH  82  85
ENDBRANCH  54  78
BRANCH  66  89
ATOM     89  C   UNL A   1      45.396  32.765  29.714  1.00  0.00     0.023 A 
ATOM     90  C   UNL A   1      46.168  32.680  30.888  1.00  0.00     0.012 A 
ATOM     91  C   UNL A   1      45.472  33.922  28.915  1.00  0.00     0.148 A 
ATOM     92  C   UNL A   1      46.983  33.742  31.276  1.00  0.00     0.002 A 
ATOM     93  C   UNL A   1      46.324  34.956  29.282  1.00  0.00     0.091 A 
ATOM     94  F   UNL A   1      44.714  33.989  27.810  1.00  0.00    -0.205 F 
ATOM     95  C   UNL A   1      47.071  34.873  30.468  1.00  0.00     0.022 A 
BRANCH  93  96
ATOM     96  S   UNL A   1      46.575  36.404  28.249  1.00  0.00     0.127 S 
ATOM     97  O   UNL A   1      47.036  35.802  27.000  1.00  0.00    -0.237 OA
ATOM     98  O   UNL A   1      45.233  36.982  28.190  1.00  0.00    -0.237 OA
ATOM     99  O   UNL A   1      47.554  37.228  28.946  1.00  0.00    -0.744 OA
ENDBRANCH  93  96
ENDBRANCH  66  89
ENDBRANCH  40  41
ENDBRANCH  32  35
ENDBRANCH  30  31
ENDBRANCH  29  30
ENDBRANCH   1  29
TORSDOF 19
ENDMDL
MODEL 2
REMARK VINA RESULT:     -12.1      1.479      7.497
REMARK SMILES CC(C)C[C@H](Nc1ncnc2scc(-c3ccccc3)c12)C(=O)NCCCCNC(=O)c1ccc(-c2c3nc(c(-c4cccc(S(=O)(=O)[O-])c4F)c4ccc([nH]4)c(-c4cccc(S(=O)(=O)[O-])c4F)c4nc(c(-c5cccc(S(=O)(=O)[O-])c5F)c5ccc2[nH]5)C=C4)C=C3)cc1
REMARK SMILES IDX 26 1 25 2 24 3 22 4 23 5 5 7 4 8 2 9 1 10 3 11 6 12 7 14
REMARK SMILES IDX 8 15 21 16 9 17 11 18 14 19 10 20 12 21 13 22 15 23 16 24
REMARK SMILES IDX 20 25 17 26 19 27 18 28 27 29 28 30 29 31 30 32 31 34 32 35
REMARK SMILES IDX 33 36 94 37 34 38 93 39 35 40 36 41 37 42 87 43 38 44 92 45
REMARK SMILES IDX 86 46 88 47 39 48 91 49 85 50 84 51 40 53 72 54 52 55 71 56
REMARK SMILES IDX 53 57 56 58 70 59 89 60 54 61 55 62 69 64 90 65 57 66 41 67
REMARK SMILES IDX 42 68 50 69 43 70 45 71 51 72 44 73 46 74 47 75 48 76 49 77
REMARK SMILES IDX 73 78 74 79 82 80 75 81 77 82 83 83 76 84 78 85 79 86 80 87
REMARK SMILES IDX 81 88 58 89 59 90 67 91 60 92 62 93 68 94 61 95 63 96 64 97
REMARK SMILES IDX 65 98 66 99
REMARK H PARENT 24 6 6 13 29 33 88 52 56 63
REMARK Flexibility Score: inf
ROOT
ATOM      1  C   UNL A   1      34.156  23.708  24.926  1.00  0.00     0.023 C 
ENDROOT
BRANCH   1   2
ATOM      2  C   UNL A   1      32.699  23.581  24.498  1.00  0.00     0.116 C 
BRANCH   2   3
ATOM      3  N   UNL A   1      31.756  23.538  25.597  1.00  0.00    -0.354 N 
ATOM      4  C   UNL A   1      30.783  24.419  25.977  1.00  0.00     0.242 C 
ATOM      5  O   UNL A   1      30.062  24.070  26.921  1.00  0.00    -0.273 OA
ATOM      6  H   UNL A   1      31.827  22.739  26.167  1.00  0.00     0.163 HD
BRANCH   4   7
ATOM      7  C   UNL A   1      30.575  25.807  25.322  1.00  0.00     0.170 C 
BRANCH   7   8
ATOM      8  C   UNL A   1      30.677  27.047  26.242  1.00  0.00     0.038 C 
BRANCH   8   9
ATOM      9  C   UNL A   1      32.039  27.454  26.853  1.00  0.00    -0.015 C 
ATOM     10  C   UNL A   1      33.234  27.024  25.993  1.00  0.00     0.007 C 
ATOM     11  C   UNL A   1      32.111  28.974  27.047  1.00  0.00     0.007 C 
ENDBRANCH   8   9
ENDBRANCH   7   8
BRANCH   7  12
ATOM     12  N   UNL A   1      29.536  25.766  24.264  1.00  0.00    -0.358 N 
ATOM     13  H   UNL A   1      29.475  24.935  23.740  1.00  0.00     0.162 HD
BRANCH  12  14
ATOM     14  C   UNL A   1      28.654  26.765  23.940  1.00  0.00     0.139 A 
ATOM     15  N   UNL A   1      27.353  26.549  24.233  1.00  0.00    -0.219 NA
ATOM     16  C   UNL A   1      29.018  27.985  23.295  1.00  0.00     0.062 A 
ATOM     17  C   UNL A   1      26.438  27.476  23.948  1.00  0.00     0.225 A 
ATOM     18  C   UNL A   1      27.935  28.824  23.019  1.00  0.00     0.129 A 
ATOM     19  C   UNL A   1      30.262  28.584  22.763  1.00  0.00     0.006 A 
ATOM     20  N   UNL A   1      26.646  28.631  23.338  1.00  0.00    -0.225 NA
ATOM     21  S   UNL A   1      28.343  30.212  22.133  1.00  0.00    -0.123 S 
ATOM     22  C   UNL A   1      29.969  29.739  22.047  1.00  0.00     0.076 A 
BRANCH  19  23
ATOM     23  C   UNL A   1      31.665  28.105  22.698  1.00  0.00    -0.017 A 
ATOM     24  C   UNL A   1      32.731  28.970  22.998  1.00  0.00     0.009 A 
ATOM     25  C   UNL A   1      32.001  26.845  22.196  1.00  0.00     0.009 A 
ATOM     26  C   UNL A   1      34.062  28.594  22.768  1.00  0.00     0.001 A 
ATOM     27  C   UNL A   1      33.325  26.450  21.987  1.00  0.00     0.001 A 
ATOM     28  C   UNL A   1      34.357  27.333  22.262  1.00  0.00     0.000 A 
ENDBRANCH  19  23
ENDBRANCH  12  14
ENDBRANCH   7  12
ENDBRANCH   4   7
ENDBRANCH   2   3
ENDBRANCH   1   2
BRANCH   1  29
ATOM     29  C   UNL A   1      34.957  22.420  24.908  1.00  0.00     0.023 C 
BRANCH  29  30
ATOM     30  C   UNL A   1      35.933  22.309  26.061  1.00  0.00     0.116 C 
BRANCH  30  31
ATOM     31  N   UNL A   1      36.966  21.306  25.817  1.00  0.00    -0.352 N 
ATOM     32  C   UNL A   1      38.331  21.447  25.852  1.00  0.00     0.251 C 
ATOM     33  H   UNL A   1      36.639  20.404  25.598  1.00  0.00     0.163 HD
ATOM     34  O   UNL A   1      39.063  20.557  25.432  1.00  0.00    -0.269 OA
BRANCH  32  35
ATOM     35  C   UNL A   1      38.895  22.697  26.390  1.00  0.00     0.039 A 
ATOM     36  C   UNL A   1      39.929  22.642  27.327  1.00  0.00     0.014 A 
ATOM     37  C   UNL A   1      38.437  23.922  25.903  1.00  0.00     0.014 A 
ATOM     38  C   UNL A   1      40.549  23.826  27.725  1.00  0.00     0.010 A 
ATOM     39  C   UNL A   1      39.135  25.078  26.204  1.00  0.00     0.010 A 
ATOM     40  C   UNL A   1      40.181  25.048  27.137  1.00  0.00    -0.014 A 
BRANCH  40  41
ATOM     41  C   UNL A   1      40.845  26.324  27.494  1.00  0.00     0.031 A 
ATOM     42  C   UNL A   1      42.275  26.549  27.080  1.00  0.00     0.074 A 
ATOM     43  C   UNL A   1      40.207  27.215  28.276  1.00  0.00     0.049 A 
ATOM     44  N   UNL A   1      43.072  27.539  27.379  1.00  0.00    -0.248 NA
ATOM     45  C   UNL A   1      42.910  25.498  26.264  1.00  0.00     0.031 C 
ATOM     46  C   UNL A   1      38.856  27.057  28.820  1.00  0.00     0.029 A 
ATOM     47  N   UNL A   1      40.625  28.423  28.776  1.00  0.00    -0.354 N 
ATOM     48  C   UNL A   1      44.308  27.204  26.839  1.00  0.00     0.074 A 
ATOM     49  C   UNL A   1      44.171  25.898  26.236  1.00  0.00     0.031 C 
ATOM     50  C   UNL A   1      38.552  28.133  29.564  1.00  0.00     0.029 A 
ATOM     51  C   UNL A   1      39.693  29.042  29.575  1.00  0.00     0.049 A 
ATOM     52  H   UNL A   1      41.509  28.809  28.580  1.00  0.00     0.167 HD
ATOM     53  C   UNL A   1      45.446  27.935  26.809  1.00  0.00     0.034 A 
ATOM     54  C   UNL A   1      39.755  30.212  30.239  1.00  0.00     0.034 A 
ATOM     55  C   UNL A   1      45.548  29.265  27.339  1.00  0.00     0.049 A 
ATOM     56  C   UNL A   1      41.002  31.047  30.116  1.00  0.00     0.074 A 
ATOM     57  C   UNL A   1      46.612  30.144  27.261  1.00  0.00     0.029 A 
ATOM     58  N   UNL A   1      44.541  29.912  28.040  1.00  0.00    -0.354 N 
ATOM     59  N   UNL A   1      42.106  30.787  29.456  1.00  0.00    -0.248 NA
ATOM     60  C   UNL A   1      41.001  32.349  30.795  1.00  0.00     0.031 C 
ATOM     61  C   UNL A   1      46.253  31.320  27.929  1.00  0.00     0.029 A 
ATOM     62  C   UNL A   1      44.959  31.178  28.405  1.00  0.00     0.049 A 
ATOM     63  H   UNL A   1      43.660  29.525  28.248  1.00  0.00     0.167 HD
ATOM     64  C   UNL A   1      42.915  31.906  29.610  1.00  0.00     0.074 A 
ATOM     65  C   UNL A   1      42.164  32.855  30.407  1.00  0.00     0.031 C 
ATOM     66  C   UNL A   1      44.170  32.127  29.148  1.00  0.00     0.034 A 
BRANCH  53  67
ATOM     67  C   UNL A   1      46.646  27.336  26.122  1.00  0.00     0.023 A 
ATOM     68  C   UNL A   1      46.760  27.425  24.719  1.00  0.00     0.012 A 
ATOM     69  C   UNL A   1      47.676  26.724  26.861  1.00  0.00     0.148 A 
ATOM     70  C   UNL A   1      47.859  26.878  24.059  1.00  0.00     0.002 A 
ATOM     71  C   UNL A   1      48.792  26.224  26.199  1.00  0.00     0.091 A 
ATOM     72  F   UNL A   1      47.540  26.626  28.191  1.00  0.00    -0.205 F 
ATOM     73  C   UNL A   1      48.878  26.288  24.798  1.00  0.00     0.022 A 
BRANCH  71  74
ATOM     74  S   UNL A   1      50.196  25.516  27.068  1.00  0.00     0.127 S 
ATOM     75  O   UNL A   1      49.606  24.312  27.650  1.00  0.00    -0.237 OA
ATOM     76  O   UNL A   1      51.138  25.267  25.975  1.00  0.00    -0.237 OA
ATOM     77  O   UNL A   1      50.629  26.527  28.022  1.00  0.00    -0.744 OA
ENDBRANCH  71  74
ENDBRANCH  53  67
BRANCH  54  78
ATOM     78  C   UNL A   1      38.570  30.704  30.997  1.00  0.00     0.023 A 
ATOM     79  C   UNL A   1      38.530  30.533  32.395  1.00  0.00     0.012 A 
ATOM     80  C   UNL A   1      37.505  31.367  30.357  1.00  0.00     0.148 A 
ATOM     81  C   UNL A   1      37.438  30.982  33.138  1.00  0.00     0.002 A 
ATOM     82  C   UNL A   1      36.444  31.859  31.110  1.00  0.00     0.091 A 
ATOM     83  F   UNL A   1      37.556  31.513  29.025  1.00  0.00    -0.205 F 
ATOM     84  C   UNL A   1      36.400  31.654  32.498  1.00  0.00     0.022 A 
BRANCH  82  85
ATOM     85  S   UNL A   1      35.130  32.850  30.389  1.00  0.00     0.127 S 
ATOM     86  O   UNL A   1      35.868  34.005  29.885  1.00  0.00    -0.237 OA
ATOM     87  O   UNL A   1      34.605  31.956  29.358  1.00  0.00    -0.237 OA
ATOM     88  O   UNL A   1      34.200  33.117  31.478  1.00  0.00    -0.744 OA
ENDBRANCH  82  85
ENDBRANCH  54  78
BRANCH  66  89
ATOM     89  C   UNL A   1      44.804  33.455  29.459  1.00  0.00     0.023 A 
ATOM     90  C   UNL A   1      45.603  33.595  30.609  1.00  0.00     0.012 A 
ATOM     91  C   UNL A   1      44.679  34.536  28.564  1.00  0.00     0.148 A 
ATOM     92  C   UNL A   1      46.246  34.802  30.880  1.00  0.00     0.002 A 
ATOM     93  C   UNL A   1      45.362  35.719  28.815  1.00  0.00     0.091 A 
ATOM     94  F   UNL A   1      43.898  34.386  27.483  1.00  0.00    -0.205 F 
ATOM     95  C   UNL A   1      46.137  35.857  29.979  1.00  0.00     0.022 A 
BRANCH  93  96
ATOM     96  S   UNL A   1      45.359  37.093  27.658  1.00  0.00     0.127 S 
ATOM     97  O   UNL A   1      45.772  38.203  28.514  1.00  0.00    -0.237 OA
ATOM     98  O   UNL A   1      46.358  36.674  26.675  1.00  0.00    -0.237 OA
ATOM     99  O   UNL A   1      44.001  37.174  27.138  1.00  0.00    -0.744 OA
ENDBRANCH  93  96
ENDBRANCH  66  89
ENDBRANCH  40  41
ENDBRANCH  32  35
ENDBRANCH  30  31
ENDBRANCH  29  30
ENDBRANCH   1  29
TORSDOF 19
ENDMDL
MODEL 3
REMARK VINA RESULT:     -12.1      5.573     10.323
REMARK SMILES CC(C)C[C@H](Nc1ncnc2scc(-c3ccccc3)c12)C(=O)NCCCCNC(=O)c1ccc(-c2c3nc(c(-c4cccc(S(=O)(=O)[O-])c4F)c4ccc([nH]4)c(-c4cccc(S(=O)(=O)[O-])c4F)c4nc(c(-c5cccc(S(=O)(=O)[O-])c5F)c5ccc2[nH]5)C=C4)C=C3)cc1
REMARK SMILES IDX 26 1 25 2 24 3 22 4 23 5 5 7 4 8 2 9 1 10 3 11 6 12 7 14
REMARK SMILES IDX 8 15 21 16 9 17 11 18 14 19 10 20 12 21 13 22 15 23 16 24
REMARK SMILES IDX 20 25 17 26 19 27 18 28 27 29 28 30 29 31 30 32 31 34 32 35
REMARK SMILES IDX 33 36 94 37 34 38 93 39 35 40 36 41 37 42 87 43 38 44 92 45
REMARK SMILES IDX 86 46 88 47 39 48 91 49 85 50 84 51 40 53 72 54 52 55 71 56
REMARK SMILES IDX 53 57 56 58 70 59 89 60 54 61 55 62 69 64 90 65 57 66 41 67
REMARK SMILES IDX 42 68 50 69 43 70 45 71 51 72 44 73 46 74 47 75 48 76 49 77
REMARK SMILES IDX 73 78 74 79 82 80 75 81 77 82 83 83 76 84 78 85 79 86 80 87
REMARK SMILES IDX 81 88 58 89 59 90 67 91 60 92 62 93 68 94 61 95 63 96 64 97
REMARK SMILES IDX 65 98 66 99
REMARK H PARENT 24 6 6 13 29 33 88 52 56 63
REMARK Flexibility Score: inf
ROOT
ATOM      1  C   UNL A   1      31.714  30.272  25.849  1.00  0.00     0.023 C 
ENDROOT
BRANCH   1   2
ATOM      2  C   UNL A   1      33.060  29.562  25.921  1.00  0.00     0.116 C 
BRANCH   2   3
ATOM      3  N   UNL A   1      33.799  29.556  24.675  1.00  0.00    -0.354 N 
ATOM      4  C   UNL A   1      33.685  28.762  23.569  1.00  0.00     0.242 C 
ATOM      5  O   UNL A   1      34.407  29.051  22.606  1.00  0.00    -0.273 OA
ATOM      6  H   UNL A   1      34.504  30.240  24.615  1.00  0.00     0.163 HD
BRANCH   4   7
ATOM      7  C   UNL A   1      32.745  27.533  23.486  1.00  0.00     0.170 C 
BRANCH   7   8
ATOM      8  C   UNL A   1      33.350  26.155  23.843  1.00  0.00     0.038 C 
BRANCH   8   9
ATOM      9  C   UNL A   1      34.194  25.983  25.127  1.00  0.00    -0.015 C 
ATOM     10  C   UNL A   1      33.392  26.238  26.409  1.00  0.00     0.007 C 
ATOM     11  C   UNL A   1      34.781  24.568  25.203  1.00  0.00     0.007 C 
ENDBRANCH   8   9
ENDBRANCH   7   8
BRANCH   7  12
ATOM     12  N   UNL A   1      31.795  27.644  22.352  1.00  0.00    -0.358 N 
ATOM     13  H   UNL A   1      32.032  27.157  21.530  1.00  0.00     0.162 HD
BRANCH  12  14
ATOM     14  C   UNL A   1      30.623  28.355  22.329  1.00  0.00     0.139 A 
ATOM     15  N   UNL A   1      30.662  29.578  21.755  1.00  0.00    -0.219 NA
ATOM     16  C   UNL A   1      29.392  27.901  22.891  1.00  0.00     0.062 A 
ATOM     17  C   UNL A   1      29.561  30.327  21.694  1.00  0.00     0.225 A 
ATOM     18  C   UNL A   1      28.350  28.827  22.791  1.00  0.00     0.129 A 
ATOM     19  C   UNL A   1      28.931  26.708  23.635  1.00  0.00     0.006 A 
ATOM     20  N   UNL A   1      28.373  30.027  22.193  1.00  0.00    -0.225 NA
ATOM     21  S   UNL A   1      26.923  28.349  23.577  1.00  0.00    -0.123 S 
ATOM     22  C   UNL A   1      27.642  26.910  24.112  1.00  0.00     0.076 A 
BRANCH  19  23
ATOM     23  C   UNL A   1      29.622  25.479  24.097  1.00  0.00    -0.017 A 
ATOM     24  C   UNL A   1      29.887  25.276  25.461  1.00  0.00     0.009 A 
ATOM     25  C   UNL A   1      30.173  24.553  23.206  1.00  0.00     0.009 A 
ATOM     26  C   UNL A   1      30.694  24.217  25.899  1.00  0.00     0.001 A 
ATOM     27  C   UNL A   1      30.958  23.478  23.633  1.00  0.00     0.001 A 
ATOM     28  C   UNL A   1      31.229  23.318  24.983  1.00  0.00     0.000 A 
ENDBRANCH  19  23
ENDBRANCH  12  14
ENDBRANCH   7  12
ENDBRANCH   4   7
ENDBRANCH   2   3
ENDBRANCH   1   2
BRANCH   1  29
ATOM     29  C   UNL A   1      31.518  31.404  26.839  1.00  0.00     0.023 C 
BRANCH  29  30
ATOM     30  C   UNL A   1      32.811  32.098  27.215  1.00  0.00     0.116 C 
BRANCH  30  31
ATOM     31  N   UNL A   1      32.649  33.545  27.334  1.00  0.00    -0.352 N 
ATOM     32  C   UNL A   1      33.209  34.404  28.247  1.00  0.00     0.251 C 
ATOM     33  H   UNL A   1      32.056  33.962  26.667  1.00  0.00     0.163 HD
ATOM     34  O   UNL A   1      32.820  35.564  28.335  1.00  0.00    -0.269 OA
BRANCH  32  35
ATOM     35  C   UNL A   1      34.276  33.897  29.127  1.00  0.00     0.039 A 
ATOM     36  C   UNL A   1      34.041  32.773  29.920  1.00  0.00     0.014 A 
ATOM     37  C   UNL A   1      35.532  34.505  29.103  1.00  0.00     0.014 A 
ATOM     38  C   UNL A   1      35.097  32.218  30.643  1.00  0.00     0.010 A 
ATOM     39  C   UNL A   1      36.601  33.881  29.719  1.00  0.00     0.010 A 
ATOM     40  C   UNL A   1      36.392  32.747  30.517  1.00  0.00    -0.014 A 
BRANCH  40  41
ATOM     41  C   UNL A   1      37.554  32.161  31.228  1.00  0.00     0.031 A 
ATOM     42  C   UNL A   1      38.326  31.044  30.579  1.00  0.00     0.074 A 
ATOM     43  C   UNL A   1      37.836  32.551  32.486  1.00  0.00     0.049 A 
ATOM     44  N   UNL A   1      39.299  30.323  31.067  1.00  0.00    -0.248 NA
ATOM     45  C   UNL A   1      37.917  30.649  29.218  1.00  0.00     0.031 C 
ATOM     46  C   UNL A   1      37.092  33.554  33.253  1.00  0.00     0.029 A 
ATOM     47  N   UNL A   1      38.809  32.127  33.354  1.00  0.00    -0.354 N 
ATOM     48  C   UNL A   1      39.578  29.362  30.103  1.00  0.00     0.074 A 
ATOM     49  C   UNL A   1      38.640  29.559  29.021  1.00  0.00     0.031 C 
ATOM     50  C   UNL A   1      37.647  33.678  34.470  1.00  0.00     0.029 A 
ATOM     51  C   UNL A   1      38.763  32.745  34.581  1.00  0.00     0.049 A 
ATOM     52  H   UNL A   1      39.478  31.443  33.120  1.00  0.00     0.167 HD
ATOM     53  C   UNL A   1      40.553  28.425  30.097  1.00  0.00     0.034 A 
ATOM     54  C   UNL A   1      39.536  32.576  35.671  1.00  0.00     0.034 A 
ATOM     55  C   UNL A   1      41.531  28.293  31.140  1.00  0.00     0.049 A 
ATOM     56  C   UNL A   1      40.670  31.589  35.606  1.00  0.00     0.074 A 
ATOM     57  C   UNL A   1      42.633  27.460  31.186  1.00  0.00     0.029 A 
ATOM     58  N   UNL A   1      41.526  29.021  32.320  1.00  0.00    -0.354 N 
ATOM     59  N   UNL A   1      41.024  30.804  34.615  1.00  0.00    -0.248 NA
ATOM     60  C   UNL A   1      41.535  31.489  36.789  1.00  0.00     0.031 C 
ATOM     61  C   UNL A   1      43.289  27.676  32.402  1.00  0.00     0.029 A 
ATOM     62  C   UNL A   1      42.604  28.656  33.104  1.00  0.00     0.049 A 
ATOM     63  H   UNL A   1      40.853  29.697  32.563  1.00  0.00     0.167 HD
ATOM     64  C   UNL A   1      42.171  30.146  35.042  1.00  0.00     0.074 A 
ATOM     65  C   UNL A   1      42.464  30.640  36.372  1.00  0.00     0.031 C 
ATOM     66  C   UNL A   1      42.909  29.206  34.400  1.00  0.00     0.034 A 
BRANCH  53  67
ATOM     67  C   UNL A   1      40.651  27.522  28.896  1.00  0.00     0.023 A 
ATOM     68  C   UNL A   1      39.744  26.450  28.756  1.00  0.00     0.012 A 
ATOM     69  C   UNL A   1      41.607  27.752  27.888  1.00  0.00     0.148 A 
ATOM     70  C   UNL A   1      39.813  25.599  27.655  1.00  0.00     0.002 A 
ATOM     71  C   UNL A   1      41.638  26.927  26.769  1.00  0.00     0.091 A 
ATOM     72  F   UNL A   1      42.477  28.760  28.050  1.00  0.00    -0.205 F 
ATOM     73  C   UNL A   1      40.752  25.843  26.658  1.00  0.00     0.022 A 
BRANCH  71  74
ATOM     74  S   UNL A   1      42.758  27.206  25.392  1.00  0.00     0.127 S 
ATOM     75  O   UNL A   1      44.034  27.390  26.082  1.00  0.00    -0.237 OA
ATOM     76  O   UNL A   1      42.643  25.953  24.645  1.00  0.00    -0.237 OA
ATOM     77  O   UNL A   1      42.249  28.378  24.693  1.00  0.00    -0.744 OA
ENDBRANCH  71  74
ENDBRANCH  53  67
BRANCH  54  78
ATOM     78  C   UNL A   1      39.322  33.426  36.877  1.00  0.00     0.023 A 
ATOM     79  C   UNL A   1      39.768  34.762  36.862  1.00  0.00     0.012 A 
ATOM     80  C   UNL A   1      38.655  32.939  38.018  1.00  0.00     0.148 A 
ATOM     81  C   UNL A   1      39.584  35.589  37.971  1.00  0.00     0.002 A 
ATOM     82  C   UNL A   1      38.429  33.783  39.099  1.00  0.00     0.091 A 
ATOM     83  F   UNL A   1      38.247  31.662  38.018  1.00  0.00    -0.205 F 
ATOM     84  C   UNL A   1      38.906  35.103  39.085  1.00  0.00     0.022 A 
BRANCH  82  85
ATOM     85  S   UNL A   1      37.451  33.283  40.522  1.00  0.00     0.127 S 
ATOM     86  O   UNL A   1      37.504  34.480  41.357  1.00  0.00    -0.237 OA
ATOM     87  O   UNL A   1      36.148  33.012  39.916  1.00  0.00    -0.237 OA
ATOM     88  O   UNL A   1      38.117  32.104  41.059  1.00  0.00    -0.744 OA
ENDBRANCH  82  85
ENDBRANCH  54  78
BRANCH  66  89
ATOM     89  C   UNL A   1      44.124  28.672  35.106  1.00  0.00     0.023 A 
ATOM     90  C   UNL A   1      45.378  29.274  34.892  1.00  0.00     0.012 A 
ATOM     91  C   UNL A   1      44.005  27.631  36.048  1.00  0.00     0.148 A 
ATOM     92  C   UNL A   1      46.503  28.829  35.583  1.00  0.00     0.002 A 
ATOM     93  C   UNL A   1      45.121  27.225  36.769  1.00  0.00     0.091 A 
ATOM     94  F   UNL A   1      42.804  27.059  36.223  1.00  0.00    -0.205 F 
ATOM     95  C   UNL A   1      46.373  27.815  36.530  1.00  0.00     0.022 A 
BRANCH  93  96
ATOM     96  S   UNL A   1      45.024  25.998  38.077  1.00  0.00     0.127 S 
ATOM     97  O   UNL A   1      46.437  25.764  38.371  1.00  0.00    -0.237 OA
ATOM     98  O   UNL A   1      44.294  26.715  39.122  1.00  0.00    -0.237 OA
ATOM     99  O   UNL A   1      44.305  24.865  37.510  1.00  0.00    -0.744 OA
ENDBRANCH  93  96
ENDBRANCH  66  89
ENDBRANCH  40  41
ENDBRANCH  32  35
ENDBRANCH  30  31
ENDBRANCH  29  30
ENDBRANCH   1  29
TORSDOF 19
ENDMDL
