MODEL 1
REMARK VINA RESULT:     -12.3      0.000      0.000
REMARK SMILES O=C(NCCCCNC(=O)C1(C/C=C/c2ccccc2)CCCCC1)c1ccc(-c2c3nc(c(-c4cccc(S(=O)(=O)[O-])c4F)c4ccc([nH]4)c(-c4cccc(S(=O)(=O)[O-])c4F)c4nc(c(-c5cccc(S(=O)(=O)[O-])c5F)c5ccc2[nH]5)C=C4)C=C3)cc1
REMARK SMILES IDX 5 1 4 2 3 3 1 4 2 5 26 7 27 8 88 9 28 10 87 11 29 12 30 13
REMARK SMILES IDX 31 14 81 15 32 16 86 17 80 18 82 19 33 20 85 21 79 22 78 23
REMARK SMILES IDX 34 25 66 26 46 27 65 28 47 29 50 30 64 31 83 32 48 33 49 34
REMARK SMILES IDX 63 36 84 37 51 38 35 39 36 40 44 41 37 42 39 43 45 44 38 45
REMARK SMILES IDX 40 46 41 47 42 48 43 49 67 50 68 51 76 52 69 53 71 54 77 55
REMARK SMILES IDX 70 56 72 57 73 58 74 59 75 60 52 61 53 62 61 63 54 64 56 65
REMARK SMILES IDX 62 66 55 67 57 68 58 69 59 70 60 71 6 72 7 73 8 74 9 75
REMARK SMILES IDX 10 77 11 78 21 79 25 80 22 81 24 82 23 83 12 84 13 85 14 86
REMARK SMILES IDX 15 87 16 88 20 89 17 90 19 91 18 92
REMARK H PARENT 3 6 82 24 50 35 8 76
REMARK Flexibility Score: inf
ROOT
ATOM      1  C   UNL A   1      32.211  27.870  25.965  1.00  0.00     0.023 C 
ENDROOT
BRANCH   1   2
ATOM      2  C   UNL A   1      33.047  29.063  25.531  1.00  0.00     0.116 C 
BRANCH   2   3
ATOM      3  N   UNL A   1      32.501  30.338  25.967  1.00  0.00    -0.352 N 
ATOM      4  O   UNL A   1      32.392  32.197  27.240  1.00  0.00    -0.269 OA
ATOM      5  C   UNL A   1      33.021  31.209  26.900  1.00  0.00     0.251 C 
ATOM      6  H   UNL A   1      31.657  30.614  25.543  1.00  0.00     0.163 HD
BRANCH   5   7
ATOM      7  C   UNL A   1      34.330  30.890  27.510  1.00  0.00     0.039 A 
ATOM      8  C   UNL A   1      34.585  29.607  27.996  1.00  0.00     0.014 A 
ATOM      9  C   UNL A   1      35.287  31.900  27.642  1.00  0.00     0.014 A 
ATOM     10  C   UNL A   1      35.730  29.373  28.744  1.00  0.00     0.010 A 
ATOM     11  C   UNL A   1      36.479  31.638  28.321  1.00  0.00     0.010 A 
ATOM     12  C   UNL A   1      36.694  30.382  28.910  1.00  0.00    -0.014 A 
BRANCH  12  13
ATOM     13  C   UNL A   1      37.943  30.061  29.647  1.00  0.00     0.031 A 
ATOM     14  C   UNL A   1      38.186  30.565  31.042  1.00  0.00     0.074 A 
ATOM     15  C   UNL A   1      38.845  29.262  29.045  1.00  0.00     0.049 A 
ATOM     16  N   UNL A   1      39.189  30.304  31.841  1.00  0.00    -0.248 NA
ATOM     17  C   UNL A   1      37.189  31.485  31.612  1.00  0.00     0.031 C 
ATOM     18  C   UNL A   1      38.737  28.762  27.671  1.00  0.00     0.029 A 
ATOM     19  N   UNL A   1      40.015  28.717  29.505  1.00  0.00    -0.354 N 
ATOM     20  C   UNL A   1      38.963  31.044  32.996  1.00  0.00     0.074 A 
ATOM     21  C   UNL A   1      37.733  31.777  32.788  1.00  0.00     0.031 C 
ATOM     22  C   UNL A   1      39.774  27.954  27.415  1.00  0.00     0.029 A 
ATOM     23  C   UNL A   1      40.643  27.911  28.585  1.00  0.00     0.049 A 
ATOM     24  H   UNL A   1      40.372  28.887  30.407  1.00  0.00     0.167 HD
ATOM     25  C   UNL A   1      39.702  31.089  34.130  1.00  0.00     0.034 A 
ATOM     26  C   UNL A   1      41.791  27.214  28.670  1.00  0.00     0.034 A 
ATOM     27  C   UNL A   1      40.907  30.329  34.341  1.00  0.00     0.049 A 
ATOM     28  C   UNL A   1      42.554  27.235  29.962  1.00  0.00     0.074 A 
ATOM     29  C   UNL A   1      41.712  30.285  35.465  1.00  0.00     0.029 A 
ATOM     30  N   UNL A   1      41.479  29.474  33.409  1.00  0.00    -0.354 N 
ATOM     31  N   UNL A   1      42.261  27.854  31.080  1.00  0.00    -0.248 NA
ATOM     32  C   UNL A   1      43.787  26.439  30.017  1.00  0.00     0.031 C 
ATOM     33  C   UNL A   1      42.770  29.404  35.214  1.00  0.00     0.029 A 
ATOM     34  C   UNL A   1      42.620  28.893  33.935  1.00  0.00     0.049 A 
ATOM     35  H   UNL A   1      41.123  29.305  32.507  1.00  0.00     0.167 HD
ATOM     36  C   UNL A   1      43.269  27.519  31.974  1.00  0.00     0.074 A 
ATOM     37  C   UNL A   1      44.154  26.605  31.280  1.00  0.00     0.031 C 
ATOM     38  C   UNL A   1      43.465  27.953  33.243  1.00  0.00     0.034 A 
BRANCH  25  39
ATOM     39  C   UNL A   1      39.201  31.947  35.263  1.00  0.00     0.023 A 
ATOM     40  C   UNL A   1      38.264  31.410  36.168  1.00  0.00     0.012 A 
ATOM     41  C   UNL A   1      39.711  33.242  35.484  1.00  0.00     0.148 A 
ATOM     42  C   UNL A   1      37.826  32.153  37.264  1.00  0.00     0.002 A 
ATOM     43  C   UNL A   1      39.295  33.965  36.599  1.00  0.00     0.091 A 
ATOM     44  F   UNL A   1      40.586  33.745  34.601  1.00  0.00    -0.205 F 
ATOM     45  C   UNL A   1      38.350  33.424  37.486  1.00  0.00     0.022 A 
BRANCH  43  46
ATOM     46  S   UNL A   1      39.962  35.582  37.010  1.00  0.00     0.127 S 
ATOM     47  O   UNL A   1      39.245  35.890  38.247  1.00  0.00    -0.237 OA
ATOM     48  O   UNL A   1      41.386  35.296  37.185  1.00  0.00    -0.237 OA
ATOM     49  O   UNL A   1      39.652  36.442  35.875  1.00  0.00    -0.744 OA
ENDBRANCH  43  46
ENDBRANCH  25  39
BRANCH  26  50
ATOM     50  C   UNL A   1      42.242  26.401  27.507  1.00  0.00     0.023 A 
ATOM     51  C   UNL A   1      43.157  26.947  26.588  1.00  0.00     0.012 A 
ATOM     52  C   UNL A   1      41.827  25.065  27.349  1.00  0.00     0.148 A 
ATOM     53  C   UNL A   1      43.636  26.184  25.523  1.00  0.00     0.002 A 
ATOM     54  C   UNL A   1      42.357  24.290  26.325  1.00  0.00     0.091 A 
ATOM     55  F   UNL A   1      40.937  24.565  28.219  1.00  0.00    -0.205 F 
ATOM     56  C   UNL A   1      43.249  24.851  25.401  1.00  0.00     0.022 A 
BRANCH  54  57
ATOM     57  S   UNL A   1      42.026  22.528  26.224  1.00  0.00     0.127 S 
ATOM     58  O   UNL A   1      42.726  22.158  24.998  1.00  0.00    -0.237 OA
ATOM     59  O   UNL A   1      42.634  22.022  27.457  1.00  0.00    -0.237 OA
ATOM     60  O   UNL A   1      40.572  22.421  26.197  1.00  0.00    -0.744 OA
ENDBRANCH  54  57
ENDBRANCH  26  50
BRANCH  38  61
ATOM     61  C   UNL A   1      44.689  27.448  33.957  1.00  0.00     0.023 A 
ATOM     62  C   UNL A   1      45.885  28.189  33.881  1.00  0.00     0.012 A 
ATOM     63  C   UNL A   1      44.649  26.272  34.728  1.00  0.00     0.148 A 
ATOM     64  C   UNL A   1      47.034  27.748  34.535  1.00  0.00     0.002 A 
ATOM     65  C   UNL A   1      45.788  25.860  35.411  1.00  0.00     0.091 A 
ATOM     66  F   UNL A   1      43.509  25.566  34.769  1.00  0.00    -0.205 F 
ATOM     67  C   UNL A   1      46.983  26.591  35.308  1.00  0.00     0.022 A 
BRANCH  65  68
ATOM     68  S   UNL A   1      45.781  24.424  36.490  1.00  0.00     0.127 S 
ATOM     69  O   UNL A   1      47.196  24.304  36.838  1.00  0.00    -0.237 OA
ATOM     70  O   UNL A   1      44.919  24.857  37.590  1.00  0.00    -0.237 OA
ATOM     71  O   UNL A   1      45.232  23.337  35.691  1.00  0.00    -0.744 OA
ENDBRANCH  65  68
ENDBRANCH  38  61
ENDBRANCH  12  13
ENDBRANCH   5   7
ENDBRANCH   2   3
ENDBRANCH   1   2
BRANCH   1  72
ATOM     72  C   UNL A   1      31.110  27.463  24.980  1.00  0.00     0.023 C 
BRANCH  72  73
ATOM     73  C   UNL A   1      31.063  25.965  24.654  1.00  0.00     0.116 C 
BRANCH  73  74
ATOM     74  N   UNL A   1      30.953  25.189  25.868  1.00  0.00    -0.356 N 
ATOM     75  C   UNL A   1      31.572  24.063  26.305  1.00  0.00     0.226 C 
ATOM     76  H   UNL A   1      30.299  25.552  26.508  1.00  0.00     0.163 HD
ATOM     77  O   UNL A   1      30.991  23.524  27.253  1.00  0.00    -0.274 OA
BRANCH  75  78
ATOM     78  C   UNL A   1      32.941  23.537  25.771  1.00  0.00     0.053 C 
ATOM     79  C   UNL A   1      33.874  24.649  25.215  1.00  0.00     0.017 C 
ATOM     80  C   UNL A   1      33.655  22.810  26.938  1.00  0.00     0.017 C 
ATOM     81  C   UNL A   1      35.298  24.183  24.892  1.00  0.00     0.001 C 
ATOM     82  C   UNL A   1      35.057  22.317  26.580  1.00  0.00     0.001 C 
ATOM     83  C   UNL A   1      35.935  23.453  26.070  1.00  0.00     0.000 C 
BRANCH  78  84
ATOM     84  C   UNL A   1      32.655  22.570  24.561  1.00  0.00     0.044 C 
BRANCH  84  85
ATOM     85  C   UNL A   1      33.135  21.144  24.662  1.00  0.00    -0.025 C 
ATOM     86  C   UNL A   1      32.375  20.102  24.286  1.00  0.00     0.004 C 
BRANCH  86  87
ATOM     87  C   UNL A   1      32.770  18.700  24.438  1.00  0.00    -0.026 A 
ATOM     88  C   UNL A   1      33.260  18.001  23.329  1.00  0.00     0.008 A 
ATOM     89  C   UNL A   1      32.582  18.017  25.646  1.00  0.00     0.008 A 
ATOM     90  C   UNL A   1      33.582  16.646  23.435  1.00  0.00     0.001 A 
ATOM     91  C   UNL A   1      32.903  16.663  25.750  1.00  0.00     0.001 A 
ATOM     92  C   UNL A   1      33.406  15.979  24.645  1.00  0.00     0.000 A 
ENDBRANCH  86  87
ENDBRANCH  84  85
ENDBRANCH  78  84
ENDBRANCH  75  78
ENDBRANCH  73  74
ENDBRANCH  72  73
ENDBRANCH   1  72
TORSDOF 17
ENDMDL
MODEL 2
REMARK VINA RESULT:     -12.2      5.198     10.460
REMARK SMILES O=C(NCCCCNC(=O)C1(C/C=C/c2ccccc2)CCCCC1)c1ccc(-c2c3nc(c(-c4cccc(S(=O)(=O)[O-])c4F)c4ccc([nH]4)c(-c4cccc(S(=O)(=O)[O-])c4F)c4nc(c(-c5cccc(S(=O)(=O)[O-])c5F)c5ccc2[nH]5)C=C4)C=C3)cc1
REMARK SMILES IDX 5 1 4 2 3 3 1 4 2 5 26 7 27 8 88 9 28 10 87 11 29 12 30 13
REMARK SMILES IDX 31 14 81 15 32 16 86 17 80 18 82 19 33 20 85 21 79 22 78 23
REMARK SMILES IDX 34 25 66 26 46 27 65 28 47 29 50 30 64 31 83 32 48 33 49 34
REMARK SMILES IDX 63 36 84 37 51 38 35 39 36 40 44 41 37 42 39 43 45 44 38 45
REMARK SMILES IDX 40 46 41 47 42 48 43 49 67 50 68 51 76 52 69 53 71 54 77 55
REMARK SMILES IDX 70 56 72 57 73 58 74 59 75 60 52 61 53 62 61 63 54 64 56 65
REMARK SMILES IDX 62 66 55 67 57 68 58 69 59 70 60 71 6 72 7 73 8 74 9 75
REMARK SMILES IDX 10 77 11 78 21 79 25 80 22 81 24 82 23 83 12 84 13 85 14 86
REMARK SMILES IDX 15 87 16 88 20 89 17 90 19 91 18 92
REMARK H PARENT 3 6 82 24 50 35 8 76
REMARK Flexibility Score: inf
ROOT
ATOM      1  C   UNL A   1      35.787  23.054  24.513  1.00  0.00     0.023 C 
ENDROOT
BRANCH   1   2
ATOM      2  C   UNL A   1      36.547  22.844  25.814  1.00  0.00     0.116 C 
BRANCH   2   3
ATOM      3  N   UNL A   1      37.507  21.754  25.750  1.00  0.00    -0.352 N 
ATOM      4  O   UNL A   1      39.549  20.806  25.884  1.00  0.00    -0.269 OA
ATOM      5  C   UNL A   1      38.842  21.777  26.092  1.00  0.00     0.251 C 
ATOM      6  H   UNL A   1      37.161  20.892  25.423  1.00  0.00     0.163 HD
BRANCH   5   7
ATOM      7  C   UNL A   1      39.401  23.020  26.669  1.00  0.00     0.039 A 
ATOM      8  C   UNL A   1      39.040  24.262  26.145  1.00  0.00     0.014 A 
ATOM      9  C   UNL A   1      40.331  22.932  27.708  1.00  0.00     0.014 A 
ATOM     10  C   UNL A   1      39.719  25.401  26.554  1.00  0.00     0.010 A 
ATOM     11  C   UNL A   1      40.951  24.093  28.179  1.00  0.00     0.010 A 
ATOM     12  C   UNL A   1      40.677  25.332  27.580  1.00  0.00    -0.014 A 
BRANCH  12  13
ATOM     13  C   UNL A   1      41.316  26.589  28.044  1.00  0.00     0.031 A 
ATOM     14  C   UNL A   1      42.754  26.901  27.736  1.00  0.00     0.074 A 
ATOM     15  C   UNL A   1      40.557  27.474  28.718  1.00  0.00     0.049 A 
ATOM     16  N   UNL A   1      43.429  27.990  28.003  1.00  0.00    -0.248 NA
ATOM     17  C   UNL A   1      43.541  25.862  27.053  1.00  0.00     0.031 C 
ATOM     18  C   UNL A   1      39.166  27.249  29.120  1.00  0.00     0.029 A 
ATOM     19  N   UNL A   1      40.833  28.738  29.169  1.00  0.00    -0.354 N 
ATOM     20  C   UNL A   1      44.723  27.763  27.550  1.00  0.00     0.074 A 
ATOM     21  C   UNL A   1      44.743  26.423  27.001  1.00  0.00     0.031 C 
ATOM     22  C   UNL A   1      38.699  28.352  29.722  1.00  0.00     0.029 A 
ATOM     23  C   UNL A   1      39.765  29.344  29.789  1.00  0.00     0.049 A 
ATOM     24  H   UNL A   1      41.711  29.171  29.062  1.00  0.00     0.167 HD
ATOM     25  C   UNL A   1      45.786  28.601  27.570  1.00  0.00     0.034 A 
ATOM     26  C   UNL A   1      39.653  30.562  30.350  1.00  0.00     0.034 A 
ATOM     27  C   UNL A   1      45.747  29.944  28.086  1.00  0.00     0.049 A 
ATOM     28  C   UNL A   1      40.831  31.490  30.299  1.00  0.00     0.074 A 
ATOM     29  C   UNL A   1      46.764  30.882  28.126  1.00  0.00     0.029 A 
ATOM     30  N   UNL A   1      44.631  30.546  28.648  1.00  0.00    -0.354 N 
ATOM     31  N   UNL A   1      42.011  31.293  29.764  1.00  0.00    -0.248 NA
ATOM     32  C   UNL A   1      40.654  32.819  30.901  1.00  0.00     0.031 C 
ATOM     33  C   UNL A   1      46.262  32.050  28.712  1.00  0.00     0.029 A 
ATOM     34  C   UNL A   1      44.930  31.843  29.031  1.00  0.00     0.049 A 
ATOM     35  H   UNL A   1      43.752  30.114  28.758  1.00  0.00     0.167 HD
ATOM     36  C   UNL A   1      42.718  32.473  29.959  1.00  0.00     0.074 A 
ATOM     37  C   UNL A   1      41.815  33.395  30.619  1.00  0.00     0.031 C 
ATOM     38  C   UNL A   1      44.006  32.758  29.649  1.00  0.00     0.034 A 
BRANCH  25  39
ATOM     39  C   UNL A   1      47.077  28.115  26.962  1.00  0.00     0.023 A 
ATOM     40  C   UNL A   1      48.116  27.685  27.811  1.00  0.00     0.012 A 
ATOM     41  C   UNL A   1      47.236  28.007  25.567  1.00  0.00     0.148 A 
ATOM     42  C   UNL A   1      49.300  27.171  27.283  1.00  0.00     0.002 A 
ATOM     43  C   UNL A   1      48.407  27.461  25.047  1.00  0.00     0.091 A 
ATOM     44  F   UNL A   1      46.246  28.441  24.774  1.00  0.00    -0.205 F 
ATOM     45  C   UNL A   1      49.441  27.049  25.903  1.00  0.00     0.022 A 
BRANCH  43  46
ATOM     46  S   UNL A   1      48.657  27.199  23.287  1.00  0.00     0.127 S 
ATOM     47  O   UNL A   1      47.911  28.318  22.713  1.00  0.00    -0.237 OA
ATOM     48  O   UNL A   1      50.110  27.306  23.160  1.00  0.00    -0.237 OA
ATOM     49  O   UNL A   1      48.120  25.875  23.000  1.00  0.00    -0.744 OA
ENDBRANCH  43  46
ENDBRANCH  25  39
BRANCH  26  50
ATOM     50  C   UNL A   1      38.355  30.975  30.951  1.00  0.00     0.023 A 
ATOM     51  C   UNL A   1      38.163  30.857  32.341  1.00  0.00     0.012 A 
ATOM     52  C   UNL A   1      37.340  31.553  30.165  1.00  0.00     0.148 A 
ATOM     53  C   UNL A   1      36.976  31.290  32.932  1.00  0.00     0.002 A 
ATOM     54  C   UNL A   1      36.188  32.041  30.769  1.00  0.00     0.091 A 
ATOM     55  F   UNL A   1      37.529  31.638  28.840  1.00  0.00    -0.205 F 
ATOM     56  C   UNL A   1      35.995  31.896  32.149  1.00  0.00     0.022 A 
BRANCH  54  57
ATOM     57  S   UNL A   1      34.975  32.981  29.836  1.00  0.00     0.127 S 
ATOM     58  O   UNL A   1      34.080  33.449  30.889  1.00  0.00    -0.237 OA
ATOM     59  O   UNL A   1      35.796  34.025  29.216  1.00  0.00    -0.237 OA
ATOM     60  O   UNL A   1      34.415  32.029  28.885  1.00  0.00    -0.744 OA
ENDBRANCH  54  57
ENDBRANCH  26  50
BRANCH  38  61
ATOM     61  C   UNL A   1      44.515  34.121  30.032  1.00  0.00     0.023 A 
ATOM     62  C   UNL A   1      45.135  34.298  31.284  1.00  0.00     0.012 A 
ATOM     63  C   UNL A   1      44.416  35.210  29.146  1.00  0.00     0.148 A 
ATOM     64  C   UNL A   1      45.620  35.548  31.664  1.00  0.00     0.002 A 
ATOM     65  C   UNL A   1      44.939  36.445  29.516  1.00  0.00     0.091 A 
ATOM     66  F   UNL A   1      43.800  35.030  27.969  1.00  0.00    -0.205 F 
ATOM     67  C   UNL A   1      45.531  36.618  30.777  1.00  0.00     0.022 A 
BRANCH  65  68
ATOM     68  S   UNL A   1      44.933  37.851  28.398  1.00  0.00     0.127 S 
ATOM     69  O   UNL A   1      43.503  38.037  28.159  1.00  0.00    -0.237 OA
ATOM     70  O   UNL A   1      45.556  38.901  29.205  1.00  0.00    -0.237 OA
ATOM     71  O   UNL A   1      45.720  37.437  27.244  1.00  0.00    -0.744 OA
ENDBRANCH  65  68
ENDBRANCH  38  61
ENDBRANCH  12  13
ENDBRANCH   5   7
ENDBRANCH   2   3
ENDBRANCH   1   2
BRANCH   1  72
ATOM     72  C   UNL A   1      34.388  22.430  24.479  1.00  0.00     0.023 C 
BRANCH  72  73
ATOM     73  C   UNL A   1      33.269  23.392  24.063  1.00  0.00     0.116 C 
BRANCH  73  74
ATOM     74  N   UNL A   1      33.739  24.301  23.042  1.00  0.00    -0.356 N 
ATOM     75  C   UNL A   1      33.560  25.629  22.833  1.00  0.00     0.226 C 
ATOM     76  H   UNL A   1      34.304  23.868  22.361  1.00  0.00     0.163 HD
ATOM     77  O   UNL A   1      33.856  25.987  21.688  1.00  0.00    -0.274 OA
BRANCH  75  78
ATOM     78  C   UNL A   1      33.141  26.654  23.935  1.00  0.00     0.053 C 
ATOM     79  C   UNL A   1      33.531  26.227  25.377  1.00  0.00     0.017 C 
ATOM     80  C   UNL A   1      33.818  28.007  23.603  1.00  0.00     0.017 C 
ATOM     81  C   UNL A   1      33.326  27.313  26.439  1.00  0.00     0.001 C 
ATOM     82  C   UNL A   1      33.566  29.087  24.654  1.00  0.00     0.001 C 
ATOM     83  C   UNL A   1      33.993  28.626  26.043  1.00  0.00     0.000 C 
BRANCH  78  84
ATOM     84  C   UNL A   1      31.570  26.764  23.927  1.00  0.00     0.044 C 
BRANCH  84  85
ATOM     85  C   UNL A   1      30.941  27.923  23.196  1.00  0.00    -0.025 C 
ATOM     86  C   UNL A   1      30.142  28.811  23.810  1.00  0.00     0.004 C 
BRANCH  86  87
ATOM     87  C   UNL A   1      29.451  29.905  23.124  1.00  0.00    -0.026 A 
ATOM     88  C   UNL A   1      29.230  31.110  23.801  1.00  0.00     0.008 A 
ATOM     89  C   UNL A   1      28.922  29.739  21.838  1.00  0.00     0.008 A 
ATOM     90  C   UNL A   1      28.516  32.142  23.190  1.00  0.00     0.001 A 
ATOM     91  C   UNL A   1      28.208  30.771  21.228  1.00  0.00     0.001 A 
ATOM     92  C   UNL A   1      28.008  31.973  21.903  1.00  0.00     0.000 A 
ENDBRANCH  86  87
ENDBRANCH  84  85
ENDBRANCH  78  84
ENDBRANCH  75  78
ENDBRANCH  73  74
ENDBRANCH  72  73
ENDBRANCH   1  72
TORSDOF 17
ENDMDL
MODEL 3
REMARK VINA RESULT:     -12.1      1.789      3.715
REMARK SMILES O=C(NCCCCNC(=O)C1(C/C=C/c2ccccc2)CCCCC1)c1ccc(-c2c3nc(c(-c4cccc(S(=O)(=O)[O-])c4F)c4ccc([nH]4)c(-c4cccc(S(=O)(=O)[O-])c4F)c4nc(c(-c5cccc(S(=O)(=O)[O-])c5F)c5ccc2[nH]5)C=C4)C=C3)cc1
REMARK SMILES IDX 5 1 4 2 3 3 1 4 2 5 26 7 27 8 88 9 28 10 87 11 29 12 30 13
REMARK SMILES IDX 31 14 81 15 32 16 86 17 80 18 82 19 33 20 85 21 79 22 78 23
REMARK SMILES IDX 34 25 66 26 46 27 65 28 47 29 50 30 64 31 83 32 48 33 49 34
REMARK SMILES IDX 63 36 84 37 51 38 35 39 36 40 44 41 37 42 39 43 45 44 38 45
REMARK SMILES IDX 40 46 41 47 42 48 43 49 67 50 68 51 76 52 69 53 71 54 77 55
REMARK SMILES IDX 70 56 72 57 73 58 74 59 75 60 52 61 53 62 61 63 54 64 56 65
REMARK SMILES IDX 62 66 55 67 57 68 58 69 59 70 60 71 6 72 7 73 8 74 9 75
REMARK SMILES IDX 10 77 11 78 21 79 25 80 22 81 24 82 23 83 12 84 13 85 14 86
REMARK SMILES IDX 15 87 16 88 20 89 17 90 19 91 18 92
REMARK H PARENT 3 6 82 24 50 35 8 76
REMARK Flexibility Score: inf
ROOT
ATOM      1  C   UNL A   1      31.934  28.839  27.239  1.00  0.00     0.023 C 
ENDROOT
BRANCH   1   2
ATOM      2  C   UNL A   1      33.014  29.718  26.628  1.00  0.00     0.116 C 
BRANCH   2   3
ATOM      3  N   UNL A   1      32.791  31.139  26.845  1.00  0.00    -0.352 N 
ATOM      4  O   UNL A   1      33.224  33.177  27.710  1.00  0.00    -0.269 OA
ATOM      5  C   UNL A   1      33.596  32.032  27.519  1.00  0.00     0.251 C 
ATOM      6  H   UNL A   1      31.963  31.510  26.462  1.00  0.00     0.163 HD
BRANCH   5   7
ATOM      7  C   UNL A   1      34.894  31.552  28.044  1.00  0.00     0.039 A 
ATOM      8  C   UNL A   1      34.995  30.285  28.619  1.00  0.00     0.014 A 
ATOM      9  C   UNL A   1      36.002  32.403  28.005  1.00  0.00     0.014 A 
ATOM     10  C   UNL A   1      36.158  29.927  29.287  1.00  0.00     0.010 A 
ATOM     11  C   UNL A   1      37.200  32.003  28.603  1.00  0.00     0.010 A 
ATOM     12  C   UNL A   1      37.276  30.777  29.281  1.00  0.00    -0.014 A 
BRANCH  12  13
ATOM     13  C   UNL A   1      38.526  30.316  29.936  1.00  0.00     0.031 A 
ATOM     14  C   UNL A   1      38.900  30.762  31.322  1.00  0.00     0.074 A 
ATOM     15  C   UNL A   1      39.305  29.442  29.269  1.00  0.00     0.049 A 
ATOM     16  N   UNL A   1      39.915  30.384  32.056  1.00  0.00    -0.248 NA
ATOM     17  C   UNL A   1      38.038  31.766  31.965  1.00  0.00     0.031 C 
ATOM     18  C   UNL A   1      39.066  28.985  27.897  1.00  0.00     0.029 A 
ATOM     19  N   UNL A   1      40.438  28.772  29.650  1.00  0.00    -0.354 N 
ATOM     20  C   UNL A   1      39.834  31.118  33.233  1.00  0.00     0.074 A 
ATOM     21  C   UNL A   1      38.675  31.977  33.111  1.00  0.00     0.031 C 
ATOM     22  C   UNL A   1      39.999  28.082  27.567  1.00  0.00     0.029 A 
ATOM     23  C   UNL A   1      40.926  27.927  28.682  1.00  0.00     0.049 A 
ATOM     24  H   UNL A   1      40.863  28.886  30.531  1.00  0.00     0.167 HD
ATOM     25  C   UNL A   1      40.638  31.065  34.321  1.00  0.00     0.034 A 
ATOM     26  C   UNL A   1      41.999  27.115  28.687  1.00  0.00     0.034 A 
ATOM     27  C   UNL A   1      41.769  30.182  34.448  1.00  0.00     0.049 A 
ATOM     28  C   UNL A   1      42.834  27.031  29.931  1.00  0.00     0.074 A 
ATOM     29  C   UNL A   1      42.630  30.032  35.522  1.00  0.00     0.029 A 
ATOM     30  N   UNL A   1      42.195  29.294  33.471  1.00  0.00    -0.354 N 
ATOM     31  N   UNL A   1      42.671  27.653  31.074  1.00  0.00    -0.248 NA
ATOM     32  C   UNL A   1      43.980  26.113  29.900  1.00  0.00     0.031 C 
ATOM     33  C   UNL A   1      43.576  29.054  35.194  1.00  0.00     0.029 A 
ATOM     34  C   UNL A   1      43.300  28.589  33.918  1.00  0.00     0.049 A 
ATOM     35  H   UNL A   1      41.773  29.180  32.589  1.00  0.00     0.167 HD
ATOM     36  C   UNL A   1      43.690  27.198  31.901  1.00  0.00     0.074 A 
ATOM     37  C   UNL A   1      44.435  26.214  31.142  1.00  0.00     0.031 C 
ATOM     38  C   UNL A   1      44.003  27.583  33.163  1.00  0.00     0.034 A 
BRANCH  25  39
ATOM     39  C   UNL A   1      40.295  31.944  35.495  1.00  0.00     0.023 A 
ATOM     40  C   UNL A   1      41.048  33.114  35.721  1.00  0.00     0.012 A 
ATOM     41  C   UNL A   1      39.188  31.665  36.322  1.00  0.00     0.148 A 
ATOM     42  C   UNL A   1      40.718  33.983  36.760  1.00  0.00     0.002 A 
ATOM     43  C   UNL A   1      38.844  32.555  37.336  1.00  0.00     0.091 A 
ATOM     44  F   UNL A   1      38.497  30.537  36.107  1.00  0.00    -0.205 F 
ATOM     45  C   UNL A   1      39.611  33.710  37.559  1.00  0.00     0.022 A 
BRANCH  43  46
ATOM     46  S   UNL A   1      37.397  32.328  38.376  1.00  0.00     0.127 S 
ATOM     47  O   UNL A   1      37.303  30.870  38.436  1.00  0.00    -0.237 OA
ATOM     48  O   UNL A   1      37.810  32.964  39.627  1.00  0.00    -0.237 OA
ATOM     49  O   UNL A   1      36.301  32.999  37.689  1.00  0.00    -0.744 OA
ENDBRANCH  43  46
ENDBRANCH  25  39
BRANCH  26  50
ATOM     50  C   UNL A   1      42.296  26.285  27.487  1.00  0.00     0.023 A 
ATOM     51  C   UNL A   1      43.074  26.822  26.444  1.00  0.00     0.012 A 
ATOM     52  C   UNL A   1      41.875  24.944  27.408  1.00  0.00     0.148 A 
ATOM     53  C   UNL A   1      43.412  26.044  25.337  1.00  0.00     0.002 A 
ATOM     54  C   UNL A   1      42.269  24.155  26.334  1.00  0.00     0.091 A 
ATOM     55  F   UNL A   1      41.115  24.453  28.399  1.00  0.00    -0.205 F 
ATOM     56  C   UNL A   1      43.023  24.706  25.289  1.00  0.00     0.022 A 
BRANCH  54  57
ATOM     57  S   UNL A   1      41.943  22.389  26.307  1.00  0.00     0.127 S 
ATOM     58  O   UNL A   1      42.700  21.960  25.136  1.00  0.00    -0.237 OA
ATOM     59  O   UNL A   1      42.492  21.948  27.591  1.00  0.00    -0.237 OA
ATOM     60  O   UNL A   1      40.492  22.278  26.217  1.00  0.00    -0.744 OA
ENDBRANCH  54  57
ENDBRANCH  26  50
BRANCH  38  61
ATOM     61  C   UNL A   1      45.208  26.942  33.794  1.00  0.00     0.023 A 
ATOM     62  C   UNL A   1      46.460  27.577  33.690  1.00  0.00     0.012 A 
ATOM     63  C   UNL A   1      45.098  25.740  34.518  1.00  0.00     0.148 A 
ATOM     64  C   UNL A   1      47.594  27.009  34.268  1.00  0.00     0.002 A 
ATOM     65  C   UNL A   1      46.226  25.200  35.127  1.00  0.00     0.091 A 
ATOM     66  F   UNL A   1      43.903  25.136  34.586  1.00  0.00    -0.205 F 
ATOM     67  C   UNL A   1      47.475  25.827  34.994  1.00  0.00     0.022 A 
BRANCH  65  68
ATOM     68  S   UNL A   1      46.139  23.723  36.145  1.00  0.00     0.127 S 
ATOM     69  O   UNL A   1      45.950  24.291  37.479  1.00  0.00    -0.237 OA
ATOM     70  O   UNL A   1      44.967  23.033  35.605  1.00  0.00    -0.237 OA
ATOM     71  O   UNL A   1      47.399  23.023  35.929  1.00  0.00    -0.744 OA
ENDBRANCH  65  68
ENDBRANCH  38  61
ENDBRANCH  12  13
ENDBRANCH   5   7
ENDBRANCH   2   3
ENDBRANCH   1   2
BRANCH   1  72
ATOM     72  C   UNL A   1      31.452  27.695  26.342  1.00  0.00     0.023 C 
BRANCH  72  73
ATOM     73  C   UNL A   1      32.330  26.439  26.378  1.00  0.00     0.116 C 
BRANCH  73  74
ATOM     74  N   UNL A   1      31.606  25.334  26.964  1.00  0.00    -0.356 N 
ATOM     75  C   UNL A   1      31.162  24.152  26.468  1.00  0.00     0.226 C 
ATOM     76  H   UNL A   1      31.394  25.465  27.917  1.00  0.00     0.163 HD
ATOM     77  O   UNL A   1      30.314  23.610  27.184  1.00  0.00    -0.274 OA
BRANCH  75  78
ATOM     78  C   UNL A   1      31.728  23.457  25.189  1.00  0.00     0.053 C 
ATOM     79  C   UNL A   1      33.119  23.986  24.743  1.00  0.00     0.017 C 
ATOM     80  C   UNL A   1      31.830  21.939  25.483  1.00  0.00     0.017 C 
ATOM     81  C   UNL A   1      33.783  23.170  23.628  1.00  0.00     0.001 C 
ATOM     82  C   UNL A   1      32.456  21.139  24.340  1.00  0.00     0.001 C 
ATOM     83  C   UNL A   1      33.830  21.684  23.966  1.00  0.00     0.000 C 
BRANCH  78  84
ATOM     84  C   UNL A   1      30.747  23.760  23.994  1.00  0.00     0.044 C 
BRANCH  84  85
ATOM     85  C   UNL A   1      30.643  25.182  23.503  1.00  0.00    -0.025 C 
ATOM     86  C   UNL A   1      29.572  25.952  23.756  1.00  0.00     0.004 C 
BRANCH  86  87
ATOM     87  C   UNL A   1      29.394  27.309  23.234  1.00  0.00    -0.026 A 
ATOM     88  C   UNL A   1      30.504  28.005  22.742  1.00  0.00     0.008 A 
ATOM     89  C   UNL A   1      28.157  27.960  23.305  1.00  0.00     0.008 A 
ATOM     90  C   UNL A   1      30.371  29.323  22.299  1.00  0.00     0.001 A 
ATOM     91  C   UNL A   1      28.025  29.278  22.863  1.00  0.00     0.001 A 
ATOM     92  C   UNL A   1      29.131  29.957  22.358  1.00  0.00     0.000 A 
ENDBRANCH  86  87
ENDBRANCH  84  85
ENDBRANCH  78  84
ENDBRANCH  75  78
ENDBRANCH  73  74
ENDBRANCH  72  73
ENDBRANCH   1  72
TORSDOF 17
ENDMDL
