MODEL 1
REMARK VINA RESULT:     -12.9      0.000      0.000
REMARK SMILES Cc1cc(OC(F)(F)F)cc2c1O[C@H](C(F)(F)F)C(C(=O)NCCCCNC(=O)c1ccc(-c3c4nc(c(-c5cccc(S(=O)(=O)[O-])c5F)c5ccc([nH]5)c(-c5cccc(S(=O)(=O)[O-])c5F)c5nc(c(-c6cccc(S(=O)(=O)[O-])c6F)c6ccc3[nH]6)C=C5)C=C4)cc1)=C2
REMARK SMILES IDX 25 1 24 2 23 3 22 4 20 5 21 6 19 8 1 9 2 10 3 11 12 12 4 13
REMARK SMILES IDX 11 14 13 15 10 16 93 17 14 18 5 19 6 20 7 21 8 22 9 23 15 24
REMARK SMILES IDX 16 25 17 26 18 27 26 28 27 29 28 30 29 32 30 33 31 34 92 35
REMARK SMILES IDX 32 36 91 37 33 38 34 39 35 40 85 41 36 42 90 43 84 44 86 45
REMARK SMILES IDX 37 46 89 47 83 48 82 49 38 51 70 52 50 53 69 54 51 55 54 56
REMARK SMILES IDX 68 57 87 58 52 59 53 60 67 62 88 63 55 64 39 65 40 66 48 67
REMARK SMILES IDX 41 68 43 69 49 70 42 71 44 72 45 73 46 74 47 75 71 76 72 77
REMARK SMILES IDX 80 78 73 79 75 80 81 81 74 82 76 83 77 84 78 85 79 86 56 87
REMARK SMILES IDX 57 88 65 89 58 90 60 91 66 92 59 93 61 94 62 95 63 96 64 97
REMARK H PARENT 22 7 27 31 86 50 54 61
REMARK Flexibility Score: inf
ROOT
ATOM      1  C   UNL A   1      31.660  28.487  25.375  1.00  0.00     0.023 C 
ENDROOT
BRANCH   1   2
ATOM      2  C   UNL A   1      31.353  28.260  23.891  1.00  0.00     0.023 C 
BRANCH   2   3
ATOM      3  C   UNL A   1      31.198  26.791  23.503  1.00  0.00     0.116 C 
BRANCH   3   4
ATOM      4  N   UNL A   1      31.878  26.479  22.259  1.00  0.00    -0.352 N 
ATOM      5  C   UNL A   1      32.789  25.575  21.833  1.00  0.00     0.251 C 
ATOM      6  O   UNL A   1      33.105  25.662  20.641  1.00  0.00    -0.270 OA
ATOM      7  H   UNL A   1      31.603  27.086  21.534  1.00  0.00     0.163 HD
BRANCH   5   8
ATOM      8  C   UNL A   1      33.419  24.517  22.678  1.00  0.00     0.067 C 
ATOM      9  C   UNL A   1      36.522  21.498  25.437  1.00  0.00     0.048 C 
ATOM     10  C   UNL A   1      35.164  21.342  24.814  1.00  0.00    -0.005 A 
ATOM     11  C   UNL A   1      34.431  20.158  24.996  1.00  0.00     0.054 A 
ATOM     12  C   UNL A   1      34.606  22.377  24.053  1.00  0.00     0.131 A 
ATOM     13  C   UNL A   1      33.167  20.005  24.417  1.00  0.00     0.130 A 
ATOM     14  C   UNL A   1      33.348  22.234  23.466  1.00  0.00     0.021 A 
ATOM     15  O   UNL A   1      35.357  23.508  23.871  1.00  0.00    -0.475 OA
ATOM     16  C   UNL A   1      32.634  21.048  23.652  1.00  0.00     0.058 A 
ATOM     17  C   UNL A   1      32.817  23.313  22.641  1.00  0.00     0.025 C 
ATOM     18  C   UNL A   1      34.613  24.724  23.565  1.00  0.00     0.314 C 
BRANCH  13  19
ATOM     19  O   UNL A   1      32.359  18.909  24.516  1.00  0.00    -0.406 OA
BRANCH  19  20
ATOM     20  C   UNL A   1      32.602  17.824  23.638  1.00  0.00     0.573 C 
ATOM     21  F   UNL A   1      31.843  17.915  22.524  1.00  0.00    -0.132 F 
ATOM     22  F   UNL A   1      33.905  17.758  23.290  1.00  0.00    -0.132 F 
ATOM     23  F   UNL A   1      32.279  16.674  24.269  1.00  0.00    -0.132 F 
ENDBRANCH  19  20
ENDBRANCH  13  19
BRANCH  18  24
ATOM     24  C   UNL A   1      34.262  25.447  24.878  1.00  0.00     0.429 C 
ATOM     25  F   UNL A   1      34.295  26.793  24.700  1.00  0.00    -0.167 F 
ATOM     26  F   UNL A   1      33.019  25.149  25.321  1.00  0.00    -0.167 F 
ATOM     27  F   UNL A   1      35.120  25.155  25.882  1.00  0.00    -0.167 F 
ENDBRANCH  18  24
ENDBRANCH   5   8
ENDBRANCH   3   4
ENDBRANCH   2   3
ENDBRANCH   1   2
BRANCH   1  28
ATOM     28  C   UNL A   1      32.773  29.493  25.671  1.00  0.00     0.116 C 
BRANCH  28  29
ATOM     29  N   UNL A   1      32.289  30.768  26.187  1.00  0.00    -0.352 N 
ATOM     30  C   UNL A   1      32.924  31.597  27.082  1.00  0.00     0.251 C 
ATOM     31  H   UNL A   1      31.411  31.068  25.858  1.00  0.00     0.163 HD
ATOM     32  O   UNL A   1      32.386  32.620  27.490  1.00  0.00    -0.269 OA
BRANCH  30  33
ATOM     33  C   UNL A   1      34.253  31.196  27.574  1.00  0.00     0.039 A 
ATOM     34  C   UNL A   1      35.248  32.169  27.693  1.00  0.00     0.014 A 
ATOM     35  C   UNL A   1      34.467  29.887  28.017  1.00  0.00     0.014 A 
ATOM     36  C   UNL A   1      36.446  31.845  28.329  1.00  0.00     0.010 A 
ATOM     37  C   UNL A   1      35.648  29.576  28.680  1.00  0.00     0.010 A 
ATOM     38  C   UNL A   1      36.638  30.557  28.855  1.00  0.00    -0.014 A 
BRANCH  38  39
ATOM     39  C   UNL A   1      37.854  30.222  29.628  1.00  0.00     0.031 A 
ATOM     40  C   UNL A   1      38.870  29.280  29.056  1.00  0.00     0.074 A 
ATOM     41  C   UNL A   1      37.996  30.703  30.879  1.00  0.00     0.049 A 
ATOM     42  N   UNL A   1      39.959  28.815  29.608  1.00  0.00    -0.248 NA
ATOM     43  C   UNL A   1      38.621  28.781  27.694  1.00  0.00     0.031 C 
ATOM     44  C   UNL A   1      37.042  31.582  31.560  1.00  0.00     0.029 A 
ATOM     45  N   UNL A   1      38.985  30.502  31.808  1.00  0.00    -0.354 N 
ATOM     46  C   UNL A   1      40.512  27.949  28.676  1.00  0.00     0.074 A 
ATOM     47  C   UNL A   1      39.632  27.938  27.527  1.00  0.00     0.031 C 
ATOM     48  C   UNL A   1      37.494  31.844  32.797  1.00  0.00     0.029 A 
ATOM     49  C   UNL A   1      38.758  31.143  33.003  1.00  0.00     0.049 A 
ATOM     50  H   UNL A   1      39.782  29.952  31.634  1.00  0.00     0.167 HD
ATOM     51  C   UNL A   1      41.667  27.248  28.758  1.00  0.00     0.034 A 
ATOM     52  C   UNL A   1      39.489  31.165  34.134  1.00  0.00     0.034 A 
ATOM     53  C   UNL A   1      42.564  27.299  29.877  1.00  0.00     0.049 A 
ATOM     54  C   UNL A   1      40.789  30.412  34.183  1.00  0.00     0.074 A 
ATOM     55  C   UNL A   1      43.789  26.672  30.024  1.00  0.00     0.029 A 
ATOM     56  N   UNL A   1      42.339  28.022  31.037  1.00  0.00    -0.354 N 
ATOM     57  N   UNL A   1      41.356  29.693  33.244  1.00  0.00    -0.248 NA
ATOM     58  C   UNL A   1      41.564  30.494  35.430  1.00  0.00     0.031 C 
ATOM     59  C   UNL A   1      44.310  27.027  31.272  1.00  0.00     0.029 A 
ATOM     60  C   UNL A   1      43.406  27.867  31.903  1.00  0.00     0.049 A 
ATOM     61  H   UNL A   1      41.538  28.566  31.218  1.00  0.00     0.167 HD
ATOM     62  C   UNL A   1      42.564  29.259  33.775  1.00  0.00     0.074 A 
ATOM     63  C   UNL A   1      42.654  29.803  35.115  1.00  0.00     0.031 C 
ATOM     64  C   UNL A   1      43.505  28.467  33.208  1.00  0.00     0.034 A 
BRANCH  51  65
ATOM     65  C   UNL A   1      42.064  26.427  27.567  1.00  0.00     0.023 A 
ATOM     66  C   UNL A   1      42.781  27.047  26.525  1.00  0.00     0.012 A 
ATOM     67  C   UNL A   1      41.789  25.048  27.502  1.00  0.00     0.148 A 
ATOM     68  C   UNL A   1      43.209  26.308  25.424  1.00  0.00     0.002 A 
ATOM     69  C   UNL A   1      42.239  24.314  26.412  1.00  0.00     0.091 A 
ATOM     70  F   UNL A   1      41.087  24.489  28.498  1.00  0.00    -0.205 F 
ATOM     71  C   UNL A   1      42.946  24.942  25.372  1.00  0.00     0.022 A 
BRANCH  69  72
ATOM     72  S   UNL A   1      41.989  22.541  26.262  1.00  0.00     0.127 S 
ATOM     73  O   UNL A   1      40.531  22.454  26.201  1.00  0.00    -0.237 OA
ATOM     74  O   UNL A   1      42.673  22.239  25.004  1.00  0.00    -0.237 OA
ATOM     75  O   UNL A   1      42.599  21.948  27.445  1.00  0.00    -0.744 OA
ENDBRANCH  69  72
ENDBRANCH  51  65
BRANCH  52  76
ATOM     76  C   UNL A   1      39.047  32.010  35.276  1.00  0.00     0.023 A 
ATOM     77  C   UNL A   1      39.183  33.408  35.179  1.00  0.00     0.012 A 
ATOM     78  C   UNL A   1      38.439  31.452  36.416  1.00  0.00     0.148 A 
ATOM     79  C   UNL A   1      38.732  34.238  36.204  1.00  0.00     0.002 A 
ATOM     80  C   UNL A   1      37.960  32.287  37.420  1.00  0.00     0.091 A 
ATOM     81  F   UNL A   1      38.325  30.118  36.485  1.00  0.00    -0.205 F 
ATOM     82  C   UNL A   1      38.113  33.680  37.319  1.00  0.00     0.022 A 
BRANCH  80  83
ATOM     83  S   UNL A   1      37.058  31.673  38.846  1.00  0.00     0.127 S 
ATOM     84  O   UNL A   1      38.027  31.874  39.921  1.00  0.00    -0.237 OA
ATOM     85  O   UNL A   1      35.903  32.571  38.880  1.00  0.00    -0.237 OA
ATOM     86  O   UNL A   1      36.735  30.286  38.543  1.00  0.00    -0.744 OA
ENDBRANCH  80  83
ENDBRANCH  52  76
BRANCH  64  87
ATOM     87  C   UNL A   1      44.731  28.141  34.011  1.00  0.00     0.023 A 
ATOM     88  C   UNL A   1      45.734  29.118  34.156  1.00  0.00     0.012 A 
ATOM     89  C   UNL A   1      44.824  26.932  34.726  1.00  0.00     0.148 A 
ATOM     90  C   UNL A   1      46.817  28.895  35.004  1.00  0.00     0.002 A 
ATOM     91  C   UNL A   1      45.892  26.727  35.592  1.00  0.00     0.091 A 
ATOM     92  F   UNL A   1      43.861  26.014  34.557  1.00  0.00    -0.205 F 
ATOM     93  C   UNL A   1      46.890  27.707  35.730  1.00  0.00     0.022 A 
BRANCH  91  94
ATOM     94  S   UNL A   1      46.032  25.264  36.624  1.00  0.00     0.127 S 
ATOM     95  O   UNL A   1      44.745  25.265  37.317  1.00  0.00    -0.237 OA
ATOM     96  O   UNL A   1      46.191  24.199  35.632  1.00  0.00    -0.237 OA
ATOM     97  O   UNL A   1      47.197  25.480  37.471  1.00  0.00    -0.744 OA
ENDBRANCH  91  94
ENDBRANCH  64  87
ENDBRANCH  38  39
ENDBRANCH  30  33
ENDBRANCH  28  29
ENDBRANCH   1  28
TORSDOF 17
ENDMDL
MODEL 2
REMARK VINA RESULT:     -12.7      1.242      1.528
REMARK SMILES Cc1cc(OC(F)(F)F)cc2c1O[C@H](C(F)(F)F)C(C(=O)NCCCCNC(=O)c1ccc(-c3c4nc(c(-c5cccc(S(=O)(=O)[O-])c5F)c5ccc([nH]5)c(-c5cccc(S(=O)(=O)[O-])c5F)c5nc(c(-c6cccc(S(=O)(=O)[O-])c6F)c6ccc3[nH]6)C=C5)C=C4)cc1)=C2
REMARK SMILES IDX 25 1 24 2 23 3 22 4 20 5 21 6 19 8 1 9 2 10 3 11 12 12 4 13
REMARK SMILES IDX 11 14 13 15 10 16 93 17 14 18 5 19 6 20 7 21 8 22 9 23 15 24
REMARK SMILES IDX 16 25 17 26 18 27 26 28 27 29 28 30 29 32 30 33 31 34 92 35
REMARK SMILES IDX 32 36 91 37 33 38 34 39 35 40 85 41 36 42 90 43 84 44 86 45
REMARK SMILES IDX 37 46 89 47 83 48 82 49 38 51 70 52 50 53 69 54 51 55 54 56
REMARK SMILES IDX 68 57 87 58 52 59 53 60 67 62 88 63 55 64 39 65 40 66 48 67
REMARK SMILES IDX 41 68 43 69 49 70 42 71 44 72 45 73 46 74 47 75 71 76 72 77
REMARK SMILES IDX 80 78 73 79 75 80 81 81 74 82 76 83 77 84 78 85 79 86 56 87
REMARK SMILES IDX 57 88 65 89 58 90 60 91 66 92 59 93 61 94 62 95 63 96 64 97
REMARK H PARENT 22 7 27 31 86 50 54 61
REMARK Flexibility Score: inf
ROOT
ATOM      1  C   UNL A   1      31.754  28.530  25.540  1.00  0.00     0.023 C 
ENDROOT
BRANCH   1   2
ATOM      2  C   UNL A   1      31.325  28.293  24.087  1.00  0.00     0.023 C 
BRANCH   2   3
ATOM      3  C   UNL A   1      31.252  26.821  23.689  1.00  0.00     0.116 C 
BRANCH   3   4
ATOM      4  N   UNL A   1      31.937  26.559  22.436  1.00  0.00    -0.352 N 
ATOM      5  C   UNL A   1      32.845  25.668  21.976  1.00  0.00     0.251 C 
ATOM      6  O   UNL A   1      33.168  25.804  20.791  1.00  0.00    -0.270 OA
ATOM      7  H   UNL A   1      31.670  27.198  21.737  1.00  0.00     0.163 HD
BRANCH   5   8
ATOM      8  C   UNL A   1      33.463  24.570  22.778  1.00  0.00     0.067 C 
ATOM      9  C   UNL A   1      36.534  21.403  25.403  1.00  0.00     0.048 C 
ATOM     10  C   UNL A   1      35.170  21.292  24.784  1.00  0.00    -0.005 A 
ATOM     11  C   UNL A   1      34.419  20.114  24.929  1.00  0.00     0.054 A 
ATOM     12  C   UNL A   1      34.624  22.363  24.065  1.00  0.00     0.131 A 
ATOM     13  C   UNL A   1      33.150  20.002  24.354  1.00  0.00     0.130 A 
ATOM     14  C   UNL A   1      33.361  22.261  23.483  1.00  0.00     0.021 A 
ATOM     15  O   UNL A   1      35.391  23.487  23.920  1.00  0.00    -0.475 OA
ATOM     16  C   UNL A   1      32.628  21.080  23.631  1.00  0.00     0.058 A 
ATOM     17  C   UNL A   1      32.841  23.378  22.702  1.00  0.00     0.025 C 
ATOM     18  C   UNL A   1      34.666  24.725  23.663  1.00  0.00     0.314 C 
BRANCH  13  19
ATOM     19  O   UNL A   1      32.324  18.916  24.419  1.00  0.00    -0.406 OA
BRANCH  19  20
ATOM     20  C   UNL A   1      32.629  17.802  23.598  1.00  0.00     0.573 C 
ATOM     21  F   UNL A   1      31.907  17.823  22.457  1.00  0.00    -0.132 F 
ATOM     22  F   UNL A   1      33.944  17.759  23.299  1.00  0.00    -0.132 F 
ATOM     23  F   UNL A   1      32.316  16.671  24.268  1.00  0.00    -0.132 F 
ENDBRANCH  19  20
ENDBRANCH  13  19
BRANCH  18  24
ATOM     24  C   UNL A   1      34.335  25.406  25.005  1.00  0.00     0.429 C 
ATOM     25  F   UNL A   1      34.339  26.756  24.863  1.00  0.00    -0.167 F 
ATOM     26  F   UNL A   1      33.110  25.071  25.470  1.00  0.00    -0.167 F 
ATOM     27  F   UNL A   1      35.223  25.103  25.978  1.00  0.00    -0.167 F 
ENDBRANCH  18  24
ENDBRANCH   5   8
ENDBRANCH   3   4
ENDBRANCH   2   3
ENDBRANCH   1   2
BRANCH   1  28
ATOM     28  C   UNL A   1      32.868  29.558  25.738  1.00  0.00     0.116 C 
BRANCH  28  29
ATOM     29  N   UNL A   1      32.401  30.836  26.260  1.00  0.00    -0.352 N 
ATOM     30  C   UNL A   1      33.049  31.657  27.154  1.00  0.00     0.251 C 
ATOM     31  H   UNL A   1      31.524  31.146  25.938  1.00  0.00     0.163 HD
ATOM     32  O   UNL A   1      32.525  32.683  27.567  1.00  0.00    -0.269 OA
BRANCH  30  33
ATOM     33  C   UNL A   1      34.378  31.241  27.637  1.00  0.00     0.039 A 
ATOM     34  C   UNL A   1      35.381  32.204  27.758  1.00  0.00     0.014 A 
ATOM     35  C   UNL A   1      34.582  29.927  28.068  1.00  0.00     0.014 A 
ATOM     36  C   UNL A   1      36.579  31.866  28.386  1.00  0.00     0.010 A 
ATOM     37  C   UNL A   1      35.764  29.601  28.724  1.00  0.00     0.010 A 
ATOM     38  C   UNL A   1      36.763  30.573  28.901  1.00  0.00    -0.014 A 
BRANCH  38  39
ATOM     39  C   UNL A   1      37.980  30.222  29.667  1.00  0.00     0.031 A 
ATOM     40  C   UNL A   1      38.986  29.278  29.081  1.00  0.00     0.074 A 
ATOM     41  C   UNL A   1      38.130  30.690  30.921  1.00  0.00     0.049 A 
ATOM     42  N   UNL A   1      40.074  28.800  29.624  1.00  0.00    -0.248 NA
ATOM     43  C   UNL A   1      38.729  28.794  27.715  1.00  0.00     0.031 C 
ATOM     44  C   UNL A   1      37.185  31.568  31.614  1.00  0.00     0.029 A 
ATOM     45  N   UNL A   1      39.121  30.472  31.844  1.00  0.00    -0.354 N 
ATOM     46  C   UNL A   1      40.618  27.939  28.681  1.00  0.00     0.074 A 
ATOM     47  C   UNL A   1      39.733  27.946  27.536  1.00  0.00     0.031 C 
ATOM     48  C   UNL A   1      37.643  31.815  32.853  1.00  0.00     0.029 A 
ATOM     49  C   UNL A   1      38.903  31.103  33.046  1.00  0.00     0.049 A 
ATOM     50  H   UNL A   1      39.914  29.918  31.662  1.00  0.00     0.167 HD
ATOM     51  C   UNL A   1      41.768  27.230  28.752  1.00  0.00     0.034 A 
ATOM     52  C   UNL A   1      39.639  31.109  34.175  1.00  0.00     0.034 A 
ATOM     53  C   UNL A   1      42.670  27.263  29.868  1.00  0.00     0.049 A 
ATOM     54  C   UNL A   1      40.934  30.347  34.211  1.00  0.00     0.074 A 
ATOM     55  C   UNL A   1      43.891  26.627  30.004  1.00  0.00     0.029 A 
ATOM     56  N   UNL A   1      42.455  27.977  31.036  1.00  0.00    -0.354 N 
ATOM     57  N   UNL A   1      41.491  29.633  33.263  1.00  0.00    -0.248 NA
ATOM     58  C   UNL A   1      41.714  30.411  35.455  1.00  0.00     0.031 C 
ATOM     59  C   UNL A   1      44.419  26.966  31.254  1.00  0.00     0.029 A 
ATOM     60  C   UNL A   1      43.523  27.806  31.896  1.00  0.00     0.049 A 
ATOM     61  H   UNL A   1      41.657  28.524  31.225  1.00  0.00     0.167 HD
ATOM     62  C   UNL A   1      42.699  29.185  33.785  1.00  0.00     0.074 A 
ATOM     63  C   UNL A   1      42.798  29.715  35.130  1.00  0.00     0.031 C 
ATOM     64  C   UNL A   1      43.632  28.392  33.207  1.00  0.00     0.034 A 
BRANCH  51  65
ATOM     65  C   UNL A   1      42.155  26.418  27.552  1.00  0.00     0.023 A 
ATOM     66  C   UNL A   1      42.871  27.043  26.512  1.00  0.00     0.012 A 
ATOM     67  C   UNL A   1      41.871  25.041  27.475  1.00  0.00     0.148 A 
ATOM     68  C   UNL A   1      43.289  26.312  25.403  1.00  0.00     0.002 A 
ATOM     69  C   UNL A   1      42.312  24.314  26.376  1.00  0.00     0.091 A 
ATOM     70  F   UNL A   1      41.170  24.477  28.468  1.00  0.00    -0.205 F 
ATOM     71  C   UNL A   1      43.017  24.948  25.338  1.00  0.00     0.022 A 
BRANCH  69  72
ATOM     72  S   UNL A   1      42.050  22.545  26.211  1.00  0.00     0.127 S 
ATOM     73  O   UNL A   1      42.692  22.038  27.423  1.00  0.00    -0.237 OA
ATOM     74  O   UNL A   1      40.590  22.449  26.207  1.00  0.00    -0.237 OA
ATOM     75  O   UNL A   1      42.689  22.159  24.960  1.00  0.00    -0.744 OA
ENDBRANCH  69  72
ENDBRANCH  51  65
BRANCH  52  76
ATOM     76  C   UNL A   1      39.207  31.946  35.326  1.00  0.00     0.023 A 
ATOM     77  C   UNL A   1      38.361  31.379  36.298  1.00  0.00     0.012 A 
ATOM     78  C   UNL A   1      39.675  33.262  35.500  1.00  0.00     0.148 A 
ATOM     79  C   UNL A   1      37.975  32.113  37.419  1.00  0.00     0.002 A 
ATOM     80  C   UNL A   1      39.316  33.976  36.638  1.00  0.00     0.091 A 
ATOM     81  F   UNL A   1      40.477  33.779  34.559  1.00  0.00    -0.205 F 
ATOM     82  C   UNL A   1      38.459  33.406  37.594  1.00  0.00     0.022 A 
BRANCH  80  83
ATOM     83  S   UNL A   1      39.966  35.610  37.005  1.00  0.00     0.127 S 
ATOM     84  O   UNL A   1      41.402  35.351  37.074  1.00  0.00    -0.237 OA
ATOM     85  O   UNL A   1      39.532  36.375  35.836  1.00  0.00    -0.237 OA
ATOM     86  O   UNL A   1      39.339  36.012  38.257  1.00  0.00    -0.744 OA
ENDBRANCH  80  83
ENDBRANCH  52  76
BRANCH  64  87
ATOM     87  C   UNL A   1      44.859  28.050  34.002  1.00  0.00     0.023 A 
ATOM     88  C   UNL A   1      45.963  28.922  33.966  1.00  0.00     0.012 A 
ATOM     89  C   UNL A   1      44.865  26.950  34.880  1.00  0.00     0.148 A 
ATOM     90  C   UNL A   1      47.060  28.703  34.796  1.00  0.00     0.002 A 
ATOM     91  C   UNL A   1      45.951  26.753  35.725  1.00  0.00     0.091 A 
ATOM     92  F   UNL A   1      43.806  26.128  34.882  1.00  0.00    -0.205 F 
ATOM     93  C   UNL A   1      47.049  27.628  35.682  1.00  0.00     0.022 A 
BRANCH  91  94
ATOM     94  S   UNL A   1      45.994  25.442  36.952  1.00  0.00     0.127 S 
ATOM     95  O   UNL A   1      46.876  26.013  37.967  1.00  0.00    -0.237 OA
ATOM     96  O   UNL A   1      44.588  25.343  37.349  1.00  0.00    -0.237 OA
ATOM     97  O   UNL A   1      46.512  24.266  36.265  1.00  0.00    -0.744 OA
ENDBRANCH  91  94
ENDBRANCH  64  87
ENDBRANCH  38  39
ENDBRANCH  30  33
ENDBRANCH  28  29
ENDBRANCH   1  28
TORSDOF 17
ENDMDL
MODEL 3
REMARK VINA RESULT:     -12.7      2.576      3.585
REMARK SMILES Cc1cc(OC(F)(F)F)cc2c1O[C@H](C(F)(F)F)C(C(=O)NCCCCNC(=O)c1ccc(-c3c4nc(c(-c5cccc(S(=O)(=O)[O-])c5F)c5ccc([nH]5)c(-c5cccc(S(=O)(=O)[O-])c5F)c5nc(c(-c6cccc(S(=O)(=O)[O-])c6F)c6ccc3[nH]6)C=C5)C=C4)cc1)=C2
REMARK SMILES IDX 25 1 24 2 23 3 22 4 20 5 21 6 19 8 1 9 2 10 3 11 12 12 4 13
REMARK SMILES IDX 11 14 13 15 10 16 93 17 14 18 5 19 6 20 7 21 8 22 9 23 15 24
REMARK SMILES IDX 16 25 17 26 18 27 26 28 27 29 28 30 29 32 30 33 31 34 92 35
REMARK SMILES IDX 32 36 91 37 33 38 34 39 35 40 85 41 36 42 90 43 84 44 86 45
REMARK SMILES IDX 37 46 89 47 83 48 82 49 38 51 70 52 50 53 69 54 51 55 54 56
REMARK SMILES IDX 68 57 87 58 52 59 53 60 67 62 88 63 55 64 39 65 40 66 48 67
REMARK SMILES IDX 41 68 43 69 49 70 42 71 44 72 45 73 46 74 47 75 71 76 72 77
REMARK SMILES IDX 80 78 73 79 75 80 81 81 74 82 76 83 77 84 78 85 79 86 56 87
REMARK SMILES IDX 57 88 65 89 58 90 60 91 66 92 59 93 61 94 62 95 63 96 64 97
REMARK H PARENT 22 7 27 31 86 50 54 61
REMARK Flexibility Score: inf
ROOT
ATOM      1  C   UNL A   1      32.160  31.462  26.999  1.00  0.00     0.023 C 
ENDROOT
BRANCH   1   2
ATOM      2  C   UNL A   1      32.512  29.991  27.247  1.00  0.00     0.023 C 
BRANCH   2   3
ATOM      3  C   UNL A   1      33.924  29.605  26.814  1.00  0.00     0.116 C 
BRANCH   3   4
ATOM      4  N   UNL A   1      34.001  29.317  25.393  1.00  0.00    -0.352 N 
ATOM      5  C   UNL A   1      33.697  28.280  24.579  1.00  0.00     0.251 C 
ATOM      6  O   UNL A   1      33.926  28.464  23.379  1.00  0.00    -0.270 OA
ATOM      7  H   UNL A   1      34.371  30.077  24.889  1.00  0.00     0.163 HD
BRANCH   5   8
ATOM      8  C   UNL A   1      33.125  26.973  25.020  1.00  0.00     0.067 C 
ATOM      9  C   UNL A   1      30.277  23.114  26.850  1.00  0.00     0.048 C 
ATOM     10  C   UNL A   1      31.726  23.291  26.494  1.00  0.00    -0.005 A 
ATOM     11  C   UNL A   1      32.616  22.208  26.582  1.00  0.00     0.054 A 
ATOM     12  C   UNL A   1      32.206  24.533  26.058  1.00  0.00     0.131 A 
ATOM     13  C   UNL A   1      33.966  22.366  26.253  1.00  0.00     0.130 A 
ATOM     14  C   UNL A   1      33.551  24.704  25.733  1.00  0.00     0.021 A 
ATOM     15  O   UNL A   1      31.319  25.574  26.009  1.00  0.00    -0.475 OA
ATOM     16  C   UNL A   1      34.426  23.618  25.831  1.00  0.00     0.058 A 
ATOM     17  C   UNL A   1      34.027  26.021  25.328  1.00  0.00     0.025 C 
ATOM     18  C   UNL A   1      31.659  26.658  25.094  1.00  0.00     0.314 C 
BRANCH  13  19
ATOM     19  O   UNL A   1      34.929  21.399  26.299  1.00  0.00    -0.406 OA
BRANCH  19  20
ATOM     20  C   UNL A   1      35.260  20.735  25.092  1.00  0.00     0.573 C 
ATOM     21  F   UNL A   1      36.333  19.931  25.254  1.00  0.00    -0.132 F 
ATOM     22  F   UNL A   1      34.219  20.009  24.632  1.00  0.00    -0.132 F 
ATOM     23  F   UNL A   1      35.569  21.661  24.158  1.00  0.00    -0.132 F 
ENDBRANCH  19  20
ENDBRANCH  13  19
BRANCH  18  24
ATOM     24  C   UNL A   1      31.040  26.369  23.714  1.00  0.00     0.429 C 
ATOM     25  F   UNL A   1      29.741  25.998  23.847  1.00  0.00    -0.167 F 
ATOM     26  F   UNL A   1      31.051  27.450  22.901  1.00  0.00    -0.167 F 
ATOM     27  F   UNL A   1      31.675  25.373  23.054  1.00  0.00    -0.167 F 
ENDBRANCH  18  24
ENDBRANCH   5   8
ENDBRANCH   3   4
ENDBRANCH   2   3
ENDBRANCH   1   2
BRANCH   1  28
ATOM     28  C   UNL A   1      33.215  32.476  27.441  1.00  0.00     0.116 C 
BRANCH  28  29
ATOM     29  N   UNL A   1      32.680  33.808  27.691  1.00  0.00    -0.352 N 
ATOM     30  C   UNL A   1      33.119  34.719  28.624  1.00  0.00     0.251 C 
ATOM     31  H   UNL A   1      31.921  34.088  27.131  1.00  0.00     0.163 HD
ATOM     32  O   UNL A   1      32.547  35.790  28.783  1.00  0.00    -0.269 OA
BRANCH  30  33
ATOM     33  C   UNL A   1      34.273  34.349  29.462  1.00  0.00     0.039 A 
ATOM     34  C   UNL A   1      34.041  33.709  30.682  1.00  0.00     0.014 A 
ATOM     35  C   UNL A   1      35.572  34.540  28.983  1.00  0.00     0.014 A 
ATOM     36  C   UNL A   1      35.120  33.188  31.395  1.00  0.00     0.010 A 
ATOM     37  C   UNL A   1      36.643  33.990  29.679  1.00  0.00     0.010 A 
ATOM     38  C   UNL A   1      36.422  33.297  30.880  1.00  0.00    -0.014 A 
BRANCH  38  39
ATOM     39  C   UNL A   1      37.568  32.657  31.563  1.00  0.00     0.031 A 
ATOM     40  C   UNL A   1      38.266  31.494  30.926  1.00  0.00     0.074 A 
ATOM     41  C   UNL A   1      37.921  33.075  32.795  1.00  0.00     0.049 A 
ATOM     42  N   UNL A   1      39.240  30.763  31.399  1.00  0.00    -0.248 NA
ATOM     43  C   UNL A   1      37.797  31.087  29.591  1.00  0.00     0.031 C 
ATOM     44  C   UNL A   1      37.274  34.160  33.537  1.00  0.00     0.029 A 
ATOM     45  N   UNL A   1      38.893  32.620  33.649  1.00  0.00    -0.354 N 
ATOM     46  C   UNL A   1      39.484  29.794  30.436  1.00  0.00     0.074 A 
ATOM     47  C   UNL A   1      38.546  30.018  29.357  1.00  0.00     0.031 C 
ATOM     48  C   UNL A   1      37.869  34.287  34.735  1.00  0.00     0.029 A 
ATOM     49  C   UNL A   1      38.926  33.286  34.851  1.00  0.00     0.049 A 
ATOM     50  H   UNL A   1      39.510  31.888  33.421  1.00  0.00     0.167 HD
ATOM     51  C   UNL A   1      40.426  28.823  30.438  1.00  0.00     0.034 A 
ATOM     52  C   UNL A   1      39.722  33.111  35.924  1.00  0.00     0.034 A 
ATOM     53  C   UNL A   1      41.389  28.634  31.486  1.00  0.00     0.049 A 
ATOM     54  C   UNL A   1      40.789  32.053  35.882  1.00  0.00     0.074 A 
ATOM     55  C   UNL A   1      42.423  27.716  31.547  1.00  0.00     0.029 A 
ATOM     56  N   UNL A   1      41.442  29.380  32.652  1.00  0.00    -0.354 N 
ATOM     57  N   UNL A   1      41.083  31.224  34.911  1.00  0.00    -0.248 NA
ATOM     58  C   UNL A   1      41.651  31.924  37.067  1.00  0.00     0.031 C 
ATOM     59  C   UNL A   1      43.109  27.915  32.748  1.00  0.00     0.029 A 
ATOM     60  C   UNL A   1      42.497  28.951  33.437  1.00  0.00     0.049 A 
ATOM     61  H   UNL A   1      40.820  30.107  32.888  1.00  0.00     0.167 HD
ATOM     62  C   UNL A   1      42.178  30.492  35.354  1.00  0.00     0.074 A 
ATOM     63  C   UNL A   1      42.503  30.983  36.678  1.00  0.00     0.031 C 
ATOM     64  C   UNL A   1      42.842  29.493  34.725  1.00  0.00     0.034 A 
BRANCH  51  65
ATOM     65  C   UNL A   1      40.512  27.940  29.228  1.00  0.00     0.023 A 
ATOM     66  C   UNL A   1      39.649  26.831  29.136  1.00  0.00     0.012 A 
ATOM     67  C   UNL A   1      41.390  28.232  28.168  1.00  0.00     0.148 A 
ATOM     68  C   UNL A   1      39.666  26.014  28.007  1.00  0.00     0.002 A 
ATOM     69  C   UNL A   1      41.385  27.426  27.036  1.00  0.00     0.091 A 
ATOM     70  F   UNL A   1      42.216  29.281  28.292  1.00  0.00    -0.205 F 
ATOM     71  C   UNL A   1      40.526  26.316  26.956  1.00  0.00     0.022 A 
BRANCH  69  72
ATOM     72  S   UNL A   1      42.425  27.748  25.607  1.00  0.00     0.127 S 
ATOM     73  O   UNL A   1      43.744  27.877  26.226  1.00  0.00    -0.237 OA
ATOM     74  O   UNL A   1      42.241  26.533  24.813  1.00  0.00    -0.237 OA
ATOM     75  O   UNL A   1      41.903  28.961  24.995  1.00  0.00    -0.744 OA
ENDBRANCH  69  72
ENDBRANCH  51  65
BRANCH  52  76
ATOM     76  C   UNL A   1      39.595  34.030  37.087  1.00  0.00     0.023 A 
ATOM     77  C   UNL A   1      40.019  35.365  36.948  1.00  0.00     0.012 A 
ATOM     78  C   UNL A   1      39.005  33.614  38.296  1.00  0.00     0.148 A 
ATOM     79  C   UNL A   1      39.868  36.272  37.997  1.00  0.00     0.002 A 
ATOM     80  C   UNL A   1      38.826  34.532  39.326  1.00  0.00     0.091 A 
ATOM     81  F   UNL A   1      38.614  32.337  38.404  1.00  0.00    -0.205 F 
ATOM     82  C   UNL A   1      39.265  35.858  39.181  1.00  0.00     0.022 A 
BRANCH  80  83
ATOM     83  S   UNL A   1      37.968  34.124  40.851  1.00  0.00     0.127 S 
ATOM     84  O   UNL A   1      38.961  33.306  41.542  1.00  0.00    -0.237 OA
ATOM     85  O   UNL A   1      37.747  35.448  41.433  1.00  0.00    -0.237 OA
ATOM     86  O   UNL A   1      36.753  33.431  40.448  1.00  0.00    -0.744 OA
ENDBRANCH  80  83
ENDBRANCH  52  76
BRANCH  64  87
ATOM     87  C   UNL A   1      44.003  28.860  35.437  1.00  0.00     0.023 A 
ATOM     88  C   UNL A   1      45.282  29.432  35.306  1.00  0.00     0.012 A 
ATOM     89  C   UNL A   1      43.802  27.793  36.334  1.00  0.00     0.148 A 
ATOM     90  C   UNL A   1      46.350  28.950  36.059  1.00  0.00     0.002 A 
ATOM     91  C   UNL A   1      44.866  27.336  37.103  1.00  0.00     0.091 A 
ATOM     92  F   UNL A   1      42.577  27.259  36.428  1.00  0.00    -0.205 F 
ATOM     93  C   UNL A   1      46.140  27.912  36.965  1.00  0.00     0.022 A 
BRANCH  91  94
ATOM     94  S   UNL A   1      44.676  26.056  38.349  1.00  0.00     0.127 S 
ATOM     95  O   UNL A   1      44.707  24.842  37.536  1.00  0.00    -0.237 OA
ATOM     96  O   UNL A   1      45.859  26.261  39.188  1.00  0.00    -0.237 OA
ATOM     97  O   UNL A   1      43.410  26.329  39.015  1.00  0.00    -0.744 OA
ENDBRANCH  91  94
ENDBRANCH  64  87
ENDBRANCH  38  39
ENDBRANCH  30  33
ENDBRANCH  28  29
ENDBRANCH   1  28
TORSDOF 17
ENDMDL
