MODEL 1
REMARK VINA RESULT:     -11.9      0.000      0.000
REMARK SMILES C[C@@H](C(=O)NCCCCNC(=O)c1ccc(-c2c3nc(c(-c4cccc(S(=O)(=O)[O-])c4F)c4ccc([nH]4)c(-c4cccc(S(=O)(=O)[O-])c4F)c4nc(c(-c5cccc(S(=O)(=O)[O-])c5F)c5ccc2[nH]5)C=C4)C=C3)cc1)c1cccn(C(F)F)c1=O
REMARK SMILES IDX 8 1 7 2 6 3 5 4 3 5 4 6 2 8 1 9 76 10 77 11 84 12 78 13
REMARK SMILES IDX 80 14 85 15 79 16 81 17 82 18 83 19 9 20 10 21 11 22 12 24
REMARK SMILES IDX 13 25 14 26 75 27 15 28 74 29 16 30 17 31 18 32 68 33 19 34
REMARK SMILES IDX 73 35 67 36 69 37 20 38 72 39 66 40 65 41 21 43 53 44 33 45
REMARK SMILES IDX 52 46 34 47 37 48 51 49 70 50 35 51 36 52 50 54 71 55 38 56
REMARK SMILES IDX 22 57 23 58 31 59 24 60 26 61 32 62 25 63 27 64 28 65 29 66
REMARK SMILES IDX 30 67 54 68 55 69 63 70 56 71 58 72 64 73 57 74 59 75 60 76
REMARK SMILES IDX 61 77 62 78 39 79 40 80 48 81 41 82 43 83 49 84 42 85 44 86
REMARK SMILES IDX 45 87 46 88 47 89
REMARK H PARENT 5 7 10 23 69 42 37 53
REMARK Flexibility Score: inf
ROOT
ATOM      1  C   UNL A   1      32.074  30.019  25.125  1.00  0.00     0.023 C 
ENDROOT
BRANCH   1   2
ATOM      2  C   UNL A   1      30.726  29.561  24.558  1.00  0.00     0.023 C 
BRANCH   2   3
ATOM      3  C   UNL A   1      30.688  28.117  24.057  1.00  0.00     0.116 C 
BRANCH   3   4
ATOM      4  N   UNL A   1      31.819  27.811  23.204  1.00  0.00    -0.356 N 
ATOM      5  C   UNL A   1      32.915  27.030  23.430  1.00  0.00     0.227 C 
ATOM      6  O   UNL A   1      33.718  26.924  22.499  1.00  0.00    -0.274 OA
ATOM      7  H   UNL A   1      31.791  28.235  22.316  1.00  0.00     0.163 HD
BRANCH   5   8
ATOM      8  C   UNL A   1      33.095  26.307  24.779  1.00  0.00     0.111 C 
ATOM      9  C   UNL A   1      34.015  27.062  25.740  1.00  0.00     0.023 C 
BRANCH   8  10
ATOM     10  C   UNL A   1      33.636  24.898  24.590  1.00  0.00     0.030 A 
ATOM     11  C   UNL A   1      34.844  24.486  25.024  1.00  0.00     0.012 A 
ATOM     12  C   UNL A   1      32.738  23.889  23.929  1.00  0.00     0.258 A 
ATOM     13  C   UNL A   1      35.293  23.131  24.851  1.00  0.00     0.019 A 
ATOM     14  N   UNL A   1      33.242  22.603  23.806  1.00  0.00    -0.258 N 
ATOM     15  O   UNL A   1      31.614  24.210  23.550  1.00  0.00    -0.269 OA
ATOM     16  C   UNL A   1      34.494  22.238  24.260  1.00  0.00     0.095 A 
BRANCH  14  17
ATOM     17  C   UNL A   1      32.395  21.610  23.200  1.00  0.00     0.451 C 
ATOM     18  F   UNL A   1      32.408  21.752  21.845  1.00  0.00    -0.185 F 
ATOM     19  F   UNL A   1      32.901  20.371  23.449  1.00  0.00    -0.185 F 
ENDBRANCH  14  17
ENDBRANCH   8  10
ENDBRANCH   5   8
ENDBRANCH   3   4
ENDBRANCH   2   3
ENDBRANCH   1   2
BRANCH   1  20
ATOM     20  C   UNL A   1      32.079  30.392  26.604  1.00  0.00     0.116 C 
BRANCH  20  21
ATOM     21  N   UNL A   1      31.963  31.827  26.832  1.00  0.00    -0.352 N 
ATOM     22  C   UNL A   1      32.861  32.687  27.420  1.00  0.00     0.251 C 
ATOM     23  H   UNL A   1      31.124  32.238  26.522  1.00  0.00     0.163 HD
ATOM     24  O   UNL A   1      32.544  33.854  27.635  1.00  0.00    -0.269 OA
BRANCH  22  25
ATOM     25  C   UNL A   1      34.192  32.191  27.829  1.00  0.00     0.039 A 
ATOM     26  C   UNL A   1      35.233  33.109  27.996  1.00  0.00     0.014 A 
ATOM     27  C   UNL A   1      34.401  30.834  28.090  1.00  0.00     0.014 A 
ATOM     28  C   UNL A   1      36.456  32.681  28.518  1.00  0.00     0.010 A 
ATOM     29  C   UNL A   1      35.601  30.420  28.662  1.00  0.00     0.010 A 
ATOM     30  C   UNL A   1      36.631  31.342  28.903  1.00  0.00    -0.014 A 
BRANCH  30  31
ATOM     31  C   UNL A   1      37.842  30.898  29.643  1.00  0.00     0.031 A 
ATOM     32  C   UNL A   1      38.762  29.864  29.057  1.00  0.00     0.074 A 
ATOM     33  C   UNL A   1      38.028  31.328  30.908  1.00  0.00     0.049 A 
ATOM     34  N   UNL A   1      39.794  29.278  29.606  1.00  0.00    -0.248 NA
ATOM     35  C   UNL A   1      38.474  29.412  27.686  1.00  0.00     0.031 C 
ATOM     36  C   UNL A   1      37.154  32.263  31.621  1.00  0.00     0.029 A 
ATOM     37  N   UNL A   1      38.985  30.999  31.837  1.00  0.00    -0.354 N 
ATOM     38  C   UNL A   1      40.253  28.359  28.670  1.00  0.00     0.074 A 
ATOM     39  C   UNL A   1      39.381  28.458  27.519  1.00  0.00     0.031 C 
ATOM     40  C   UNL A   1      37.600  32.412  32.879  1.00  0.00     0.029 A 
ATOM     41  C   UNL A   1      38.771  31.563  33.074  1.00  0.00     0.049 A 
ATOM     42  H   UNL A   1      39.752  30.413  31.637  1.00  0.00     0.167 HD
ATOM     43  C   UNL A   1      41.315  27.525  28.756  1.00  0.00     0.034 A 
ATOM     44  C   UNL A   1      39.425  31.400  34.241  1.00  0.00     0.034 A 
ATOM     45  C   UNL A   1      42.213  27.471  29.879  1.00  0.00     0.049 A 
ATOM     46  C   UNL A   1      40.623  30.493  34.290  1.00  0.00     0.074 A 
ATOM     47  C   UNL A   1      43.397  26.763  29.995  1.00  0.00     0.029 A 
ATOM     48  N   UNL A   1      42.022  28.133  31.080  1.00  0.00    -0.354 N 
ATOM     49  N   UNL A   1      41.166  29.793  33.325  1.00  0.00    -0.248 NA
ATOM     50  C   UNL A   1      41.318  30.374  35.581  1.00  0.00     0.031 C 
ATOM     51  C   UNL A   1      43.910  26.977  31.278  1.00  0.00     0.029 A 
ATOM     52  C   UNL A   1      43.051  27.827  31.955  1.00  0.00     0.049 A 
ATOM     53  H   UNL A   1      41.267  28.729  31.282  1.00  0.00     0.167 HD
ATOM     54  C   UNL A   1      42.275  29.169  33.884  1.00  0.00     0.074 A 
ATOM     55  C   UNL A   1      42.347  29.599  35.264  1.00  0.00     0.031 C 
ATOM     56  C   UNL A   1      43.143  28.299  33.311  1.00  0.00     0.034 A 
BRANCH  43  57
ATOM     57  C   UNL A   1      41.617  26.634  27.583  1.00  0.00     0.023 A 
ATOM     58  C   UNL A   1      42.326  27.156  26.483  1.00  0.00     0.012 A 
ATOM     59  C   UNL A   1      41.301  25.261  27.618  1.00  0.00     0.148 A 
ATOM     60  C   UNL A   1      42.706  26.328  25.428  1.00  0.00     0.002 A 
ATOM     61  C   UNL A   1      41.714  24.436  26.579  1.00  0.00     0.091 A 
ATOM     62  F   UNL A   1      40.611  24.791  28.667  1.00  0.00    -0.205 F 
ATOM     63  C   UNL A   1      42.411  24.968  25.482  1.00  0.00     0.022 A 
BRANCH  61  64
ATOM     64  S   UNL A   1      41.449  22.658  26.585  1.00  0.00     0.127 S 
ATOM     65  O   UNL A   1      39.991  22.579  26.493  1.00  0.00    -0.237 OA
ATOM     66  O   UNL A   1      42.160  22.238  25.377  1.00  0.00    -0.237 OA
ATOM     67  O   UNL A   1      42.020  22.169  27.831  1.00  0.00    -0.744 OA
ENDBRANCH  61  64
ENDBRANCH  43  57
BRANCH  44  68
ATOM     68  C   UNL A   1      38.981  32.140  35.457  1.00  0.00     0.023 A 
ATOM     69  C   UNL A   1      39.208  33.527  35.543  1.00  0.00     0.012 A 
ATOM     70  C   UNL A   1      38.326  31.485  36.517  1.00  0.00     0.148 A 
ATOM     71  C   UNL A   1      38.824  34.241  36.679  1.00  0.00     0.002 A 
ATOM     72  C   UNL A   1      37.894  32.213  37.621  1.00  0.00     0.091 A 
ATOM     73  F   UNL A   1      38.135  30.161  36.430  1.00  0.00    -0.205 F 
ATOM     74  C   UNL A   1      38.157  33.588  37.712  1.00  0.00     0.022 A 
BRANCH  72  75
ATOM     75  S   UNL A   1      36.905  31.461  38.919  1.00  0.00     0.127 S 
ATOM     76  O   UNL A   1      37.779  31.601  40.081  1.00  0.00    -0.237 OA
ATOM     77  O   UNL A   1      35.715  32.313  38.938  1.00  0.00    -0.237 OA
ATOM     78  O   UNL A   1      36.652  30.101  38.463  1.00  0.00    -0.744 OA
ENDBRANCH  72  75
ENDBRANCH  44  68
BRANCH  56  79
ATOM     79  C   UNL A   1      44.255  27.754  34.167  1.00  0.00     0.023 A 
ATOM     80  C   UNL A   1      45.453  28.483  34.292  1.00  0.00     0.012 A 
ATOM     81  C   UNL A   1      44.083  26.570  34.911  1.00  0.00     0.148 A 
ATOM     82  C   UNL A   1      46.475  28.031  35.124  1.00  0.00     0.002 A 
ATOM     83  C   UNL A   1      45.088  26.148  35.774  1.00  0.00     0.091 A 
ATOM     84  F   UNL A   1      42.942  25.881  34.765  1.00  0.00    -0.205 F 
ATOM     85  C   UNL A   1      46.289  26.872  35.874  1.00  0.00     0.022 A 
BRANCH  83  86
ATOM     86  S   UNL A   1      44.903  24.719  36.846  1.00  0.00     0.127 S 
ATOM     87  O   UNL A   1      46.250  24.582  37.397  1.00  0.00    -0.237 OA
ATOM     88  O   UNL A   1      43.896  25.176  37.804  1.00  0.00    -0.237 OA
ATOM     89  O   UNL A   1      44.465  23.627  35.986  1.00  0.00    -0.744 OA
ENDBRANCH  83  86
ENDBRANCH  56  79
ENDBRANCH  30  31
ENDBRANCH  22  25
ENDBRANCH  20  21
ENDBRANCH   1  20
TORSDOF 16
ENDMDL
MODEL 2
REMARK VINA RESULT:     -11.9      1.990      2.886
REMARK SMILES C[C@@H](C(=O)NCCCCNC(=O)c1ccc(-c2c3nc(c(-c4cccc(S(=O)(=O)[O-])c4F)c4ccc([nH]4)c(-c4cccc(S(=O)(=O)[O-])c4F)c4nc(c(-c5cccc(S(=O)(=O)[O-])c5F)c5ccc2[nH]5)C=C4)C=C3)cc1)c1cccn(C(F)F)c1=O
REMARK SMILES IDX 8 1 7 2 6 3 5 4 3 5 4 6 2 8 1 9 76 10 77 11 84 12 78 13
REMARK SMILES IDX 80 14 85 15 79 16 81 17 82 18 83 19 9 20 10 21 11 22 12 24
REMARK SMILES IDX 13 25 14 26 75 27 15 28 74 29 16 30 17 31 18 32 68 33 19 34
REMARK SMILES IDX 73 35 67 36 69 37 20 38 72 39 66 40 65 41 21 43 53 44 33 45
REMARK SMILES IDX 52 46 34 47 37 48 51 49 70 50 35 51 36 52 50 54 71 55 38 56
REMARK SMILES IDX 22 57 23 58 31 59 24 60 26 61 32 62 25 63 27 64 28 65 29 66
REMARK SMILES IDX 30 67 54 68 55 69 63 70 56 71 58 72 64 73 57 74 59 75 60 76
REMARK SMILES IDX 61 77 62 78 39 79 40 80 48 81 41 82 43 83 49 84 42 85 44 86
REMARK SMILES IDX 45 87 46 88 47 89
REMARK H PARENT 5 7 10 23 69 42 37 53
REMARK Flexibility Score: inf
ROOT
ATOM      1  C   UNL A   1      31.510  29.526  26.549  1.00  0.00     0.023 C 
ENDROOT
BRANCH   1   2
ATOM      2  C   UNL A   1      31.816  28.288  27.396  1.00  0.00     0.023 C 
BRANCH   2   3
ATOM      3  C   UNL A   1      31.139  26.997  26.931  1.00  0.00     0.116 C 
BRANCH   3   4
ATOM      4  N   UNL A   1      32.089  26.071  26.346  1.00  0.00    -0.356 N 
ATOM      5  C   UNL A   1      32.024  25.345  25.192  1.00  0.00     0.227 C 
ATOM      6  O   UNL A   1      33.006  24.649  24.922  1.00  0.00    -0.274 OA
ATOM      7  H   UNL A   1      32.915  25.945  26.866  1.00  0.00     0.163 HD
BRANCH   5   8
ATOM      8  C   UNL A   1      30.786  25.438  24.278  1.00  0.00     0.111 C 
ATOM      9  C   UNL A   1      30.807  24.412  23.143  1.00  0.00     0.023 C 
BRANCH   8  10
ATOM     10  C   UNL A   1      30.637  26.827  23.678  1.00  0.00     0.030 A 
ATOM     11  C   UNL A   1      31.666  27.573  23.230  1.00  0.00     0.012 A 
ATOM     12  C   UNL A   1      29.244  27.374  23.522  1.00  0.00     0.258 A 
ATOM     13  C   UNL A   1      31.466  28.868  22.637  1.00  0.00     0.019 A 
ATOM     14  N   UNL A   1      29.136  28.626  22.935  1.00  0.00    -0.258 N 
ATOM     15  O   UNL A   1      28.272  26.713  23.883  1.00  0.00    -0.269 OA
ATOM     16  C   UNL A   1      30.228  29.352  22.504  1.00  0.00     0.095 A 
BRANCH  14  17
ATOM     17  C   UNL A   1      27.814  29.164  22.750  1.00  0.00     0.451 C 
ATOM     18  F   UNL A   1      27.590  30.164  23.647  1.00  0.00    -0.185 F 
ATOM     19  F   UNL A   1      27.728  29.740  21.520  1.00  0.00    -0.185 F 
ENDBRANCH  14  17
ENDBRANCH   8  10
ENDBRANCH   5   8
ENDBRANCH   3   4
ENDBRANCH   2   3
ENDBRANCH   1   2
BRANCH   1  20
ATOM     20  C   UNL A   1      32.693  30.447  26.268  1.00  0.00     0.116 C 
BRANCH  20  21
ATOM     21  N   UNL A   1      32.499  31.799  26.777  1.00  0.00    -0.352 N 
ATOM     22  C   UNL A   1      33.322  32.547  27.585  1.00  0.00     0.251 C 
ATOM     23  H   UNL A   1      31.660  32.237  26.504  1.00  0.00     0.163 HD
ATOM     24  O   UNL A   1      32.940  33.634  28.013  1.00  0.00    -0.269 OA
BRANCH  22  25
ATOM     25  C   UNL A   1      34.649  32.022  27.968  1.00  0.00     0.039 A 
ATOM     26  C   UNL A   1      35.735  32.902  28.016  1.00  0.00     0.014 A 
ATOM     27  C   UNL A   1      34.813  30.681  28.321  1.00  0.00     0.014 A 
ATOM     28  C   UNL A   1      36.963  32.458  28.513  1.00  0.00     0.010 A 
ATOM     29  C   UNL A   1      36.021  30.255  28.867  1.00  0.00     0.010 A 
ATOM     30  C   UNL A   1      37.101  31.145  28.990  1.00  0.00    -0.014 A 
BRANCH  30  31
ATOM     31  C   UNL A   1      38.326  30.701  29.704  1.00  0.00     0.031 A 
ATOM     32  C   UNL A   1      39.210  29.634  29.121  1.00  0.00     0.074 A 
ATOM     33  C   UNL A   1      38.560  31.165  30.949  1.00  0.00     0.049 A 
ATOM     34  N   UNL A   1      40.249  29.046  29.655  1.00  0.00    -0.248 NA
ATOM     35  C   UNL A   1      38.871  29.146  27.774  1.00  0.00     0.031 C 
ATOM     36  C   UNL A   1      37.725  32.137  31.661  1.00  0.00     0.029 A 
ATOM     37  N   UNL A   1      39.541  30.847  31.858  1.00  0.00    -0.354 N 
ATOM     38  C   UNL A   1      40.662  28.092  28.734  1.00  0.00     0.074 A 
ATOM     39  C   UNL A   1      39.756  28.172  27.608  1.00  0.00     0.031 C 
ATOM     40  C   UNL A   1      38.213  32.315  32.899  1.00  0.00     0.029 A 
ATOM     41  C   UNL A   1      39.375  31.452  33.082  1.00  0.00     0.049 A 
ATOM     42  H   UNL A   1      40.291  30.241  31.652  1.00  0.00     0.167 HD
ATOM     43  C   UNL A   1      41.712  27.241  28.812  1.00  0.00     0.034 A 
ATOM     44  C   UNL A   1      40.063  31.311  34.233  1.00  0.00     0.034 A 
ATOM     45  C   UNL A   1      42.645  27.205  29.906  1.00  0.00     0.049 A 
ATOM     46  C   UNL A   1      41.247  30.385  34.272  1.00  0.00     0.074 A 
ATOM     47  C   UNL A   1      43.820  26.480  30.007  1.00  0.00     0.029 A 
ATOM     48  N   UNL A   1      42.503  27.905  31.092  1.00  0.00    -0.354 N 
ATOM     49  N   UNL A   1      41.747  29.646  33.312  1.00  0.00    -0.248 NA
ATOM     50  C   UNL A   1      41.981  30.292  35.544  1.00  0.00     0.031 C 
ATOM     51  C   UNL A   1      44.376  26.722  31.267  1.00  0.00     0.029 A 
ATOM     52  C   UNL A   1      43.554  27.608  31.944  1.00  0.00     0.049 A 
ATOM     53  H   UNL A   1      41.765  28.521  31.300  1.00  0.00     0.167 HD
ATOM     54  C   UNL A   1      42.863  29.020  33.855  1.00  0.00     0.074 A 
ATOM     55  C   UNL A   1      42.985  29.490  35.218  1.00  0.00     0.031 C 
ATOM     56  C   UNL A   1      43.697  28.118  33.281  1.00  0.00     0.034 A 
BRANCH  43  57
ATOM     57  C   UNL A   1      41.961  26.311  27.657  1.00  0.00     0.023 A 
ATOM     58  C   UNL A   1      42.743  26.751  26.571  1.00  0.00     0.012 A 
ATOM     59  C   UNL A   1      41.520  24.973  27.699  1.00  0.00     0.148 A 
ATOM     60  C   UNL A   1      43.073  25.877  25.536  1.00  0.00     0.002 A 
ATOM     61  C   UNL A   1      41.882  24.099  26.681  1.00  0.00     0.091 A 
ATOM     62  F   UNL A   1      40.762  24.583  28.734  1.00  0.00    -0.205 F 
ATOM     63  C   UNL A   1      42.654  24.551  25.597  1.00  0.00     0.022 A 
BRANCH  61  64
ATOM     64  S   UNL A   1      41.455  22.354  26.699  1.00  0.00     0.127 S 
ATOM     65  O   UNL A   1      41.940  21.920  25.389  1.00  0.00    -0.237 OA
ATOM     66  O   UNL A   1      42.235  21.859  27.834  1.00  0.00    -0.237 OA
ATOM     67  O   UNL A   1      40.011  22.294  26.877  1.00  0.00    -0.744 OA
ENDBRANCH  61  64
ENDBRANCH  43  57
BRANCH  44  68
ATOM     68  C   UNL A   1      39.671  32.095  35.439  1.00  0.00     0.023 A 
ATOM     69  C   UNL A   1      40.145  33.412  35.592  1.00  0.00     0.012 A 
ATOM     70  C   UNL A   1      38.824  31.552  36.425  1.00  0.00     0.148 A 
ATOM     71  C   UNL A   1      39.812  34.160  36.722  1.00  0.00     0.002 A 
ATOM     72  C   UNL A   1      38.450  32.324  37.519  1.00  0.00     0.091 A 
ATOM     73  F   UNL A   1      38.397  30.290  36.275  1.00  0.00    -0.205 F 
ATOM     74  C   UNL A   1      38.956  33.623  37.679  1.00  0.00     0.022 A 
BRANCH  72  75
ATOM     75  S   UNL A   1      37.240  31.744  38.713  1.00  0.00     0.127 S 
ATOM     76  O   UNL A   1      36.146  32.692  38.518  1.00  0.00    -0.237 OA
ATOM     77  O   UNL A   1      36.967  30.384  38.246  1.00  0.00    -0.237 OA
ATOM     78  O   UNL A   1      37.920  31.802  40.000  1.00  0.00    -0.744 OA
ENDBRANCH  72  75
ENDBRANCH  44  68
BRANCH  56  79
ATOM     79  C   UNL A   1      44.826  27.579  34.119  1.00  0.00     0.023 A 
ATOM     80  C   UNL A   1      46.069  28.241  34.112  1.00  0.00     0.012 A 
ATOM     81  C   UNL A   1      44.633  26.474  34.971  1.00  0.00     0.148 A 
ATOM     82  C   UNL A   1      47.113  27.798  34.923  1.00  0.00     0.002 A 
ATOM     83  C   UNL A   1      45.664  26.065  35.810  1.00  0.00     0.091 A 
ATOM     84  F   UNL A   1      43.448  25.847  34.950  1.00  0.00    -0.205 F 
ATOM     85  C   UNL A   1      46.907  26.719  35.779  1.00  0.00     0.022 A 
BRANCH  83  86
ATOM     86  S   UNL A   1      45.463  24.744  37.011  1.00  0.00     0.127 S 
ATOM     87  O   UNL A   1      45.176  23.599  36.150  1.00  0.00    -0.237 OA
ATOM     88  O   UNL A   1      46.775  24.708  37.657  1.00  0.00    -0.237 OA
ATOM     89  O   UNL A   1      44.373  25.158  37.885  1.00  0.00    -0.744 OA
ENDBRANCH  83  86
ENDBRANCH  56  79
ENDBRANCH  30  31
ENDBRANCH  22  25
ENDBRANCH  20  21
ENDBRANCH   1  20
TORSDOF 16
ENDMDL
MODEL 3
REMARK VINA RESULT:     -11.7      5.402     10.599
REMARK SMILES C[C@@H](C(=O)NCCCCNC(=O)c1ccc(-c2c3nc(c(-c4cccc(S(=O)(=O)[O-])c4F)c4ccc([nH]4)c(-c4cccc(S(=O)(=O)[O-])c4F)c4nc(c(-c5cccc(S(=O)(=O)[O-])c5F)c5ccc2[nH]5)C=C4)C=C3)cc1)c1cccn(C(F)F)c1=O
REMARK SMILES IDX 8 1 7 2 6 3 5 4 3 5 4 6 2 8 1 9 76 10 77 11 84 12 78 13
REMARK SMILES IDX 80 14 85 15 79 16 81 17 82 18 83 19 9 20 10 21 11 22 12 24
REMARK SMILES IDX 13 25 14 26 75 27 15 28 74 29 16 30 17 31 18 32 68 33 19 34
REMARK SMILES IDX 73 35 67 36 69 37 20 38 72 39 66 40 65 41 21 43 53 44 33 45
REMARK SMILES IDX 52 46 34 47 37 48 51 49 70 50 35 51 36 52 50 54 71 55 38 56
REMARK SMILES IDX 22 57 23 58 31 59 24 60 26 61 32 62 25 63 27 64 28 65 29 66
REMARK SMILES IDX 30 67 54 68 55 69 63 70 56 71 58 72 64 73 57 74 59 75 60 76
REMARK SMILES IDX 61 77 62 78 39 79 40 80 48 81 41 82 43 83 49 84 42 85 44 86
REMARK SMILES IDX 45 87 46 88 47 89
REMARK H PARENT 5 7 10 23 69 42 37 53
REMARK Flexibility Score: inf
ROOT
ATOM      1  C   UNL A   1      35.988  20.478  25.215  1.00  0.00     0.023 C 
ENDROOT
BRANCH   1   2
ATOM      2  C   UNL A   1      35.040  21.344  26.049  1.00  0.00     0.023 C 
BRANCH   2   3
ATOM      3  C   UNL A   1      33.663  21.586  25.427  1.00  0.00     0.116 C 
BRANCH   3   4
ATOM      4  N   UNL A   1      32.790  22.322  26.319  1.00  0.00    -0.356 N 
ATOM      5  C   UNL A   1      32.500  23.654  26.378  1.00  0.00     0.227 C 
ATOM      6  O   UNL A   1      31.685  24.005  27.235  1.00  0.00    -0.274 OA
ATOM      7  H   UNL A   1      32.330  21.770  26.993  1.00  0.00     0.163 HD
BRANCH   5   8
ATOM      8  C   UNL A   1      33.151  24.640  25.387  1.00  0.00     0.111 C 
ATOM      9  C   UNL A   1      34.636  24.873  25.671  1.00  0.00     0.023 C 
BRANCH   8  10
ATOM     10  C   UNL A   1      32.437  25.983  25.385  1.00  0.00     0.030 A 
ATOM     11  C   UNL A   1      32.767  27.017  26.184  1.00  0.00     0.012 A 
ATOM     12  C   UNL A   1      31.333  26.184  24.383  1.00  0.00     0.258 A 
ATOM     13  C   UNL A   1      32.081  28.280  26.115  1.00  0.00     0.019 A 
ATOM     14  N   UNL A   1      30.727  27.431  24.376  1.00  0.00    -0.258 N 
ATOM     15  O   UNL A   1      31.023  25.281  23.609  1.00  0.00    -0.269 OA
ATOM     16  C   UNL A   1      31.099  28.453  25.227  1.00  0.00     0.095 A 
BRANCH  14  17
ATOM     17  C   UNL A   1      29.684  27.661  23.411  1.00  0.00     0.451 C 
ATOM     18  F   UNL A   1      28.550  27.010  23.790  1.00  0.00    -0.185 F 
ATOM     19  F   UNL A   1      29.367  28.985  23.395  1.00  0.00    -0.185 F 
ENDBRANCH  14  17
ENDBRANCH   8  10
ENDBRANCH   5   8
ENDBRANCH   3   4
ENDBRANCH   2   3
ENDBRANCH   1   2
BRANCH   1  20
ATOM     20  C   UNL A   1      37.404  21.019  25.044  1.00  0.00     0.116 C 
BRANCH  20  21
ATOM     21  N   UNL A   1      38.433  20.012  25.274  1.00  0.00    -0.352 N 
ATOM     22  C   UNL A   1      39.655  20.147  25.889  1.00  0.00     0.251 C 
ATOM     23  H   UNL A   1      38.223  19.109  24.941  1.00  0.00     0.163 HD
ATOM     24  O   UNL A   1      40.449  19.210  25.891  1.00  0.00    -0.269 OA
BRANCH  22  25
ATOM     25  C   UNL A   1      40.025  21.435  26.513  1.00  0.00     0.039 A 
ATOM     26  C   UNL A   1      40.976  21.441  27.539  1.00  0.00     0.014 A 
ATOM     27  C   UNL A   1      39.470  22.635  26.059  1.00  0.00     0.014 A 
ATOM     28  C   UNL A   1      41.443  22.658  28.041  1.00  0.00     0.010 A 
ATOM     29  C   UNL A   1      39.978  23.846  26.522  1.00  0.00     0.010 A 
ATOM     30  C   UNL A   1      40.985  23.870  27.501  1.00  0.00    -0.014 A 
BRANCH  30  31
ATOM     31  C   UNL A   1      41.603  25.169  27.870  1.00  0.00     0.031 A 
ATOM     32  C   UNL A   1      40.782  26.258  28.502  1.00  0.00     0.074 A 
ATOM     33  C   UNL A   1      42.878  25.413  27.503  1.00  0.00     0.049 A 
ATOM     34  N   UNL A   1      41.126  27.487  28.785  1.00  0.00    -0.248 NA
ATOM     35  C   UNL A   1      39.386  25.932  28.840  1.00  0.00     0.031 C 
ATOM     36  C   UNL A   1      43.753  24.469  26.803  1.00  0.00     0.029 A 
ATOM     37  N   UNL A   1      43.647  26.547  27.621  1.00  0.00    -0.354 N 
ATOM     38  C   UNL A   1      39.984  28.096  29.291  1.00  0.00     0.074 A 
ATOM     39  C   UNL A   1      38.932  27.103  29.270  1.00  0.00     0.031 C 
ATOM     40  C   UNL A   1      44.924  25.067  26.533  1.00  0.00     0.029 A 
ATOM     41  C   UNL A   1      44.876  26.445  27.012  1.00  0.00     0.049 A 
ATOM     42  H   UNL A   1      43.345  27.355  28.096  1.00  0.00     0.167 HD
ATOM     43  C   UNL A   1      39.833  29.361  29.749  1.00  0.00     0.034 A 
ATOM     44  C   UNL A   1      45.849  27.362  26.834  1.00  0.00     0.034 A 
ATOM     45  C   UNL A   1      40.897  30.327  29.822  1.00  0.00     0.049 A 
ATOM     46  C   UNL A   1      45.661  28.747  27.389  1.00  0.00     0.074 A 
ATOM     47  C   UNL A   1      40.873  31.583  30.404  1.00  0.00     0.029 A 
ATOM     48  N   UNL A   1      42.161  30.157  29.285  1.00  0.00    -0.354 N 
ATOM     49  N   UNL A   1      44.646  29.237  28.056  1.00  0.00    -0.248 NA
ATOM     50  C   UNL A   1      46.766  29.700  27.193  1.00  0.00     0.031 C 
ATOM     51  C   UNL A   1      42.119  32.184  30.196  1.00  0.00     0.029 A 
ATOM     52  C   UNL A   1      42.920  31.296  29.496  1.00  0.00     0.049 A 
ATOM     53  H   UNL A   1      42.474  29.348  28.821  1.00  0.00     0.167 HD
ATOM     54  C   UNL A   1      44.995  30.543  28.378  1.00  0.00     0.074 A 
ATOM     55  C   UNL A   1      46.330  30.759  27.861  1.00  0.00     0.031 C 
ATOM     56  C   UNL A   1      44.265  31.486  29.023  1.00  0.00     0.034 A 
BRANCH  43  57
ATOM     57  C   UNL A   1      38.485  29.772  30.271  1.00  0.00     0.023 A 
ATOM     58  C   UNL A   1      38.169  29.545  31.625  1.00  0.00     0.012 A 
ATOM     59  C   UNL A   1      37.579  30.481  29.456  1.00  0.00     0.148 A 
ATOM     60  C   UNL A   1      36.967  30.007  32.160  1.00  0.00     0.002 A 
ATOM     61  C   UNL A   1      36.399  30.968  30.004  1.00  0.00     0.091 A 
ATOM     62  F   UNL A   1      37.894  30.668  28.166  1.00  0.00    -0.205 F 
ATOM     63  C   UNL A   1      36.089  30.727  31.353  1.00  0.00     0.022 A 
BRANCH  61  64
ATOM     64  S   UNL A   1      35.234  31.969  29.072  1.00  0.00     0.127 S 
ATOM     65  O   UNL A   1      36.130  32.904  28.392  1.00  0.00    -0.237 OA
ATOM     66  O   UNL A   1      34.608  30.977  28.197  1.00  0.00    -0.237 OA
ATOM     67  O   UNL A   1      34.341  32.567  30.054  1.00  0.00    -0.744 OA
ENDBRANCH  61  64
ENDBRANCH  43  57
BRANCH  44  68
ATOM     68  C   UNL A   1      47.106  26.990  26.125  1.00  0.00     0.023 A 
ATOM     69  C   UNL A   1      48.081  26.230  26.799  1.00  0.00     0.012 A 
ATOM     70  C   UNL A   1      47.337  27.372  24.789  1.00  0.00     0.148 A 
ATOM     71  C   UNL A   1      49.277  25.887  26.167  1.00  0.00     0.002 A 
ATOM     72  C   UNL A   1      48.506  26.977  24.147  1.00  0.00     0.091 A 
ATOM     73  F   UNL A   1      46.409  28.113  24.167  1.00  0.00    -0.205 F 
ATOM     74  C   UNL A   1      49.485  26.249  24.839  1.00  0.00     0.022 A 
BRANCH  72  75
ATOM     75  S   UNL A   1      48.773  27.288  22.399  1.00  0.00     0.127 S 
ATOM     76  O   UNL A   1      47.847  28.388  22.143  1.00  0.00    -0.237 OA
ATOM     77  O   UNL A   1      50.190  27.655  22.360  1.00  0.00    -0.237 OA
ATOM     78  O   UNL A   1      48.471  26.026  21.738  1.00  0.00    -0.744 OA
ENDBRANCH  72  75
ENDBRANCH  44  68
BRANCH  56  79
ATOM     79  C   UNL A   1      44.891  32.842  29.218  1.00  0.00     0.023 A 
ATOM     80  C   UNL A   1      45.675  33.082  30.362  1.00  0.00     0.012 A 
ATOM     81  C   UNL A   1      44.773  33.843  28.235  1.00  0.00     0.148 A 
ATOM     82  C   UNL A   1      46.314  34.308  30.539  1.00  0.00     0.002 A 
ATOM     83  C   UNL A   1      45.449  35.048  28.395  1.00  0.00     0.091 A 
ATOM     84  F   UNL A   1      44.007  33.600  27.161  1.00  0.00    -0.205 F 
ATOM     85  C   UNL A   1      46.211  35.285  29.552  1.00  0.00     0.022 A 
BRANCH  83  86
ATOM     86  S   UNL A   1      45.449  36.329  27.137  1.00  0.00     0.127 S 
ATOM     87  O   UNL A   1      46.294  37.351  27.751  1.00  0.00    -0.237 OA
ATOM     88  O   UNL A   1      46.053  35.644  25.994  1.00  0.00    -0.237 OA
ATOM     89  O   UNL A   1      44.053  36.703  26.946  1.00  0.00    -0.744 OA
ENDBRANCH  83  86
ENDBRANCH  56  79
ENDBRANCH  30  31
ENDBRANCH  22  25
ENDBRANCH  20  21
ENDBRANCH   1  20
TORSDOF 16
ENDMDL
