MODEL 1
REMARK VINA RESULT:     -12.1      0.000      0.000
REMARK SMILES O=C(NCc1ccc(C(=O)NCCCCNC(=O)c2ccc(-c3c4nc(c(-c5cccc(S(=O)(=O)[O-])c5F)c5ccc([nH]5)c(-c5cccc(S(=O)(=O)[O-])c5F)c5nc(c(-c6cccc(S(=O)(=O)[O-])c6F)c6ccc3[nH]6)C=C5)C=C4)cc2)o1)Nc1ccc(F)c(Cl)c1
REMARK SMILES IDX 13 1 12 2 11 3 9 4 10 5 8 7 5 8 6 9 82 10 7 11 4 12 3 13
REMARK SMILES IDX 1 14 2 15 83 16 84 19 85 20 91 21 86 22 89 23 87 24 90 25
REMARK SMILES IDX 88 26 14 27 15 28 16 29 17 30 18 32 19 33 20 34 81 35 21 36
REMARK SMILES IDX 80 37 22 38 23 39 24 40 74 41 25 42 79 43 73 44 75 45 26 46
REMARK SMILES IDX 78 47 72 48 71 49 27 51 59 52 39 53 58 54 40 55 43 56 57 57
REMARK SMILES IDX 76 58 41 59 42 60 56 62 77 63 44 64 28 65 29 66 37 67 30 68
REMARK SMILES IDX 32 69 38 70 31 71 33 72 34 73 35 74 36 75 60 76 61 77 69 78
REMARK SMILES IDX 62 79 64 80 70 81 63 82 65 83 66 84 67 85 68 86 45 87 46 88
REMARK SMILES IDX 54 89 47 90 49 91 55 92 48 93 50 94 51 95 52 96 53 97
REMARK H PARENT 11 6 3 17 83 18 16 31 75 50 43 61
REMARK Flexibility Score: inf
ROOT
ATOM      1  C   UNL A   1      32.053  30.265  26.101  1.00  0.00     0.023 C 
ENDROOT
BRANCH   1   2
ATOM      2  C   UNL A   1      33.457  29.669  26.025  1.00  0.00     0.116 C 
BRANCH   2   3
ATOM      3  N   UNL A   1      33.813  29.345  24.662  1.00  0.00    -0.349 N 
ATOM      4  C   UNL A   1      33.744  28.158  23.970  1.00  0.00     0.286 C 
ATOM      5  O   UNL A   1      34.040  28.209  22.776  1.00  0.00    -0.266 OA
ATOM      6  H   UNL A   1      34.165  30.101  24.141  1.00  0.00     0.163 HD
BRANCH   4   7
ATOM      7  C   UNL A   1      33.324  26.926  24.618  1.00  0.00     0.191 A 
ATOM      8  C   UNL A   1      31.992  25.162  24.779  1.00  0.00     0.124 A 
ATOM      9  C   UNL A   1      32.874  25.071  25.830  1.00  0.00     0.048 A 
ATOM     10  O   UNL A   1      32.264  26.268  24.039  1.00  0.00    -0.454 OA
ATOM     11  C   UNL A   1      33.742  26.184  25.712  1.00  0.00     0.056 A 
BRANCH   8  12
ATOM     12  C   UNL A   1      30.844  24.340  24.328  1.00  0.00     0.193 C 
BRANCH  12  13
ATOM     13  N   UNL A   1      31.258  23.608  23.151  1.00  0.00    -0.331 N 
ATOM     14  O   UNL A   1      32.414  22.163  21.935  1.00  0.00    -0.248 OA
ATOM     15  C   UNL A   1      31.989  22.472  23.046  1.00  0.00     0.319 C 
ATOM     16  N   UNL A   1      32.150  21.739  24.189  1.00  0.00    -0.308 N 
ATOM     17  H   UNL A   1      30.962  23.993  22.294  1.00  0.00     0.165 HD
ATOM     18  H   UNL A   1      31.607  21.996  24.968  1.00  0.00     0.171 HD
BRANCH  16  19
ATOM     19  C   UNL A   1      33.028  20.649  24.345  1.00  0.00     0.044 A 
ATOM     20  C   UNL A   1      32.492  19.358  24.249  1.00  0.00     0.029 A 
ATOM     21  C   UNL A   1      34.395  20.808  24.606  1.00  0.00     0.049 A 
ATOM     22  C   UNL A   1      33.323  18.241  24.354  1.00  0.00     0.043 A 
ATOM     23  C   UNL A   1      35.219  19.689  24.732  1.00  0.00     0.078 A 
ATOM     24  C   UNL A   1      34.683  18.413  24.591  1.00  0.00     0.141 A 
ATOM     25  Cl  UNL A   1      36.896  19.901  25.063  1.00  0.00    -0.081 Cl
ATOM     26  F   UNL A   1      35.463  17.325  24.681  1.00  0.00    -0.205 F 
ENDBRANCH  16  19
ENDBRANCH  12  13
ENDBRANCH   8  12
ENDBRANCH   4   7
ENDBRANCH   2   3
ENDBRANCH   1   2
BRANCH   1  27
ATOM     27  C   UNL A   1      31.890  31.326  27.193  1.00  0.00     0.023 C 
BRANCH  27  28
ATOM     28  C   UNL A   1      33.066  32.286  27.341  1.00  0.00     0.116 C 
BRANCH  28  29
ATOM     29  N   UNL A   1      32.660  33.672  27.539  1.00  0.00    -0.352 N 
ATOM     30  C   UNL A   1      33.154  34.579  28.447  1.00  0.00     0.251 C 
ATOM     31  H   UNL A   1      31.941  33.999  26.951  1.00  0.00     0.163 HD
ATOM     32  O   UNL A   1      32.631  35.682  28.575  1.00  0.00    -0.269 OA
BRANCH  30  33
ATOM     33  C   UNL A   1      34.299  34.185  29.290  1.00  0.00     0.039 A 
ATOM     34  C   UNL A   1      34.066  33.442  30.448  1.00  0.00     0.014 A 
ATOM     35  C   UNL A   1      35.603  34.486  28.888  1.00  0.00     0.014 A 
ATOM     36  C   UNL A   1      35.150  32.934  31.166  1.00  0.00     0.010 A 
ATOM     37  C   UNL A   1      36.676  33.912  29.559  1.00  0.00     0.010 A 
ATOM     38  C   UNL A   1      36.461  33.128  30.703  1.00  0.00    -0.014 A 
BRANCH  38  39
ATOM     39  C   UNL A   1      37.625  32.506  31.386  1.00  0.00     0.031 A 
ATOM     40  C   UNL A   1      38.352  31.359  30.740  1.00  0.00     0.074 A 
ATOM     41  C   UNL A   1      37.963  32.907  32.628  1.00  0.00     0.049 A 
ATOM     42  N   UNL A   1      39.334  30.636  31.212  1.00  0.00    -0.248 NA
ATOM     43  C   UNL A   1      37.898  30.950  29.400  1.00  0.00     0.031 C 
ATOM     44  C   UNL A   1      37.286  33.958  33.393  1.00  0.00     0.029 A 
ATOM     45  N   UNL A   1      38.942  32.458  33.479  1.00  0.00    -0.354 N 
ATOM     46  C   UNL A   1      39.590  29.668  30.248  1.00  0.00     0.074 A 
ATOM     47  C   UNL A   1      38.637  29.873  29.181  1.00  0.00     0.031 C 
ATOM     48  C   UNL A   1      37.872  34.075  34.595  1.00  0.00     0.029 A 
ATOM     49  C   UNL A   1      38.939  33.085  34.705  1.00  0.00     0.049 A 
ATOM     50  H   UNL A   1      39.586  31.754  33.236  1.00  0.00     0.167 HD
ATOM     51  C   UNL A   1      40.549  28.713  30.238  1.00  0.00     0.034 A 
ATOM     52  C   UNL A   1      39.698  32.877  35.798  1.00  0.00     0.034 A 
ATOM     53  C   UNL A   1      41.518  28.536  31.285  1.00  0.00     0.049 A 
ATOM     54  C   UNL A   1      40.772  31.823  35.752  1.00  0.00     0.074 A 
ATOM     55  C   UNL A   1      42.584  27.656  31.330  1.00  0.00     0.029 A 
ATOM     56  N   UNL A   1      41.533  29.242  32.478  1.00  0.00    -0.354 N 
ATOM     57  N   UNL A   1      41.099  31.021  34.769  1.00  0.00    -0.248 NA
ATOM     58  C   UNL A   1      41.604  31.668  36.954  1.00  0.00     0.031 C 
ATOM     59  C   UNL A   1      43.222  27.803  32.566  1.00  0.00     0.029 A 
ATOM     60  C   UNL A   1      42.580  28.807  33.272  1.00  0.00     0.049 A 
ATOM     61  H   UNL A   1      40.893  29.949  32.724  1.00  0.00     0.167 HD
ATOM     62  C   UNL A   1      42.198  30.296  35.216  1.00  0.00     0.074 A 
ATOM     63  C   UNL A   1      42.491  30.766  36.554  1.00  0.00     0.031 C 
ATOM     64  C   UNL A   1      42.894  29.321  34.581  1.00  0.00     0.034 A 
BRANCH  51  65
ATOM     65  C   UNL A   1      40.626  27.808  29.036  1.00  0.00     0.023 A 
ATOM     66  C   UNL A   1      39.728  26.728  28.915  1.00  0.00     0.012 A 
ATOM     67  C   UNL A   1      41.545  28.061  27.999  1.00  0.00     0.148 A 
ATOM     68  C   UNL A   1      39.769  25.890  27.801  1.00  0.00     0.002 A 
ATOM     69  C   UNL A   1      41.547  27.252  26.870  1.00  0.00     0.091 A 
ATOM     70  F   UNL A   1      42.404  29.081  28.140  1.00  0.00    -0.205 F 
ATOM     71  C   UNL A   1      40.670  26.158  26.775  1.00  0.00     0.022 A 
BRANCH  69  72
ATOM     72  S   UNL A   1      42.609  27.563  25.455  1.00  0.00     0.127 S 
ATOM     73  O   UNL A   1      42.354  26.384  24.630  1.00  0.00    -0.237 OA
ATOM     74  O   UNL A   1      42.056  28.810  24.925  1.00  0.00    -0.237 OA
ATOM     75  O   UNL A   1      43.961  27.674  25.984  1.00  0.00    -0.744 OA
ENDBRANCH  69  72
ENDBRANCH  51  65
BRANCH  52  76
ATOM     76  C   UNL A   1      39.505  33.716  37.015  1.00  0.00     0.023 A 
ATOM     77  C   UNL A   1      39.979  35.043  37.025  1.00  0.00     0.012 A 
ATOM     78  C   UNL A   1      38.843  33.215  38.152  1.00  0.00     0.148 A 
ATOM     79  C   UNL A   1      39.831  35.843  38.158  1.00  0.00     0.002 A 
ATOM     80  C   UNL A   1      38.648  34.036  39.257  1.00  0.00     0.091 A 
ATOM     81  F   UNL A   1      38.407  31.948  38.126  1.00  0.00    -0.205 F 
ATOM     82  C   UNL A   1      39.159  35.343  39.271  1.00  0.00     0.022 A 
BRANCH  80  83
ATOM     83  S   UNL A   1      37.681  33.522  40.681  1.00  0.00     0.127 S 
ATOM     84  O   UNL A   1      37.576  34.768  41.436  1.00  0.00    -0.237 OA
ATOM     85  O   UNL A   1      36.437  33.075  40.053  1.00  0.00    -0.237 OA
ATOM     86  O   UNL A   1      38.447  32.460  41.317  1.00  0.00    -0.744 OA
ENDBRANCH  80  83
ENDBRANCH  52  76
BRANCH  64  87
ATOM     87  C   UNL A   1      44.078  28.723  35.296  1.00  0.00     0.023 A 
ATOM     88  C   UNL A   1      45.363  29.270  35.113  1.00  0.00     0.012 A 
ATOM     89  C   UNL A   1      43.898  27.670  36.214  1.00  0.00     0.148 A 
ATOM     90  C   UNL A   1      46.456  28.756  35.811  1.00  0.00     0.002 A 
ATOM     91  C   UNL A   1      44.981  27.199  36.946  1.00  0.00     0.091 A 
ATOM     92  F   UNL A   1      42.669  27.154  36.360  1.00  0.00    -0.205 F 
ATOM     93  C   UNL A   1      46.263  27.732  36.735  1.00  0.00     0.022 A 
BRANCH  91  94
ATOM     94  S   UNL A   1      44.811  25.954  38.229  1.00  0.00     0.127 S 
ATOM     95  O   UNL A   1      43.824  26.571  39.114  1.00  0.00    -0.237 OA
ATOM     96  O   UNL A   1      44.320  24.800  37.475  1.00  0.00    -0.237 OA
ATOM     97  O   UNL A   1      46.139  25.782  38.802  1.00  0.00    -0.744 OA
ENDBRANCH  91  94
ENDBRANCH  64  87
ENDBRANCH  38  39
ENDBRANCH  30  33
ENDBRANCH  28  29
ENDBRANCH  27  28
ENDBRANCH   1  27
TORSDOF 17
ENDMDL
MODEL 2
REMARK VINA RESULT:     -12.0      1.752      2.236
REMARK SMILES O=C(NCc1ccc(C(=O)NCCCCNC(=O)c2ccc(-c3c4nc(c(-c5cccc(S(=O)(=O)[O-])c5F)c5ccc([nH]5)c(-c5cccc(S(=O)(=O)[O-])c5F)c5nc(c(-c6cccc(S(=O)(=O)[O-])c6F)c6ccc3[nH]6)C=C5)C=C4)cc2)o1)Nc1ccc(F)c(Cl)c1
REMARK SMILES IDX 13 1 12 2 11 3 9 4 10 5 8 7 5 8 6 9 82 10 7 11 4 12 3 13
REMARK SMILES IDX 1 14 2 15 83 16 84 19 85 20 91 21 86 22 89 23 87 24 90 25
REMARK SMILES IDX 88 26 14 27 15 28 16 29 17 30 18 32 19 33 20 34 81 35 21 36
REMARK SMILES IDX 80 37 22 38 23 39 24 40 74 41 25 42 79 43 73 44 75 45 26 46
REMARK SMILES IDX 78 47 72 48 71 49 27 51 59 52 39 53 58 54 40 55 43 56 57 57
REMARK SMILES IDX 76 58 41 59 42 60 56 62 77 63 44 64 28 65 29 66 37 67 30 68
REMARK SMILES IDX 32 69 38 70 31 71 33 72 34 73 35 74 36 75 60 76 61 77 69 78
REMARK SMILES IDX 62 79 64 80 70 81 63 82 65 83 66 84 67 85 68 86 45 87 46 88
REMARK SMILES IDX 54 89 47 90 49 91 55 92 48 93 50 94 51 95 52 96 53 97
REMARK H PARENT 11 6 3 17 83 18 16 31 75 50 43 61
REMARK Flexibility Score: inf
ROOT
ATOM      1  C   UNL A   1      31.117  30.855  25.580  1.00  0.00     0.023 C 
ENDROOT
BRANCH   1   2
ATOM      2  C   UNL A   1      32.376  30.009  25.762  1.00  0.00     0.116 C 
BRANCH   2   3
ATOM      3  N   UNL A   1      32.954  29.653  24.485  1.00  0.00    -0.349 N 
ATOM      4  C   UNL A   1      32.546  28.748  23.532  1.00  0.00     0.286 C 
ATOM      5  O   UNL A   1      33.203  28.726  22.491  1.00  0.00    -0.266 OA
ATOM      6  H   UNL A   1      33.778  30.140  24.259  1.00  0.00     0.163 HD
BRANCH   4   7
ATOM      7  C   UNL A   1      31.394  27.888  23.747  1.00  0.00     0.191 A 
ATOM      8  C   UNL A   1      30.396  26.178  24.743  1.00  0.00     0.124 A 
ATOM      9  C   UNL A   1      29.475  26.698  23.864  1.00  0.00     0.048 A 
ATOM     10  O   UNL A   1      31.548  26.895  24.687  1.00  0.00    -0.454 OA
ATOM     11  C   UNL A   1      30.105  27.808  23.247  1.00  0.00     0.056 A 
BRANCH   8  12
ATOM     12  C   UNL A   1      30.385  25.030  25.680  1.00  0.00     0.193 C 
BRANCH  12  13
ATOM     13  N   UNL A   1      31.719  24.888  26.223  1.00  0.00    -0.331 N 
ATOM     14  O   UNL A   1      33.578  23.866  26.856  1.00  0.00    -0.248 OA
ATOM     15  C   UNL A   1      32.597  23.861  26.117  1.00  0.00     0.319 C 
ATOM     16  N   UNL A   1      32.334  22.928  25.154  1.00  0.00    -0.308 N 
ATOM     17  H   UNL A   1      32.038  25.656  26.750  1.00  0.00     0.165 HD
ATOM     18  H   UNL A   1      31.621  23.137  24.508  1.00  0.00     0.171 HD
BRANCH  16  19
ATOM     19  C   UNL A   1      32.996  21.693  25.008  1.00  0.00     0.044 A 
ATOM     20  C   UNL A   1      32.210  20.543  24.859  1.00  0.00     0.029 A 
ATOM     21  C   UNL A   1      34.391  21.576  25.024  1.00  0.00     0.049 A 
ATOM     22  C   UNL A   1      32.813  19.298  24.669  1.00  0.00     0.043 A 
ATOM     23  C   UNL A   1      34.991  20.327  24.856  1.00  0.00     0.078 A 
ATOM     24  C   UNL A   1      34.201  19.197  24.665  1.00  0.00     0.141 A 
ATOM     25  Cl  UNL A   1      36.708  20.196  24.889  1.00  0.00    -0.081 Cl
ATOM     26  F   UNL A   1      34.758  17.992  24.473  1.00  0.00    -0.205 F 
ENDBRANCH  16  19
ENDBRANCH  12  13
ENDBRANCH   8  12
ENDBRANCH   4   7
ENDBRANCH   2   3
ENDBRANCH   1   2
BRANCH   1  27
ATOM     27  C   UNL A   1      31.112  32.140  26.412  1.00  0.00     0.023 C 
BRANCH  27  28
ATOM     28  C   UNL A   1      32.437  32.478  27.087  1.00  0.00     0.116 C 
BRANCH  28  29
ATOM     29  N   UNL A   1      32.547  33.878  27.479  1.00  0.00    -0.352 N 
ATOM     30  C   UNL A   1      33.498  34.463  28.281  1.00  0.00     0.251 C 
ATOM     31  H   UNL A   1      31.852  34.481  27.126  1.00  0.00     0.163 HD
ATOM     32  O   UNL A   1      33.395  35.638  28.618  1.00  0.00    -0.269 OA
BRANCH  30  33
ATOM     33  C   UNL A   1      34.623  33.637  28.762  1.00  0.00     0.039 A 
ATOM     34  C   UNL A   1      35.903  33.873  28.255  1.00  0.00     0.014 A 
ATOM     35  C   UNL A   1      34.419  32.689  29.767  1.00  0.00     0.014 A 
ATOM     36  C   UNL A   1      36.994  33.206  28.815  1.00  0.00     0.010 A 
ATOM     37  C   UNL A   1      35.515  32.089  30.375  1.00  0.00     0.010 A 
ATOM     38  C   UNL A   1      36.813  32.342  29.907  1.00  0.00    -0.014 A 
BRANCH  38  39
ATOM     39  C   UNL A   1      37.969  31.706  30.591  1.00  0.00     0.031 A 
ATOM     40  C   UNL A   1      38.748  30.619  29.901  1.00  0.00     0.074 A 
ATOM     41  C   UNL A   1      38.254  32.035  31.867  1.00  0.00     0.049 A 
ATOM     42  N   UNL A   1      39.732  29.892  30.361  1.00  0.00    -0.248 NA
ATOM     43  C   UNL A   1      38.350  30.286  28.523  1.00  0.00     0.031 C 
ATOM     44  C   UNL A   1      37.524  33.019  32.672  1.00  0.00     0.029 A 
ATOM     45  N   UNL A   1      39.215  31.557  32.723  1.00  0.00    -0.354 N 
ATOM     46  C   UNL A   1      40.045  28.993  29.349  1.00  0.00     0.074 A 
ATOM     47  C   UNL A   1      39.124  29.242  28.263  1.00  0.00     0.031 C 
ATOM     48  C   UNL A   1      38.066  33.074  33.899  1.00  0.00     0.029 A 
ATOM     49  C   UNL A   1      39.154  32.104  33.984  1.00  0.00     0.049 A 
ATOM     50  H   UNL A   1      39.885  30.885  32.459  1.00  0.00     0.167 HD
ATOM     51  C   UNL A   1      41.029  28.064  29.314  1.00  0.00     0.034 A 
ATOM     52  C   UNL A   1      39.880  31.845  35.089  1.00  0.00     0.034 A 
ATOM     53  C   UNL A   1      41.966  27.845  30.381  1.00  0.00     0.049 A 
ATOM     54  C   UNL A   1      40.982  30.822  35.015  1.00  0.00     0.074 A 
ATOM     55  C   UNL A   1      43.053  26.989  30.409  1.00  0.00     0.029 A 
ATOM     56  N   UNL A   1      41.922  28.474  31.616  1.00  0.00    -0.354 N 
ATOM     57  N   UNL A   1      41.364  30.092  33.996  1.00  0.00    -0.248 NA
ATOM     58  C   UNL A   1      41.777  30.612  36.234  1.00  0.00     0.031 C 
ATOM     59  C   UNL A   1      43.644  27.073  31.673  1.00  0.00     0.029 A 
ATOM     60  C   UNL A   1      42.952  28.014  32.417  1.00  0.00     0.049 A 
ATOM     61  H   UNL A   1      41.255  29.148  31.882  1.00  0.00     0.167 HD
ATOM     62  C   UNL A   1      42.465  29.367  34.436  1.00  0.00     0.074 A 
ATOM     63  C   UNL A   1      42.701  29.759  35.810  1.00  0.00     0.031 C 
ATOM     64  C   UNL A   1      43.208  28.452  33.767  1.00  0.00     0.034 A 
BRANCH  51  65
ATOM     65  C   UNL A   1      41.170  27.240  28.060  1.00  0.00     0.023 A 
ATOM     66  C   UNL A   1      41.815  27.787  26.932  1.00  0.00     0.012 A 
ATOM     67  C   UNL A   1      40.717  25.906  28.018  1.00  0.00     0.148 A 
ATOM     68  C   UNL A   1      41.972  27.035  25.769  1.00  0.00     0.002 A 
ATOM     69  C   UNL A   1      40.923  25.147  26.873  1.00  0.00     0.091 A 
ATOM     70  F   UNL A   1      40.089  25.409  29.093  1.00  0.00    -0.205 F 
ATOM     71  C   UNL A   1      41.536  25.713  25.743  1.00  0.00     0.022 A 
BRANCH  69  72
ATOM     72  S   UNL A   1      40.475  23.411  26.767  1.00  0.00     0.127 S 
ATOM     73  O   UNL A   1      41.343  22.948  25.685  1.00  0.00    -0.237 OA
ATOM     74  O   UNL A   1      40.842  22.919  28.096  1.00  0.00    -0.237 OA
ATOM     75  O   UNL A   1      39.048  23.379  26.479  1.00  0.00    -0.744 OA
ENDBRANCH  69  72
ENDBRANCH  51  65
BRANCH  52  76
ATOM     76  C   UNL A   1      39.625  32.601  36.349  1.00  0.00     0.023 A 
ATOM     77  C   UNL A   1      40.338  33.789  36.602  1.00  0.00     0.012 A 
ATOM     78  C   UNL A   1      38.670  32.161  37.285  1.00  0.00     0.148 A 
ATOM     79  C   UNL A   1      40.134  34.504  37.783  1.00  0.00     0.002 A 
ATOM     80  C   UNL A   1      38.431  32.908  38.432  1.00  0.00     0.091 A 
ATOM     81  F   UNL A   1      38.007  31.024  37.029  1.00  0.00    -0.205 F 
ATOM     82  C   UNL A   1      39.175  34.069  38.694  1.00  0.00     0.022 A 
BRANCH  80  83
ATOM     83  S   UNL A   1      37.125  32.497  39.595  1.00  0.00     0.127 S 
ATOM     84  O   UNL A   1      35.934  32.591  38.754  1.00  0.00    -0.237 OA
ATOM     85  O   UNL A   1      37.493  31.137  39.993  1.00  0.00    -0.237 OA
ATOM     86  O   UNL A   1      37.223  33.482  40.664  1.00  0.00    -0.744 OA
ENDBRANCH  80  83
ENDBRANCH  52  76
BRANCH  64  87
ATOM     87  C   UNL A   1      44.382  27.838  34.484  1.00  0.00     0.023 A 
ATOM     88  C   UNL A   1      45.610  28.526  34.547  1.00  0.00     0.012 A 
ATOM     89  C   UNL A   1      44.239  26.615  35.167  1.00  0.00     0.148 A 
ATOM     90  C   UNL A   1      46.686  27.990  35.254  1.00  0.00     0.002 A 
ATOM     91  C   UNL A   1      45.297  26.113  35.914  1.00  0.00     0.091 A 
ATOM     92  F   UNL A   1      43.067  25.968  35.080  1.00  0.00    -0.205 F 
ATOM     93  C   UNL A   1      46.526  26.792  35.946  1.00  0.00     0.022 A 
BRANCH  91  94
ATOM     94  S   UNL A   1      45.153  24.631  36.919  1.00  0.00     0.127 S 
ATOM     95  O   UNL A   1      44.654  23.660  35.947  1.00  0.00    -0.237 OA
ATOM     96  O   UNL A   1      46.536  24.413  37.346  1.00  0.00    -0.237 OA
ATOM     97  O   UNL A   1      44.232  24.963  37.997  1.00  0.00    -0.744 OA
ENDBRANCH  91  94
ENDBRANCH  64  87
ENDBRANCH  38  39
ENDBRANCH  30  33
ENDBRANCH  28  29
ENDBRANCH  27  28
ENDBRANCH   1  27
TORSDOF 17
ENDMDL
MODEL 3
REMARK VINA RESULT:     -11.9      1.349      7.851
REMARK SMILES O=C(NCc1ccc(C(=O)NCCCCNC(=O)c2ccc(-c3c4nc(c(-c5cccc(S(=O)(=O)[O-])c5F)c5ccc([nH]5)c(-c5cccc(S(=O)(=O)[O-])c5F)c5nc(c(-c6cccc(S(=O)(=O)[O-])c6F)c6ccc3[nH]6)C=C5)C=C4)cc2)o1)Nc1ccc(F)c(Cl)c1
REMARK SMILES IDX 13 1 12 2 11 3 9 4 10 5 8 7 5 8 6 9 82 10 7 11 4 12 3 13
REMARK SMILES IDX 1 14 2 15 83 16 84 19 85 20 91 21 86 22 89 23 87 24 90 25
REMARK SMILES IDX 88 26 14 27 15 28 16 29 17 30 18 32 19 33 20 34 81 35 21 36
REMARK SMILES IDX 80 37 22 38 23 39 24 40 74 41 25 42 79 43 73 44 75 45 26 46
REMARK SMILES IDX 78 47 72 48 71 49 27 51 59 52 39 53 58 54 40 55 43 56 57 57
REMARK SMILES IDX 76 58 41 59 42 60 56 62 77 63 44 64 28 65 29 66 37 67 30 68
REMARK SMILES IDX 32 69 38 70 31 71 33 72 34 73 35 74 36 75 60 76 61 77 69 78
REMARK SMILES IDX 62 79 64 80 70 81 63 82 65 83 66 84 67 85 68 86 45 87 46 88
REMARK SMILES IDX 54 89 47 90 49 91 55 92 48 93 50 94 51 95 52 96 53 97
REMARK H PARENT 11 6 3 17 83 18 16 31 75 50 43 61
REMARK Flexibility Score: inf
ROOT
ATOM      1  C   UNL A   1      32.646  30.165  26.739  1.00  0.00     0.023 C 
ENDROOT
BRANCH   1   2
ATOM      2  C   UNL A   1      31.707  29.389  25.817  1.00  0.00     0.116 C 
BRANCH   2   3
ATOM      3  N   UNL A   1      32.166  29.434  24.447  1.00  0.00    -0.349 N 
ATOM      4  C   UNL A   1      31.819  28.672  23.355  1.00  0.00     0.286 C 
ATOM      5  O   UNL A   1      32.320  29.006  22.281  1.00  0.00    -0.266 OA
ATOM      6  H   UNL A   1      32.840  30.127  24.264  1.00  0.00     0.163 HD
BRANCH   4   7
ATOM      7  C   UNL A   1      30.899  27.553  23.473  1.00  0.00     0.191 A 
ATOM      8  C   UNL A   1      30.479  25.388  23.697  1.00  0.00     0.124 A 
ATOM      9  C   UNL A   1      29.254  26.007  23.611  1.00  0.00     0.048 A 
ATOM     10  O   UNL A   1      31.472  26.312  23.627  1.00  0.00    -0.454 OA
ATOM     11  C   UNL A   1      29.523  27.394  23.494  1.00  0.00     0.056 A 
BRANCH   8  12
ATOM     12  C   UNL A   1      30.908  23.975  23.825  1.00  0.00     0.193 C 
BRANCH  12  13
ATOM     13  N   UNL A   1      31.902  23.719  22.805  1.00  0.00    -0.331 N 
ATOM     14  O   UNL A   1      33.915  23.446  21.925  1.00  0.00    -0.248 OA
ATOM     15  C   UNL A   1      33.209  23.384  22.928  1.00  0.00     0.319 C 
ATOM     16  N   UNL A   1      33.618  22.956  24.160  1.00  0.00    -0.308 N 
ATOM     17  H   UNL A   1      31.579  23.801  21.878  1.00  0.00     0.165 HD
ATOM     18  H   UNL A   1      32.918  22.775  24.829  1.00  0.00     0.171 HD
BRANCH  16  19
ATOM     19  C   UNL A   1      34.955  22.753  24.555  1.00  0.00     0.044 A 
ATOM     20  C   UNL A   1      35.674  23.859  25.025  1.00  0.00     0.029 A 
ATOM     21  C   UNL A   1      35.585  21.504  24.478  1.00  0.00     0.049 A 
ATOM     22  C   UNL A   1      36.989  23.707  25.468  1.00  0.00     0.043 A 
ATOM     23  C   UNL A   1      36.907  21.360  24.902  1.00  0.00     0.078 A 
ATOM     24  C   UNL A   1      37.597  22.458  25.408  1.00  0.00     0.141 A 
ATOM     25  Cl  UNL A   1      37.672  19.821  24.792  1.00  0.00    -0.081 Cl
ATOM     26  F   UNL A   1      38.859  22.334  25.847  1.00  0.00    -0.205 F 
ENDBRANCH  16  19
ENDBRANCH  12  13
ENDBRANCH   8  12
ENDBRANCH   4   7
ENDBRANCH   2   3
ENDBRANCH   1   2
BRANCH   1  27
ATOM     27  C   UNL A   1      32.169  31.586  27.053  1.00  0.00     0.023 C 
BRANCH  27  28
ATOM     28  C   UNL A   1      33.281  32.614  27.235  1.00  0.00     0.116 C 
BRANCH  28  29
ATOM     29  N   UNL A   1      32.794  33.925  27.648  1.00  0.00    -0.352 N 
ATOM     30  C   UNL A   1      33.199  34.680  28.724  1.00  0.00     0.251 C 
ATOM     31  H   UNL A   1      32.087  34.319  27.087  1.00  0.00     0.163 HD
ATOM     32  O   UNL A   1      32.614  35.719  29.012  1.00  0.00    -0.269 OA
BRANCH  30  33
ATOM     33  C   UNL A   1      34.324  34.194  29.546  1.00  0.00     0.039 A 
ATOM     34  C   UNL A   1      34.058  33.374  30.645  1.00  0.00     0.014 A 
ATOM     35  C   UNL A   1      35.639  34.489  29.180  1.00  0.00     0.014 A 
ATOM     36  C   UNL A   1      35.120  32.786  31.333  1.00  0.00     0.010 A 
ATOM     37  C   UNL A   1      36.689  33.838  29.817  1.00  0.00     0.010 A 
ATOM     38  C   UNL A   1      36.441  32.979  30.898  1.00  0.00    -0.014 A 
BRANCH  38  39
ATOM     39  C   UNL A   1      37.580  32.277  31.544  1.00  0.00     0.031 A 
ATOM     40  C   UNL A   1      38.132  32.781  32.850  1.00  0.00     0.074 A 
ATOM     41  C   UNL A   1      38.179  31.251  30.908  1.00  0.00     0.049 A 
ATOM     42  N   UNL A   1      39.167  32.355  33.526  1.00  0.00    -0.248 NA
ATOM     43  C   UNL A   1      37.450  33.933  33.463  1.00  0.00     0.031 C 
ATOM     44  C   UNL A   1      37.787  30.718  29.601  1.00  0.00     0.029 A 
ATOM     45  N   UNL A   1      39.267  30.489  31.261  1.00  0.00    -0.354 N 
ATOM     46  C   UNL A   1      39.283  33.205  34.619  1.00  0.00     0.074 A 
ATOM     47  C   UNL A   1      38.235  34.194  34.497  1.00  0.00     0.031 C 
ATOM     48  C   UNL A   1      38.616  29.716  29.265  1.00  0.00     0.029 A 
ATOM     49  C   UNL A   1      39.622  29.559  30.311  1.00  0.00     0.049 A 
ATOM     50  H   UNL A   1      39.747  30.599  32.114  1.00  0.00     0.167 HD
ATOM     51  C   UNL A   1      40.163  33.152  35.646  1.00  0.00     0.034 A 
ATOM     52  C   UNL A   1      40.650  28.689  30.277  1.00  0.00     0.034 A 
ATOM     53  C   UNL A   1      41.180  32.146  35.781  1.00  0.00     0.049 A 
ATOM     54  C   UNL A   1      41.601  28.637  31.443  1.00  0.00     0.074 A 
ATOM     55  C   UNL A   1      42.064  31.953  36.827  1.00  0.00     0.029 A 
ATOM     56  N   UNL A   1      41.461  31.171  34.836  1.00  0.00    -0.354 N 
ATOM     57  N   UNL A   1      41.599  29.349  32.543  1.00  0.00    -0.248 NA
ATOM     58  C   UNL A   1      42.677  27.637  31.379  1.00  0.00     0.031 C 
ATOM     59  C   UNL A   1      42.904  30.884  36.499  1.00  0.00     0.029 A 
ATOM     60  C   UNL A   1      42.513  30.384  35.268  1.00  0.00     0.049 A 
ATOM     61  H   UNL A   1      40.981  31.056  33.984  1.00  0.00     0.167 HD
ATOM     62  C   UNL A   1      42.643  28.859  33.318  1.00  0.00     0.074 A 
ATOM     63  C   UNL A   1      43.246  27.776  32.569  1.00  0.00     0.031 C 
ATOM     64  C   UNL A   1      43.071  29.274  34.536  1.00  0.00     0.034 A 
BRANCH  51  65
ATOM     65  C   UNL A   1      40.038  34.191  36.730  1.00  0.00     0.023 A 
ATOM     66  C   UNL A   1      40.373  35.533  36.455  1.00  0.00     0.012 A 
ATOM     67  C   UNL A   1      39.536  33.851  38.001  1.00  0.00     0.148 A 
ATOM     68  C   UNL A   1      40.247  36.513  37.439  1.00  0.00     0.002 A 
ATOM     69  C   UNL A   1      39.365  34.842  38.960  1.00  0.00     0.091 A 
ATOM     70  F   UNL A   1      39.241  32.567  38.251  1.00  0.00    -0.205 F 
ATOM     71  C   UNL A   1      39.734  36.170  38.686  1.00  0.00     0.022 A 
BRANCH  69  72
ATOM     72  S   UNL A   1      38.633  34.520  40.569  1.00  0.00     0.127 S 
ATOM     73  O   UNL A   1      39.730  33.843  41.260  1.00  0.00    -0.237 OA
ATOM     74  O   UNL A   1      38.350  35.871  41.052  1.00  0.00    -0.237 OA
ATOM     75  O   UNL A   1      37.455  33.702  40.318  1.00  0.00    -0.744 OA
ENDBRANCH  69  72
ENDBRANCH  51  65
BRANCH  52  76
ATOM     76  C   UNL A   1      40.808  27.760  29.123  1.00  0.00     0.023 A 
ATOM     77  C   UNL A   1      40.062  26.565  29.087  1.00  0.00     0.012 A 
ATOM     78  C   UNL A   1      41.676  28.059  28.055  1.00  0.00     0.148 A 
ATOM     79  C   UNL A   1      40.206  25.667  28.028  1.00  0.00     0.002 A 
ATOM     80  C   UNL A   1      41.772  27.188  26.976  1.00  0.00     0.091 A 
ATOM     81  F   UNL A   1      42.382  29.197  28.111  1.00  0.00    -0.205 F 
ATOM     82  C   UNL A   1      41.054  25.982  26.969  1.00  0.00     0.022 A 
BRANCH  80  83
ATOM     83  S   UNL A   1      42.736  27.572  25.510  1.00  0.00     0.127 S 
ATOM     84  O   UNL A   1      42.051  28.759  25.004  1.00  0.00    -0.237 OA
ATOM     85  O   UNL A   1      44.062  27.821  26.079  1.00  0.00    -0.237 OA
ATOM     86  O   UNL A   1      42.658  26.389  24.665  1.00  0.00    -0.744 OA
ENDBRANCH  80  83
ENDBRANCH  52  76
BRANCH  64  87
ATOM     87  C   UNL A   1      44.217  28.530  35.171  1.00  0.00     0.023 A 
ATOM     88  C   UNL A   1      45.546  28.892  34.872  1.00  0.00     0.012 A 
ATOM     89  C   UNL A   1      43.971  27.527  36.129  1.00  0.00     0.148 A 
ATOM     90  C   UNL A   1      46.612  28.243  35.496  1.00  0.00     0.002 A 
ATOM     91  C   UNL A   1      45.036  26.923  36.785  1.00  0.00     0.091 A 
ATOM     92  F   UNL A   1      42.700  27.188  36.386  1.00  0.00    -0.205 F 
ATOM     93  C   UNL A   1      46.358  27.271  36.459  1.00  0.00     0.022 A 
BRANCH  91  94
ATOM     94  S   UNL A   1      44.805  25.734  38.111  1.00  0.00     0.127 S 
ATOM     95  O   UNL A   1      46.163  25.607  38.636  1.00  0.00    -0.237 OA
ATOM     96  O   UNL A   1      43.871  26.435  38.993  1.00  0.00    -0.237 OA
ATOM     97  O   UNL A   1      44.264  24.534  37.487  1.00  0.00    -0.744 OA
ENDBRANCH  91  94
ENDBRANCH  64  87
ENDBRANCH  38  39
ENDBRANCH  30  33
ENDBRANCH  28  29
ENDBRANCH  27  28
ENDBRANCH   1  27
TORSDOF 17
ENDMDL
