MODEL 1
REMARK VINA RESULT:     -11.0      0.000      0.000
REMARK SMILES CC[C@](C)(NC(=O)CCOc1ccc(Cl)c(Cl)c1)C(=O)NCCCCNC(=O)c1ccc(-c2c3nc(c(-c4cccc(S(=O)(=O)[O-])c4F)c4ccc([nH]4)c(-c4cccc(S(=O)(=O)[O-])c4F)c4nc(c(-c5cccc(S(=O)(=O)[O-])c5F)c5ccc2[nH]5)C=C4)C=C3)cc1
REMARK SMILES IDX 22 1 21 2 19 3 20 4 3 6 4 7 2 8 1 9 5 10 6 11 7 13 8 14 9 15
REMARK SMILES IDX 10 16 11 17 12 18 18 19 13 20 16 21 14 22 17 23 15 24 23 25
REMARK SMILES IDX 24 26 25 27 26 28 27 29 28 31 29 32 30 33 91 34 31 35 90 36
REMARK SMILES IDX 32 37 33 38 34 39 84 40 35 41 89 42 83 43 85 44 36 45 88 46
REMARK SMILES IDX 82 47 81 48 37 50 69 51 49 52 68 53 50 54 53 55 67 56 86 57
REMARK SMILES IDX 51 58 52 59 66 61 87 62 54 63 38 64 39 65 47 66 40 67 42 68
REMARK SMILES IDX 48 69 41 70 43 71 44 72 45 73 46 74 70 75 71 76 79 77 72 78
REMARK SMILES IDX 74 79 80 80 73 81 75 82 76 83 77 84 78 85 55 86 56 87 64 88
REMARK SMILES IDX 57 89 59 90 65 91 58 92 60 93 61 94 62 95 63 96
REMARK H PARENT 21 5 5 12 26 30 85 49 53 60
REMARK Flexibility Score: inf
ROOT
ATOM      1  C   UNL A   1      35.451  20.474  24.974  1.00  0.00     0.116 C 
ENDROOT
BRANCH   1   2
ATOM      2  N   UNL A   1      35.017  21.039  26.238  1.00  0.00    -0.354 N 
ATOM      3  C   UNL A   1      33.789  21.485  26.635  1.00  0.00     0.245 C 
ATOM      4  O   UNL A   1      33.634  21.701  27.839  1.00  0.00    -0.272 OA
ATOM      5  H   UNL A   1      35.723  21.114  26.920  1.00  0.00     0.163 HD
BRANCH   3   6
ATOM      6  C   UNL A   1      32.605  21.586  25.628  1.00  0.00     0.116 C 
ATOM      7  C   UNL A   1      32.354  20.214  24.991  1.00  0.00     0.045 C 
BRANCH   6   8
ATOM      8  C   UNL A   1      33.008  22.661  24.554  1.00  0.00     0.035 C 
ATOM      9  C   UNL A   1      32.855  22.278  23.086  1.00  0.00     0.007 C 
ENDBRANCH   6   8
BRANCH   6  10
ATOM     10  N   UNL A   1      31.379  22.054  26.327  1.00  0.00    -0.342 N 
ATOM     11  C   UNL A   1      31.003  23.276  26.795  1.00  0.00     0.224 C 
ATOM     12  H   UNL A   1      30.713  21.347  26.482  1.00  0.00     0.164 HD
ATOM     13  O   UNL A   1      29.902  23.345  27.351  1.00  0.00    -0.275 OA
BRANCH  11  14
ATOM     14  C   UNL A   1      31.835  24.518  26.568  1.00  0.00     0.141 C 
BRANCH  14  15
ATOM     15  C   UNL A   1      31.004  25.701  26.068  1.00  0.00     0.239 C 
BRANCH  15  16
ATOM     16  O   UNL A   1      31.134  25.948  24.657  1.00  0.00    -0.493 OA
BRANCH  16  17
ATOM     17  C   UNL A   1      30.775  27.174  24.172  1.00  0.00     0.120 A 
ATOM     18  C   UNL A   1      29.934  27.401  23.087  1.00  0.00     0.048 A 
ATOM     19  C   UNL A   1      31.268  28.268  24.888  1.00  0.00     0.068 A 
ATOM     20  C   UNL A   1      29.441  28.682  22.830  1.00  0.00     0.026 A 
ATOM     21  C   UNL A   1      30.807  29.560  24.614  1.00  0.00     0.063 A 
ATOM     22  C   UNL A   1      29.857  29.761  23.608  1.00  0.00     0.059 A 
ATOM     23  Cl  UNL A   1      31.399  30.854  25.595  1.00  0.00    -0.083 Cl
ATOM     24  Cl  UNL A   1      29.139  31.300  23.295  1.00  0.00    -0.083 Cl
ENDBRANCH  16  17
ENDBRANCH  15  16
ENDBRANCH  14  15
ENDBRANCH  11  14
ENDBRANCH   6  10
ENDBRANCH   3   6
ENDBRANCH   1   2
BRANCH   1  25
ATOM     25  C   UNL A   1      36.685  21.154  24.384  1.00  0.00     0.023 C 
BRANCH  25  26
ATOM     26  C   UNL A   1      36.728  22.671  24.538  1.00  0.00     0.023 C 
BRANCH  26  27
ATOM     27  C   UNL A   1      37.629  23.164  25.655  1.00  0.00     0.116 C 
BRANCH  27  28
ATOM     28  N   UNL A   1      38.811  22.333  25.840  1.00  0.00    -0.352 N 
ATOM     29  C   UNL A   1      40.033  22.700  26.341  1.00  0.00     0.251 C 
ATOM     30  H   UNL A   1      38.721  21.390  25.571  1.00  0.00     0.163 HD
ATOM     31  O   UNL A   1      40.969  21.908  26.353  1.00  0.00    -0.269 OA
BRANCH  29  32
ATOM     32  C   UNL A   1      40.200  24.080  26.826  1.00  0.00     0.039 A 
ATOM     33  C   UNL A   1      40.281  24.303  28.201  1.00  0.00     0.014 A 
ATOM     34  C   UNL A   1      40.366  25.127  25.915  1.00  0.00     0.014 A 
ATOM     35  C   UNL A   1      40.581  25.583  28.665  1.00  0.00     0.010 A 
ATOM     36  C   UNL A   1      40.754  26.375  26.377  1.00  0.00     0.010 A 
ATOM     37  C   UNL A   1      40.848  26.619  27.755  1.00  0.00    -0.014 A 
BRANCH  37  38
ATOM     38  C   UNL A   1      41.203  27.978  28.224  1.00  0.00     0.031 A 
ATOM     39  C   UNL A   1      42.647  28.393  28.268  1.00  0.00     0.074 A 
ATOM     40  C   UNL A   1      40.238  28.795  28.687  1.00  0.00     0.049 A 
ATOM     41  N   UNL A   1      43.171  29.509  28.700  1.00  0.00    -0.248 NA
ATOM     42  C   UNL A   1      43.639  27.410  27.797  1.00  0.00     0.031 C 
ATOM     43  C   UNL A   1      38.814  28.460  28.780  1.00  0.00     0.029 A 
ATOM     44  N   UNL A   1      40.313  30.068  29.194  1.00  0.00    -0.354 N 
ATOM     45  C   UNL A   1      44.546  29.348  28.590  1.00  0.00     0.074 A 
ATOM     46  C   UNL A   1      44.781  28.011  28.096  1.00  0.00     0.031 C 
ATOM     47  C   UNL A   1      38.151  29.503  29.306  1.00  0.00     0.029 A 
ATOM     48  C   UNL A   1      39.101  30.568  29.609  1.00  0.00     0.049 A 
ATOM     49  H   UNL A   1      41.155  30.575  29.254  1.00  0.00     0.167 HD
ATOM     50  C   UNL A   1      45.525  30.247  28.839  1.00  0.00     0.034 A 
ATOM     51  C   UNL A   1      38.796  31.754  30.172  1.00  0.00     0.034 A 
ATOM     52  C   UNL A   1      45.278  31.593  29.277  1.00  0.00     0.049 A 
ATOM     53  C   UNL A   1      39.895  32.760  30.377  1.00  0.00     0.074 A 
ATOM     54  C   UNL A   1      46.188  32.616  29.472  1.00  0.00     0.029 A 
ATOM     55  N   UNL A   1      44.025  32.103  29.583  1.00  0.00    -0.354 N 
ATOM     56  N   UNL A   1      41.175  32.649  30.113  1.00  0.00    -0.248 NA
ATOM     57  C   UNL A   1      39.505  34.071  30.915  1.00  0.00     0.031 C 
ATOM     58  C   UNL A   1      45.484  33.743  29.913  1.00  0.00     0.029 A 
ATOM     59  C   UNL A   1      44.136  33.427  29.969  1.00  0.00     0.049 A 
ATOM     60  H   UNL A   1      43.182  31.598  29.534  1.00  0.00     0.167 HD
ATOM     61  C   UNL A   1      41.738  33.880  30.423  1.00  0.00     0.074 A 
ATOM     62  C   UNL A   1      40.654  34.732  30.870  1.00  0.00     0.031 C 
ATOM     63  C   UNL A   1      43.035  34.271  30.358  1.00  0.00     0.034 A 
BRANCH  50  64
ATOM     64  C   UNL A   1      46.946  29.820  28.580  1.00  0.00     0.023 A 
ATOM     65  C   UNL A   1      47.521  30.057  27.314  1.00  0.00     0.012 A 
ATOM     66  C   UNL A   1      47.725  29.225  29.591  1.00  0.00     0.148 A 
ATOM     67  C   UNL A   1      48.833  29.673  27.044  1.00  0.00     0.002 A 
ATOM     68  C   UNL A   1      49.048  28.888  29.329  1.00  0.00     0.091 A 
ATOM     69  F   UNL A   1      47.155  28.986  30.781  1.00  0.00    -0.205 F 
ATOM     70  C   UNL A   1      49.599  29.099  28.054  1.00  0.00     0.022 A 
BRANCH  68  71
ATOM     71  S   UNL A   1      50.142  28.215  30.584  1.00  0.00     0.127 S 
ATOM     72  O   UNL A   1      51.421  28.185  29.876  1.00  0.00    -0.237 OA
ATOM     73  O   UNL A   1      50.055  29.224  31.641  1.00  0.00    -0.237 OA
ATOM     74  O   UNL A   1      49.593  26.914  30.940  1.00  0.00    -0.744 OA
ENDBRANCH  68  71
ENDBRANCH  50  64
BRANCH  51  75
ATOM     75  C   UNL A   1      37.379  32.075  30.505  1.00  0.00     0.023 A 
ATOM     76  C   UNL A   1      36.882  31.767  31.785  1.00  0.00     0.012 A 
ATOM     77  C   UNL A   1      36.534  32.716  29.577  1.00  0.00     0.148 A 
ATOM     78  C   UNL A   1      35.561  32.060  32.127  1.00  0.00     0.002 A 
ATOM     79  C   UNL A   1      35.237  33.055  29.942  1.00  0.00     0.091 A 
ATOM     80  F   UNL A   1      37.022  32.993  28.359  1.00  0.00    -0.205 F 
ATOM     81  C   UNL A   1      34.742  32.713  31.210  1.00  0.00     0.022 A 
BRANCH  79  82
ATOM     82  S   UNL A   1      34.159  34.016  28.874  1.00  0.00     0.127 S 
ATOM     83  O   UNL A   1      33.682  33.001  27.938  1.00  0.00    -0.237 OA
ATOM     84  O   UNL A   1      33.153  34.507  29.817  1.00  0.00    -0.237 OA
ATOM     85  O   UNL A   1      35.002  35.059  28.304  1.00  0.00    -0.744 OA
ENDBRANCH  79  82
ENDBRANCH  51  75
BRANCH  63  86
ATOM     86  C   UNL A   1      43.356  35.688  30.750  1.00  0.00     0.023 A 
ATOM     87  C   UNL A   1      43.726  35.979  32.077  1.00  0.00     0.012 A 
ATOM     88  C   UNL A   1      43.375  36.712  29.783  1.00  0.00     0.148 A 
ATOM     89  C   UNL A   1      44.078  37.277  32.444  1.00  0.00     0.002 A 
ATOM     90  C   UNL A   1      43.775  37.992  30.145  1.00  0.00     0.091 A 
ATOM     91  F   UNL A   1      43.003  36.414  28.529  1.00  0.00    -0.205 F 
ATOM     92  C   UNL A   1      44.116  38.279  31.477  1.00  0.00     0.022 A 
BRANCH  90  93
ATOM     93  S   UNL A   1      43.947  39.318  28.946  1.00  0.00     0.127 S 
ATOM     94  O   UNL A   1      44.291  40.451  29.803  1.00  0.00    -0.237 OA
ATOM     95  O   UNL A   1      45.043  38.835  28.105  1.00  0.00    -0.237 OA
ATOM     96  O   UNL A   1      42.663  39.414  28.266  1.00  0.00    -0.744 OA
ENDBRANCH  90  93
ENDBRANCH  63  86
ENDBRANCH  37  38
ENDBRANCH  29  32
ENDBRANCH  27  28
ENDBRANCH  26  27
ENDBRANCH  25  26
ENDBRANCH   1  25
TORSDOF 20
ENDMDL
MODEL 2
REMARK VINA RESULT:     -10.7      3.475      8.382
REMARK SMILES CC[C@](C)(NC(=O)CCOc1ccc(Cl)c(Cl)c1)C(=O)NCCCCNC(=O)c1ccc(-c2c3nc(c(-c4cccc(S(=O)(=O)[O-])c4F)c4ccc([nH]4)c(-c4cccc(S(=O)(=O)[O-])c4F)c4nc(c(-c5cccc(S(=O)(=O)[O-])c5F)c5ccc2[nH]5)C=C4)C=C3)cc1
REMARK SMILES IDX 22 1 21 2 19 3 20 4 3 6 4 7 2 8 1 9 5 10 6 11 7 13 8 14 9 15
REMARK SMILES IDX 10 16 11 17 12 18 18 19 13 20 16 21 14 22 17 23 15 24 23 25
REMARK SMILES IDX 24 26 25 27 26 28 27 29 28 31 29 32 30 33 91 34 31 35 90 36
REMARK SMILES IDX 32 37 33 38 34 39 84 40 35 41 89 42 83 43 85 44 36 45 88 46
REMARK SMILES IDX 82 47 81 48 37 50 69 51 49 52 68 53 50 54 53 55 67 56 86 57
REMARK SMILES IDX 51 58 52 59 66 61 87 62 54 63 38 64 39 65 47 66 40 67 42 68
REMARK SMILES IDX 48 69 41 70 43 71 44 72 45 73 46 74 70 75 71 76 79 77 72 78
REMARK SMILES IDX 74 79 80 80 73 81 75 82 76 83 77 84 78 85 55 86 56 87 64 88
REMARK SMILES IDX 57 89 59 90 65 91 58 92 60 93 61 94 62 95 63 96
REMARK H PARENT 21 5 5 12 26 30 85 49 53 60
REMARK Flexibility Score: inf
ROOT
ATOM      1  C   UNL A   1      35.825  20.783  24.998  1.00  0.00     0.116 C 
ENDROOT
BRANCH   1   2
ATOM      2  N   UNL A   1      35.377  21.170  26.323  1.00  0.00    -0.354 N 
ATOM      3  C   UNL A   1      34.351  21.983  26.710  1.00  0.00     0.245 C 
ATOM      4  O   UNL A   1      34.037  21.960  27.903  1.00  0.00    -0.272 OA
ATOM      5  H   UNL A   1      35.899  20.785  27.063  1.00  0.00     0.163 HD
BRANCH   3   6
ATOM      6  C   UNL A   1      33.530  22.797  25.666  1.00  0.00     0.116 C 
ATOM      7  C   UNL A   1      33.217  24.188  26.230  1.00  0.00     0.045 C 
BRANCH   6   8
ATOM      8  C   UNL A   1      32.219  21.979  25.377  1.00  0.00     0.035 C 
ATOM      9  C   UNL A   1      30.901  22.564  25.875  1.00  0.00     0.007 C 
ENDBRANCH   6   8
BRANCH   6  10
ATOM     10  N   UNL A   1      34.296  22.922  24.399  1.00  0.00    -0.342 N 
ATOM     11  C   UNL A   1      33.946  23.354  23.157  1.00  0.00     0.224 C 
ATOM     12  H   UNL A   1      35.236  22.638  24.471  1.00  0.00     0.164 HD
ATOM     13  O   UNL A   1      34.826  23.330  22.290  1.00  0.00    -0.275 OA
BRANCH  11  14
ATOM     14  C   UNL A   1      32.581  23.931  22.857  1.00  0.00     0.141 C 
BRANCH  14  15
ATOM     15  C   UNL A   1      32.647  25.173  21.966  1.00  0.00     0.239 C 
BRANCH  15  16
ATOM     16  O   UNL A   1      33.351  26.277  22.558  1.00  0.00    -0.493 OA
BRANCH  16  17
ATOM     17  C   UNL A   1      32.805  26.893  23.648  1.00  0.00     0.120 A 
ATOM     18  C   UNL A   1      31.453  26.901  23.981  1.00  0.00     0.048 A 
ATOM     19  C   UNL A   1      33.719  27.504  24.509  1.00  0.00     0.068 A 
ATOM     20  C   UNL A   1      31.037  27.346  25.238  1.00  0.00     0.026 A 
ATOM     21  C   UNL A   1      33.305  27.987  25.756  1.00  0.00     0.063 A 
ATOM     22  C   UNL A   1      31.965  27.868  26.137  1.00  0.00     0.059 A 
ATOM     23  Cl  UNL A   1      34.506  28.657  26.802  1.00  0.00    -0.083 Cl
ATOM     24  Cl  UNL A   1      31.397  28.315  27.706  1.00  0.00    -0.083 Cl
ENDBRANCH  16  17
ENDBRANCH  15  16
ENDBRANCH  14  15
ENDBRANCH  11  14
ENDBRANCH   6  10
ENDBRANCH   3   6
ENDBRANCH   1   2
BRANCH   1  25
ATOM     25  C   UNL A   1      36.922  19.721  25.003  1.00  0.00     0.023 C 
BRANCH  25  26
ATOM     26  C   UNL A   1      38.349  20.258  24.943  1.00  0.00     0.023 C 
BRANCH  26  27
ATOM     27  C   UNL A   1      39.147  20.064  26.220  1.00  0.00     0.116 C 
BRANCH  27  28
ATOM     28  N   UNL A   1      40.308  19.203  26.037  1.00  0.00    -0.352 N 
ATOM     29  C   UNL A   1      41.633  19.552  26.075  1.00  0.00     0.251 C 
ATOM     30  H   UNL A   1      40.117  18.252  25.866  1.00  0.00     0.163 HD
ATOM     31  O   UNL A   1      42.505  18.730  25.812  1.00  0.00    -0.269 OA
BRANCH  29  32
ATOM     32  C   UNL A   1      41.977  20.946  26.399  1.00  0.00     0.039 A 
ATOM     33  C   UNL A   1      42.291  21.270  27.719  1.00  0.00     0.014 A 
ATOM     34  C   UNL A   1      42.073  21.898  25.380  1.00  0.00     0.014 A 
ATOM     35  C   UNL A   1      42.755  22.551  28.011  1.00  0.00     0.010 A 
ATOM     36  C   UNL A   1      42.621  23.140  25.660  1.00  0.00     0.010 A 
ATOM     37  C   UNL A   1      42.950  23.484  26.980  1.00  0.00    -0.014 A 
BRANCH  37  38
ATOM     38  C   UNL A   1      43.475  24.840  27.261  1.00  0.00     0.031 A 
ATOM     39  C   UNL A   1      42.539  25.909  27.752  1.00  0.00     0.074 A 
ATOM     40  C   UNL A   1      44.764  25.124  26.993  1.00  0.00     0.049 A 
ATOM     41  N   UNL A   1      42.785  27.169  27.998  1.00  0.00    -0.248 NA
ATOM     42  C   UNL A   1      41.133  25.522  27.959  1.00  0.00     0.031 C 
ATOM     43  C   UNL A   1      45.738  24.188  26.425  1.00  0.00     0.029 A 
ATOM     44  N   UNL A   1      45.470  26.291  27.136  1.00  0.00    -0.354 N 
ATOM     45  C   UNL A   1      41.563  27.729  28.349  1.00  0.00     0.074 A 
ATOM     46  C   UNL A   1      40.569  26.687  28.239  1.00  0.00     0.031 C 
ATOM     47  C   UNL A   1      46.915  24.817  26.274  1.00  0.00     0.029 A 
ATOM     48  C   UNL A   1      46.774  26.203  26.711  1.00  0.00     0.049 A 
ATOM     49  H   UNL A   1      45.080  27.114  27.510  1.00  0.00     0.167 HD
ATOM     50  C   UNL A   1      41.299  28.989  28.766  1.00  0.00     0.034 A 
ATOM     51  C   UNL A   1      47.744  27.137  26.676  1.00  0.00     0.034 A 
ATOM     52  C   UNL A   1      42.305  30.002  28.925  1.00  0.00     0.049 A 
ATOM     53  C   UNL A   1      47.441  28.512  27.208  1.00  0.00     0.074 A 
ATOM     54  C   UNL A   1      42.166  31.283  29.426  1.00  0.00     0.029 A 
ATOM     55  N   UNL A   1      43.641  29.844  28.587  1.00  0.00    -0.354 N 
ATOM     56  N   UNL A   1      46.315  28.980  27.691  1.00  0.00    -0.248 NA
ATOM     57  C   UNL A   1      48.550  29.476  27.230  1.00  0.00     0.031 C 
ATOM     58  C   UNL A   1      43.418  31.906  29.377  1.00  0.00     0.029 A 
ATOM     59  C   UNL A   1      44.339  31.006  28.867  1.00  0.00     0.049 A 
ATOM     60  H   UNL A   1      44.035  29.027  28.204  1.00  0.00     0.167 HD
ATOM     61  C   UNL A   1      46.586  30.278  28.104  1.00  0.00     0.074 A 
ATOM     62  C   UNL A   1      47.991  30.514  27.836  1.00  0.00     0.031 C 
ATOM     63  C   UNL A   1      45.749  31.199  28.642  1.00  0.00     0.034 A 
BRANCH  50  64
ATOM     64  C   UNL A   1      39.878  29.316  29.140  1.00  0.00     0.023 A 
ATOM     65  C   UNL A   1      38.928  29.542  28.122  1.00  0.00     0.012 A 
ATOM     66  C   UNL A   1      39.469  29.360  30.487  1.00  0.00     0.148 A 
ATOM     67  C   UNL A   1      37.605  29.847  28.437  1.00  0.00     0.002 A 
ATOM     68  C   UNL A   1      38.137  29.618  30.792  1.00  0.00     0.091 A 
ATOM     69  F   UNL A   1      40.390  29.167  31.442  1.00  0.00    -0.205 F 
ATOM     70  C   UNL A   1      37.208  29.875  29.770  1.00  0.00     0.022 A 
BRANCH  68  71
ATOM     71  S   UNL A   1      37.508  29.599  32.474  1.00  0.00     0.127 S 
ATOM     72  O   UNL A   1      38.495  30.425  33.168  1.00  0.00    -0.237 OA
ATOM     73  O   UNL A   1      36.194  30.224  32.317  1.00  0.00    -0.237 OA
ATOM     74  O   UNL A   1      37.471  28.199  32.873  1.00  0.00    -0.744 OA
ENDBRANCH  68  71
ENDBRANCH  50  64
BRANCH  51  75
ATOM     75  C   UNL A   1      49.107  26.777  26.193  1.00  0.00     0.023 A 
ATOM     76  C   UNL A   1      49.922  25.941  26.980  1.00  0.00     0.012 A 
ATOM     77  C   UNL A   1      49.586  27.225  24.946  1.00  0.00     0.148 A 
ATOM     78  C   UNL A   1      51.201  25.584  26.552  1.00  0.00     0.002 A 
ATOM     79  C   UNL A   1      50.839  26.820  24.500  1.00  0.00     0.091 A 
ATOM     80  F   UNL A   1      48.800  28.029  24.215  1.00  0.00    -0.205 F 
ATOM     81  C   UNL A   1      51.656  26.014  25.308  1.00  0.00     0.022 A 
BRANCH  79  82
ATOM     82  S   UNL A   1      51.446  27.216  22.857  1.00  0.00     0.127 S 
ATOM     83  O   UNL A   1      52.701  26.470  22.813  1.00  0.00    -0.237 OA
ATOM     84  O   UNL A   1      50.383  26.686  22.002  1.00  0.00    -0.237 OA
ATOM     85  O   UNL A   1      51.569  28.668  22.824  1.00  0.00    -0.744 OA
ENDBRANCH  79  82
ENDBRANCH  51  75
BRANCH  63  86
ATOM     86  C   UNL A   1      46.329  32.538  29.007  1.00  0.00     0.023 A 
ATOM     87  C   UNL A   1      46.855  32.744  30.298  1.00  0.00     0.012 A 
ATOM     88  C   UNL A   1      46.430  33.562  28.045  1.00  0.00     0.148 A 
ATOM     89  C   UNL A   1      47.445  33.961  30.635  1.00  0.00     0.002 A 
ATOM     90  C   UNL A   1      47.063  34.754  28.374  1.00  0.00     0.091 A 
ATOM     91  F   UNL A   1      45.907  33.350  26.828  1.00  0.00    -0.205 F 
ATOM     92  C   UNL A   1      47.562  34.959  29.671  1.00  0.00     0.022 A 
BRANCH  90  93
ATOM     93  S   UNL A   1      47.345  36.055  27.167  1.00  0.00     0.127 S 
ATOM     94  O   UNL A   1      46.830  37.228  27.870  1.00  0.00    -0.237 OA
ATOM     95  O   UNL A   1      48.800  36.026  27.014  1.00  0.00    -0.237 OA
ATOM     96  O   UNL A   1      46.605  35.663  25.975  1.00  0.00    -0.744 OA
ENDBRANCH  90  93
ENDBRANCH  63  86
ENDBRANCH  37  38
ENDBRANCH  29  32
ENDBRANCH  27  28
ENDBRANCH  26  27
ENDBRANCH  25  26
ENDBRANCH   1  25
TORSDOF 20
ENDMDL
MODEL 3
REMARK VINA RESULT:     -10.3      1.257      7.830
REMARK SMILES CC[C@](C)(NC(=O)CCOc1ccc(Cl)c(Cl)c1)C(=O)NCCCCNC(=O)c1ccc(-c2c3nc(c(-c4cccc(S(=O)(=O)[O-])c4F)c4ccc([nH]4)c(-c4cccc(S(=O)(=O)[O-])c4F)c4nc(c(-c5cccc(S(=O)(=O)[O-])c5F)c5ccc2[nH]5)C=C4)C=C3)cc1
REMARK SMILES IDX 22 1 21 2 19 3 20 4 3 6 4 7 2 8 1 9 5 10 6 11 7 13 8 14 9 15
REMARK SMILES IDX 10 16 11 17 12 18 18 19 13 20 16 21 14 22 17 23 15 24 23 25
REMARK SMILES IDX 24 26 25 27 26 28 27 29 28 31 29 32 30 33 91 34 31 35 90 36
REMARK SMILES IDX 32 37 33 38 34 39 84 40 35 41 89 42 83 43 85 44 36 45 88 46
REMARK SMILES IDX 82 47 81 48 37 50 69 51 49 52 68 53 50 54 53 55 67 56 86 57
REMARK SMILES IDX 51 58 52 59 66 61 87 62 54 63 38 64 39 65 47 66 40 67 42 68
REMARK SMILES IDX 48 69 41 70 43 71 44 72 45 73 46 74 70 75 71 76 79 77 72 78
REMARK SMILES IDX 74 79 80 80 73 81 75 82 76 83 77 84 78 85 55 86 56 87 64 88
REMARK SMILES IDX 57 89 59 90 65 91 58 92 60 93 61 94 62 95 63 96
REMARK H PARENT 21 5 5 12 26 30 85 49 53 60
REMARK Flexibility Score: inf
ROOT
ATOM      1  C   UNL A   1      36.161  20.594  24.997  1.00  0.00     0.116 C 
ENDROOT
BRANCH   1   2
ATOM      2  N   UNL A   1      35.363  21.078  26.108  1.00  0.00    -0.354 N 
ATOM      3  C   UNL A   1      34.029  21.358  26.185  1.00  0.00     0.245 C 
ATOM      4  O   UNL A   1      33.557  21.533  27.311  1.00  0.00    -0.272 OA
ATOM      5  H   UNL A   1      35.864  21.230  26.941  1.00  0.00     0.163 HD
BRANCH   3   6
ATOM      6  C   UNL A   1      33.124  21.326  24.917  1.00  0.00     0.116 C 
ATOM      7  C   UNL A   1      31.711  21.794  25.283  1.00  0.00     0.045 C 
BRANCH   6   8
ATOM      8  C   UNL A   1      33.127  19.844  24.391  1.00  0.00     0.035 C 
ATOM      9  C   UNL A   1      32.650  18.758  25.350  1.00  0.00     0.007 C 
ENDBRANCH   6   8
BRANCH   6  10
ATOM     10  N   UNL A   1      33.693  22.203  23.860  1.00  0.00    -0.342 N 
ATOM     11  C   UNL A   1      33.961  23.537  23.825  1.00  0.00     0.224 C 
ATOM     12  H   UNL A   1      33.919  21.729  23.028  1.00  0.00     0.164 HD
ATOM     13  O   UNL A   1      34.436  23.981  22.775  1.00  0.00    -0.275 OA
BRANCH  11  14
ATOM     14  C   UNL A   1      33.785  24.428  25.033  1.00  0.00     0.141 C 
BRANCH  14  15
ATOM     15  C   UNL A   1      32.496  25.251  24.976  1.00  0.00     0.239 C 
BRANCH  15  16
ATOM     16  O   UNL A   1      32.304  25.947  23.733  1.00  0.00    -0.493 OA
BRANCH  16  17
ATOM     17  C   UNL A   1      31.078  26.489  23.469  1.00  0.00     0.120 A 
ATOM     18  C   UNL A   1      29.857  25.978  23.900  1.00  0.00     0.048 A 
ATOM     19  C   UNL A   1      31.097  27.688  22.753  1.00  0.00     0.068 A 
ATOM     20  C   UNL A   1      28.692  26.739  23.784  1.00  0.00     0.026 A 
ATOM     21  C   UNL A   1      29.927  28.440  22.599  1.00  0.00     0.063 A 
ATOM     22  C   UNL A   1      28.728  27.982  23.155  1.00  0.00     0.059 A 
ATOM     23  Cl  UNL A   1      30.042  29.953  21.773  1.00  0.00    -0.083 Cl
ATOM     24  Cl  UNL A   1      27.271  28.910  23.126  1.00  0.00    -0.083 Cl
ENDBRANCH  16  17
ENDBRANCH  15  16
ENDBRANCH  14  15
ENDBRANCH  11  14
ENDBRANCH   6  10
ENDBRANCH   3   6
ENDBRANCH   1   2
BRANCH   1  25
ATOM     25  C   UNL A   1      37.322  21.513  24.624  1.00  0.00     0.023 C 
BRANCH  25  26
ATOM     26  C   UNL A   1      37.180  22.961  25.082  1.00  0.00     0.023 C 
BRANCH  26  27
ATOM     27  C   UNL A   1      38.193  23.391  26.128  1.00  0.00     0.116 C 
BRANCH  27  28
ATOM     28  N   UNL A   1      39.444  22.649  26.045  1.00  0.00    -0.352 N 
ATOM     29  C   UNL A   1      40.704  23.077  26.376  1.00  0.00     0.251 C 
ATOM     30  H   UNL A   1      39.377  21.726  25.709  1.00  0.00     0.163 HD
ATOM     31  O   UNL A   1      41.682  22.367  26.166  1.00  0.00    -0.269 OA
BRANCH  29  32
ATOM     32  C   UNL A   1      40.853  24.423  26.951  1.00  0.00     0.039 A 
ATOM     33  C   UNL A   1      41.158  24.543  28.308  1.00  0.00     0.014 A 
ATOM     34  C   UNL A   1      40.779  25.549  26.127  1.00  0.00     0.014 A 
ATOM     35  C   UNL A   1      41.441  25.803  28.831  1.00  0.00     0.010 A 
ATOM     36  C   UNL A   1      41.150  26.786  26.630  1.00  0.00     0.010 A 
ATOM     37  C   UNL A   1      41.468  26.928  27.989  1.00  0.00    -0.014 A 
BRANCH  37  38
ATOM     38  C   UNL A   1      41.800  28.271  28.516  1.00  0.00     0.031 A 
ATOM     39  C   UNL A   1      40.699  29.164  29.016  1.00  0.00     0.074 A 
ATOM     40  C   UNL A   1      43.071  28.712  28.460  1.00  0.00     0.049 A 
ATOM     41  N   UNL A   1      40.771  30.392  29.458  1.00  0.00    -0.248 NA
ATOM     42  C   UNL A   1      39.330  28.619  28.982  1.00  0.00     0.031 C 
ATOM     43  C   UNL A   1      44.205  27.966  27.907  1.00  0.00     0.029 A 
ATOM     44  N   UNL A   1      43.620  29.908  28.850  1.00  0.00    -0.354 N 
ATOM     45  C   UNL A   1      39.461  30.776  29.716  1.00  0.00     0.074 A 
ATOM     46  C   UNL A   1      38.610  29.672  29.338  1.00  0.00     0.031 C 
ATOM     47  C   UNL A   1      45.313  28.719  27.998  1.00  0.00     0.029 A 
ATOM     48  C   UNL A   1      44.967  30.006  28.592  1.00  0.00     0.049 A 
ATOM     49  H   UNL A   1      43.099  30.627  29.275  1.00  0.00     0.167 HD
ATOM     50  C   UNL A   1      39.010  31.931  30.258  1.00  0.00     0.034 A 
ATOM     51  C   UNL A   1      45.823  31.023  28.811  1.00  0.00     0.034 A 
ATOM     52  C   UNL A   1      39.870  33.001  30.682  1.00  0.00     0.049 A 
ATOM     53  C   UNL A   1      45.307  32.271  29.475  1.00  0.00     0.074 A 
ATOM     54  C   UNL A   1      39.529  34.176  31.326  1.00  0.00     0.029 A 
ATOM     55  N   UNL A   1      41.246  33.021  30.506  1.00  0.00    -0.354 N 
ATOM     56  N   UNL A   1      44.087  32.554  29.864  1.00  0.00    -0.248 NA
ATOM     57  C   UNL A   1      46.290  33.322  29.772  1.00  0.00     0.031 C 
ATOM     58  C   UNL A   1      40.701  34.915  31.526  1.00  0.00     0.029 A 
ATOM     59  C   UNL A   1      41.771  34.191  31.027  1.00  0.00     0.049 A 
ATOM     60  H   UNL A   1      41.771  32.310  30.073  1.00  0.00     0.167 HD
ATOM     61  C   UNL A   1      44.160  33.798  30.477  1.00  0.00     0.074 A 
ATOM     62  C   UNL A   1      45.551  34.203  30.432  1.00  0.00     0.031 C 
ATOM     63  C   UNL A   1      43.166  34.547  31.018  1.00  0.00     0.034 A 
BRANCH  50  64
ATOM     64  C   UNL A   1      37.527  32.064  30.480  1.00  0.00     0.023 A 
ATOM     65  C   UNL A   1      36.968  31.637  31.704  1.00  0.00     0.012 A 
ATOM     66  C   UNL A   1      36.692  32.643  29.506  1.00  0.00     0.148 A 
ATOM     67  C   UNL A   1      35.599  31.747  31.939  1.00  0.00     0.002 A 
ATOM     68  C   UNL A   1      35.334  32.794  29.766  1.00  0.00     0.091 A 
ATOM     69  F   UNL A   1      37.235  33.021  28.340  1.00  0.00    -0.205 F 
ATOM     70  C   UNL A   1      34.785  32.334  30.974  1.00  0.00     0.022 A 
BRANCH  68  71
ATOM     71  S   UNL A   1      34.213  33.607  28.623  1.00  0.00     0.127 S 
ATOM     72  O   UNL A   1      33.242  34.206  29.537  1.00  0.00    -0.237 OA
ATOM     73  O   UNL A   1      35.096  34.567  27.958  1.00  0.00    -0.237 OA
ATOM     74  O   UNL A   1      33.694  32.559  27.756  1.00  0.00    -0.744 OA
ENDBRANCH  68  71
ENDBRANCH  50  64
BRANCH  51  75
ATOM     75  C   UNL A   1      47.265  30.868  28.469  1.00  0.00     0.023 A 
ATOM     76  C   UNL A   1      47.743  31.367  27.242  1.00  0.00     0.012 A 
ATOM     77  C   UNL A   1      48.171  30.264  29.363  1.00  0.00     0.148 A 
ATOM     78  C   UNL A   1      49.089  31.240  26.896  1.00  0.00     0.002 A 
ATOM     79  C   UNL A   1      49.520  30.190  29.037  1.00  0.00     0.091 A 
ATOM     80  F   UNL A   1      47.696  29.786  30.522  1.00  0.00    -0.205 F 
ATOM     81  C   UNL A   1      49.979  30.661  27.797  1.00  0.00     0.022 A 
BRANCH  79  82
ATOM     82  S   UNL A   1      50.756  29.585  30.192  1.00  0.00     0.127 S 
ATOM     83  O   UNL A   1      51.997  29.861  29.475  1.00  0.00    -0.237 OA
ATOM     84  O   UNL A   1      50.518  30.430  31.363  1.00  0.00    -0.237 OA
ATOM     85  O   UNL A   1      50.441  28.177  30.398  1.00  0.00    -0.744 OA
ENDBRANCH  79  82
ENDBRANCH  51  75
BRANCH  63  86
ATOM     86  C   UNL A   1      43.546  35.868  31.632  1.00  0.00     0.023 A 
ATOM     87  C   UNL A   1      43.856  35.937  33.004  1.00  0.00     0.012 A 
ATOM     88  C   UNL A   1      43.678  37.019  30.830  1.00  0.00     0.148 A 
ATOM     89  C   UNL A   1      44.261  37.142  33.576  1.00  0.00     0.002 A 
ATOM     90  C   UNL A   1      44.130  38.203  31.398  1.00  0.00     0.091 A 
ATOM     91  F   UNL A   1      43.360  36.933  29.529  1.00  0.00    -0.205 F 
ATOM     92  C   UNL A   1      44.411  38.270  32.772  1.00  0.00     0.022 A 
BRANCH  90  93
ATOM     93  S   UNL A   1      44.445  39.676  30.420  1.00  0.00     0.127 S 
ATOM     94  O   UNL A   1      43.091  40.086  30.053  1.00  0.00    -0.237 OA
ATOM     95  O   UNL A   1      45.107  40.554  31.386  1.00  0.00    -0.237 OA
ATOM     96  O   UNL A   1      45.292  39.250  29.314  1.00  0.00    -0.744 OA
ENDBRANCH  90  93
ENDBRANCH  63  86
ENDBRANCH  37  38
ENDBRANCH  29  32
ENDBRANCH  27  28
ENDBRANCH  26  27
ENDBRANCH  25  26
ENDBRANCH   1  25
TORSDOF 20
ENDMDL
