MODEL 1
REMARK VINA RESULT:     -11.1      0.000      0.000
REMARK SMILES Cc1noc(C)c1[C@H](C)NC(=O)NCC(=O)NCC(=O)NCCCCNC(=O)c1ccc(-c2c3nc(c(-c4cccc(S(=O)(=O)[O-])c4F)c4ccc([nH]4)c(-c4cccc(S(=O)(=O)[O-])c4F)c4nc(c(-c5cccc(S(=O)(=O)[O-])c5F)c5ccc2[nH]5)C=C4)C=C3)cc1
REMARK SMILES IDX 22 1 21 2 19 3 20 4 18 6 17 7 15 8 16 9 14 11 13 12 10 13
REMARK SMILES IDX 11 14 12 16 8 18 9 19 7 20 1 21 2 22 3 23 4 24 5 25 6 26
REMARK SMILES IDX 23 27 24 28 25 29 26 30 27 31 28 33 29 34 30 35 91 36 31 37
REMARK SMILES IDX 90 38 32 39 33 40 34 41 84 42 35 43 89 44 83 45 85 46 36 47
REMARK SMILES IDX 88 48 82 49 81 50 37 52 69 53 49 54 68 55 50 56 53 57 67 58
REMARK SMILES IDX 86 59 51 60 52 61 66 63 87 64 54 65 38 66 39 67 47 68 40 69
REMARK SMILES IDX 42 70 48 71 41 72 43 73 44 74 45 75 46 76 70 77 71 78 79 79
REMARK SMILES IDX 72 80 74 81 80 82 73 83 75 84 76 85 77 86 78 87 55 88 56 89
REMARK SMILES IDX 64 90 57 91 59 92 65 93 58 94 60 95 61 96 62 97 63 98
REMARK H PARENT 21 5 17 10 10 15 13 17 26 32 85 51 53 62
REMARK Flexibility Score: inf
ROOT
ATOM      1  C   UNL A   1      35.400  20.586  25.074  1.00  0.00     0.116 C 
ENDROOT
BRANCH   1   2
ATOM      2  N   UNL A   1      35.198  19.174  24.897  1.00  0.00    -0.355 N 
ATOM      3  C   UNL A   1      34.028  18.520  24.674  1.00  0.00     0.239 C 
ATOM      4  O   UNL A   1      34.075  17.308  24.446  1.00  0.00    -0.273 OA
ATOM      5  H   UNL A   1      36.004  18.612  24.945  1.00  0.00     0.163 HD
BRANCH   3   6
ATOM      6  C   UNL A   1      32.703  19.279  24.521  1.00  0.00     0.216 C 
BRANCH   6   7
ATOM      7  N   UNL A   1      32.162  19.568  23.202  1.00  0.00    -0.346 N 
ATOM      8  C   UNL A   1      32.024  20.703  22.476  1.00  0.00     0.239 C 
ATOM      9  O   UNL A   1      31.789  20.541  21.270  1.00  0.00    -0.273 OA
ATOM     10  H   UNL A   1      31.825  18.768  22.738  1.00  0.00     0.164 HD
BRANCH   8  11
ATOM     11  C   UNL A   1      32.223  22.145  22.991  1.00  0.00     0.217 C 
BRANCH  11  12
ATOM     12  N   UNL A   1      32.613  23.233  22.112  1.00  0.00    -0.329 N 
ATOM     13  N   UNL A   1      33.089  25.137  23.424  1.00  0.00    -0.331 N 
ATOM     14  C   UNL A   1      32.903  24.528  22.247  1.00  0.00     0.315 C 
ATOM     15  H   UNL A   1      32.920  26.107  23.412  1.00  0.00     0.165 HD
ATOM     16  O   UNL A   1      32.973  25.204  21.221  1.00  0.00    -0.249 OA
ATOM     17  H   UNL A   1      32.681  22.939  21.176  1.00  0.00     0.165 HD
BRANCH  13  18
ATOM     18  C   UNL A   1      33.496  24.616  24.714  1.00  0.00     0.116 C 
ATOM     19  C   UNL A   1      34.627  25.478  25.270  1.00  0.00     0.036 C 
BRANCH  18  20
ATOM     20  C   UNL A   1      32.282  24.498  25.584  1.00  0.00     0.040 A 
ATOM     21  C   UNL A   1      32.996  22.486  27.115  1.00  0.00     0.071 C 
ATOM     22  C   UNL A   1      32.092  23.558  26.646  1.00  0.00     0.086 A 
ATOM     23  N   UNL A   1      30.912  23.721  27.251  1.00  0.00    -0.085 NA
ATOM     24  O   UNL A   1      30.306  24.773  26.608  1.00  0.00    -0.361 OA
ATOM     25  C   UNL A   1      31.117  25.243  25.626  1.00  0.00     0.139 A 
ATOM     26  C   UNL A   1      30.582  26.400  24.885  1.00  0.00     0.091 C 
ENDBRANCH  18  20
ENDBRANCH  13  18
ENDBRANCH  11  12
ENDBRANCH   8  11
ENDBRANCH   6   7
ENDBRANCH   3   6
ENDBRANCH   1   2
BRANCH   1  27
ATOM     27  C   UNL A   1      36.829  21.004  24.748  1.00  0.00     0.023 C 
BRANCH  27  28
ATOM     28  C   UNL A   1      37.097  22.491  24.960  1.00  0.00     0.023 C 
BRANCH  28  29
ATOM     29  C   UNL A   1      38.055  22.800  26.101  1.00  0.00     0.116 C 
BRANCH  29  30
ATOM     30  N   UNL A   1      39.338  22.119  25.979  1.00  0.00    -0.352 N 
ATOM     31  C   UNL A   1      40.581  22.619  26.272  1.00  0.00     0.251 C 
ATOM     32  H   UNL A   1      39.309  21.193  25.647  1.00  0.00     0.163 HD
ATOM     33  O   UNL A   1      41.593  21.961  26.051  1.00  0.00    -0.269 OA
BRANCH  31  34
ATOM     34  C   UNL A   1      40.667  23.988  26.807  1.00  0.00     0.039 A 
ATOM     35  C   UNL A   1      40.955  24.156  28.162  1.00  0.00     0.014 A 
ATOM     36  C   UNL A   1      40.575  25.086  25.948  1.00  0.00     0.014 A 
ATOM     37  C   UNL A   1      41.204  25.437  28.646  1.00  0.00     0.010 A 
ATOM     38  C   UNL A   1      40.903  26.350  26.417  1.00  0.00     0.010 A 
ATOM     39  C   UNL A   1      41.211  26.539  27.772  1.00  0.00    -0.014 A 
BRANCH  39  40
ATOM     40  C   UNL A   1      41.558  27.887  28.277  1.00  0.00     0.031 A 
ATOM     41  C   UNL A   1      42.985  28.356  28.275  1.00  0.00     0.074 A 
ATOM     42  C   UNL A   1      40.588  28.668  28.790  1.00  0.00     0.049 A 
ATOM     43  N   UNL A   1      43.461  29.533  28.590  1.00  0.00    -0.248 NA
ATOM     44  C   UNL A   1      44.015  27.374  27.903  1.00  0.00     0.031 C 
ATOM     45  C   UNL A   1      39.189  28.269  28.968  1.00  0.00     0.029 A 
ATOM     46  N   UNL A   1      40.631  29.952  29.266  1.00  0.00    -0.354 N 
ATOM     47  C   UNL A   1      44.841  29.424  28.483  1.00  0.00     0.074 A 
ATOM     48  C   UNL A   1      45.131  28.055  28.118  1.00  0.00     0.031 C 
ATOM     49  C   UNL A   1      38.504  29.296  29.498  1.00  0.00     0.029 A 
ATOM     50  C   UNL A   1      39.413  30.421  29.697  1.00  0.00     0.049 A 
ATOM     51  H   UNL A   1      41.456  30.489  29.296  1.00  0.00     0.167 HD
ATOM     52  C   UNL A   1      45.780  30.386  28.636  1.00  0.00     0.034 A 
ATOM     53  C   UNL A   1      39.063  31.630  30.177  1.00  0.00     0.034 A 
ATOM     54  C   UNL A   1      45.476  31.755  28.950  1.00  0.00     0.049 A 
ATOM     55  C   UNL A   1      40.102  32.717  30.223  1.00  0.00     0.074 A 
ATOM     56  C   UNL A   1      46.335  32.837  29.013  1.00  0.00     0.029 A 
ATOM     57  N   UNL A   1      44.211  32.229  29.263  1.00  0.00    -0.354 N 
ATOM     58  N   UNL A   1      41.373  32.656  29.908  1.00  0.00    -0.248 NA
ATOM     59  C   UNL A   1      39.648  34.052  30.636  1.00  0.00     0.031 C 
ATOM     60  C   UNL A   1      45.590  33.964  29.380  1.00  0.00     0.029 A 
ATOM     61  C   UNL A   1      44.264  33.586  29.526  1.00  0.00     0.049 A 
ATOM     62  H   UNL A   1      43.394  31.680  29.293  1.00  0.00     0.167 HD
ATOM     63  C   UNL A   1      41.866  33.946  30.054  1.00  0.00     0.074 A 
ATOM     64  C   UNL A   1      40.748  34.774  30.460  1.00  0.00     0.031 C 
ATOM     65  C   UNL A   1      43.132  34.403  29.884  1.00  0.00     0.034 A 
BRANCH  52  66
ATOM     66  C   UNL A   1      47.217  29.999  28.401  1.00  0.00     0.023 A 
ATOM     67  C   UNL A   1      47.755  30.081  27.100  1.00  0.00     0.012 A 
ATOM     68  C   UNL A   1      48.042  29.587  29.465  1.00  0.00     0.148 A 
ATOM     69  C   UNL A   1      49.080  29.722  26.853  1.00  0.00     0.002 A 
ATOM     70  C   UNL A   1      49.376  29.276  29.219  1.00  0.00     0.091 A 
ATOM     71  F   UNL A   1      47.508  29.486  30.690  1.00  0.00    -0.205 F 
ATOM     72  C   UNL A   1      49.892  29.330  27.913  1.00  0.00     0.022 A 
BRANCH  70  73
ATOM     73  S   UNL A   1      50.519  28.838  30.532  1.00  0.00     0.127 S 
ATOM     74  O   UNL A   1      51.765  28.651  29.790  1.00  0.00    -0.237 OA
ATOM     75  O   UNL A   1      50.489  30.030  31.381  1.00  0.00    -0.237 OA
ATOM     76  O   UNL A   1      49.971  27.641  31.154  1.00  0.00    -0.744 OA
ENDBRANCH  70  73
ENDBRANCH  52  66
BRANCH  53  77
ATOM     77  C   UNL A   1      37.643  31.894  30.540  1.00  0.00     0.023 A 
ATOM     78  C   UNL A   1      37.198  31.616  31.848  1.00  0.00     0.012 A 
ATOM     79  C   UNL A   1      36.753  32.481  29.621  1.00  0.00     0.148 A 
ATOM     80  C   UNL A   1      35.884  31.893  32.225  1.00  0.00     0.002 A 
ATOM     81  C   UNL A   1      35.461  32.806  30.021  1.00  0.00     0.091 A 
ATOM     82  F   UNL A   1      37.193  32.729  28.380  1.00  0.00    -0.205 F 
ATOM     83  C   UNL A   1      35.019  32.499  31.316  1.00  0.00     0.022 A 
BRANCH  81  84
ATOM     84  S   UNL A   1      34.329  33.716  28.964  1.00  0.00     0.127 S 
ATOM     85  O   UNL A   1      33.278  34.095  29.907  1.00  0.00    -0.237 OA
ATOM     86  O   UNL A   1      35.169  34.821  28.501  1.00  0.00    -0.237 OA
ATOM     87  O   UNL A   1      33.935  32.783  27.916  1.00  0.00    -0.744 OA
ENDBRANCH  81  84
ENDBRANCH  53  77
BRANCH  65  88
ATOM     88  C   UNL A   1      43.377  35.871  30.119  1.00  0.00     0.023 A 
ATOM     89  C   UNL A   1      43.898  36.303  31.354  1.00  0.00     0.012 A 
ATOM     90  C   UNL A   1      43.146  36.812  29.097  1.00  0.00     0.148 A 
ATOM     91  C   UNL A   1      44.151  37.655  31.581  1.00  0.00     0.002 A 
ATOM     92  C   UNL A   1      43.446  38.151  29.315  1.00  0.00     0.091 A 
ATOM     93  F   UNL A   1      42.629  36.386  27.935  1.00  0.00    -0.205 F 
ATOM     94  C   UNL A   1      43.936  38.577  30.560  1.00  0.00     0.022 A 
BRANCH  92  95
ATOM     95  S   UNL A   1      43.287  39.382  28.016  1.00  0.00     0.127 S 
ATOM     96  O   UNL A   1      41.850  39.650  28.030  1.00  0.00    -0.237 OA
ATOM     97  O   UNL A   1      44.116  40.480  28.517  1.00  0.00    -0.237 OA
ATOM     98  O   UNL A   1      43.802  38.749  26.809  1.00  0.00    -0.744 OA
ENDBRANCH  92  95
ENDBRANCH  65  88
ENDBRANCH  39  40
ENDBRANCH  31  34
ENDBRANCH  29  30
ENDBRANCH  28  29
ENDBRANCH  27  28
ENDBRANCH   1  27
TORSDOF 19
ENDMDL
MODEL 2
REMARK VINA RESULT:     -10.8      1.821      2.843
REMARK SMILES Cc1noc(C)c1[C@H](C)NC(=O)NCC(=O)NCC(=O)NCCCCNC(=O)c1ccc(-c2c3nc(c(-c4cccc(S(=O)(=O)[O-])c4F)c4ccc([nH]4)c(-c4cccc(S(=O)(=O)[O-])c4F)c4nc(c(-c5cccc(S(=O)(=O)[O-])c5F)c5ccc2[nH]5)C=C4)C=C3)cc1
REMARK SMILES IDX 22 1 21 2 19 3 20 4 18 6 17 7 15 8 16 9 14 11 13 12 10 13
REMARK SMILES IDX 11 14 12 16 8 18 9 19 7 20 1 21 2 22 3 23 4 24 5 25 6 26
REMARK SMILES IDX 23 27 24 28 25 29 26 30 27 31 28 33 29 34 30 35 91 36 31 37
REMARK SMILES IDX 90 38 32 39 33 40 34 41 84 42 35 43 89 44 83 45 85 46 36 47
REMARK SMILES IDX 88 48 82 49 81 50 37 52 69 53 49 54 68 55 50 56 53 57 67 58
REMARK SMILES IDX 86 59 51 60 52 61 66 63 87 64 54 65 38 66 39 67 47 68 40 69
REMARK SMILES IDX 42 70 48 71 41 72 43 73 44 74 45 75 46 76 70 77 71 78 79 79
REMARK SMILES IDX 72 80 74 81 80 82 73 83 75 84 76 85 77 86 78 87 55 88 56 89
REMARK SMILES IDX 64 90 57 91 59 92 65 93 58 94 60 95 61 96 62 97 63 98
REMARK H PARENT 21 5 17 10 10 15 13 17 26 32 85 51 53 62
REMARK Flexibility Score: inf
ROOT
ATOM      1  C   UNL A   1      35.120  21.456  24.614  1.00  0.00     0.116 C 
ENDROOT
BRANCH   1   2
ATOM      2  N   UNL A   1      34.415  20.326  25.154  1.00  0.00    -0.355 N 
ATOM      3  C   UNL A   1      33.108  20.252  25.518  1.00  0.00     0.239 C 
ATOM      4  O   UNL A   1      32.663  19.155  25.866  1.00  0.00    -0.273 OA
ATOM      5  H   UNL A   1      34.944  19.504  25.275  1.00  0.00     0.163 HD
BRANCH   3   6
ATOM      6  C   UNL A   1      32.157  21.442  25.329  1.00  0.00     0.216 C 
BRANCH   6   7
ATOM      7  N   UNL A   1      31.307  21.893  26.419  1.00  0.00    -0.346 N 
ATOM      8  C   UNL A   1      30.667  23.056  26.688  1.00  0.00     0.239 C 
ATOM      9  O   UNL A   1      29.791  22.995  27.562  1.00  0.00    -0.273 OA
ATOM     10  H   UNL A   1      31.167  21.205  27.110  1.00  0.00     0.164 HD
BRANCH   8  11
ATOM     11  C   UNL A   1      30.868  24.397  25.951  1.00  0.00     0.217 C 
BRANCH  11  12
ATOM     12  N   UNL A   1      30.888  25.669  26.652  1.00  0.00    -0.329 N 
ATOM     13  N   UNL A   1      31.385  27.383  25.107  1.00  0.00    -0.331 N 
ATOM     14  C   UNL A   1      31.183  26.935  26.352  1.00  0.00     0.315 C 
ATOM     15  H   UNL A   1      31.943  28.191  25.051  1.00  0.00     0.165 HD
ATOM     16  O   UNL A   1      31.305  27.726  27.286  1.00  0.00    -0.249 OA
ATOM     17  H   UNL A   1      30.613  25.572  27.592  1.00  0.00     0.165 HD
BRANCH  13  18
ATOM     18  C   UNL A   1      30.923  26.883  23.827  1.00  0.00     0.116 C 
ATOM     19  C   UNL A   1      29.908  27.863  23.242  1.00  0.00     0.036 C 
BRANCH  18  20
ATOM     20  C   UNL A   1      32.118  26.597  22.969  1.00  0.00     0.040 A 
ATOM     21  C   UNL A   1      33.081  29.024  22.683  1.00  0.00     0.071 C 
ATOM     22  C   UNL A   1      33.062  27.558  22.489  1.00  0.00     0.086 A 
ATOM     23  N   UNL A   1      34.030  26.988  21.767  1.00  0.00    -0.085 NA
ATOM     24  O   UNL A   1      33.750  25.643  21.763  1.00  0.00    -0.361 OA
ATOM     25  C   UNL A   1      32.623  25.405  22.482  1.00  0.00     0.139 A 
ATOM     26  C   UNL A   1      32.240  23.984  22.575  1.00  0.00     0.091 C 
ENDBRANCH  18  20
ENDBRANCH  13  18
ENDBRANCH  11  12
ENDBRANCH   8  11
ENDBRANCH   6   7
ENDBRANCH   3   6
ENDBRANCH   1   2
BRANCH   1  27
ATOM     27  C   UNL A   1      36.067  22.079  25.632  1.00  0.00     0.023 C 
BRANCH  27  28
ATOM     28  C   UNL A   1      37.490  22.267  25.113  1.00  0.00     0.023 C 
BRANCH  28  29
ATOM     29  C   UNL A   1      38.520  22.556  26.195  1.00  0.00     0.116 C 
BRANCH  29  30
ATOM     30  N   UNL A   1      39.823  21.960  25.926  1.00  0.00    -0.352 N 
ATOM     31  C   UNL A   1      41.057  22.522  26.127  1.00  0.00     0.251 C 
ATOM     32  H   UNL A   1      39.816  21.047  25.556  1.00  0.00     0.163 HD
ATOM     33  O   UNL A   1      42.079  21.937  25.785  1.00  0.00    -0.269 OA
BRANCH  31  34
ATOM     34  C   UNL A   1      41.114  23.871  26.714  1.00  0.00     0.039 A 
ATOM     35  C   UNL A   1      41.430  23.995  28.067  1.00  0.00     0.014 A 
ATOM     36  C   UNL A   1      40.969  24.998  25.901  1.00  0.00     0.014 A 
ATOM     37  C   UNL A   1      41.652  25.264  28.596  1.00  0.00     0.010 A 
ATOM     38  C   UNL A   1      41.270  26.253  26.413  1.00  0.00     0.010 A 
ATOM     39  C   UNL A   1      41.604  26.399  27.767  1.00  0.00    -0.014 A 
BRANCH  39  40
ATOM     40  C   UNL A   1      41.923  27.736  28.316  1.00  0.00     0.031 A 
ATOM     41  C   UNL A   1      43.342  28.228  28.347  1.00  0.00     0.074 A 
ATOM     42  C   UNL A   1      40.934  28.485  28.840  1.00  0.00     0.049 A 
ATOM     43  N   UNL A   1      43.794  29.402  28.704  1.00  0.00    -0.248 NA
ATOM     44  C   UNL A   1      44.393  27.274  27.959  1.00  0.00     0.031 C 
ATOM     45  C   UNL A   1      39.540  28.058  28.988  1.00  0.00     0.029 A 
ATOM     46  N   UNL A   1      40.950  29.755  29.355  1.00  0.00    -0.354 N 
ATOM     47  C   UNL A   1      45.177  29.318  28.612  1.00  0.00     0.074 A 
ATOM     48  C   UNL A   1      45.494  27.966  28.210  1.00  0.00     0.031 C 
ATOM     49  C   UNL A   1      38.831  29.058  29.539  1.00  0.00     0.029 A 
ATOM     50  C   UNL A   1      39.719  30.191  29.784  1.00  0.00     0.049 A 
ATOM     51  H   UNL A   1      41.765  30.303  29.412  1.00  0.00     0.167 HD
ATOM     52  C   UNL A   1      46.098  30.290  28.806  1.00  0.00     0.034 A 
ATOM     53  C   UNL A   1      39.343  31.379  30.295  1.00  0.00     0.034 A 
ATOM     54  C   UNL A   1      45.768  31.644  29.158  1.00  0.00     0.049 A 
ATOM     55  C   UNL A   1      40.363  32.480  30.388  1.00  0.00     0.074 A 
ATOM     56  C   UNL A   1      46.608  32.737  29.264  1.00  0.00     0.029 A 
ATOM     57  N   UNL A   1      44.491  32.088  29.468  1.00  0.00    -0.354 N 
ATOM     58  N   UNL A   1      41.639  32.449  30.088  1.00  0.00    -0.248 NA
ATOM     59  C   UNL A   1      39.882  33.795  30.835  1.00  0.00     0.031 C 
ATOM     60  C   UNL A   1      45.840  33.840  29.656  1.00  0.00     0.029 A 
ATOM     61  C   UNL A   1      44.519  33.437  29.773  1.00  0.00     0.049 A 
ATOM     62  H   UNL A   1      43.683  31.525  29.471  1.00  0.00     0.167 HD
ATOM     63  C   UNL A   1      42.109  33.742  30.279  1.00  0.00     0.074 A 
ATOM     64  C   UNL A   1      40.972  34.539  30.695  1.00  0.00     0.031 C 
ATOM     65  C   UNL A   1      43.369  34.225  30.140  1.00  0.00     0.034 A 
BRANCH  52  66
ATOM     66  C   UNL A   1      47.544  29.933  28.579  1.00  0.00     0.023 A 
ATOM     67  C   UNL A   1      48.110  30.108  27.299  1.00  0.00     0.012 A 
ATOM     68  C   UNL A   1      48.351  29.460  29.632  1.00  0.00     0.148 A 
ATOM     69  C   UNL A   1      49.444  29.779  27.060  1.00  0.00     0.002 A 
ATOM     70  C   UNL A   1      49.692  29.178  29.396  1.00  0.00     0.091 A 
ATOM     71  F   UNL A   1      47.791  29.272  30.835  1.00  0.00    -0.205 F 
ATOM     72  C   UNL A   1      50.237  29.325  28.109  1.00  0.00     0.022 A 
BRANCH  70  73
ATOM     73  S   UNL A   1      50.812  28.664  30.703  1.00  0.00     0.127 S 
ATOM     74  O   UNL A   1      52.114  28.984  30.120  1.00  0.00    -0.237 OA
ATOM     75  O   UNL A   1      50.412  29.531  31.813  1.00  0.00    -0.237 OA
ATOM     76  O   UNL A   1      50.547  27.249  30.918  1.00  0.00    -0.744 OA
ENDBRANCH  70  73
ENDBRANCH  52  66
BRANCH  53  77
ATOM     77  C   UNL A   1      37.914  31.609  30.647  1.00  0.00     0.023 A 
ATOM     78  C   UNL A   1      37.452  31.267  31.934  1.00  0.00     0.012 A 
ATOM     79  C   UNL A   1      37.031  32.226  29.742  1.00  0.00     0.148 A 
ATOM     80  C   UNL A   1      36.129  31.510  32.302  1.00  0.00     0.002 A 
ATOM     81  C   UNL A   1      35.729  32.517  30.136  1.00  0.00     0.091 A 
ATOM     82  F   UNL A   1      37.487  32.536  28.521  1.00  0.00    -0.205 F 
ATOM     83  C   UNL A   1      35.271  32.146  31.408  1.00  0.00     0.022 A 
BRANCH  81  84
ATOM     84  S   UNL A   1      34.601  33.461  29.103  1.00  0.00     0.127 S 
ATOM     85  O   UNL A   1      33.634  33.948  30.084  1.00  0.00    -0.237 OA
ATOM     86  O   UNL A   1      35.486  34.486  28.548  1.00  0.00    -0.237 OA
ATOM     87  O   UNL A   1      34.087  32.517  28.119  1.00  0.00    -0.744 OA
ENDBRANCH  81  84
ENDBRANCH  53  77
BRANCH  65  88
ATOM     88  C   UNL A   1      43.586  35.688  30.423  1.00  0.00     0.023 A 
ATOM     89  C   UNL A   1      43.628  36.607  29.356  1.00  0.00     0.012 A 
ATOM     90  C   UNL A   1      43.689  36.158  31.746  1.00  0.00     0.148 A 
ATOM     91  C   UNL A   1      43.807  37.968  29.600  1.00  0.00     0.002 A 
ATOM     92  C   UNL A   1      43.819  37.522  31.983  1.00  0.00     0.091 A 
ATOM     93  F   UNL A   1      43.669  35.267  32.748  1.00  0.00    -0.205 F 
ATOM     94  C   UNL A   1      43.892  38.426  30.912  1.00  0.00     0.022 A 
BRANCH  92  95
ATOM     95  S   UNL A   1      43.836  38.197  33.648  1.00  0.00     0.127 S 
ATOM     96  O   UNL A   1      45.028  37.569  34.215  1.00  0.00    -0.237 OA
ATOM     97  O   UNL A   1      43.962  39.636  33.405  1.00  0.00    -0.237 OA
ATOM     98  O   UNL A   1      42.567  37.802  34.246  1.00  0.00    -0.744 OA
ENDBRANCH  92  95
ENDBRANCH  65  88
ENDBRANCH  39  40
ENDBRANCH  31  34
ENDBRANCH  29  30
ENDBRANCH  28  29
ENDBRANCH  27  28
ENDBRANCH   1  27
TORSDOF 19
ENDMDL
MODEL 3
REMARK VINA RESULT:     -10.7      2.931      8.285
REMARK SMILES Cc1noc(C)c1[C@H](C)NC(=O)NCC(=O)NCC(=O)NCCCCNC(=O)c1ccc(-c2c3nc(c(-c4cccc(S(=O)(=O)[O-])c4F)c4ccc([nH]4)c(-c4cccc(S(=O)(=O)[O-])c4F)c4nc(c(-c5cccc(S(=O)(=O)[O-])c5F)c5ccc2[nH]5)C=C4)C=C3)cc1
REMARK SMILES IDX 22 1 21 2 19 3 20 4 18 6 17 7 15 8 16 9 14 11 13 12 10 13
REMARK SMILES IDX 11 14 12 16 8 18 9 19 7 20 1 21 2 22 3 23 4 24 5 25 6 26
REMARK SMILES IDX 23 27 24 28 25 29 26 30 27 31 28 33 29 34 30 35 91 36 31 37
REMARK SMILES IDX 90 38 32 39 33 40 34 41 84 42 35 43 89 44 83 45 85 46 36 47
REMARK SMILES IDX 88 48 82 49 81 50 37 52 69 53 49 54 68 55 50 56 53 57 67 58
REMARK SMILES IDX 86 59 51 60 52 61 66 63 87 64 54 65 38 66 39 67 47 68 40 69
REMARK SMILES IDX 42 70 48 71 41 72 43 73 44 74 45 75 46 76 70 77 71 78 79 79
REMARK SMILES IDX 72 80 74 81 80 82 73 83 75 84 76 85 77 86 78 87 55 88 56 89
REMARK SMILES IDX 64 90 57 91 59 92 65 93 58 94 60 95 61 96 62 97 63 98
REMARK H PARENT 21 5 17 10 10 15 13 17 26 32 85 51 53 62
REMARK Flexibility Score: inf
ROOT
ATOM      1  C   UNL A   1      35.505  20.394  25.232  1.00  0.00     0.116 C 
ENDROOT
BRANCH   1   2
ATOM      2  N   UNL A   1      34.179  20.019  24.822  1.00  0.00    -0.355 N 
ATOM      3  C   UNL A   1      32.995  20.437  25.341  1.00  0.00     0.239 C 
ATOM      4  O   UNL A   1      31.956  20.077  24.780  1.00  0.00    -0.273 OA
ATOM      5  H   UNL A   1      34.122  19.381  24.075  1.00  0.00     0.163 HD
BRANCH   3   6
ATOM      6  C   UNL A   1      32.938  21.474  26.471  1.00  0.00     0.216 C 
BRANCH   6   7
ATOM      7  N   UNL A   1      31.690  22.142  26.802  1.00  0.00    -0.346 N 
ATOM      8  C   UNL A   1      31.296  23.438  26.814  1.00  0.00     0.239 C 
ATOM      9  O   UNL A   1      30.072  23.626  26.867  1.00  0.00    -0.273 OA
ATOM     10  H   UNL A   1      30.978  21.519  27.075  1.00  0.00     0.164 HD
BRANCH   8  11
ATOM     11  C   UNL A   1      32.217  24.671  26.678  1.00  0.00     0.217 C 
BRANCH  11  12
ATOM     12  N   UNL A   1      31.785  26.004  27.063  1.00  0.00    -0.329 N 
ATOM     13  N   UNL A   1      31.482  27.297  25.112  1.00  0.00    -0.331 N 
ATOM     14  C   UNL A   1      31.547  27.160  26.441  1.00  0.00     0.315 C 
ATOM     15  H   UNL A   1      31.680  28.205  24.787  1.00  0.00     0.165 HD
ATOM     16  O   UNL A   1      31.410  28.162  27.141  1.00  0.00    -0.249 OA
ATOM     17  H   UNL A   1      31.628  26.071  28.031  1.00  0.00     0.165 HD
BRANCH  13  18
ATOM     18  C   UNL A   1      31.172  26.341  24.068  1.00  0.00     0.116 C 
ATOM     19  C   UNL A   1      29.766  26.612  23.539  1.00  0.00     0.036 C 
BRANCH  18  20
ATOM     20  C   UNL A   1      32.269  26.379  23.046  1.00  0.00     0.040 A 
ATOM     21  C   UNL A   1      32.489  28.973  22.694  1.00  0.00     0.071 C 
ATOM     22  C   UNL A   1      32.841  27.555  22.466  1.00  0.00     0.086 A 
ATOM     23  N   UNL A   1      33.817  27.260  21.603  1.00  0.00    -0.085 NA
ATOM     24  O   UNL A   1      33.914  25.891  21.603  1.00  0.00    -0.361 OA
ATOM     25  C   UNL A   1      33.005  25.363  22.464  1.00  0.00     0.139 A 
ATOM     26  C   UNL A   1      33.038  23.893  22.572  1.00  0.00     0.091 C 
ENDBRANCH  18  20
ENDBRANCH  13  18
ENDBRANCH  11  12
ENDBRANCH   8  11
ENDBRANCH   6   7
ENDBRANCH   3   6
ENDBRANCH   1   2
BRANCH   1  27
ATOM     27  C   UNL A   1      36.540  19.341  24.852  1.00  0.00     0.023 C 
BRANCH  27  28
ATOM     28  C   UNL A   1      37.934  19.912  24.607  1.00  0.00     0.023 C 
BRANCH  28  29
ATOM     29  C   UNL A   1      38.694  20.281  25.872  1.00  0.00     0.116 C 
BRANCH  29  30
ATOM     30  N   UNL A   1      39.864  19.444  26.108  1.00  0.00    -0.352 N 
ATOM     31  C   UNL A   1      41.107  19.844  26.527  1.00  0.00     0.251 C 
ATOM     32  H   UNL A   1      39.749  18.480  25.947  1.00  0.00     0.163 HD
ATOM     33  O   UNL A   1      42.031  19.042  26.614  1.00  0.00    -0.269 OA
BRANCH  31  34
ATOM     34  C   UNL A   1      41.311  21.273  26.816  1.00  0.00     0.039 A 
ATOM     35  C   UNL A   1      41.879  21.631  28.040  1.00  0.00     0.014 A 
ATOM     36  C   UNL A   1      41.048  22.233  25.835  1.00  0.00     0.014 A 
ATOM     37  C   UNL A   1      42.232  22.959  28.259  1.00  0.00     0.010 A 
ATOM     38  C   UNL A   1      41.476  23.540  26.027  1.00  0.00     0.010 A 
ATOM     39  C   UNL A   1      42.062  23.917  27.243  1.00  0.00    -0.014 A 
BRANCH  39  40
ATOM     40  C   UNL A   1      42.515  25.311  27.452  1.00  0.00     0.031 A 
ATOM     41  C   UNL A   1      41.600  26.323  28.080  1.00  0.00     0.074 A 
ATOM     42  C   UNL A   1      43.738  25.677  27.023  1.00  0.00     0.049 A 
ATOM     43  N   UNL A   1      41.858  27.558  28.424  1.00  0.00    -0.248 NA
ATOM     44  C   UNL A   1      40.209  25.911  28.325  1.00  0.00     0.031 C 
ATOM     45  C   UNL A   1      44.664  24.817  26.279  1.00  0.00     0.029 A 
ATOM     46  N   UNL A   1      44.409  26.866  27.138  1.00  0.00    -0.354 N 
ATOM     47  C   UNL A   1      40.659  28.077  28.896  1.00  0.00     0.074 A 
ATOM     48  C   UNL A   1      39.663  27.039  28.754  1.00  0.00     0.031 C 
ATOM     49  C   UNL A   1      45.789  25.504  26.022  1.00  0.00     0.029 A 
ATOM     50  C   UNL A   1      45.664  26.848  26.578  1.00  0.00     0.049 A 
ATOM     51  H   UNL A   1      44.027  27.659  27.579  1.00  0.00     0.167 HD
ATOM     52  C   UNL A   1      40.419  29.294  29.437  1.00  0.00     0.034 A 
ATOM     53  C   UNL A   1      46.616  27.799  26.539  1.00  0.00     0.034 A 
ATOM     54  C   UNL A   1      41.429  30.300  29.619  1.00  0.00     0.049 A 
ATOM     55  C   UNL A   1      46.368  29.100  27.252  1.00  0.00     0.074 A 
ATOM     56  C   UNL A   1      41.325  31.520  30.260  1.00  0.00     0.029 A 
ATOM     57  N   UNL A   1      42.731  30.204  29.149  1.00  0.00    -0.354 N 
ATOM     58  N   UNL A   1      45.294  29.497  27.890  1.00  0.00    -0.248 NA
ATOM     59  C   UNL A   1      47.479  30.060  27.289  1.00  0.00     0.031 C 
ATOM     60  C   UNL A   1      42.562  32.170  30.164  1.00  0.00     0.029 A 
ATOM     61  C   UNL A   1      43.440  31.344  29.480  1.00  0.00     0.049 A 
ATOM     62  H   UNL A   1      43.095  29.435  28.653  1.00  0.00     0.167 HD
ATOM     63  C   UNL A   1      45.606  30.738  28.431  1.00  0.00     0.074 A 
ATOM     64  C   UNL A   1      46.982  31.014  28.067  1.00  0.00     0.031 C 
ATOM     65  C   UNL A   1      44.823  31.581  29.149  1.00  0.00     0.034 A 
BRANCH  52  66
ATOM     66  C   UNL A   1      39.022  29.574  29.926  1.00  0.00     0.023 A 
ATOM     67  C   UNL A   1      38.637  29.142  31.213  1.00  0.00     0.012 A 
ATOM     68  C   UNL A   1      38.103  30.289  29.135  1.00  0.00     0.148 A 
ATOM     69  C   UNL A   1      37.348  29.382  31.689  1.00  0.00     0.002 A 
ATOM     70  C   UNL A   1      36.835  30.565  29.634  1.00  0.00     0.091 A 
ATOM     71  F   UNL A   1      38.475  30.667  27.904  1.00  0.00    -0.205 F 
ATOM     72  C   UNL A   1      36.452  30.101  30.904  1.00  0.00     0.022 A 
BRANCH  70  73
ATOM     73  S   UNL A   1      35.639  31.553  28.730  1.00  0.00     0.127 S 
ATOM     74  O   UNL A   1      35.205  30.617  27.694  1.00  0.00    -0.237 OA
ATOM     75  O   UNL A   1      34.633  31.837  29.755  1.00  0.00    -0.237 OA
ATOM     76  O   UNL A   1      36.366  32.723  28.259  1.00  0.00    -0.744 OA
ENDBRANCH  70  73
ENDBRANCH  52  66
BRANCH  53  77
ATOM     77  C   UNL A   1      47.926  27.503  25.894  1.00  0.00     0.023 A 
ATOM     78  C   UNL A   1      48.984  26.996  26.674  1.00  0.00     0.012 A 
ATOM     79  C   UNL A   1      48.106  27.653  24.506  1.00  0.00     0.148 A 
ATOM     80  C   UNL A   1      50.207  26.671  26.088  1.00  0.00     0.002 A 
ATOM     81  C   UNL A   1      49.309  27.274  23.920  1.00  0.00     0.091 A 
ATOM     82  F   UNL A   1      47.090  28.144  23.784  1.00  0.00    -0.205 F 
ATOM     83  C   UNL A   1      50.366  26.798  24.710  1.00  0.00     0.022 A 
BRANCH  81  84
ATOM     84  S   UNL A   1      49.550  27.267  22.140  1.00  0.00     0.127 S 
ATOM     85  O   UNL A   1      49.199  28.640  21.785  1.00  0.00    -0.237 OA
ATOM     86  O   UNL A   1      50.973  26.945  22.028  1.00  0.00    -0.237 OA
ATOM     87  O   UNL A   1      48.660  26.232  21.628  1.00  0.00    -0.744 OA
ENDBRANCH  81  84
ENDBRANCH  53  77
BRANCH  65  88
ATOM     88  C   UNL A   1      45.438  32.878  29.607  1.00  0.00     0.023 A 
ATOM     89  C   UNL A   1      46.135  32.927  30.830  1.00  0.00     0.012 A 
ATOM     90  C   UNL A   1      45.376  34.029  28.798  1.00  0.00     0.148 A 
ATOM     91  C   UNL A   1      46.729  34.113  31.260  1.00  0.00     0.002 A 
ATOM     92  C   UNL A   1      46.012  35.194  29.212  1.00  0.00     0.091 A 
ATOM     93  F   UNL A   1      44.691  33.970  27.647  1.00  0.00    -0.205 F 
ATOM     94  C   UNL A   1      46.677  35.242  30.447  1.00  0.00     0.022 A 
BRANCH  92  95
ATOM     95  S   UNL A   1      46.072  36.660  28.174  1.00  0.00     0.127 S 
ATOM     96  O   UNL A   1      44.738  37.223  28.372  1.00  0.00    -0.237 OA
ATOM     97  O   UNL A   1      47.156  37.434  28.782  1.00  0.00    -0.237 OA
ATOM     98  O   UNL A   1      46.363  36.179  26.830  1.00  0.00    -0.744 OA
ENDBRANCH  92  95
ENDBRANCH  65  88
ENDBRANCH  39  40
ENDBRANCH  31  34
ENDBRANCH  29  30
ENDBRANCH  28  29
ENDBRANCH  27  28
ENDBRANCH   1  27
TORSDOF 19
ENDMDL
