MODEL 1
REMARK VINA RESULT:     -11.0      0.000      0.000
REMARK SMILES C[C@H](C(=O)NCCCCNC(=O)c1ccc(-c2c3nc(c(-c4cccc(S(=O)(=O)[O-])c4F)c4ccc([nH]4)c(-c4cccc(S(=O)(=O)[O-])c4F)c4nc(c(-c5cccc(S(=O)(=O)[O-])c5F)c5ccc2[nH]5)C=C4)C=C3)cc1)n1c(=O)ssc1=O
REMARK SMILES IDX 8 1 7 2 6 3 5 4 3 5 4 6 2 8 1 9 76 10 77 11 81 12 78 13
REMARK SMILES IDX 79 14 80 15 82 16 9 17 10 18 11 19 12 21 13 22 14 23 75 24
REMARK SMILES IDX 15 25 74 26 16 27 17 28 18 29 68 30 19 31 73 32 67 33 69 34
REMARK SMILES IDX 20 35 72 36 66 37 65 38 21 40 53 41 33 42 52 43 34 44 37 45
REMARK SMILES IDX 51 46 70 47 35 48 36 49 50 51 71 52 38 53 22 54 23 55 31 56
REMARK SMILES IDX 24 57 26 58 32 59 25 60 27 61 28 62 29 63 30 64 54 65 55 66
REMARK SMILES IDX 63 67 56 68 58 69 64 70 57 71 59 72 60 73 61 74 62 75 39 76
REMARK SMILES IDX 40 77 48 78 41 79 43 80 49 81 42 82 44 83 45 84 46 85 47 86
REMARK H PARENT 5 7 10 20 69 39 37 50
REMARK Flexibility Score: inf
ROOT
ATOM      1  C   UNL A   1      31.494  28.739  25.531  1.00  0.00     0.023 C 
ENDROOT
BRANCH   1   2
ATOM      2  C   UNL A   1      31.743  27.264  25.214  1.00  0.00     0.023 C 
BRANCH   2   3
ATOM      3  C   UNL A   1      32.349  26.465  26.365  1.00  0.00     0.116 C 
BRANCH   3   4
ATOM      4  N   UNL A   1      31.464  25.408  26.802  1.00  0.00    -0.354 N 
ATOM      5  C   UNL A   1      31.640  24.054  26.818  1.00  0.00     0.243 C 
ATOM      6  O   UNL A   1      30.805  23.399  27.449  1.00  0.00    -0.273 OA
ATOM      7  H   UNL A   1      30.592  25.715  27.143  1.00  0.00     0.163 HD
BRANCH   5   8
ATOM      8  C   UNL A   1      32.927  23.406  26.253  1.00  0.00     0.181 C 
ATOM      9  C   UNL A   1      33.412  22.235  27.117  1.00  0.00     0.042 C 
BRANCH   8  10
ATOM     10  N   UNL A   1      32.832  23.021  24.841  1.00  0.00    -0.244 N 
ATOM     11  C   UNL A   1      33.546  23.729  23.897  1.00  0.00     0.321 A 
ATOM     12  C   UNL A   1      32.162  21.866  24.497  1.00  0.00     0.321 A 
ATOM     13  O   UNL A   1      34.290  24.672  24.124  1.00  0.00    -0.256 OA
ATOM     14  S   UNL A   1      33.290  23.157  22.261  1.00  0.00    -0.014 S 
ATOM     15  S   UNL A   1      32.246  21.498  22.785  1.00  0.00    -0.014 S 
ATOM     16  O   UNL A   1      31.577  21.124  25.274  1.00  0.00    -0.256 OA
ENDBRANCH   8  10
ENDBRANCH   5   8
ENDBRANCH   3   4
ENDBRANCH   2   3
ENDBRANCH   1   2
BRANCH   1  17
ATOM     17  C   UNL A   1      32.724  29.516  25.975  1.00  0.00     0.116 C 
BRANCH  17  18
ATOM     18  N   UNL A   1      32.444  30.921  26.232  1.00  0.00    -0.352 N 
ATOM     19  C   UNL A   1      33.090  31.782  27.083  1.00  0.00     0.251 C 
ATOM     20  H   UNL A   1      31.690  31.304  25.728  1.00  0.00     0.163 HD
ATOM     21  O   UNL A   1      32.629  32.901  27.285  1.00  0.00    -0.269 OA
BRANCH  19  22
ATOM     22  C   UNL A   1      34.327  31.345  27.765  1.00  0.00     0.039 A 
ATOM     23  C   UNL A   1      35.377  32.255  27.906  1.00  0.00     0.014 A 
ATOM     24  C   UNL A   1      34.451  30.045  28.263  1.00  0.00     0.014 A 
ATOM     25  C   UNL A   1      36.540  31.866  28.571  1.00  0.00     0.010 A 
ATOM     26  C   UNL A   1      35.570  29.691  29.007  1.00  0.00     0.010 A 
ATOM     27  C   UNL A   1      36.641  30.585  29.140  1.00  0.00    -0.014 A 
BRANCH  27  28
ATOM     28  C   UNL A   1      37.879  30.155  29.836  1.00  0.00     0.031 A 
ATOM     29  C   UNL A   1      38.159  30.628  31.239  1.00  0.00     0.074 A 
ATOM     30  C   UNL A   1      38.772  29.377  29.193  1.00  0.00     0.049 A 
ATOM     31  N   UNL A   1      39.172  30.346  32.016  1.00  0.00    -0.248 NA
ATOM     32  C   UNL A   1      37.191  31.563  31.838  1.00  0.00     0.031 C 
ATOM     33  C   UNL A   1      38.655  28.921  27.807  1.00  0.00     0.029 A 
ATOM     34  N   UNL A   1      39.961  28.841  29.619  1.00  0.00    -0.354 N 
ATOM     35  C   UNL A   1      38.984  31.095  33.173  1.00  0.00     0.074 A 
ATOM     36  C   UNL A   1      37.785  31.877  32.979  1.00  0.00     0.031 C 
ATOM     37  C   UNL A   1      39.716  28.154  27.505  1.00  0.00     0.029 A 
ATOM     38  C   UNL A   1      40.601  28.087  28.663  1.00  0.00     0.049 A 
ATOM     39  H   UNL A   1      40.324  28.984  30.523  1.00  0.00     0.167 HD
ATOM     40  C   UNL A   1      39.724  31.108  34.307  1.00  0.00     0.034 A 
ATOM     41  C   UNL A   1      41.766  27.413  28.718  1.00  0.00     0.034 A 
ATOM     42  C   UNL A   1      40.891  30.293  34.510  1.00  0.00     0.049 A 
ATOM     43  C   UNL A   1      42.541  27.403  30.008  1.00  0.00     0.074 A 
ATOM     44  C   UNL A   1      41.657  30.160  35.654  1.00  0.00     0.029 A 
ATOM     45  N   UNL A   1      41.467  29.484  33.545  1.00  0.00    -0.354 N 
ATOM     46  N   UNL A   1      42.259  27.988  31.148  1.00  0.00    -0.248 NA
ATOM     47  C   UNL A   1      43.772  26.600  30.035  1.00  0.00     0.031 C 
ATOM     48  C   UNL A   1      42.720  29.297  35.368  1.00  0.00     0.029 A 
ATOM     49  C   UNL A   1      42.586  28.856  34.061  1.00  0.00     0.049 A 
ATOM     50  H   UNL A   1      41.129  29.372  32.627  1.00  0.00     0.167 HD
ATOM     51  C   UNL A   1      43.249  27.587  32.038  1.00  0.00     0.074 A 
ATOM     52  C   UNL A   1      44.127  26.695  31.308  1.00  0.00     0.031 C 
ATOM     53  C   UNL A   1      43.420  27.930  33.339  1.00  0.00     0.034 A 
BRANCH  40  54
ATOM     54  C   UNL A   1      39.269  32.005  35.430  1.00  0.00     0.023 A 
ATOM     55  C   UNL A   1      38.365  31.519  36.397  1.00  0.00     0.012 A 
ATOM     56  C   UNL A   1      39.775  33.313  35.555  1.00  0.00     0.148 A 
ATOM     57  C   UNL A   1      37.939  32.334  37.447  1.00  0.00     0.002 A 
ATOM     58  C   UNL A   1      39.387  34.102  36.633  1.00  0.00     0.091 A 
ATOM     59  F   UNL A   1      40.616  33.767  34.616  1.00  0.00    -0.205 F 
ATOM     60  C   UNL A   1      38.458  33.619  37.570  1.00  0.00     0.022 A 
BRANCH  58  61
ATOM     61  S   UNL A   1      40.063  35.739  36.929  1.00  0.00     0.127 S 
ATOM     62  O   UNL A   1      39.607  36.464  35.744  1.00  0.00    -0.237 OA
ATOM     63  O   UNL A   1      39.399  36.124  38.173  1.00  0.00    -0.237 OA
ATOM     64  O   UNL A   1      41.505  35.565  37.036  1.00  0.00    -0.744 OA
ENDBRANCH  58  61
ENDBRANCH  40  54
BRANCH  41  65
ATOM     65  C   UNL A   1      42.232  26.624  27.542  1.00  0.00     0.023 A 
ATOM     66  C   UNL A   1      42.981  27.261  26.533  1.00  0.00     0.012 A 
ATOM     67  C   UNL A   1      41.949  25.250  27.424  1.00  0.00     0.148 A 
ATOM     68  C   UNL A   1      43.404  26.554  25.407  1.00  0.00     0.002 A 
ATOM     69  C   UNL A   1      42.421  24.539  26.327  1.00  0.00     0.091 A 
ATOM     70  F   UNL A   1      41.231  24.665  28.393  1.00  0.00    -0.205 F 
ATOM     71  C   UNL A   1      43.131  25.192  25.308  1.00  0.00     0.022 A 
BRANCH  69  72
ATOM     72  S   UNL A   1      42.228  22.760  26.176  1.00  0.00     0.127 S 
ATOM     73  O   UNL A   1      42.958  22.279  27.345  1.00  0.00    -0.237 OA
ATOM     74  O   UNL A   1      40.774  22.609  26.250  1.00  0.00    -0.237 OA
ATOM     75  O   UNL A   1      42.803  22.410  24.883  1.00  0.00    -0.744 OA
ENDBRANCH  69  72
ENDBRANCH  41  65
BRANCH  53  76
ATOM     76  C   UNL A   1      44.565  27.293  34.083  1.00  0.00     0.023 A 
ATOM     77  C   UNL A   1      45.842  27.890  34.072  1.00  0.00     0.012 A 
ATOM     78  C   UNL A   1      44.354  26.126  34.844  1.00  0.00     0.148 A 
ATOM     79  C   UNL A   1      46.901  27.308  34.768  1.00  0.00     0.002 A 
ATOM     80  C   UNL A   1      45.399  25.583  35.581  1.00  0.00     0.091 A 
ATOM     81  F   UNL A   1      43.138  25.561  34.828  1.00  0.00    -0.205 F 
ATOM     82  C   UNL A   1      46.678  26.163  35.530  1.00  0.00     0.022 A 
BRANCH  80  83
ATOM     83  S   UNL A   1      45.175  24.175  36.671  1.00  0.00     0.127 S 
ATOM     84  O   UNL A   1      44.223  24.703  37.647  1.00  0.00    -0.237 OA
ATOM     85  O   UNL A   1      44.625  23.166  35.766  1.00  0.00    -0.237 OA
ATOM     86  O   UNL A   1      46.498  23.858  37.193  1.00  0.00    -0.744 OA
ENDBRANCH  80  83
ENDBRANCH  53  76
ENDBRANCH  27  28
ENDBRANCH  19  22
ENDBRANCH  17  18
ENDBRANCH   1  17
TORSDOF 15
ENDMDL
MODEL 2
REMARK VINA RESULT:     -11.0      1.342      1.882
REMARK SMILES C[C@H](C(=O)NCCCCNC(=O)c1ccc(-c2c3nc(c(-c4cccc(S(=O)(=O)[O-])c4F)c4ccc([nH]4)c(-c4cccc(S(=O)(=O)[O-])c4F)c4nc(c(-c5cccc(S(=O)(=O)[O-])c5F)c5ccc2[nH]5)C=C4)C=C3)cc1)n1c(=O)ssc1=O
REMARK SMILES IDX 8 1 7 2 6 3 5 4 3 5 4 6 2 8 1 9 76 10 77 11 81 12 78 13
REMARK SMILES IDX 79 14 80 15 82 16 9 17 10 18 11 19 12 21 13 22 14 23 75 24
REMARK SMILES IDX 15 25 74 26 16 27 17 28 18 29 68 30 19 31 73 32 67 33 69 34
REMARK SMILES IDX 20 35 72 36 66 37 65 38 21 40 53 41 33 42 52 43 34 44 37 45
REMARK SMILES IDX 51 46 70 47 35 48 36 49 50 51 71 52 38 53 22 54 23 55 31 56
REMARK SMILES IDX 24 57 26 58 32 59 25 60 27 61 28 62 29 63 30 64 54 65 55 66
REMARK SMILES IDX 63 67 56 68 58 69 64 70 57 71 59 72 60 73 61 74 62 75 39 76
REMARK SMILES IDX 40 77 48 78 41 79 43 80 49 81 42 82 44 83 45 84 46 85 47 86
REMARK H PARENT 5 7 10 20 69 39 37 50
REMARK Flexibility Score: inf
ROOT
ATOM      1  C   UNL A   1      31.773  28.956  26.790  1.00  0.00     0.023 C 
ENDROOT
BRANCH   1   2
ATOM      2  C   UNL A   1      31.969  27.452  26.985  1.00  0.00     0.023 C 
BRANCH   2   3
ATOM      3  C   UNL A   1      31.411  26.591  25.854  1.00  0.00     0.116 C 
BRANCH   3   4
ATOM      4  N   UNL A   1      30.676  25.454  26.365  1.00  0.00    -0.354 N 
ATOM      5  C   UNL A   1      31.082  24.174  26.610  1.00  0.00     0.243 C 
ATOM      6  O   UNL A   1      30.303  23.463  27.251  1.00  0.00    -0.273 OA
ATOM      7  H   UNL A   1      29.729  25.633  26.567  1.00  0.00     0.163 HD
BRANCH   5   8
ATOM      8  C   UNL A   1      32.523  23.712  26.281  1.00  0.00     0.181 C 
ATOM      9  C   UNL A   1      33.079  22.754  27.342  1.00  0.00     0.042 C 
BRANCH   8  10
ATOM     10  N   UNL A   1      32.680  23.161  24.931  1.00  0.00    -0.244 N 
ATOM     11  C   UNL A   1      32.085  21.956  24.618  1.00  0.00     0.321 A 
ATOM     12  C   UNL A   1      33.279  23.925  23.952  1.00  0.00     0.321 A 
ATOM     13  O   UNL A   1      31.402  21.280  25.375  1.00  0.00    -0.256 OA
ATOM     14  S   UNL A   1      32.401  21.431  22.978  1.00  0.00    -0.014 S 
ATOM     15  S   UNL A   1      33.278  23.159  22.375  1.00  0.00    -0.014 S 
ATOM     16  O   UNL A   1      33.753  25.041  24.112  1.00  0.00    -0.256 OA
ENDBRANCH   8  10
ENDBRANCH   5   8
ENDBRANCH   3   4
ENDBRANCH   2   3
ENDBRANCH   1   2
BRANCH   1  17
ATOM     17  C   UNL A   1      33.041  29.730  26.460  1.00  0.00     0.116 C 
BRANCH  17  18
ATOM     18  N   UNL A   1      32.901  31.162  26.673  1.00  0.00    -0.352 N 
ATOM     19  C   UNL A   1      33.667  31.992  27.453  1.00  0.00     0.251 C 
ATOM     20  H   UNL A   1      32.157  31.594  26.193  1.00  0.00     0.163 HD
ATOM     21  O   UNL A   1      33.318  33.155  27.633  1.00  0.00    -0.269 OA
BRANCH  19  22
ATOM     22  C   UNL A   1      34.896  31.470  28.088  1.00  0.00     0.039 A 
ATOM     23  C   UNL A   1      36.033  32.279  28.121  1.00  0.00     0.014 A 
ATOM     24  C   UNL A   1      34.926  30.189  28.647  1.00  0.00     0.014 A 
ATOM     25  C   UNL A   1      37.193  31.811  28.741  1.00  0.00     0.010 A 
ATOM     26  C   UNL A   1      36.049  29.764  29.346  1.00  0.00     0.010 A 
ATOM     27  C   UNL A   1      37.206  30.555  29.371  1.00  0.00    -0.014 A 
BRANCH  27  28
ATOM     28  C   UNL A   1      38.438  30.040  30.019  1.00  0.00     0.031 A 
ATOM     29  C   UNL A   1      38.815  30.507  31.401  1.00  0.00     0.074 A 
ATOM     30  C   UNL A   1      39.240  29.189  29.350  1.00  0.00     0.049 A 
ATOM     31  N   UNL A   1      39.837  30.158  32.138  1.00  0.00    -0.248 NA
ATOM     32  C   UNL A   1      37.948  31.521  32.027  1.00  0.00     0.031 C 
ATOM     33  C   UNL A   1      39.028  28.726  27.977  1.00  0.00     0.029 A 
ATOM     34  N   UNL A   1      40.403  28.569  29.732  1.00  0.00    -0.354 N 
ATOM     35  C   UNL A   1      39.758  30.933  33.290  1.00  0.00     0.074 A 
ATOM     36  C   UNL A   1      38.614  31.802  33.137  1.00  0.00     0.031 C 
ATOM     37  C   UNL A   1      40.013  27.878  27.641  1.00  0.00     0.029 A 
ATOM     38  C   UNL A   1      40.941  27.757  28.761  1.00  0.00     0.049 A 
ATOM     39  H   UNL A   1      40.815  28.694  30.617  1.00  0.00     0.167 HD
ATOM     40  C   UNL A   1      40.546  30.903  34.390  1.00  0.00     0.034 A 
ATOM     41  C   UNL A   1      42.053  26.997  28.776  1.00  0.00     0.034 A 
ATOM     42  C   UNL A   1      41.656  30.004  34.556  1.00  0.00     0.049 A 
ATOM     43  C   UNL A   1      42.881  26.943  30.031  1.00  0.00     0.074 A 
ATOM     44  C   UNL A   1      42.460  29.827  35.667  1.00  0.00     0.029 A 
ATOM     45  N   UNL A   1      42.126  29.142  33.578  1.00  0.00    -0.354 N 
ATOM     46  N   UNL A   1      42.696  27.562  31.173  1.00  0.00    -0.248 NA
ATOM     47  C   UNL A   1      44.048  26.050  30.016  1.00  0.00     0.031 C 
ATOM     48  C   UNL A   1      43.441  28.882  35.348  1.00  0.00     0.029 A 
ATOM     49  C   UNL A   1      43.217  28.437  34.055  1.00  0.00     0.049 A 
ATOM     50  H   UNL A   1      41.740  29.046  32.678  1.00  0.00     0.167 HD
ATOM     51  C   UNL A   1      43.691  27.098  32.025  1.00  0.00     0.074 A 
ATOM     52  C   UNL A   1      44.466  26.132  31.272  1.00  0.00     0.031 C 
ATOM     53  C   UNL A   1      43.945  27.441  33.312  1.00  0.00     0.034 A 
BRANCH  40  54
ATOM     54  C   UNL A   1      40.211  31.845  35.518  1.00  0.00     0.023 A 
ATOM     55  C   UNL A   1      40.962  33.025  35.698  1.00  0.00     0.012 A 
ATOM     56  C   UNL A   1      39.120  31.587  36.371  1.00  0.00     0.148 A 
ATOM     57  C   UNL A   1      40.661  33.911  36.733  1.00  0.00     0.002 A 
ATOM     58  C   UNL A   1      38.793  32.500  37.367  1.00  0.00     0.091 A 
ATOM     59  F   UNL A   1      38.429  30.451  36.201  1.00  0.00    -0.205 F 
ATOM     60  C   UNL A   1      39.571  33.654  37.559  1.00  0.00     0.022 A 
BRANCH  58  61
ATOM     61  S   UNL A   1      37.357  32.304  38.428  1.00  0.00     0.127 S 
ATOM     62  O   UNL A   1      36.349  33.077  37.703  1.00  0.00    -0.237 OA
ATOM     63  O   UNL A   1      37.152  30.857  38.400  1.00  0.00    -0.237 OA
ATOM     64  O   UNL A   1      37.739  32.841  39.726  1.00  0.00    -0.744 OA
ENDBRANCH  58  61
ENDBRANCH  40  54
BRANCH  41  65
ATOM     65  C   UNL A   1      42.405  26.161  27.593  1.00  0.00     0.023 A 
ATOM     66  C   UNL A   1      43.179  26.719  26.555  1.00  0.00     0.012 A 
ATOM     67  C   UNL A   1      41.992  24.819  27.496  1.00  0.00     0.148 A 
ATOM     68  C   UNL A   1      43.497  25.969  25.422  1.00  0.00     0.002 A 
ATOM     69  C   UNL A   1      42.360  24.060  26.391  1.00  0.00     0.091 A 
ATOM     70  F   UNL A   1      41.253  24.309  28.492  1.00  0.00    -0.205 F 
ATOM     71  C   UNL A   1      43.095  24.638  25.344  1.00  0.00     0.022 A 
BRANCH  69  72
ATOM     72  S   UNL A   1      41.997  22.307  26.262  1.00  0.00     0.127 S 
ATOM     73  O   UNL A   1      40.537  22.306  26.218  1.00  0.00    -0.237 OA
ATOM     74  O   UNL A   1      42.652  21.957  25.001  1.00  0.00    -0.237 OA
ATOM     75  O   UNL A   1      42.595  21.692  27.440  1.00  0.00    -0.744 OA
ENDBRANCH  69  72
ENDBRANCH  41  65
BRANCH  53  76
ATOM     76  C   UNL A   1      45.071  26.728  34.015  1.00  0.00     0.023 A 
ATOM     77  C   UNL A   1      46.389  27.218  33.929  1.00  0.00     0.012 A 
ATOM     78  C   UNL A   1      44.804  25.598  34.813  1.00  0.00     0.148 A 
ATOM     79  C   UNL A   1      47.431  26.566  34.587  1.00  0.00     0.002 A 
ATOM     80  C   UNL A   1      45.838  24.986  35.512  1.00  0.00     0.091 A 
ATOM     81  F   UNL A   1      43.547  25.134  34.869  1.00  0.00    -0.205 F 
ATOM     82  C   UNL A   1      47.154  25.459  35.386  1.00  0.00     0.022 A 
BRANCH  80  83
ATOM     83  S   UNL A   1      45.555  23.623  36.645  1.00  0.00     0.127 S 
ATOM     84  O   UNL A   1      46.913  23.317  37.088  1.00  0.00    -0.237 OA
ATOM     85  O   UNL A   1      44.704  24.239  37.665  1.00  0.00    -0.237 OA
ATOM     86  O   UNL A   1      44.900  22.582  35.863  1.00  0.00    -0.744 OA
ENDBRANCH  80  83
ENDBRANCH  53  76
ENDBRANCH  27  28
ENDBRANCH  19  22
ENDBRANCH  17  18
ENDBRANCH   1  17
TORSDOF 15
ENDMDL
MODEL 3
REMARK VINA RESULT:     -10.9      1.650      2.162
REMARK SMILES C[C@H](C(=O)NCCCCNC(=O)c1ccc(-c2c3nc(c(-c4cccc(S(=O)(=O)[O-])c4F)c4ccc([nH]4)c(-c4cccc(S(=O)(=O)[O-])c4F)c4nc(c(-c5cccc(S(=O)(=O)[O-])c5F)c5ccc2[nH]5)C=C4)C=C3)cc1)n1c(=O)ssc1=O
REMARK SMILES IDX 8 1 7 2 6 3 5 4 3 5 4 6 2 8 1 9 76 10 77 11 81 12 78 13
REMARK SMILES IDX 79 14 80 15 82 16 9 17 10 18 11 19 12 21 13 22 14 23 75 24
REMARK SMILES IDX 15 25 74 26 16 27 17 28 18 29 68 30 19 31 73 32 67 33 69 34
REMARK SMILES IDX 20 35 72 36 66 37 65 38 21 40 53 41 33 42 52 43 34 44 37 45
REMARK SMILES IDX 51 46 70 47 35 48 36 49 50 51 71 52 38 53 22 54 23 55 31 56
REMARK SMILES IDX 24 57 26 58 32 59 25 60 27 61 28 62 29 63 30 64 54 65 55 66
REMARK SMILES IDX 63 67 56 68 58 69 64 70 57 71 59 72 60 73 61 74 62 75 39 76
REMARK SMILES IDX 40 77 48 78 41 79 43 80 49 81 42 82 44 83 45 84 46 85 47 86
REMARK H PARENT 5 7 10 20 69 39 37 50
REMARK Flexibility Score: inf
ROOT
ATOM      1  C   UNL A   1      32.094  28.893  25.841  1.00  0.00     0.023 C 
ENDROOT
BRANCH   1   2
ATOM      2  C   UNL A   1      32.067  27.498  26.467  1.00  0.00     0.023 C 
BRANCH   2   3
ATOM      3  C   UNL A   1      33.271  26.626  26.118  1.00  0.00     0.116 C 
BRANCH   3   4
ATOM      4  N   UNL A   1      33.350  26.374  24.695  1.00  0.00    -0.354 N 
ATOM      5  C   UNL A   1      32.751  25.415  23.931  1.00  0.00     0.243 C 
ATOM      6  O   UNL A   1      32.820  25.564  22.708  1.00  0.00    -0.273 OA
ATOM      7  H   UNL A   1      33.931  26.995  24.199  1.00  0.00     0.163 HD
BRANCH   5   8
ATOM      8  C   UNL A   1      31.861  24.320  24.569  1.00  0.00     0.181 C 
ATOM      9  C   UNL A   1      31.036  23.562  23.521  1.00  0.00     0.042 C 
BRANCH   8  10
ATOM     10  N   UNL A   1      32.587  23.396  25.446  1.00  0.00    -0.244 N 
ATOM     11  C   UNL A   1      33.689  22.725  24.957  1.00  0.00     0.321 A 
ATOM     12  C   UNL A   1      32.260  23.333  26.784  1.00  0.00     0.321 A 
ATOM     13  O   UNL A   1      34.149  22.834  23.830  1.00  0.00    -0.256 OA
ATOM     14  S   UNL A   1      34.414  21.639  26.125  1.00  0.00    -0.014 S 
ATOM     15  S   UNL A   1      33.303  22.266  27.704  1.00  0.00    -0.014 S 
ATOM     16  O   UNL A   1      31.360  23.959  27.327  1.00  0.00    -0.256 OA
ENDBRANCH   8  10
ENDBRANCH   5   8
ENDBRANCH   3   4
ENDBRANCH   2   3
ENDBRANCH   1   2
BRANCH   1  17
ATOM     17  C   UNL A   1      33.363  29.690  26.106  1.00  0.00     0.116 C 
BRANCH  17  18
ATOM     18  N   UNL A   1      33.094  31.062  26.509  1.00  0.00    -0.352 N 
ATOM     19  C   UNL A   1      33.752  31.826  27.440  1.00  0.00     0.251 C 
ATOM     20  H   UNL A   1      32.341  31.501  26.051  1.00  0.00     0.163 HD
ATOM     21  O   UNL A   1      33.300  32.921  27.760  1.00  0.00    -0.269 OA
BRANCH  19  22
ATOM     22  C   UNL A   1      34.989  31.312  28.066  1.00  0.00     0.039 A 
ATOM     23  C   UNL A   1      36.126  32.123  28.078  1.00  0.00     0.014 A 
ATOM     24  C   UNL A   1      35.027  30.038  28.638  1.00  0.00     0.014 A 
ATOM     25  C   UNL A   1      37.293  31.663  28.688  1.00  0.00     0.010 A 
ATOM     26  C   UNL A   1      36.159  29.621  29.328  1.00  0.00     0.010 A 
ATOM     27  C   UNL A   1      37.315  30.413  29.332  1.00  0.00    -0.014 A 
BRANCH  27  28
ATOM     28  C   UNL A   1      38.555  29.906  29.970  1.00  0.00     0.031 A 
ATOM     29  C   UNL A   1      38.948  30.389  31.343  1.00  0.00     0.074 A 
ATOM     30  C   UNL A   1      39.350  29.048  29.301  1.00  0.00     0.049 A 
ATOM     31  N   UNL A   1      39.980  30.049  32.071  1.00  0.00    -0.248 NA
ATOM     32  C   UNL A   1      38.088  31.409  31.968  1.00  0.00     0.031 C 
ATOM     33  C   UNL A   1      39.122  28.571  27.936  1.00  0.00     0.029 A 
ATOM     34  N   UNL A   1      40.518  28.434  29.676  1.00  0.00    -0.354 N 
ATOM     35  C   UNL A   1      39.913  30.836  33.215  1.00  0.00     0.074 A 
ATOM     36  C   UNL A   1      38.767  31.703  33.066  1.00  0.00     0.031 C 
ATOM     37  C   UNL A   1      40.104  27.719  27.598  1.00  0.00     0.029 A 
ATOM     38  C   UNL A   1      41.045  27.612  28.708  1.00  0.00     0.049 A 
ATOM     39  H   UNL A   1      40.941  28.569  30.555  1.00  0.00     0.167 HD
ATOM     40  C   UNL A   1      40.714  30.819  34.306  1.00  0.00     0.034 A 
ATOM     41  C   UNL A   1      42.158  26.853  28.717  1.00  0.00     0.034 A 
ATOM     42  C   UNL A   1      41.827  29.923  34.469  1.00  0.00     0.049 A 
ATOM     43  C   UNL A   1      43.001  26.813  29.963  1.00  0.00     0.074 A 
ATOM     44  C   UNL A   1      42.644  29.758  35.572  1.00  0.00     0.029 A 
ATOM     45  N   UNL A   1      42.286  29.050  33.495  1.00  0.00    -0.354 N 
ATOM     46  N   UNL A   1      42.829  27.444  31.100  1.00  0.00    -0.248 NA
ATOM     47  C   UNL A   1      44.169  25.921  29.944  1.00  0.00     0.031 C 
ATOM     48  C   UNL A   1      43.622  28.811  35.252  1.00  0.00     0.029 A 
ATOM     49  C   UNL A   1      43.383  28.351  33.966  1.00  0.00     0.049 A 
ATOM     50  H   UNL A   1      41.890  28.944  32.601  1.00  0.00     0.167 HD
ATOM     51  C   UNL A   1      43.835  26.990  31.946  1.00  0.00     0.074 A 
ATOM     52  C   UNL A   1      44.602  26.017  31.194  1.00  0.00     0.031 C 
ATOM     53  C   UNL A   1      44.104  27.348  33.225  1.00  0.00     0.034 A 
BRANCH  40  54
ATOM     54  C   UNL A   1      40.392  31.773  35.428  1.00  0.00     0.023 A 
ATOM     55  C   UNL A   1      41.178  32.928  35.619  1.00  0.00     0.012 A 
ATOM     56  C   UNL A   1      39.279  31.553  36.262  1.00  0.00     0.148 A 
ATOM     57  C   UNL A   1      40.890  33.825  36.648  1.00  0.00     0.002 A 
ATOM     58  C   UNL A   1      38.966  32.477  37.253  1.00  0.00     0.091 A 
ATOM     59  F   UNL A   1      38.554  30.439  36.082  1.00  0.00    -0.205 F 
ATOM     60  C   UNL A   1      39.778  33.604  37.456  1.00  0.00     0.022 A 
BRANCH  58  61
ATOM     61  S   UNL A   1      37.507  32.330  38.289  1.00  0.00     0.127 S 
ATOM     62  O   UNL A   1      37.939  33.019  39.505  1.00  0.00    -0.237 OA
ATOM     63  O   UNL A   1      36.501  33.047  37.506  1.00  0.00    -0.237 OA
ATOM     64  O   UNL A   1      37.260  30.902  38.437  1.00  0.00    -0.744 OA
ENDBRANCH  58  61
ENDBRANCH  40  54
BRANCH  41  65
ATOM     65  C   UNL A   1      42.497  26.004  27.540  1.00  0.00     0.023 A 
ATOM     66  C   UNL A   1      43.275  26.545  26.497  1.00  0.00     0.012 A 
ATOM     67  C   UNL A   1      42.066  24.667  27.453  1.00  0.00     0.148 A 
ATOM     68  C   UNL A   1      43.582  25.782  25.369  1.00  0.00     0.002 A 
ATOM     69  C   UNL A   1      42.422  23.896  26.353  1.00  0.00     0.091 A 
ATOM     70  F   UNL A   1      41.323  24.173  28.454  1.00  0.00    -0.205 F 
ATOM     71  C   UNL A   1      43.162  24.457  25.300  1.00  0.00     0.022 A 
BRANCH  69  72
ATOM     72  S   UNL A   1      42.036  22.146  26.236  1.00  0.00     0.127 S 
ATOM     73  O   UNL A   1      42.757  21.760  25.026  1.00  0.00    -0.237 OA
ATOM     74  O   UNL A   1      42.601  21.630  27.483  1.00  0.00    -0.237 OA
ATOM     75  O   UNL A   1      40.583  22.067  26.157  1.00  0.00    -0.744 OA
ENDBRANCH  69  72
ENDBRANCH  41  65
BRANCH  53  76
ATOM     76  C   UNL A   1      45.238  26.644  33.923  1.00  0.00     0.023 A 
ATOM     77  C   UNL A   1      46.547  27.162  33.857  1.00  0.00     0.012 A 
ATOM     78  C   UNL A   1      44.989  25.492  34.696  1.00  0.00     0.148 A 
ATOM     79  C   UNL A   1      47.597  26.517  34.510  1.00  0.00     0.002 A 
ATOM     80  C   UNL A   1      46.029  24.888  35.391  1.00  0.00     0.091 A 
ATOM     81  F   UNL A   1      43.741  25.003  34.733  1.00  0.00    -0.205 F 
ATOM     82  C   UNL A   1      47.337  25.389  35.284  1.00  0.00     0.022 A 
BRANCH  80  83
ATOM     83  S   UNL A   1      45.765  23.497  36.495  1.00  0.00     0.127 S 
ATOM     84  O   UNL A   1      47.137  23.108  36.816  1.00  0.00    -0.237 OA
ATOM     85  O   UNL A   1      45.030  24.113  37.600  1.00  0.00    -0.237 OA
ATOM     86  O   UNL A   1      44.998  22.521  35.731  1.00  0.00    -0.744 OA
ENDBRANCH  80  83
ENDBRANCH  53  76
ENDBRANCH  27  28
ENDBRANCH  19  22
ENDBRANCH  17  18
ENDBRANCH   1  17
TORSDOF 15
ENDMDL
