MODEL 1
REMARK VINA RESULT:     -11.1      0.000      0.000
REMARK SMILES C[C@@H](C(=O)NCCCCNC(=O)c1ccc(-c2c3nc(c(-c4cccc(S(=O)(=O)[O-])c4F)c4ccc([nH]4)c(-c4cccc(S(=O)(=O)[O-])c4F)c4nc(c(-c5cccc(S(=O)(=O)[O-])c5F)c5ccc2[nH]5)C=C4)C=C3)cc1)c1ccc(=O)n(C(F)F)c1
REMARK SMILES IDX 8 1 7 2 6 3 5 4 3 5 4 6 2 8 1 9 76 10 77 11 85 12 78 13
REMARK SMILES IDX 81 14 79 15 80 16 82 17 83 18 84 19 9 20 10 21 11 22 12 24
REMARK SMILES IDX 13 25 14 26 75 27 15 28 74 29 16 30 17 31 18 32 68 33 19 34
REMARK SMILES IDX 73 35 67 36 69 37 20 38 72 39 66 40 65 41 21 43 53 44 33 45
REMARK SMILES IDX 52 46 34 47 37 48 51 49 70 50 35 51 36 52 50 54 71 55 38 56
REMARK SMILES IDX 22 57 23 58 31 59 24 60 26 61 32 62 25 63 27 64 28 65 29 66
REMARK SMILES IDX 30 67 54 68 55 69 63 70 56 71 58 72 64 73 57 74 59 75 60 76
REMARK SMILES IDX 61 77 62 78 39 79 40 80 48 81 41 82 43 83 49 84 42 85 44 86
REMARK SMILES IDX 45 87 46 88 47 89
REMARK H PARENT 5 7 10 23 69 42 37 53
REMARK Flexibility Score: inf
ROOT
ATOM      1  C   UNL A   1      34.126  34.311  27.897  1.00  0.00     0.023 C 
ENDROOT
BRANCH   1   2
ATOM      2  C   UNL A   1      34.431  35.498  28.813  1.00  0.00     0.023 C 
BRANCH   2   3
ATOM      3  C   UNL A   1      33.292  36.511  28.945  1.00  0.00     0.116 C 
BRANCH   3   4
ATOM      4  N   UNL A   1      33.491  37.368  30.095  1.00  0.00    -0.356 N 
ATOM      5  C   UNL A   1      33.131  37.186  31.399  1.00  0.00     0.227 C 
ATOM      6  O   UNL A   1      33.311  38.133  32.167  1.00  0.00    -0.274 OA
ATOM      7  H   UNL A   1      33.957  38.215  29.909  1.00  0.00     0.163 HD
BRANCH   5   8
ATOM      8  C   UNL A   1      32.561  35.827  31.861  1.00  0.00     0.107 C 
ATOM      9  C   UNL A   1      31.373  35.971  32.818  1.00  0.00     0.023 C 
BRANCH   8  10
ATOM     10  C   UNL A   1      33.631  34.980  32.539  1.00  0.00    -0.019 A 
ATOM     11  C   UNL A   1      34.232  35.466  33.764  1.00  0.00     0.012 A 
ATOM     12  C   UNL A   1      34.092  33.830  32.013  1.00  0.00     0.099 A 
ATOM     13  C   UNL A   1      35.261  34.818  34.326  1.00  0.00     0.072 A 
ATOM     14  N   UNL A   1      35.143  33.133  32.579  1.00  0.00    -0.258 N 
ATOM     15  C   UNL A   1      35.810  33.580  33.706  1.00  0.00     0.254 A 
ATOM     16  O   UNL A   1      36.797  33.057  34.214  1.00  0.00    -0.269 OA
BRANCH  14  17
ATOM     17  C   UNL A   1      35.643  31.946  31.935  1.00  0.00     0.451 C 
ATOM     18  F   UNL A   1      36.632  32.263  31.061  1.00  0.00    -0.185 F 
ATOM     19  F   UNL A   1      36.147  31.063  32.830  1.00  0.00    -0.185 F 
ENDBRANCH  14  17
ENDBRANCH   8  10
ENDBRANCH   5   8
ENDBRANCH   3   4
ENDBRANCH   2   3
ENDBRANCH   1   2
BRANCH   1  20
ATOM     20  C   UNL A   1      34.687  32.974  28.365  1.00  0.00     0.116 C 
BRANCH  20  21
ATOM     21  N   UNL A   1      33.885  31.843  27.923  1.00  0.00    -0.352 N 
ATOM     22  C   UNL A   1      34.256  30.533  27.765  1.00  0.00     0.251 C 
ATOM     23  H   UNL A   1      32.946  32.048  27.707  1.00  0.00     0.163 HD
ATOM     24  O   UNL A   1      33.476  29.742  27.235  1.00  0.00    -0.269 OA
BRANCH  22  25
ATOM     25  C   UNL A   1      35.592  30.078  28.208  1.00  0.00     0.039 A 
ATOM     26  C   UNL A   1      36.678  30.232  27.342  1.00  0.00     0.014 A 
ATOM     27  C   UNL A   1      35.776  29.488  29.462  1.00  0.00     0.014 A 
ATOM     28  C   UNL A   1      37.950  29.825  27.747  1.00  0.00     0.010 A 
ATOM     29  C   UNL A   1      37.058  29.166  29.897  1.00  0.00     0.010 A 
ATOM     30  C   UNL A   1      38.156  29.303  29.035  1.00  0.00    -0.014 A 
BRANCH  30  31
ATOM     31  C   UNL A   1      39.505  28.868  29.477  1.00  0.00     0.031 A 
ATOM     32  C   UNL A   1      40.200  29.585  30.605  1.00  0.00     0.074 A 
ATOM     33  C   UNL A   1      40.129  27.864  28.831  1.00  0.00     0.049 A 
ATOM     34  N   UNL A   1      41.370  29.342  31.138  1.00  0.00    -0.248 NA
ATOM     35  C   UNL A   1      39.506  30.742  31.196  1.00  0.00     0.031 C 
ATOM     36  C   UNL A   1      39.597  27.142  27.673  1.00  0.00     0.029 A 
ATOM     37  N   UNL A   1      41.353  27.284  29.048  1.00  0.00    -0.354 N 
ATOM     38  C   UNL A   1      41.568  30.334  32.092  1.00  0.00     0.074 A 
ATOM     39  C   UNL A   1      40.415  31.205  32.040  1.00  0.00     0.031 C 
ATOM     40  C   UNL A   1      40.479  26.202  27.298  1.00  0.00     0.029 A 
ATOM     41  C   UNL A   1      41.649  26.270  28.167  1.00  0.00     0.049 A 
ATOM     42  H   UNL A   1      41.963  27.565  29.769  1.00  0.00     0.167 HD
ATOM     43  C   UNL A   1      42.599  30.492  32.956  1.00  0.00     0.034 A 
ATOM     44  C   UNL A   1      42.738  25.482  28.072  1.00  0.00     0.034 A 
ATOM     45  C   UNL A   1      43.723  29.598  33.036  1.00  0.00     0.049 A 
ATOM     46  C   UNL A   1      43.848  25.649  29.075  1.00  0.00     0.074 A 
ATOM     47  C   UNL A   1      44.771  29.611  33.939  1.00  0.00     0.029 A 
ATOM     48  N   UNL A   1      43.953  28.539  32.171  1.00  0.00    -0.354 N 
ATOM     49  N   UNL A   1      43.938  26.488  30.078  1.00  0.00    -0.248 NA
ATOM     50  C   UNL A   1      44.989  24.730  28.957  1.00  0.00     0.031 C 
ATOM     51  C   UNL A   1      45.654  28.583  33.597  1.00  0.00     0.029 A 
ATOM     52  C   UNL A   1      45.133  27.900  32.509  1.00  0.00     0.049 A 
ATOM     53  H   UNL A   1      43.363  28.279  31.426  1.00  0.00     0.167 HD
ATOM     54  C   UNL A   1      45.119  26.167  30.739  1.00  0.00     0.074 A 
ATOM     55  C   UNL A   1      45.701  25.046  30.030  1.00  0.00     0.031 C 
ATOM     56  C   UNL A   1      45.676  26.752  31.829  1.00  0.00     0.034 A 
BRANCH  43  57
ATOM     57  C   UNL A   1      42.543  31.657  33.910  1.00  0.00     0.023 A 
ATOM     58  C   UNL A   1      43.034  32.918  33.511  1.00  0.00     0.012 A 
ATOM     59  C   UNL A   1      41.958  31.518  35.184  1.00  0.00     0.148 A 
ATOM     60  C   UNL A   1      42.982  34.009  34.379  1.00  0.00     0.002 A 
ATOM     61  C   UNL A   1      41.863  32.622  36.023  1.00  0.00     0.091 A 
ATOM     62  F   UNL A   1      41.515  30.308  35.555  1.00  0.00    -0.205 F 
ATOM     63  C   UNL A   1      42.388  33.863  35.629  1.00  0.00     0.022 A 
BRANCH  61  64
ATOM     64  S   UNL A   1      41.039  32.558  37.618  1.00  0.00     0.127 S 
ATOM     65  O   UNL A   1      41.911  31.651  38.363  1.00  0.00    -0.237 OA
ATOM     66  O   UNL A   1      41.099  33.955  38.051  1.00  0.00    -0.237 OA
ATOM     67  O   UNL A   1      39.696  32.059  37.356  1.00  0.00    -0.744 OA
ENDBRANCH  61  64
ENDBRANCH  43  57
BRANCH  44  68
ATOM     68  C   UNL A   1      42.799  24.409  27.039  1.00  0.00     0.023 A 
ATOM     69  C   UNL A   1      43.544  24.624  25.862  1.00  0.00     0.012 A 
ATOM     70  C   UNL A   1      42.138  23.179  27.218  1.00  0.00     0.148 A 
ATOM     71  C   UNL A   1      43.596  23.650  24.865  1.00  0.00     0.002 A 
ATOM     72  C   UNL A   1      42.241  22.191  26.246  1.00  0.00     0.091 A 
ATOM     73  F   UNL A   1      41.431  22.998  28.342  1.00  0.00    -0.205 F 
ATOM     74  C   UNL A   1      42.953  22.431  25.061  1.00  0.00     0.022 A 
BRANCH  72  75
ATOM     75  S   UNL A   1      41.555  20.547  26.467  1.00  0.00     0.127 S 
ATOM     76  O   UNL A   1      42.105  19.836  25.314  1.00  0.00    -0.237 OA
ATOM     77  O   UNL A   1      42.118  20.157  27.759  1.00  0.00    -0.237 OA
ATOM     78  O   UNL A   1      40.109  20.719  26.470  1.00  0.00    -0.744 OA
ENDBRANCH  72  75
ENDBRANCH  44  68
BRANCH  56  79
ATOM     79  C   UNL A   1      46.953  26.159  32.364  1.00  0.00     0.023 A 
ATOM     80  C   UNL A   1      48.200  26.664  31.948  1.00  0.00     0.012 A 
ATOM     81  C   UNL A   1      46.910  25.132  33.329  1.00  0.00     0.148 A 
ATOM     82  C   UNL A   1      49.386  26.127  32.449  1.00  0.00     0.002 A 
ATOM     83  C   UNL A   1      48.094  24.640  33.866  1.00  0.00     0.091 A 
ATOM     84  F   UNL A   1      45.715  24.651  33.700  1.00  0.00    -0.205 F 
ATOM     85  C   UNL A   1      49.332  25.124  33.416  1.00  0.00     0.022 A 
BRANCH  83  86
ATOM     86  S   UNL A   1      48.114  23.426  35.189  1.00  0.00     0.127 S 
ATOM     87  O   UNL A   1      49.547  23.287  35.444  1.00  0.00    -0.237 OA
ATOM     88  O   UNL A   1      47.370  24.108  36.248  1.00  0.00    -0.237 OA
ATOM     89  O   UNL A   1      47.455  22.241  34.656  1.00  0.00    -0.744 OA
ENDBRANCH  83  86
ENDBRANCH  56  79
ENDBRANCH  30  31
ENDBRANCH  22  25
ENDBRANCH  20  21
ENDBRANCH   1  20
TORSDOF 16
ENDMDL
MODEL 2
REMARK VINA RESULT:     -10.8      3.097      6.260
REMARK SMILES C[C@@H](C(=O)NCCCCNC(=O)c1ccc(-c2c3nc(c(-c4cccc(S(=O)(=O)[O-])c4F)c4ccc([nH]4)c(-c4cccc(S(=O)(=O)[O-])c4F)c4nc(c(-c5cccc(S(=O)(=O)[O-])c5F)c5ccc2[nH]5)C=C4)C=C3)cc1)c1ccc(=O)n(C(F)F)c1
REMARK SMILES IDX 8 1 7 2 6 3 5 4 3 5 4 6 2 8 1 9 76 10 77 11 85 12 78 13
REMARK SMILES IDX 81 14 79 15 80 16 82 17 83 18 84 19 9 20 10 21 11 22 12 24
REMARK SMILES IDX 13 25 14 26 75 27 15 28 74 29 16 30 17 31 18 32 68 33 19 34
REMARK SMILES IDX 73 35 67 36 69 37 20 38 72 39 66 40 65 41 21 43 53 44 33 45
REMARK SMILES IDX 52 46 34 47 37 48 51 49 70 50 35 51 36 52 50 54 71 55 38 56
REMARK SMILES IDX 22 57 23 58 31 59 24 60 26 61 32 62 25 63 27 64 28 65 29 66
REMARK SMILES IDX 30 67 54 68 55 69 63 70 56 71 58 72 64 73 57 74 59 75 60 76
REMARK SMILES IDX 61 77 62 78 39 79 40 80 48 81 41 82 43 83 49 84 42 85 44 86
REMARK SMILES IDX 45 87 46 88 47 89
REMARK H PARENT 5 7 10 23 69 42 37 53
REMARK Flexibility Score: inf
ROOT
ATOM      1  C   UNL A   1      32.550  27.708  26.723  1.00  0.00     0.023 C 
ENDROOT
BRANCH   1   2
ATOM      2  C   UNL A   1      32.376  26.792  25.509  1.00  0.00     0.023 C 
BRANCH   2   3
ATOM      3  C   UNL A   1      31.187  25.834  25.599  1.00  0.00     0.116 C 
BRANCH   3   4
ATOM      4  N   UNL A   1      31.365  24.887  26.681  1.00  0.00    -0.356 N 
ATOM      5  C   UNL A   1      31.883  23.625  26.667  1.00  0.00     0.227 C 
ATOM      6  O   UNL A   1      31.808  22.977  27.713  1.00  0.00    -0.274 OA
ATOM      7  H   UNL A   1      31.064  25.202  27.564  1.00  0.00     0.163 HD
BRANCH   5   8
ATOM      8  C   UNL A   1      32.558  23.080  25.389  1.00  0.00     0.107 C 
ATOM      9  C   UNL A   1      31.986  21.732  24.940  1.00  0.00     0.023 C 
BRANCH   8  10
ATOM     10  C   UNL A   1      34.062  22.932  25.578  1.00  0.00    -0.019 A 
ATOM     11  C   UNL A   1      34.839  24.102  25.938  1.00  0.00     0.012 A 
ATOM     12  C   UNL A   1      34.714  21.776  25.359  1.00  0.00     0.099 A 
ATOM     13  C   UNL A   1      36.175  24.047  25.992  1.00  0.00     0.072 A 
ATOM     14  N   UNL A   1      36.092  21.685  25.422  1.00  0.00    -0.258 N 
ATOM     15  C   UNL A   1      36.897  22.780  25.686  1.00  0.00     0.254 A 
ATOM     16  O   UNL A   1      38.124  22.791  25.679  1.00  0.00    -0.269 OA
BRANCH  14  17
ATOM     17  C   UNL A   1      36.743  20.440  25.108  1.00  0.00     0.451 C 
ATOM     18  F   UNL A   1      35.822  19.474  24.862  1.00  0.00    -0.185 F 
ATOM     19  F   UNL A   1      37.535  20.548  24.015  1.00  0.00    -0.185 F 
ENDBRANCH  14  17
ENDBRANCH   8  10
ENDBRANCH   5   8
ENDBRANCH   3   4
ENDBRANCH   2   3
ENDBRANCH   1   2
BRANCH   1  20
ATOM     20  C   UNL A   1      33.867  28.473  26.770  1.00  0.00     0.116 C 
BRANCH  20  21
ATOM     21  N   UNL A   1      33.687  29.880  27.092  1.00  0.00    -0.352 N 
ATOM     22  C   UNL A   1      34.501  30.708  27.823  1.00  0.00     0.251 C 
ATOM     23  H   UNL A   1      32.868  30.295  26.737  1.00  0.00     0.163 HD
ATOM     24  O   UNL A   1      34.108  31.837  28.118  1.00  0.00    -0.269 OA
BRANCH  22  25
ATOM     25  C   UNL A   1      35.831  30.241  28.271  1.00  0.00     0.039 A 
ATOM     26  C   UNL A   1      35.939  29.607  29.511  1.00  0.00     0.014 A 
ATOM     27  C   UNL A   1      36.969  30.436  27.483  1.00  0.00     0.014 A 
ATOM     28  C   UNL A   1      37.182  29.143  29.946  1.00  0.00     0.010 A 
ATOM     29  C   UNL A   1      38.189  29.895  27.878  1.00  0.00     0.010 A 
ATOM     30  C   UNL A   1      38.316  29.268  29.126  1.00  0.00    -0.014 A 
BRANCH  30  31
ATOM     31  C   UNL A   1      39.643  28.776  29.578  1.00  0.00     0.031 A 
ATOM     32  C   UNL A   1      40.367  29.471  30.701  1.00  0.00     0.074 A 
ATOM     33  C   UNL A   1      40.223  27.738  28.944  1.00  0.00     0.049 A 
ATOM     34  N   UNL A   1      41.522  29.181  31.241  1.00  0.00    -0.248 NA
ATOM     35  C   UNL A   1      39.723  30.665  31.278  1.00  0.00     0.031 C 
ATOM     36  C   UNL A   1      39.661  27.030  27.791  1.00  0.00     0.029 A 
ATOM     37  N   UNL A   1      41.419  27.105  29.171  1.00  0.00    -0.354 N 
ATOM     38  C   UNL A   1      41.762  30.172  32.186  1.00  0.00     0.074 A 
ATOM     39  C   UNL A   1      40.651  31.094  32.121  1.00  0.00     0.031 C 
ATOM     40  C   UNL A   1      40.501  26.047  27.428  1.00  0.00     0.029 A 
ATOM     41  C   UNL A   1      41.670  26.070  28.301  1.00  0.00     0.049 A 
ATOM     42  H   UNL A   1      42.038  27.366  29.891  1.00  0.00     0.167 HD
ATOM     43  C   UNL A   1      42.797  30.291  33.052  1.00  0.00     0.034 A 
ATOM     44  C   UNL A   1      42.723  25.233  28.218  1.00  0.00     0.034 A 
ATOM     45  C   UNL A   1      43.878  29.348  33.144  1.00  0.00     0.049 A 
ATOM     46  C   UNL A   1      43.836  25.359  29.223  1.00  0.00     0.074 A 
ATOM     47  C   UNL A   1      44.923  29.322  34.051  1.00  0.00     0.029 A 
ATOM     48  N   UNL A   1      44.063  28.272  32.291  1.00  0.00    -0.354 N 
ATOM     49  N   UNL A   1      43.960  26.202  30.218  1.00  0.00    -0.248 NA
ATOM     50  C   UNL A   1      44.935  24.387  29.118  1.00  0.00     0.031 C 
ATOM     51  C   UNL A   1      45.759  28.252  33.723  1.00  0.00     0.029 A 
ATOM     52  C   UNL A   1      45.211  27.582  32.640  1.00  0.00     0.049 A 
ATOM     53  H   UNL A   1      43.464  28.031  31.547  1.00  0.00     0.167 HD
ATOM     54  C   UNL A   1      45.124  25.835  30.887  1.00  0.00     0.074 A 
ATOM     55  C   UNL A   1      45.656  24.681  30.191  1.00  0.00     0.031 C 
ATOM     56  C   UNL A   1      45.703  26.405  31.972  1.00  0.00     0.034 A 
BRANCH  43  57
ATOM     57  C   UNL A   1      42.791  31.467  33.995  1.00  0.00     0.023 A 
ATOM     58  C   UNL A   1      43.380  32.688  33.602  1.00  0.00     0.012 A 
ATOM     59  C   UNL A   1      42.156  31.382  35.249  1.00  0.00     0.148 A 
ATOM     60  C   UNL A   1      43.376  33.788  34.459  1.00  0.00     0.002 A 
ATOM     61  C   UNL A   1      42.111  32.499  36.077  1.00  0.00     0.091 A 
ATOM     62  F   UNL A   1      41.618  30.209  35.615  1.00  0.00    -0.205 F 
ATOM     63  C   UNL A   1      42.734  33.696  35.690  1.00  0.00     0.022 A 
BRANCH  61  64
ATOM     64  S   UNL A   1      41.233  32.508  37.644  1.00  0.00     0.127 S 
ATOM     65  O   UNL A   1      39.931  31.969  37.254  1.00  0.00    -0.237 OA
ATOM     66  O   UNL A   1      42.048  31.604  38.457  1.00  0.00    -0.237 OA
ATOM     67  O   UNL A   1      41.228  33.893  38.093  1.00  0.00    -0.744 OA
ENDBRANCH  61  64
ENDBRANCH  43  57
BRANCH  44  68
ATOM     68  C   UNL A   1      42.738  24.148  27.195  1.00  0.00     0.023 A 
ATOM     69  C   UNL A   1      43.431  24.349  25.985  1.00  0.00     0.012 A 
ATOM     70  C   UNL A   1      42.084  22.921  27.417  1.00  0.00     0.148 A 
ATOM     71  C   UNL A   1      43.440  23.363  24.998  1.00  0.00     0.002 A 
ATOM     72  C   UNL A   1      42.145  21.922  26.453  1.00  0.00     0.091 A 
ATOM     73  F   UNL A   1      41.426  22.754  28.572  1.00  0.00    -0.205 F 
ATOM     74  C   UNL A   1      42.805  22.148  25.235  1.00  0.00     0.022 A 
BRANCH  72  75
ATOM     75  S   UNL A   1      41.467  20.281  26.721  1.00  0.00     0.127 S 
ATOM     76  O   UNL A   1      41.773  19.620  25.454  1.00  0.00    -0.237 OA
ATOM     77  O   UNL A   1      42.251  19.816  27.866  1.00  0.00    -0.237 OA
ATOM     78  O   UNL A   1      40.052  20.479  27.005  1.00  0.00    -0.744 OA
ENDBRANCH  72  75
ENDBRANCH  44  68
BRANCH  56  79
ATOM     79  C   UNL A   1      46.950  25.759  32.518  1.00  0.00     0.023 A 
ATOM     80  C   UNL A   1      48.219  26.159  32.054  1.00  0.00     0.012 A 
ATOM     81  C   UNL A   1      46.861  24.791  33.539  1.00  0.00     0.148 A 
ATOM     82  C   UNL A   1      49.378  25.573  32.564  1.00  0.00     0.002 A 
ATOM     83  C   UNL A   1      48.022  24.253  34.082  1.00  0.00     0.091 A 
ATOM     84  F   UNL A   1      45.646  24.409  33.956  1.00  0.00    -0.205 F 
ATOM     85  C   UNL A   1      49.279  24.630  33.586  1.00  0.00     0.022 A 
BRANCH  83  86
ATOM     86  S   UNL A   1      47.991  23.113  35.469  1.00  0.00     0.127 S 
ATOM     87  O   UNL A   1      49.416  22.869  35.686  1.00  0.00    -0.237 OA
ATOM     88  O   UNL A   1      47.343  23.910  36.512  1.00  0.00    -0.237 OA
ATOM     89  O   UNL A   1      47.218  21.960  35.025  1.00  0.00    -0.744 OA
ENDBRANCH  83  86
ENDBRANCH  56  79
ENDBRANCH  30  31
ENDBRANCH  22  25
ENDBRANCH  20  21
ENDBRANCH   1  20
TORSDOF 16
ENDMDL
MODEL 3
REMARK VINA RESULT:     -10.7      3.912      6.725
REMARK SMILES C[C@@H](C(=O)NCCCCNC(=O)c1ccc(-c2c3nc(c(-c4cccc(S(=O)(=O)[O-])c4F)c4ccc([nH]4)c(-c4cccc(S(=O)(=O)[O-])c4F)c4nc(c(-c5cccc(S(=O)(=O)[O-])c5F)c5ccc2[nH]5)C=C4)C=C3)cc1)c1ccc(=O)n(C(F)F)c1
REMARK SMILES IDX 8 1 7 2 6 3 5 4 3 5 4 6 2 8 1 9 76 10 77 11 85 12 78 13
REMARK SMILES IDX 81 14 79 15 80 16 82 17 83 18 84 19 9 20 10 21 11 22 12 24
REMARK SMILES IDX 13 25 14 26 75 27 15 28 74 29 16 30 17 31 18 32 68 33 19 34
REMARK SMILES IDX 73 35 67 36 69 37 20 38 72 39 66 40 65 41 21 43 53 44 33 45
REMARK SMILES IDX 52 46 34 47 37 48 51 49 70 50 35 51 36 52 50 54 71 55 38 56
REMARK SMILES IDX 22 57 23 58 31 59 24 60 26 61 32 62 25 63 27 64 28 65 29 66
REMARK SMILES IDX 30 67 54 68 55 69 63 70 56 71 58 72 64 73 57 74 59 75 60 76
REMARK SMILES IDX 61 77 62 78 39 79 40 80 48 81 41 82 43 83 49 84 42 85 44 86
REMARK SMILES IDX 45 87 46 88 47 89
REMARK H PARENT 5 7 10 23 69 42 37 53
REMARK Flexibility Score: inf
ROOT
ATOM      1  C   UNL A   1      33.529  28.000  26.930  1.00  0.00     0.023 C 
ENDROOT
BRANCH   1   2
ATOM      2  C   UNL A   1      31.999  27.955  26.945  1.00  0.00     0.023 C 
BRANCH   2   3
ATOM      3  C   UNL A   1      31.382  26.898  26.028  1.00  0.00     0.116 C 
BRANCH   3   4
ATOM      4  N   UNL A   1      31.119  25.672  26.753  1.00  0.00    -0.356 N 
ATOM      5  C   UNL A   1      31.180  24.374  26.336  1.00  0.00     0.227 C 
ATOM      6  O   UNL A   1      30.783  23.514  27.125  1.00  0.00    -0.274 OA
ATOM      7  H   UNL A   1      30.854  25.793  27.694  1.00  0.00     0.163 HD
BRANCH   5   8
ATOM      8  C   UNL A   1      31.758  24.036  24.946  1.00  0.00     0.107 C 
ATOM      9  C   UNL A   1      30.674  23.754  23.899  1.00  0.00     0.023 C 
BRANCH   8  10
ATOM     10  C   UNL A   1      32.692  22.834  25.012  1.00  0.00    -0.019 A 
ATOM     11  C   UNL A   1      34.036  23.023  25.520  1.00  0.00     0.012 A 
ATOM     12  C   UNL A   1      32.347  21.616  24.556  1.00  0.00     0.099 A 
ATOM     13  C   UNL A   1      34.930  22.027  25.482  1.00  0.00     0.072 A 
ATOM     14  N   UNL A   1      33.245  20.565  24.517  1.00  0.00    -0.258 N 
ATOM     15  C   UNL A   1      34.563  20.698  24.916  1.00  0.00     0.254 A 
ATOM     16  O   UNL A   1      35.431  19.835  24.835  1.00  0.00    -0.269 OA
BRANCH  14  17
ATOM     17  C   UNL A   1      32.844  19.303  23.952  1.00  0.00     0.451 C 
ATOM     18  F   UNL A   1      32.131  18.584  24.856  1.00  0.00    -0.185 F 
ATOM     19  F   UNL A   1      32.074  19.466  22.851  1.00  0.00    -0.185 F 
ENDBRANCH  14  17
ENDBRANCH   8  10
ENDBRANCH   5   8
ENDBRANCH   3   4
ENDBRANCH   2   3
ENDBRANCH   1   2
BRANCH   1  20
ATOM     20  C   UNL A   1      34.132  29.129  26.104  1.00  0.00     0.116 C 
BRANCH  20  21
ATOM     21  N   UNL A   1      33.878  30.442  26.678  1.00  0.00    -0.352 N 
ATOM     22  C   UNL A   1      34.559  31.093  27.674  1.00  0.00     0.251 C 
ATOM     23  H   UNL A   1      33.111  30.929  26.299  1.00  0.00     0.163 HD
ATOM     24  O   UNL A   1      34.105  32.141  28.133  1.00  0.00    -0.269 OA
BRANCH  22  25
ATOM     25  C   UNL A   1      35.820  30.531  28.206  1.00  0.00     0.039 A 
ATOM     26  C   UNL A   1      35.775  29.765  29.374  1.00  0.00     0.014 A 
ATOM     27  C   UNL A   1      37.042  30.767  27.571  1.00  0.00     0.014 A 
ATOM     28  C   UNL A   1      36.950  29.211  29.884  1.00  0.00     0.010 A 
ATOM     29  C   UNL A   1      38.197  30.141  28.032  1.00  0.00     0.010 A 
ATOM     30  C   UNL A   1      38.170  29.380  29.209  1.00  0.00    -0.014 A 
BRANCH  30  31
ATOM     31  C   UNL A   1      39.426  28.793  29.742  1.00  0.00     0.031 A 
ATOM     32  C   UNL A   1      40.054  29.355  30.990  1.00  0.00     0.074 A 
ATOM     33  C   UNL A   1      40.031  27.791  29.075  1.00  0.00     0.049 A 
ATOM     34  N   UNL A   1      41.138  28.968  31.613  1.00  0.00    -0.248 NA
ATOM     35  C   UNL A   1      39.397  30.519  31.609  1.00  0.00     0.031 C 
ATOM     36  C   UNL A   1      39.567  27.212  27.813  1.00  0.00     0.029 A 
ATOM     37  N   UNL A   1      41.175  27.089  29.360  1.00  0.00    -0.354 N 
ATOM     38  C   UNL A   1      41.314  29.861  32.664  1.00  0.00     0.074 A 
ATOM     39  C   UNL A   1      40.247  30.832  32.574  1.00  0.00     0.031 C 
ATOM     40  C   UNL A   1      40.405  26.229  27.445  1.00  0.00     0.029 A 
ATOM     41  C   UNL A   1      41.479  26.125  28.428  1.00  0.00     0.049 A 
ATOM     42  H   UNL A   1      41.726  27.258  30.159  1.00  0.00     0.167 HD
ATOM     43  C   UNL A   1      42.259  29.858  33.635  1.00  0.00     0.034 A 
ATOM     44  C   UNL A   1      42.505  25.253  28.373  1.00  0.00     0.034 A 
ATOM     45  C   UNL A   1      43.292  28.865  33.746  1.00  0.00     0.049 A 
ATOM     46  C   UNL A   1      43.514  25.241  29.490  1.00  0.00     0.074 A 
ATOM     47  C   UNL A   1      44.237  28.714  34.746  1.00  0.00     0.029 A 
ATOM     48  N   UNL A   1      43.525  27.860  32.820  1.00  0.00    -0.354 N 
ATOM     49  N   UNL A   1      43.564  25.988  30.566  1.00  0.00    -0.248 NA
ATOM     50  C   UNL A   1      44.583  24.236  29.406  1.00  0.00     0.031 C 
ATOM     51  C   UNL A   1      45.064  27.641  34.404  1.00  0.00     0.029 A 
ATOM     52  C   UNL A   1      44.607  27.094  33.216  1.00  0.00     0.049 A 
ATOM     53  H   UNL A   1      42.998  27.712  32.002  1.00  0.00     0.167 HD
ATOM     54  C   UNL A   1      44.640  25.513  31.309  1.00  0.00     0.074 A 
ATOM     55  C   UNL A   1      45.201  24.402  30.566  1.00  0.00     0.031 C 
ATOM     56  C   UNL A   1      45.124  25.959  32.495  1.00  0.00     0.034 A 
BRANCH  43  57
ATOM     57  C   UNL A   1      42.197  30.946  34.676  1.00  0.00     0.023 A 
ATOM     58  C   UNL A   1      41.467  30.741  35.867  1.00  0.00     0.012 A 
ATOM     59  C   UNL A   1      42.903  32.152  34.501  1.00  0.00     0.148 A 
ATOM     60  C   UNL A   1      41.406  31.734  36.844  1.00  0.00     0.002 A 
ATOM     61  C   UNL A   1      42.880  33.116  35.503  1.00  0.00     0.091 A 
ATOM     62  F   UNL A   1      43.575  32.339  33.357  1.00  0.00    -0.205 F 
ATOM     63  C   UNL A   1      42.120  32.915  36.667  1.00  0.00     0.022 A 
BRANCH  61  64
ATOM     64  S   UNL A   1      43.834  34.634  35.408  1.00  0.00     0.127 S 
ATOM     65  O   UNL A   1      43.461  35.295  36.658  1.00  0.00    -0.237 OA
ATOM     66  O   UNL A   1      45.208  34.131  35.372  1.00  0.00    -0.237 OA
ATOM     67  O   UNL A   1      43.400  35.307  34.192  1.00  0.00    -0.744 OA
ENDBRANCH  61  64
ENDBRANCH  43  57
BRANCH  44  68
ATOM     68  C   UNL A   1      42.587  24.262  27.261  1.00  0.00     0.023 A 
ATOM     69  C   UNL A   1      43.300  24.594  26.092  1.00  0.00     0.012 A 
ATOM     70  C   UNL A   1      41.978  22.997  27.359  1.00  0.00     0.148 A 
ATOM     71  C   UNL A   1      43.371  23.698  25.024  1.00  0.00     0.002 A 
ATOM     72  C   UNL A   1      42.100  22.089  26.314  1.00  0.00     0.091 A 
ATOM     73  F   UNL A   1      41.300  22.705  28.477  1.00  0.00    -0.205 F 
ATOM     74  C   UNL A   1      42.779  22.444  25.138  1.00  0.00     0.022 A 
BRANCH  72  75
ATOM     75  S   UNL A   1      41.482  20.406  26.422  1.00  0.00     0.127 S 
ATOM     76  O   UNL A   1      41.860  20.036  27.784  1.00  0.00    -0.237 OA
ATOM     77  O   UNL A   1      40.047  20.599  26.210  1.00  0.00    -0.237 OA
ATOM     78  O   UNL A   1      42.152  19.670  25.359  1.00  0.00    -0.744 OA
ENDBRANCH  72  75
ENDBRANCH  44  68
BRANCH  56  79
ATOM     79  C   UNL A   1      46.286  25.215  33.099  1.00  0.00     0.023 A 
ATOM     80  C   UNL A   1      47.604  25.668  32.896  1.00  0.00     0.012 A 
ATOM     81  C   UNL A   1      46.061  24.091  33.920  1.00  0.00     0.148 A 
ATOM     82  C   UNL A   1      48.684  24.990  33.463  1.00  0.00     0.002 A 
ATOM     83  C   UNL A   1      47.136  23.454  34.528  1.00  0.00     0.091 A 
ATOM     84  F   UNL A   1      44.802  23.662  34.088  1.00  0.00    -0.205 F 
ATOM     85  C   UNL A   1      48.448  23.891  34.288  1.00  0.00     0.022 A 
BRANCH  83  86
ATOM     86  S   UNL A   1      46.918  22.099  35.686  1.00  0.00     0.127 S 
ATOM     87  O   UNL A   1      46.128  22.732  36.740  1.00  0.00    -0.237 OA
ATOM     88  O   UNL A   1      46.187  21.118  34.882  1.00  0.00    -0.237 OA
ATOM     89  O   UNL A   1      48.259  21.681  36.073  1.00  0.00    -0.744 OA
ENDBRANCH  83  86
ENDBRANCH  56  79
ENDBRANCH  30  31
ENDBRANCH  22  25
ENDBRANCH  20  21
ENDBRANCH   1  20
TORSDOF 16
ENDMDL
