MODEL 1
REMARK VINA RESULT:     -11.2      0.000      0.000
REMARK SMILES CC[C@@H](COC)NC(=O)NC[C@@H]1CC[C@H](C(=O)NCCCCNC(=O)c2ccc(-c3c4nc(c(-c5cccc(S(=O)(=O)[O-])c5F)c5ccc([nH]5)c(-c5cccc(S(=O)(=O)[O-])c5F)c5nc(c(-c6cccc(S(=O)(=O)[O-])c6F)c6ccc3[nH]6)C=C5)C=C4)cc2)O1
REMARK SMILES IDX 19 1 18 2 16 3 17 4 15 6 12 7 13 8 89 9 14 10 11 11 10 12
REMARK SMILES IDX 7 13 8 14 9 16 3 18 2 19 1 20 4 21 5 22 6 23 20 24 21 25
REMARK SMILES IDX 22 26 23 27 24 28 25 30 26 31 27 32 88 33 28 34 87 35 29 36
REMARK SMILES IDX 30 37 31 38 81 39 32 40 86 41 80 42 82 43 33 44 85 45 79 46
REMARK SMILES IDX 78 47 34 49 66 50 46 51 65 52 47 53 50 54 64 55 83 56 48 57
REMARK SMILES IDX 49 58 63 60 84 61 51 62 35 63 36 64 44 65 37 66 39 67 45 68
REMARK SMILES IDX 38 69 40 70 41 71 42 72 43 73 67 74 68 75 76 76 69 77 71 78
REMARK SMILES IDX 77 79 70 80 72 81 73 82 74 83 75 84 52 85 53 86 61 87 54 88
REMARK SMILES IDX 56 89 62 90 55 91 57 92 58 93 59 94 60 95
REMARK H PARENT 18 5 7 15 10 17 23 29 82 48 50 59
REMARK Flexibility Score: inf
ROOT
ATOM      1  C   UNL A   1      31.384  26.750  26.239  1.00  0.00     0.116 C 
ENDROOT
BRANCH   1   2
ATOM      2  N   UNL A   1      31.422  25.492  26.947  1.00  0.00    -0.354 N 
ATOM      3  C   UNL A   1      31.841  24.276  26.494  1.00  0.00     0.249 C 
ATOM      4  O   UNL A   1      31.921  23.349  27.308  1.00  0.00    -0.272 OA
ATOM      5  H   UNL A   1      31.102  25.514  27.879  1.00  0.00     0.163 HD
BRANCH   3   6
ATOM      6  C   UNL A   1      32.104  24.006  24.987  1.00  0.00     0.207 C 
ATOM      7  C   UNL A   1      32.020  24.949  22.867  1.00  0.00     0.138 C 
ATOM      8  C   UNL A   1      30.615  24.464  23.161  1.00  0.00     0.037 C 
ATOM      9  O   UNL A   1      32.663  25.027  24.151  1.00  0.00    -0.363 OA
ATOM     10  C   UNL A   1      30.838  23.498  24.299  1.00  0.00     0.045 C 
BRANCH   7  11
ATOM     11  C   UNL A   1      32.078  26.253  22.047  1.00  0.00     0.149 C 
BRANCH  11  12
ATOM     12  N   UNL A   1      32.922  27.294  22.605  1.00  0.00    -0.336 N 
ATOM     13  N   UNL A   1      31.719  29.322  22.402  1.00  0.00    -0.333 N 
ATOM     14  C   UNL A   1      32.825  28.629  22.684  1.00  0.00     0.315 C 
ATOM     15  H   UNL A   1      31.882  30.289  22.299  1.00  0.00     0.165 HD
ATOM     16  O   UNL A   1      33.842  29.243  23.014  1.00  0.00    -0.249 OA
ATOM     17  H   UNL A   1      33.745  26.944  23.016  1.00  0.00     0.165 HD
BRANCH  13  18
ATOM     18  C   UNL A   1      30.320  28.948  22.216  1.00  0.00     0.109 C 
BRANCH  18  19
ATOM     19  C   UNL A   1      29.747  28.512  23.575  1.00  0.00     0.024 C 
ATOM     20  C   UNL A   1      28.701  27.416  23.468  1.00  0.00     0.006 C 
ENDBRANCH  18  19
BRANCH  18  21
ATOM     21  C   UNL A   1      29.548  30.098  21.528  1.00  0.00     0.184 C 
BRANCH  21  22
ATOM     22  O   UNL A   1      28.426  30.557  22.282  1.00  0.00    -0.383 OA
ATOM     23  C   UNL A   1      28.376  31.961  22.484  1.00  0.00     0.194 C 
ENDBRANCH  21  22
ENDBRANCH  18  21
ENDBRANCH  13  18
ENDBRANCH  11  12
ENDBRANCH   7  11
ENDBRANCH   3   6
ENDBRANCH   1   2
BRANCH   1  24
ATOM     24  C   UNL A   1      31.739  27.948  27.116  1.00  0.00     0.023 C 
BRANCH  24  25
ATOM     25  C   UNL A   1      31.525  29.309  26.452  1.00  0.00     0.023 C 
BRANCH  25  26
ATOM     26  C   UNL A   1      32.783  30.160  26.288  1.00  0.00     0.116 C 
BRANCH  26  27
ATOM     27  N   UNL A   1      32.617  31.558  26.671  1.00  0.00    -0.352 N 
ATOM     28  C   UNL A   1      33.457  32.320  27.451  1.00  0.00     0.251 C 
ATOM     29  H   UNL A   1      31.808  32.008  26.333  1.00  0.00     0.163 HD
ATOM     30  O   UNL A   1      33.160  33.460  27.796  1.00  0.00    -0.269 OA
BRANCH  28  31
ATOM     31  C   UNL A   1      34.735  31.720  27.879  1.00  0.00     0.039 A 
ATOM     32  C   UNL A   1      35.864  32.527  28.032  1.00  0.00     0.014 A 
ATOM     33  C   UNL A   1      34.774  30.364  28.217  1.00  0.00     0.014 A 
ATOM     34  C   UNL A   1      37.008  31.993  28.626  1.00  0.00     0.010 A 
ATOM     35  C   UNL A   1      35.886  29.856  28.874  1.00  0.00     0.010 A 
ATOM     36  C   UNL A   1      37.007  30.670  29.099  1.00  0.00    -0.014 A 
BRANCH  36  37
ATOM     37  C   UNL A   1      38.140  30.120  29.882  1.00  0.00     0.031 A 
ATOM     38  C   UNL A   1      38.377  30.583  31.292  1.00  0.00     0.074 A 
ATOM     39  C   UNL A   1      39.028  29.308  29.274  1.00  0.00     0.049 A 
ATOM     40  N   UNL A   1      39.369  30.301  32.095  1.00  0.00    -0.248 NA
ATOM     41  C   UNL A   1      37.388  31.513  31.862  1.00  0.00     0.031 C 
ATOM     42  C   UNL A   1      38.955  28.866  27.880  1.00  0.00     0.029 A 
ATOM     43  N   UNL A   1      40.187  28.739  29.740  1.00  0.00    -0.354 N 
ATOM     44  C   UNL A   1      39.147  31.046  33.246  1.00  0.00     0.074 A 
ATOM     45  C   UNL A   1      37.942  31.816  33.026  1.00  0.00     0.031 C 
ATOM     46  C   UNL A   1      40.019  28.094  27.604  1.00  0.00     0.029 A 
ATOM     47  C   UNL A   1      40.863  28.006  28.791  1.00  0.00     0.049 A 
ATOM     48  H   UNL A   1      40.504  28.844  30.666  1.00  0.00     0.167 HD
ATOM     49  C   UNL A   1      39.863  31.062  34.395  1.00  0.00     0.034 A 
ATOM     50  C   UNL A   1      42.032  27.342  28.869  1.00  0.00     0.034 A 
ATOM     51  C   UNL A   1      41.025  30.250  34.628  1.00  0.00     0.049 A 
ATOM     52  C   UNL A   1      42.774  27.325  30.179  1.00  0.00     0.074 A 
ATOM     53  C   UNL A   1      41.765  30.119  35.789  1.00  0.00     0.029 A 
ATOM     54  N   UNL A   1      41.617  29.429  33.680  1.00  0.00    -0.354 N 
ATOM     55  N   UNL A   1      42.455  27.900  31.312  1.00  0.00    -0.248 NA
ATOM     56  C   UNL A   1      44.014  26.538  30.233  1.00  0.00     0.031 C 
ATOM     57  C   UNL A   1      42.807  29.219  35.542  1.00  0.00     0.029 A 
ATOM     58  C   UNL A   1      42.712  28.786  34.229  1.00  0.00     0.049 A 
ATOM     59  H   UNL A   1      41.303  29.320  32.752  1.00  0.00     0.167 HD
ATOM     60  C   UNL A   1      43.433  27.517  32.223  1.00  0.00     0.074 A 
ATOM     61  C   UNL A   1      44.347  26.647  31.512  1.00  0.00     0.031 C 
ATOM     62  C   UNL A   1      43.571  27.868  33.525  1.00  0.00     0.034 A 
BRANCH  49  63
ATOM     63  C   UNL A   1      39.360  31.932  35.515  1.00  0.00     0.023 A 
ATOM     64  C   UNL A   1      38.435  31.399  36.437  1.00  0.00     0.012 A 
ATOM     65  C   UNL A   1      39.827  33.249  35.687  1.00  0.00     0.148 A 
ATOM     66  C   UNL A   1      37.957  32.173  37.493  1.00  0.00     0.002 A 
ATOM     67  C   UNL A   1      39.375  34.002  36.766  1.00  0.00     0.091 A 
ATOM     68  F   UNL A   1      40.685  33.749  34.787  1.00  0.00    -0.205 F 
ATOM     69  C   UNL A   1      38.433  33.469  37.662  1.00  0.00     0.022 A 
BRANCH  67  70
ATOM     70  S   UNL A   1      39.987  35.656  37.108  1.00  0.00     0.127 S 
ATOM     71  O   UNL A   1      41.418  35.414  37.279  1.00  0.00    -0.237 OA
ATOM     72  O   UNL A   1      39.635  36.379  35.885  1.00  0.00    -0.237 OA
ATOM     73  O   UNL A   1      39.276  36.105  38.297  1.00  0.00    -0.744 OA
ENDBRANCH  67  70
ENDBRANCH  49  63
BRANCH  50  74
ATOM     74  C   UNL A   1      42.522  26.562  27.698  1.00  0.00     0.023 A 
ATOM     75  C   UNL A   1      43.427  27.169  26.805  1.00  0.00     0.012 A 
ATOM     76  C   UNL A   1      42.141  25.223  27.485  1.00  0.00     0.148 A 
ATOM     77  C   UNL A   1      43.925  26.466  25.707  1.00  0.00     0.002 A 
ATOM     78  C   UNL A   1      42.678  24.513  26.416  1.00  0.00     0.091 A 
ATOM     79  F   UNL A   1      41.269  24.666  28.336  1.00  0.00    -0.205 F 
ATOM     80  C   UNL A   1      43.559  25.136  25.518  1.00  0.00     0.022 A 
BRANCH  78  81
ATOM     81  S   UNL A   1      42.361  22.761  26.171  1.00  0.00     0.127 S 
ATOM     82  O   UNL A   1      40.911  22.696  26.320  1.00  0.00    -0.237 OA
ATOM     83  O   UNL A   1      42.851  22.548  24.808  1.00  0.00    -0.237 OA
ATOM     84  O   UNL A   1      43.139  22.079  27.197  1.00  0.00    -0.744 OA
ENDBRANCH  78  81
ENDBRANCH  50  74
BRANCH  62  85
ATOM     85  C   UNL A   1      44.730  27.289  34.288  1.00  0.00     0.023 A 
ATOM     86  C   UNL A   1      45.963  27.970  34.301  1.00  0.00     0.012 A 
ATOM     87  C   UNL A   1      44.569  26.131  35.073  1.00  0.00     0.148 A 
ATOM     88  C   UNL A   1      47.024  27.496  35.069  1.00  0.00     0.002 A 
ATOM     89  C   UNL A   1      45.619  25.688  35.869  1.00  0.00     0.091 A 
ATOM     90  F   UNL A   1      43.393  25.487  35.030  1.00  0.00    -0.205 F 
ATOM     91  C   UNL A   1      46.848  26.365  35.863  1.00  0.00     0.022 A 
BRANCH  89  92
ATOM     92  S   UNL A   1      45.452  24.295  36.990  1.00  0.00     0.127 S 
ATOM     93  O   UNL A   1      46.778  24.242  37.601  1.00  0.00    -0.237 OA
ATOM     94  O   UNL A   1      44.384  24.741  37.887  1.00  0.00    -0.237 OA
ATOM     95  O   UNL A   1      45.099  23.152  36.158  1.00  0.00    -0.744 OA
ENDBRANCH  89  92
ENDBRANCH  62  85
ENDBRANCH  36  37
ENDBRANCH  28  31
ENDBRANCH  26  27
ENDBRANCH  25  26
ENDBRANCH  24  25
ENDBRANCH   1  24
TORSDOF 20
ENDMDL
MODEL 2
REMARK VINA RESULT:     -11.0      4.778      9.808
REMARK SMILES CC[C@@H](COC)NC(=O)NC[C@@H]1CC[C@H](C(=O)NCCCCNC(=O)c2ccc(-c3c4nc(c(-c5cccc(S(=O)(=O)[O-])c5F)c5ccc([nH]5)c(-c5cccc(S(=O)(=O)[O-])c5F)c5nc(c(-c6cccc(S(=O)(=O)[O-])c6F)c6ccc3[nH]6)C=C5)C=C4)cc2)O1
REMARK SMILES IDX 19 1 18 2 16 3 17 4 15 6 12 7 13 8 89 9 14 10 11 11 10 12
REMARK SMILES IDX 7 13 8 14 9 16 3 18 2 19 1 20 4 21 5 22 6 23 20 24 21 25
REMARK SMILES IDX 22 26 23 27 24 28 25 30 26 31 27 32 88 33 28 34 87 35 29 36
REMARK SMILES IDX 30 37 31 38 81 39 32 40 86 41 80 42 82 43 33 44 85 45 79 46
REMARK SMILES IDX 78 47 34 49 66 50 46 51 65 52 47 53 50 54 64 55 83 56 48 57
REMARK SMILES IDX 49 58 63 60 84 61 51 62 35 63 36 64 44 65 37 66 39 67 45 68
REMARK SMILES IDX 38 69 40 70 41 71 42 72 43 73 67 74 68 75 76 76 69 77 71 78
REMARK SMILES IDX 77 79 70 80 72 81 73 82 74 83 75 84 52 85 53 86 61 87 54 88
REMARK SMILES IDX 56 89 62 90 55 91 57 92 58 93 59 94 60 95
REMARK H PARENT 18 5 7 15 10 17 23 29 82 48 50 59
REMARK Flexibility Score: inf
ROOT
ATOM      1  C   UNL A   1      33.409  21.788  24.869  1.00  0.00     0.116 C 
ENDROOT
BRANCH   1   2
ATOM      2  N   UNL A   1      33.342  21.757  26.311  1.00  0.00    -0.354 N 
ATOM      3  C   UNL A   1      32.696  22.619  27.148  1.00  0.00     0.249 C 
ATOM      4  O   UNL A   1      32.649  22.334  28.350  1.00  0.00    -0.272 OA
ATOM      5  H   UNL A   1      33.827  21.020  26.748  1.00  0.00     0.163 HD
BRANCH   3   6
ATOM      6  C   UNL A   1      32.130  23.978  26.653  1.00  0.00     0.207 C 
ATOM      7  C   UNL A   1      31.438  25.152  24.773  1.00  0.00     0.138 C 
ATOM      8  C   UNL A   1      32.946  25.295  24.820  1.00  0.00     0.037 C 
ATOM      9  O   UNL A   1      31.146  24.021  25.612  1.00  0.00    -0.363 OA
ATOM     10  C   UNL A   1      33.263  24.920  26.248  1.00  0.00     0.045 C 
BRANCH   7  11
ATOM     11  C   UNL A   1      30.859  25.052  23.348  1.00  0.00     0.149 C 
BRANCH  11  12
ATOM     12  N   UNL A   1      31.843  25.075  22.281  1.00  0.00    -0.336 N 
ATOM     13  N   UNL A   1      32.136  27.344  21.677  1.00  0.00    -0.333 N 
ATOM     14  C   UNL A   1      32.337  26.037  21.489  1.00  0.00     0.315 C 
ATOM     15  H   UNL A   1      32.378  27.891  20.894  1.00  0.00     0.165 HD
ATOM     16  O   UNL A   1      32.994  25.672  20.512  1.00  0.00    -0.249 OA
ATOM     17  H   UNL A   1      32.233  24.189  22.098  1.00  0.00     0.165 HD
BRANCH  13  18
ATOM     18  C   UNL A   1      31.636  28.132  22.800  1.00  0.00     0.109 C 
BRANCH  18  19
ATOM     19  C   UNL A   1      32.838  28.698  23.573  1.00  0.00     0.024 C 
ATOM     20  C   UNL A   1      32.498  29.142  24.985  1.00  0.00     0.006 C 
ENDBRANCH  18  19
BRANCH  18  21
ATOM     21  C   UNL A   1      30.631  29.194  22.299  1.00  0.00     0.184 C 
BRANCH  21  22
ATOM     22  O   UNL A   1      29.370  29.140  22.967  1.00  0.00    -0.383 OA
ATOM     23  C   UNL A   1      28.265  29.577  22.191  1.00  0.00     0.194 C 
ENDBRANCH  21  22
ENDBRANCH  18  21
ENDBRANCH  13  18
ENDBRANCH  11  12
ENDBRANCH   7  11
ENDBRANCH   3   6
ENDBRANCH   1   2
BRANCH   1  24
ATOM     24  C   UNL A   1      34.828  21.967  24.334  1.00  0.00     0.023 C 
BRANCH  24  25
ATOM     25  C   UNL A   1      35.929  21.801  25.381  1.00  0.00     0.023 C 
BRANCH  25  26
ATOM     26  C   UNL A   1      37.357  21.883  24.845  1.00  0.00     0.116 C 
BRANCH  26  27
ATOM     27  N   UNL A   1      38.220  20.782  25.260  1.00  0.00    -0.352 N 
ATOM     28  C   UNL A   1      39.359  20.853  26.030  1.00  0.00     0.251 C 
ATOM     29  H   UNL A   1      37.956  19.884  24.953  1.00  0.00     0.163 HD
ATOM     30  O   UNL A   1      40.067  19.869  26.227  1.00  0.00    -0.269 OA
BRANCH  28  31
ATOM     31  C   UNL A   1      39.723  22.161  26.607  1.00  0.00     0.039 A 
ATOM     32  C   UNL A   1      40.738  22.239  27.561  1.00  0.00     0.014 A 
ATOM     33  C   UNL A   1      39.108  23.318  26.119  1.00  0.00     0.014 A 
ATOM     34  C   UNL A   1      41.211  23.494  27.952  1.00  0.00     0.010 A 
ATOM     35  C   UNL A   1      39.628  24.561  26.453  1.00  0.00     0.010 A 
ATOM     36  C   UNL A   1      40.695  24.659  27.360  1.00  0.00    -0.014 A 
BRANCH  36  37
ATOM     37  C   UNL A   1      41.283  25.995  27.624  1.00  0.00     0.031 A 
ATOM     38  C   UNL A   1      42.705  26.283  27.233  1.00  0.00     0.074 A 
ATOM     39  C   UNL A   1      40.577  26.896  28.336  1.00  0.00     0.049 A 
ATOM     40  N   UNL A   1      43.426  27.347  27.474  1.00  0.00    -0.248 NA
ATOM     41  C   UNL A   1      43.422  25.223  26.505  1.00  0.00     0.031 C 
ATOM     42  C   UNL A   1      39.222  26.693  28.853  1.00  0.00     0.029 A 
ATOM     43  N   UNL A   1      40.915  28.151  28.779  1.00  0.00    -0.354 N 
ATOM     44  C   UNL A   1      44.688  27.070  26.966  1.00  0.00     0.074 A 
ATOM     45  C   UNL A   1      44.645  25.727  26.430  1.00  0.00     0.031 C 
ATOM     46  C   UNL A   1      38.843  27.783  29.541  1.00  0.00     0.029 A 
ATOM     47  C   UNL A   1      39.935  28.751  29.535  1.00  0.00     0.049 A 
ATOM     48  H   UNL A   1      41.777  28.580  28.575  1.00  0.00     0.167 HD
ATOM     49  C   UNL A   1      45.776  27.874  26.920  1.00  0.00     0.034 A 
ATOM     50  C   UNL A   1      39.919  29.946  30.157  1.00  0.00     0.034 A 
ATOM     51  C   UNL A   1      45.795  29.228  27.401  1.00  0.00     0.049 A 
ATOM     52  C   UNL A   1      41.119  30.846  30.034  1.00  0.00     0.074 A 
ATOM     53  C   UNL A   1      46.814  30.159  27.314  1.00  0.00     0.029 A 
ATOM     54  N   UNL A   1      44.743  29.845  28.060  1.00  0.00    -0.354 N 
ATOM     55  N   UNL A   1      42.247  30.633  29.400  1.00  0.00    -0.248 NA
ATOM     56  C   UNL A   1      41.034  32.164  30.679  1.00  0.00     0.031 C 
ATOM     57  C   UNL A   1      46.378  31.340  27.923  1.00  0.00     0.029 A 
ATOM     58  C   UNL A   1      45.086  31.146  28.384  1.00  0.00     0.049 A 
ATOM     59  H   UNL A   1      43.878  29.421  28.266  1.00  0.00     0.167 HD
ATOM     60  C   UNL A   1      42.989  31.800  29.538  1.00  0.00     0.074 A 
ATOM     61  C   UNL A   1      42.176  32.723  30.302  1.00  0.00     0.031 C 
ATOM     62  C   UNL A   1      44.237  32.075  29.086  1.00  0.00     0.034 A 
BRANCH  49  63
ATOM     63  C   UNL A   1      47.014  27.332  26.257  1.00  0.00     0.023 A 
ATOM     64  C   UNL A   1      47.211  27.562  24.879  1.00  0.00     0.012 A 
ATOM     65  C   UNL A   1      47.997  26.642  26.990  1.00  0.00     0.148 A 
ATOM     66  C   UNL A   1      48.351  27.084  24.235  1.00  0.00     0.002 A 
ATOM     67  C   UNL A   1      49.150  26.202  26.349  1.00  0.00     0.091 A 
ATOM     68  F   UNL A   1      47.781  26.409  28.293  1.00  0.00    -0.205 F 
ATOM     69  C   UNL A   1      49.323  26.414  24.971  1.00  0.00     0.022 A 
BRANCH  67  70
ATOM     70  S   UNL A   1      50.492  25.394  27.229  1.00  0.00     0.127 S 
ATOM     71  O   UNL A   1      50.905  26.438  28.164  1.00  0.00    -0.237 OA
ATOM     72  O   UNL A   1      49.815  24.255  27.850  1.00  0.00    -0.237 OA
ATOM     73  O   UNL A   1      51.471  25.031  26.213  1.00  0.00    -0.744 OA
ENDBRANCH  67  70
ENDBRANCH  49  63
BRANCH  50  74
ATOM     74  C   UNL A   1      38.690  30.397  30.869  1.00  0.00     0.023 A 
ATOM     75  C   UNL A   1      38.580  30.161  32.254  1.00  0.00     0.012 A 
ATOM     76  C   UNL A   1      37.659  31.089  30.207  1.00  0.00     0.148 A 
ATOM     77  C   UNL A   1      37.455  30.584  32.962  1.00  0.00     0.002 A 
ATOM     78  C   UNL A   1      36.562  31.552  30.927  1.00  0.00     0.091 A 
ATOM     79  F   UNL A   1      37.774  31.293  28.887  1.00  0.00    -0.205 F 
ATOM     80  C   UNL A   1      36.451  31.288  32.301  1.00  0.00     0.022 A 
BRANCH  78  81
ATOM     81  S   UNL A   1      35.287  32.575  30.182  1.00  0.00     0.127 S 
ATOM     82  O   UNL A   1      34.822  31.727  29.089  1.00  0.00    -0.237 OA
ATOM     83  O   UNL A   1      34.337  32.733  31.285  1.00  0.00    -0.237 OA
ATOM     84  O   UNL A   1      35.958  33.808  29.793  1.00  0.00    -0.744 OA
ENDBRANCH  78  81
ENDBRANCH  50  74
BRANCH  62  85
ATOM     85  C   UNL A   1      44.800  33.440  29.370  1.00  0.00     0.023 A 
ATOM     86  C   UNL A   1      45.541  33.654  30.549  1.00  0.00     0.012 A 
ATOM     87  C   UNL A   1      44.683  34.479  28.425  1.00  0.00     0.148 A 
ATOM     88  C   UNL A   1      46.142  34.888  30.791  1.00  0.00     0.002 A 
ATOM     89  C   UNL A   1      45.321  35.691  28.654  1.00  0.00     0.091 A 
ATOM     90  F   UNL A   1      43.955  34.259  27.320  1.00  0.00    -0.205 F 
ATOM     91  C   UNL A   1      46.044  35.900  29.839  1.00  0.00     0.022 A 
BRANCH  89  92
ATOM     92  S   UNL A   1      45.324  37.018  27.443  1.00  0.00     0.127 S 
ATOM     93  O   UNL A   1      46.070  38.061  28.145  1.00  0.00    -0.237 OA
ATOM     94  O   UNL A   1      46.034  36.412  26.316  1.00  0.00    -0.237 OA
ATOM     95  O   UNL A   1      43.923  37.321  27.178  1.00  0.00    -0.744 OA
ENDBRANCH  89  92
ENDBRANCH  62  85
ENDBRANCH  36  37
ENDBRANCH  28  31
ENDBRANCH  26  27
ENDBRANCH  25  26
ENDBRANCH  24  25
ENDBRANCH   1  24
TORSDOF 20
ENDMDL
MODEL 3
REMARK VINA RESULT:     -10.7      5.720      8.774
REMARK SMILES CC[C@@H](COC)NC(=O)NC[C@@H]1CC[C@H](C(=O)NCCCCNC(=O)c2ccc(-c3c4nc(c(-c5cccc(S(=O)(=O)[O-])c5F)c5ccc([nH]5)c(-c5cccc(S(=O)(=O)[O-])c5F)c5nc(c(-c6cccc(S(=O)(=O)[O-])c6F)c6ccc3[nH]6)C=C5)C=C4)cc2)O1
REMARK SMILES IDX 19 1 18 2 16 3 17 4 15 6 12 7 13 8 89 9 14 10 11 11 10 12
REMARK SMILES IDX 7 13 8 14 9 16 3 18 2 19 1 20 4 21 5 22 6 23 20 24 21 25
REMARK SMILES IDX 22 26 23 27 24 28 25 30 26 31 27 32 88 33 28 34 87 35 29 36
REMARK SMILES IDX 30 37 31 38 81 39 32 40 86 41 80 42 82 43 33 44 85 45 79 46
REMARK SMILES IDX 78 47 34 49 66 50 46 51 65 52 47 53 50 54 64 55 83 56 48 57
REMARK SMILES IDX 49 58 63 60 84 61 51 62 35 63 36 64 44 65 37 66 39 67 45 68
REMARK SMILES IDX 38 69 40 70 41 71 42 72 43 73 67 74 68 75 76 76 69 77 71 78
REMARK SMILES IDX 77 79 70 80 72 81 73 82 74 83 75 84 52 85 53 86 61 87 54 88
REMARK SMILES IDX 56 89 62 90 55 91 57 92 58 93 59 94 60 95
REMARK H PARENT 18 5 7 15 10 17 23 29 82 48 50 59
REMARK Flexibility Score: inf
ROOT
ATOM      1  C   UNL A   1      35.850  20.303  25.012  1.00  0.00     0.116 C 
ENDROOT
BRANCH   1   2
ATOM      2  N   UNL A   1      34.499  20.381  25.515  1.00  0.00    -0.354 N 
ATOM      3  C   UNL A   1      33.403  20.932  24.918  1.00  0.00     0.249 C 
ATOM      4  O   UNL A   1      32.305  20.772  25.462  1.00  0.00    -0.272 OA
ATOM      5  H   UNL A   1      34.349  19.987  26.405  1.00  0.00     0.163 HD
BRANCH   3   6
ATOM      6  C   UNL A   1      33.519  21.836  23.660  1.00  0.00     0.207 C 
ATOM      7  C   UNL A   1      33.336  24.019  22.892  1.00  0.00     0.138 C 
ATOM      8  C   UNL A   1      31.926  23.464  22.905  1.00  0.00     0.037 C 
ATOM      9  O   UNL A   1      34.086  23.149  23.756  1.00  0.00    -0.363 OA
ATOM     10  C   UNL A   1      32.165  21.975  22.966  1.00  0.00     0.045 C 
BRANCH   7  11
ATOM     11  C   UNL A   1      33.427  25.513  23.260  1.00  0.00     0.149 C 
BRANCH  11  12
ATOM     12  N   UNL A   1      32.560  26.390  22.495  1.00  0.00    -0.336 N 
ATOM     13  N   UNL A   1      30.805  27.040  23.943  1.00  0.00    -0.333 N 
ATOM     14  C   UNL A   1      31.382  26.982  22.740  1.00  0.00     0.315 C 
ATOM     15  H   UNL A   1      29.857  27.309  23.907  1.00  0.00     0.165 HD
ATOM     16  O   UNL A   1      30.795  27.476  21.776  1.00  0.00    -0.249 OA
ATOM     17  H   UNL A   1      32.913  26.595  21.599  1.00  0.00     0.165 HD
BRANCH  13  18
ATOM     18  C   UNL A   1      31.283  26.788  25.300  1.00  0.00     0.109 C 
BRANCH  18  19
ATOM     19  C   UNL A   1      31.594  28.139  25.966  1.00  0.00     0.024 C 
ATOM     20  C   UNL A   1      31.521  28.099  27.482  1.00  0.00     0.006 C 
ENDBRANCH  18  19
BRANCH  18  21
ATOM     21  C   UNL A   1      30.270  25.907  26.067  1.00  0.00     0.184 C 
BRANCH  21  22
ATOM     22  O   UNL A   1      30.887  24.993  26.973  1.00  0.00    -0.383 OA
ATOM     23  C   UNL A   1      32.009  24.300  26.450  1.00  0.00     0.194 C 
ENDBRANCH  21  22
ENDBRANCH  18  21
ENDBRANCH  13  18
ENDBRANCH  11  12
ENDBRANCH   7  11
ENDBRANCH   3   6
ENDBRANCH   1   2
BRANCH   1  24
ATOM     24  C   UNL A   1      36.763  21.399  25.556  1.00  0.00     0.023 C 
BRANCH  24  25
ATOM     25  C   UNL A   1      38.203  21.340  25.045  1.00  0.00     0.023 C 
BRANCH  25  26
ATOM     26  C   UNL A   1      39.270  21.152  26.122  1.00  0.00     0.116 C 
BRANCH  26  27
ATOM     27  N   UNL A   1      39.998  19.891  26.033  1.00  0.00    -0.352 N 
ATOM     28  C   UNL A   1      41.361  19.703  26.080  1.00  0.00     0.251 C 
ATOM     29  H   UNL A   1      39.450  19.079  25.926  1.00  0.00     0.163 HD
ATOM     30  O   UNL A   1      41.868  18.602  25.887  1.00  0.00    -0.269 OA
BRANCH  28  31
ATOM     31  C   UNL A   1      42.211  20.877  26.357  1.00  0.00     0.039 A 
ATOM     32  C   UNL A   1      42.649  21.680  25.302  1.00  0.00     0.014 A 
ATOM     33  C   UNL A   1      42.487  21.224  27.683  1.00  0.00     0.014 A 
ATOM     34  C   UNL A   1      43.280  22.893  25.586  1.00  0.00     0.010 A 
ATOM     35  C   UNL A   1      43.047  22.463  27.963  1.00  0.00     0.010 A 
ATOM     36  C   UNL A   1      43.433  23.315  26.917  1.00  0.00    -0.014 A 
BRANCH  36  37
ATOM     37  C   UNL A   1      43.945  24.667  27.254  1.00  0.00     0.031 A 
ATOM     38  C   UNL A   1      43.011  25.712  27.794  1.00  0.00     0.074 A 
ATOM     39  C   UNL A   1      45.217  24.984  26.944  1.00  0.00     0.049 A 
ATOM     40  N   UNL A   1      43.245  26.974  28.045  1.00  0.00    -0.248 NA
ATOM     41  C   UNL A   1      41.623  25.295  28.053  1.00  0.00     0.031 C 
ATOM     42  C   UNL A   1      46.190  24.080  26.327  1.00  0.00     0.029 A 
ATOM     43  N   UNL A   1      45.902  26.168  27.072  1.00  0.00    -0.354 N 
ATOM     44  C   UNL A   1      42.030  27.509  28.452  1.00  0.00     0.074 A 
ATOM     45  C   UNL A   1      41.054  26.444  28.386  1.00  0.00     0.031 C 
ATOM     46  C   UNL A   1      47.345  24.739  26.132  1.00  0.00     0.029 A 
ATOM     47  C   UNL A   1      47.188  26.117  26.585  1.00  0.00     0.049 A 
ATOM     48  H   UNL A   1      45.509  26.976  27.474  1.00  0.00     0.167 HD
ATOM     49  C   UNL A   1      41.759  28.767  28.875  1.00  0.00     0.034 A 
ATOM     50  C   UNL A   1      48.133  27.075  26.511  1.00  0.00     0.034 A 
ATOM     51  C   UNL A   1      42.746  29.804  28.994  1.00  0.00     0.049 A 
ATOM     52  C   UNL A   1      47.823  28.446  27.048  1.00  0.00     0.074 A 
ATOM     53  C   UNL A   1      42.595  31.081  29.504  1.00  0.00     0.029 A 
ATOM     54  N   UNL A   1      44.070  29.682  28.600  1.00  0.00    -0.354 N 
ATOM     55  N   UNL A   1      46.714  28.887  27.589  1.00  0.00    -0.248 NA
ATOM     56  C   UNL A   1      48.904  29.441  26.999  1.00  0.00     0.031 C 
ATOM     57  C   UNL A   1      43.830  31.733  29.415  1.00  0.00     0.029 A 
ATOM     58  C   UNL A   1      44.750  30.860  28.856  1.00  0.00     0.049 A 
ATOM     59  H   UNL A   1      44.468  28.875  28.198  1.00  0.00     0.167 HD
ATOM     60  C   UNL A   1      46.973  30.196  27.978  1.00  0.00     0.074 A 
ATOM     61  C   UNL A   1      48.350  30.471  27.625  1.00  0.00     0.031 C 
ATOM     62  C   UNL A   1      46.140  31.093  28.561  1.00  0.00     0.034 A 
BRANCH  49  63
ATOM     63  C   UNL A   1      40.350  29.064  29.313  1.00  0.00     0.023 A 
ATOM     64  C   UNL A   1      39.409  29.494  28.353  1.00  0.00     0.012 A 
ATOM     65  C   UNL A   1      39.942  28.879  30.647  1.00  0.00     0.148 A 
ATOM     66  C   UNL A   1      38.093  29.768  28.721  1.00  0.00     0.002 A 
ATOM     67  C   UNL A   1      38.617  29.117  30.999  1.00  0.00     0.091 A 
ATOM     68  F   UNL A   1      40.855  28.496  31.550  1.00  0.00    -0.205 F 
ATOM     69  C   UNL A   1      37.696  29.571  30.040  1.00  0.00     0.022 A 
BRANCH  67  70
ATOM     70  S   UNL A   1      37.994  28.821  32.658  1.00  0.00     0.127 S 
ATOM     71  O   UNL A   1      36.625  29.322  32.555  1.00  0.00    -0.237 OA
ATOM     72  O   UNL A   1      38.101  27.366  32.776  1.00  0.00    -0.237 OA
ATOM     73  O   UNL A   1      38.873  29.563  33.550  1.00  0.00    -0.744 OA
ENDBRANCH  67  70
ENDBRANCH  49  63
BRANCH  50  74
ATOM     74  C   UNL A   1      49.489  26.740  25.991  1.00  0.00     0.023 A 
ATOM     75  C   UNL A   1      50.351  25.962  26.789  1.00  0.00     0.012 A 
ATOM     76  C   UNL A   1      49.914  27.141  24.710  1.00  0.00     0.148 A 
ATOM     77  C   UNL A   1      51.621  25.610  26.331  1.00  0.00     0.002 A 
ATOM     78  C   UNL A   1      51.163  26.746  24.240  1.00  0.00     0.091 A 
ATOM     79  F   UNL A   1      49.086  27.892  23.971  1.00  0.00    -0.205 F 
ATOM     80  C   UNL A   1      52.023  25.993  25.054  1.00  0.00     0.022 A 
BRANCH  78  81
ATOM     81  S   UNL A   1      51.708  27.086  22.563  1.00  0.00     0.127 S 
ATOM     82  O   UNL A   1      52.034  28.507  22.636  1.00  0.00    -0.237 OA
ATOM     83  O   UNL A   1      52.863  26.196  22.429  1.00  0.00    -0.237 OA
ATOM     84  O   UNL A   1      50.582  26.732  21.709  1.00  0.00    -0.744 OA
ENDBRANCH  78  81
ENDBRANCH  50  74
BRANCH  62  85
ATOM     85  C   UNL A   1      46.694  32.452  28.889  1.00  0.00     0.023 A 
ATOM     86  C   UNL A   1      47.311  32.667  30.137  1.00  0.00     0.012 A 
ATOM     87  C   UNL A   1      46.696  33.481  27.927  1.00  0.00     0.148 A 
ATOM     88  C   UNL A   1      47.906  33.893  30.429  1.00  0.00     0.002 A 
ATOM     89  C   UNL A   1      47.328  34.686  28.210  1.00  0.00     0.091 A 
ATOM     90  F   UNL A   1      46.085  33.261  26.754  1.00  0.00    -0.205 F 
ATOM     91  C   UNL A   1      47.926  34.896  29.463  1.00  0.00     0.022 A 
BRANCH  89  92
ATOM     92  S   UNL A   1      47.482  35.998  26.993  1.00  0.00     0.127 S 
ATOM     93  O   UNL A   1      46.091  36.195  26.589  1.00  0.00    -0.237 OA
ATOM     94  O   UNL A   1      48.048  37.092  27.783  1.00  0.00    -0.237 OA
ATOM     95  O   UNL A   1      48.369  35.483  25.958  1.00  0.00    -0.744 OA
ENDBRANCH  89  92
ENDBRANCH  62  85
ENDBRANCH  36  37
ENDBRANCH  28  31
ENDBRANCH  26  27
ENDBRANCH  25  26
ENDBRANCH  24  25
ENDBRANCH   1  24
TORSDOF 20
ENDMDL
