MODEL 1
REMARK VINA RESULT:     -12.0      0.000      0.000
REMARK SMILES CCc1sc(C(=O)Nc2ccc(C(=O)NCCCCNC(=O)c3ccc(-c4c5nc(c(-c6cccc(S(=O)(=O)[O-])c6F)c6ccc([nH]6)c(-c6cccc(S(=O)(=O)[O-])c6F)c6nc(c(-c7cccc(S(=O)(=O)[O-])c7F)c7ccc4[nH]7)C=C6)C=C5)cc3)c(O)c2)cc1C
REMARK SMILES IDX 17 1 16 2 15 3 13 4 14 5 12 7 9 8 10 9 88 10 11 11 86 12
REMARK SMILES IDX 8 13 6 14 7 15 5 17 3 18 4 19 90 20 89 21 91 22 2 23 1 24
REMARK SMILES IDX 87 25 18 27 19 28 20 29 21 30 22 32 23 33 24 34 85 35 25 36
REMARK SMILES IDX 84 37 26 38 27 39 28 40 78 41 29 42 83 43 77 44 79 45 30 46
REMARK SMILES IDX 82 47 76 48 75 49 31 51 63 52 43 53 62 54 44 55 47 56 61 57
REMARK SMILES IDX 80 58 45 59 46 60 60 62 81 63 48 64 32 65 33 66 41 67 34 68
REMARK SMILES IDX 36 69 42 70 35 71 37 72 38 73 39 74 40 75 64 76 65 77 73 78
REMARK SMILES IDX 66 79 68 80 74 81 67 82 69 83 70 84 71 85 72 86 49 87 50 88
REMARK SMILES IDX 58 89 51 90 53 91 59 92 52 93 54 94 55 95 56 96 57 97
REMARK H PARENT 15 6 8 16 87 26 20 31 79 50 47 61
REMARK Flexibility Score: inf
ROOT
ATOM      1  C   UNL A   1      36.295  21.073  24.643  1.00  0.00     0.023 C 
ENDROOT
BRANCH   1   2
ATOM      2  C   UNL A   1      35.222  21.123  25.728  1.00  0.00     0.116 C 
BRANCH   2   3
ATOM      3  N   UNL A   1      34.185  20.107  25.619  1.00  0.00    -0.352 N 
ATOM      4  C   UNL A   1      32.863  20.217  25.250  1.00  0.00     0.255 C 
ATOM      5  O   UNL A   1      32.163  19.207  25.224  1.00  0.00    -0.269 OA
ATOM      6  H   UNL A   1      34.476  19.195  25.847  1.00  0.00     0.163 HD
BRANCH   4   7
ATOM      7  C   UNL A   1      32.237  21.529  24.949  1.00  0.00     0.081 A 
ATOM      8  C   UNL A   1      30.699  23.730  24.127  1.00  0.00     0.045 A 
ATOM      9  C   UNL A   1      31.488  23.047  23.204  1.00  0.00     0.027 A 
ATOM     10  C   UNL A   1      30.871  23.456  25.486  1.00  0.00     0.073 A 
ATOM     11  C   UNL A   1      32.218  21.924  23.606  1.00  0.00     0.020 A 
ATOM     12  C   UNL A   1      31.665  22.381  25.893  1.00  0.00     0.130 A 
BRANCH   8  13
ATOM     13  N   UNL A   1      29.743  24.697  23.778  1.00  0.00    -0.321 N 
ATOM     14  C   UNL A   1      29.638  26.058  24.005  1.00  0.00     0.265 C 
ATOM     15  O   UNL A   1      28.526  26.544  23.766  1.00  0.00    -0.268 OA
ATOM     16  H   UNL A   1      28.989  24.329  23.262  1.00  0.00     0.170 HD
BRANCH  14  17
ATOM     17  C   UNL A   1      30.742  26.909  24.443  1.00  0.00     0.093 A 
ATOM     18  C   UNL A   1      32.821  28.231  24.656  1.00  0.00     0.008 A 
ATOM     19  S   UNL A   1      31.710  27.862  23.405  1.00  0.00    -0.135 S 
ATOM     20  C   UNL A   1      32.238  28.025  25.896  1.00  0.00    -0.036 A 
ATOM     21  C   UNL A   1      31.045  27.234  25.756  1.00  0.00     0.029 A 
ATOM     22  C   UNL A   1      32.767  28.476  27.217  1.00  0.00     0.045 C 
BRANCH  18  23
ATOM     23  C   UNL A   1      34.198  28.720  24.306  1.00  0.00     0.043 C 
ATOM     24  C   UNL A   1      34.445  28.838  22.814  1.00  0.00     0.010 C 
ENDBRANCH  18  23
ENDBRANCH  14  17
ENDBRANCH   8  13
BRANCH  12  25
ATOM     25  O   UNL A   1      31.840  22.246  27.243  1.00  0.00    -0.507 OA
ATOM     26  H   UNL A   1      31.286  22.712  27.836  1.00  0.00     0.293 HD
ENDBRANCH  12  25
ENDBRANCH   4   7
ENDBRANCH   2   3
ENDBRANCH   1   2
BRANCH   1  27
ATOM     27  C   UNL A   1      37.538  20.235  24.942  1.00  0.00     0.023 C 
BRANCH  27  28
ATOM     28  C   UNL A   1      38.784  20.992  25.390  1.00  0.00     0.116 C 
BRANCH  28  29
ATOM     29  N   UNL A   1      39.731  20.178  26.141  1.00  0.00    -0.352 N 
ATOM     30  C   UNL A   1      40.721  20.559  27.017  1.00  0.00     0.251 C 
ATOM     31  H   UNL A   1      39.650  19.207  26.000  1.00  0.00     0.163 HD
ATOM     32  O   UNL A   1      41.476  19.712  27.490  1.00  0.00    -0.269 OA
BRANCH  30  33
ATOM     33  C   UNL A   1      40.909  21.986  27.362  1.00  0.00     0.039 A 
ATOM     34  C   UNL A   1      41.785  22.324  28.397  1.00  0.00     0.014 A 
ATOM     35  C   UNL A   1      40.248  22.992  26.653  1.00  0.00     0.014 A 
ATOM     36  C   UNL A   1      42.075  23.668  28.654  1.00  0.00     0.010 A 
ATOM     37  C   UNL A   1      40.604  24.323  26.850  1.00  0.00     0.010 A 
ATOM     38  C   UNL A   1      41.526  24.678  27.847  1.00  0.00    -0.014 A 
BRANCH  38  39
ATOM     39  C   UNL A   1      41.906  26.108  28.006  1.00  0.00     0.031 A 
ATOM     40  C   UNL A   1      43.280  26.571  27.597  1.00  0.00     0.074 A 
ATOM     41  C   UNL A   1      41.068  26.962  28.627  1.00  0.00     0.049 A 
ATOM     42  N   UNL A   1      43.847  27.735  27.776  1.00  0.00    -0.248 NA
ATOM     43  C   UNL A   1      44.142  25.582  26.927  1.00  0.00     0.031 C 
ATOM     44  C   UNL A   1      39.738  26.624  29.139  1.00  0.00     0.029 A 
ATOM     45  N   UNL A   1      41.224  28.285  28.965  1.00  0.00    -0.354 N 
ATOM     46  C   UNL A   1      45.142  27.607  27.289  1.00  0.00     0.074 A 
ATOM     47  C   UNL A   1      45.287  26.241  26.835  1.00  0.00     0.031 C 
ATOM     48  C   UNL A   1      39.200  27.707  29.723  1.00  0.00     0.029 A 
ATOM     49  C   UNL A   1      40.157  28.808  29.660  1.00  0.00     0.049 A 
ATOM     50  H   UNL A   1      42.024  28.809  28.733  1.00  0.00     0.167 HD
ATOM     51  C   UNL A   1      46.114  28.546  27.197  1.00  0.00     0.034 A 
ATOM     52  C   UNL A   1      39.972  30.032  30.195  1.00  0.00     0.034 A 
ATOM     53  C   UNL A   1      45.948  29.917  27.593  1.00  0.00     0.049 A 
ATOM     54  C   UNL A   1      41.051  31.071  30.037  1.00  0.00     0.074 A 
ATOM     55  C   UNL A   1      46.842  30.966  27.459  1.00  0.00     0.029 A 
ATOM     56  N   UNL A   1      44.813  30.434  28.197  1.00  0.00    -0.354 N 
ATOM     57  N   UNL A   1      42.214  30.969  29.442  1.00  0.00    -0.248 NA
ATOM     58  C   UNL A   1      40.778  32.405  30.593  1.00  0.00     0.031 C 
ATOM     59  C   UNL A   1      46.252  32.114  27.995  1.00  0.00     0.029 A 
ATOM     60  C   UNL A   1      44.982  31.785  28.443  1.00  0.00     0.049 A 
ATOM     61  H   UNL A   1      44.005  29.916  28.419  1.00  0.00     0.167 HD
ATOM     62  C   UNL A   1      42.792  32.230  29.513  1.00  0.00     0.074 A 
ATOM     63  C   UNL A   1      41.845  33.086  30.198  1.00  0.00     0.031 C 
ATOM     64  C   UNL A   1      44.003  32.641  29.064  1.00  0.00     0.034 A 
BRANCH  51  65
ATOM     65  C   UNL A   1      47.428  28.132  26.585  1.00  0.00     0.023 A 
ATOM     66  C   UNL A   1      48.529  27.864  27.425  1.00  0.00     0.012 A 
ATOM     67  C   UNL A   1      47.562  27.961  25.194  1.00  0.00     0.148 A 
ATOM     68  C   UNL A   1      49.754  27.472  26.888  1.00  0.00     0.002 A 
ATOM     69  C   UNL A   1      48.775  27.525  24.670  1.00  0.00     0.091 A 
ATOM     70  F   UNL A   1      46.513  28.240  24.408  1.00  0.00    -0.205 F 
ATOM     71  C   UNL A   1      49.875  27.294  25.513  1.00  0.00     0.022 A 
BRANCH  69  72
ATOM     72  S   UNL A   1      49.007  27.189  22.920  1.00  0.00     0.127 S 
ATOM     73  O   UNL A   1      50.459  27.044  22.837  1.00  0.00    -0.237 OA
ATOM     74  O   UNL A   1      48.260  25.943  22.744  1.00  0.00    -0.237 OA
ATOM     75  O   UNL A   1      48.449  28.334  22.215  1.00  0.00    -0.744 OA
ENDBRANCH  69  72
ENDBRANCH  51  65
BRANCH  52  76
ATOM     76  C   UNL A   1      38.683  30.368  30.864  1.00  0.00     0.023 A 
ATOM     77  C   UNL A   1      38.495  30.005  32.213  1.00  0.00     0.012 A 
ATOM     78  C   UNL A   1      37.658  31.060  30.191  1.00  0.00     0.148 A 
ATOM     79  C   UNL A   1      37.300  30.295  32.870  1.00  0.00     0.002 A 
ATOM     80  C   UNL A   1      36.488  31.393  30.869  1.00  0.00     0.091 A 
ATOM     81  F   UNL A   1      37.848  31.388  28.906  1.00  0.00    -0.205 F 
ATOM     82  C   UNL A   1      36.301  30.997  32.202  1.00  0.00     0.022 A 
BRANCH  80  83
ATOM     83  S   UNL A   1      35.201  32.405  30.129  1.00  0.00     0.127 S 
ATOM     84  O   UNL A   1      34.283  32.588  31.249  1.00  0.00    -0.237 OA
ATOM     85  O   UNL A   1      35.945  33.604  29.740  1.00  0.00    -0.237 OA
ATOM     86  O   UNL A   1      34.689  31.629  29.008  1.00  0.00    -0.744 OA
ENDBRANCH  80  83
ENDBRANCH  52  76
BRANCH  64  87
ATOM     87  C   UNL A   1      44.367  34.091  29.244  1.00  0.00     0.023 A 
ATOM     88  C   UNL A   1      44.043  35.026  28.242  1.00  0.00     0.012 A 
ATOM     89  C   UNL A   1      44.945  34.538  30.449  1.00  0.00     0.148 A 
ATOM     90  C   UNL A   1      44.312  36.382  28.426  1.00  0.00     0.002 A 
ATOM     91  C   UNL A   1      45.167  35.896  30.644  1.00  0.00     0.091 A 
ATOM     92  F   UNL A   1      45.263  33.630  31.382  1.00  0.00    -0.205 F 
ATOM     93  C   UNL A   1      44.860  36.818  29.629  1.00  0.00     0.022 A 
BRANCH  91  94
ATOM     94  S   UNL A   1      45.777  36.559  32.198  1.00  0.00     0.127 S 
ATOM     95  O   UNL A   1      47.125  35.997  32.252  1.00  0.00    -0.237 OA
ATOM     96  O   UNL A   1      45.726  38.001  31.964  1.00  0.00    -0.237 OA
ATOM     97  O   UNL A   1      44.860  36.081  33.225  1.00  0.00    -0.744 OA
ENDBRANCH  91  94
ENDBRANCH  64  87
ENDBRANCH  38  39
ENDBRANCH  30  33
ENDBRANCH  28  29
ENDBRANCH  27  28
ENDBRANCH   1  27
TORSDOF 18
ENDMDL
MODEL 2
REMARK VINA RESULT:     -12.0      5.636      8.885
REMARK SMILES CCc1sc(C(=O)Nc2ccc(C(=O)NCCCCNC(=O)c3ccc(-c4c5nc(c(-c6cccc(S(=O)(=O)[O-])c6F)c6ccc([nH]6)c(-c6cccc(S(=O)(=O)[O-])c6F)c6nc(c(-c7cccc(S(=O)(=O)[O-])c7F)c7ccc4[nH]7)C=C6)C=C5)cc3)c(O)c2)cc1C
REMARK SMILES IDX 17 1 16 2 15 3 13 4 14 5 12 7 9 8 10 9 88 10 11 11 86 12
REMARK SMILES IDX 8 13 6 14 7 15 5 17 3 18 4 19 90 20 89 21 91 22 2 23 1 24
REMARK SMILES IDX 87 25 18 27 19 28 20 29 21 30 22 32 23 33 24 34 85 35 25 36
REMARK SMILES IDX 84 37 26 38 27 39 28 40 78 41 29 42 83 43 77 44 79 45 30 46
REMARK SMILES IDX 82 47 76 48 75 49 31 51 63 52 43 53 62 54 44 55 47 56 61 57
REMARK SMILES IDX 80 58 45 59 46 60 60 62 81 63 48 64 32 65 33 66 41 67 34 68
REMARK SMILES IDX 36 69 42 70 35 71 37 72 38 73 39 74 40 75 64 76 65 77 73 78
REMARK SMILES IDX 66 79 68 80 74 81 67 82 69 83 70 84 71 85 72 86 49 87 50 88
REMARK SMILES IDX 58 89 51 90 53 91 59 92 52 93 54 94 55 95 56 96 57 97
REMARK H PARENT 15 6 8 16 87 26 20 31 79 50 47 61
REMARK Flexibility Score: inf
ROOT
ATOM      1  C   UNL A   1      34.785  30.542  27.606  1.00  0.00     0.023 C 
ENDROOT
BRANCH   1   2
ATOM      2  C   UNL A   1      34.247  29.153  27.269  1.00  0.00     0.116 C 
BRANCH   2   3
ATOM      3  N   UNL A   1      33.008  28.791  27.941  1.00  0.00    -0.352 N 
ATOM      4  C   UNL A   1      31.862  28.208  27.448  1.00  0.00     0.255 C 
ATOM      5  O   UNL A   1      30.925  27.987  28.213  1.00  0.00    -0.269 OA
ATOM      6  H   UNL A   1      32.985  28.997  28.904  1.00  0.00     0.163 HD
BRANCH   4   7
ATOM      7  C   UNL A   1      31.693  27.904  26.004  1.00  0.00     0.081 A 
ATOM      8  C   UNL A   1      31.887  27.261  23.277  1.00  0.00     0.045 A 
ATOM      9  C   UNL A   1      32.332  28.499  23.735  1.00  0.00     0.027 A 
ATOM     10  C   UNL A   1      31.137  26.459  24.142  1.00  0.00     0.073 A 
ATOM     11  C   UNL A   1      32.276  28.800  25.100  1.00  0.00     0.020 A 
ATOM     12  C   UNL A   1      31.013  26.800  25.491  1.00  0.00     0.130 A 
BRANCH   8  13
ATOM     13  N   UNL A   1      32.132  26.769  21.986  1.00  0.00    -0.321 N 
ATOM     14  C   UNL A   1      32.873  25.706  21.497  1.00  0.00     0.265 C 
ATOM     15  O   UNL A   1      33.068  25.724  20.276  1.00  0.00    -0.268 OA
ATOM     16  H   UNL A   1      31.683  27.287  21.280  1.00  0.00     0.170 HD
BRANCH  14  17
ATOM     17  C   UNL A   1      33.362  24.598  22.312  1.00  0.00     0.093 A 
ATOM     18  C   UNL A   1      33.669  22.496  23.580  1.00  0.00     0.008 A 
ATOM     19  S   UNL A   1      32.881  22.968  22.133  1.00  0.00    -0.135 S 
ATOM     20  C   UNL A   1      34.632  23.429  23.931  1.00  0.00    -0.036 A 
ATOM     21  C   UNL A   1      34.423  24.652  23.203  1.00  0.00     0.029 A 
ATOM     22  C   UNL A   1      35.704  23.262  24.956  1.00  0.00     0.045 C 
BRANCH  18  23
ATOM     23  C   UNL A   1      33.278  21.211  24.253  1.00  0.00     0.043 C 
ATOM     24  C   UNL A   1      32.663  21.402  25.626  1.00  0.00     0.010 C 
ENDBRANCH  18  23
ENDBRANCH  14  17
ENDBRANCH   8  13
BRANCH  12  25
ATOM     25  O   UNL A   1      30.192  26.000  26.235  1.00  0.00    -0.507 OA
ATOM     26  H   UNL A   1      29.888  25.186  25.886  1.00  0.00     0.293 HD
ENDBRANCH  12  25
ENDBRANCH   4   7
ENDBRANCH   2   3
ENDBRANCH   1   2
BRANCH   1  27
ATOM     27  C   UNL A   1      33.757  31.600  28.007  1.00  0.00     0.023 C 
BRANCH  27  28
ATOM     28  C   UNL A   1      33.433  32.668  26.969  1.00  0.00     0.116 C 
BRANCH  28  29
ATOM     29  N   UNL A   1      32.822  33.867  27.526  1.00  0.00    -0.352 N 
ATOM     30  C   UNL A   1      33.159  34.591  28.647  1.00  0.00     0.251 C 
ATOM     31  H   UNL A   1      32.049  34.213  27.024  1.00  0.00     0.163 HD
ATOM     32  O   UNL A   1      32.458  35.538  28.996  1.00  0.00    -0.269 OA
BRANCH  30  33
ATOM     33  C   UNL A   1      34.339  34.211  29.457  1.00  0.00     0.039 A 
ATOM     34  C   UNL A   1      34.143  33.525  30.659  1.00  0.00     0.014 A 
ATOM     35  C   UNL A   1      35.634  34.502  29.025  1.00  0.00     0.014 A 
ATOM     36  C   UNL A   1      35.244  33.045  31.375  1.00  0.00     0.010 A 
ATOM     37  C   UNL A   1      36.724  33.947  29.690  1.00  0.00     0.010 A 
ATOM     38  C   UNL A   1      36.544  33.207  30.869  1.00  0.00    -0.014 A 
BRANCH  38  39
ATOM     39  C   UNL A   1      37.729  32.602  31.533  1.00  0.00     0.031 A 
ATOM     40  C   UNL A   1      38.449  31.449  30.885  1.00  0.00     0.074 A 
ATOM     41  C   UNL A   1      38.085  33.005  32.770  1.00  0.00     0.049 A 
ATOM     42  N   UNL A   1      39.411  30.702  31.360  1.00  0.00    -0.248 NA
ATOM     43  C   UNL A   1      38.003  31.062  29.535  1.00  0.00     0.031 C 
ATOM     44  C   UNL A   1      37.426  34.061  33.540  1.00  0.00     0.029 A 
ATOM     45  N   UNL A   1      39.071  32.549  33.612  1.00  0.00    -0.354 N 
ATOM     46  C   UNL A   1      39.653  29.732  30.396  1.00  0.00     0.074 A 
ATOM     47  C   UNL A   1      38.713  29.965  29.320  1.00  0.00     0.031 C 
ATOM     48  C   UNL A   1      38.024  34.174  34.738  1.00  0.00     0.029 A 
ATOM     49  C   UNL A   1      39.087  33.177  34.837  1.00  0.00     0.049 A 
ATOM     50  H   UNL A   1      39.707  31.840  33.363  1.00  0.00     0.167 HD
ATOM     51  C   UNL A   1      40.590  28.754  30.387  1.00  0.00     0.034 A 
ATOM     52  C   UNL A   1      39.860  32.967  35.922  1.00  0.00     0.034 A 
ATOM     53  C   UNL A   1      41.562  28.562  31.428  1.00  0.00     0.049 A 
ATOM     54  C   UNL A   1      40.925  31.905  35.868  1.00  0.00     0.074 A 
ATOM     55  C   UNL A   1      42.608  27.656  31.472  1.00  0.00     0.029 A 
ATOM     56  N   UNL A   1      41.610  29.288  32.608  1.00  0.00    -0.354 N 
ATOM     57  N   UNL A   1      41.232  31.093  34.885  1.00  0.00    -0.248 NA
ATOM     58  C   UNL A   1      41.775  31.753  37.058  1.00  0.00     0.031 C 
ATOM     59  C   UNL A   1      43.281  27.827  32.686  1.00  0.00     0.029 A 
ATOM     60  C   UNL A   1      42.668  28.852  33.388  1.00  0.00     0.049 A 
ATOM     61  H   UNL A   1      40.985  30.007  32.855  1.00  0.00     0.167 HD
ATOM     62  C   UNL A   1      42.334  30.366  35.320  1.00  0.00     0.074 A 
ATOM     63  C   UNL A   1      42.650  30.842  36.651  1.00  0.00     0.031 C 
ATOM     64  C   UNL A   1      43.014  29.383  34.681  1.00  0.00     0.034 A 
BRANCH  51  65
ATOM     65  C   UNL A   1      40.649  27.854  29.179  1.00  0.00     0.023 A 
ATOM     66  C   UNL A   1      39.775  26.751  29.094  1.00  0.00     0.012 A 
ATOM     67  C   UNL A   1      41.528  28.124  28.112  1.00  0.00     0.148 A 
ATOM     68  C   UNL A   1      39.802  25.907  27.986  1.00  0.00     0.002 A 
ATOM     69  C   UNL A   1      41.516  27.302  26.989  1.00  0.00     0.091 A 
ATOM     70  F   UNL A   1      42.367  29.164  28.217  1.00  0.00    -0.205 F 
ATOM     71  C   UNL A   1      40.664  26.187  26.930  1.00  0.00     0.022 A 
BRANCH  69  72
ATOM     72  S   UNL A   1      42.532  27.627  25.543  1.00  0.00     0.127 S 
ATOM     73  O   UNL A   1      43.872  27.657  26.125  1.00  0.00    -0.237 OA
ATOM     74  O   UNL A   1      42.258  26.459  24.705  1.00  0.00    -0.237 OA
ATOM     75  O   UNL A   1      42.057  28.889  24.995  1.00  0.00    -0.744 OA
ENDBRANCH  69  72
ENDBRANCH  51  65
BRANCH  52  76
ATOM     76  C   UNL A   1      39.707  33.833  37.126  1.00  0.00     0.023 A 
ATOM     77  C   UNL A   1      40.212  35.149  37.092  1.00  0.00     0.012 A 
ATOM     78  C   UNL A   1      39.052  33.380  38.287  1.00  0.00     0.148 A 
ATOM     79  C   UNL A   1      40.095  35.986  38.202  1.00  0.00     0.002 A 
ATOM     80  C   UNL A   1      38.893  34.238  39.371  1.00  0.00     0.091 A 
ATOM     81  F   UNL A   1      38.589  32.122  38.306  1.00  0.00    -0.205 F 
ATOM     82  C   UNL A   1      39.429  35.534  39.336  1.00  0.00     0.022 A 
BRANCH  80  83
ATOM     83  S   UNL A   1      37.938  33.786  40.824  1.00  0.00     0.127 S 
ATOM     84  O   UNL A   1      37.852  35.060  41.533  1.00  0.00    -0.237 OA
ATOM     85  O   UNL A   1      36.683  33.325  40.231  1.00  0.00    -0.237 OA
ATOM     86  O   UNL A   1      38.706  32.742  41.488  1.00  0.00    -0.744 OA
ENDBRANCH  80  83
ENDBRANCH  52  76
BRANCH  64  87
ATOM     87  C   UNL A   1      44.205  28.782  35.379  1.00  0.00     0.023 A 
ATOM     88  C   UNL A   1      45.488  29.325  35.172  1.00  0.00     0.012 A 
ATOM     89  C   UNL A   1      44.036  27.740  36.313  1.00  0.00     0.148 A 
ATOM     90  C   UNL A   1      46.589  28.823  35.864  1.00  0.00     0.002 A 
ATOM     91  C   UNL A   1      45.130  27.276  37.033  1.00  0.00     0.091 A 
ATOM     92  F   UNL A   1      42.810  27.224  36.481  1.00  0.00    -0.205 F 
ATOM     93  C   UNL A   1      46.409  27.810  36.803  1.00  0.00     0.022 A 
BRANCH  91  94
ATOM     94  S   UNL A   1      44.976  26.045  38.332  1.00  0.00     0.127 S 
ATOM     95  O   UNL A   1      44.047  26.697  39.251  1.00  0.00    -0.237 OA
ATOM     96  O   UNL A   1      44.419  24.900  37.611  1.00  0.00    -0.237 OA
ATOM     97  O   UNL A   1      46.322  25.835  38.848  1.00  0.00    -0.744 OA
ENDBRANCH  91  94
ENDBRANCH  64  87
ENDBRANCH  38  39
ENDBRANCH  30  33
ENDBRANCH  28  29
ENDBRANCH  27  28
ENDBRANCH   1  27
TORSDOF 18
ENDMDL
MODEL 3
REMARK VINA RESULT:     -11.8      1.528      1.971
REMARK SMILES CCc1sc(C(=O)Nc2ccc(C(=O)NCCCCNC(=O)c3ccc(-c4c5nc(c(-c6cccc(S(=O)(=O)[O-])c6F)c6ccc([nH]6)c(-c6cccc(S(=O)(=O)[O-])c6F)c6nc(c(-c7cccc(S(=O)(=O)[O-])c7F)c7ccc4[nH]7)C=C6)C=C5)cc3)c(O)c2)cc1C
REMARK SMILES IDX 17 1 16 2 15 3 13 4 14 5 12 7 9 8 10 9 88 10 11 11 86 12
REMARK SMILES IDX 8 13 6 14 7 15 5 17 3 18 4 19 90 20 89 21 91 22 2 23 1 24
REMARK SMILES IDX 87 25 18 27 19 28 20 29 21 30 22 32 23 33 24 34 85 35 25 36
REMARK SMILES IDX 84 37 26 38 27 39 28 40 78 41 29 42 83 43 77 44 79 45 30 46
REMARK SMILES IDX 82 47 76 48 75 49 31 51 63 52 43 53 62 54 44 55 47 56 61 57
REMARK SMILES IDX 80 58 45 59 46 60 60 62 81 63 48 64 32 65 33 66 41 67 34 68
REMARK SMILES IDX 36 69 42 70 35 71 37 72 38 73 39 74 40 75 64 76 65 77 73 78
REMARK SMILES IDX 66 79 68 80 74 81 67 82 69 83 70 84 71 85 72 86 49 87 50 88
REMARK SMILES IDX 58 89 51 90 53 91 59 92 52 93 54 94 55 95 56 96 57 97
REMARK H PARENT 15 6 8 16 87 26 20 31 79 50 47 61
REMARK Flexibility Score: inf
ROOT
ATOM      1  C   UNL A   1      36.884  21.350  24.622  1.00  0.00     0.023 C 
ENDROOT
BRANCH   1   2
ATOM      2  C   UNL A   1      35.601  21.269  25.445  1.00  0.00     0.116 C 
BRANCH   2   3
ATOM      3  N   UNL A   1      34.709  20.175  25.092  1.00  0.00    -0.352 N 
ATOM      4  C   UNL A   1      33.411  20.194  24.632  1.00  0.00     0.255 C 
ATOM      5  O   UNL A   1      32.845  19.129  24.391  1.00  0.00    -0.269 OA
ATOM      6  H   UNL A   1      35.095  19.276  25.202  1.00  0.00     0.163 HD
BRANCH   4   7
ATOM      7  C   UNL A   1      32.647  21.458  24.484  1.00  0.00     0.081 A 
ATOM      8  C   UNL A   1      30.893  23.572  23.898  1.00  0.00     0.045 A 
ATOM      9  C   UNL A   1      31.786  23.118  22.930  1.00  0.00     0.027 A 
ATOM     10  C   UNL A   1      31.052  23.128  25.214  1.00  0.00     0.073 A 
ATOM     11  C   UNL A   1      32.627  22.036  23.209  1.00  0.00     0.020 A 
ATOM     12  C   UNL A   1      31.951  22.100  25.508  1.00  0.00     0.130 A 
BRANCH   8  13
ATOM     13  N   UNL A   1      29.844  24.467  23.639  1.00  0.00    -0.321 N 
ATOM     14  C   UNL A   1      29.625  25.796  23.959  1.00  0.00     0.265 C 
ATOM     15  O   UNL A   1      28.467  26.192  23.782  1.00  0.00    -0.268 OA
ATOM     16  H   UNL A   1      29.110  24.066  23.120  1.00  0.00     0.170 HD
BRANCH  14  17
ATOM     17  C   UNL A   1      30.662  26.714  24.423  1.00  0.00     0.093 A 
ATOM     18  C   UNL A   1      32.582  28.255  24.654  1.00  0.00     0.008 A 
ATOM     19  S   UNL A   1      31.395  27.924  23.464  1.00  0.00    -0.135 S 
ATOM     20  C   UNL A   1      32.163  27.801  25.894  1.00  0.00    -0.036 A 
ATOM     21  C   UNL A   1      31.063  26.887  25.739  1.00  0.00     0.029 A 
ATOM     22  C   UNL A   1      32.773  28.126  27.217  1.00  0.00     0.045 C 
BRANCH  18  23
ATOM     23  C   UNL A   1      33.847  28.967  24.264  1.00  0.00     0.043 C 
ATOM     24  C   UNL A   1      34.279  28.707  22.834  1.00  0.00     0.010 C 
ENDBRANCH  18  23
ENDBRANCH  14  17
ENDBRANCH   8  13
BRANCH  12  25
ATOM     25  O   UNL A   1      32.096  21.795  26.832  1.00  0.00    -0.507 OA
ATOM     26  H   UNL A   1      32.862  22.070  27.296  1.00  0.00     0.293 HD
ENDBRANCH  12  25
ENDBRANCH   4   7
ENDBRANCH   2   3
ENDBRANCH   1   2
BRANCH   1  27
ATOM     27  C   UNL A   1      37.995  20.363  24.980  1.00  0.00     0.023 C 
BRANCH  27  28
ATOM     28  C   UNL A   1      39.151  20.905  25.815  1.00  0.00     0.116 C 
BRANCH  28  29
ATOM     29  N   UNL A   1      40.166  19.911  26.134  1.00  0.00    -0.352 N 
ATOM     30  C   UNL A   1      41.456  20.079  26.585  1.00  0.00     0.251 C 
ATOM     31  H   UNL A   1      39.887  18.975  26.008  1.00  0.00     0.163 HD
ATOM     32  O   UNL A   1      42.188  19.101  26.718  1.00  0.00    -0.269 OA
BRANCH  30  33
ATOM     33  C   UNL A   1      41.978  21.433  26.872  1.00  0.00     0.039 A 
ATOM     34  C   UNL A   1      42.189  22.318  25.810  1.00  0.00     0.014 A 
ATOM     35  C   UNL A   1      42.234  21.845  28.181  1.00  0.00     0.014 A 
ATOM     36  C   UNL A   1      42.558  23.642  26.068  1.00  0.00     0.010 A 
ATOM     37  C   UNL A   1      42.515  23.184  28.442  1.00  0.00     0.010 A 
ATOM     38  C   UNL A   1      42.675  24.100  27.391  1.00  0.00    -0.014 A 
BRANCH  38  39
ATOM     39  C   UNL A   1      42.942  25.529  27.709  1.00  0.00     0.031 A 
ATOM     40  C   UNL A   1      44.350  26.060  27.658  1.00  0.00     0.074 A 
ATOM     41  C   UNL A   1      41.943  26.315  28.159  1.00  0.00     0.049 A 
ATOM     42  N   UNL A   1      44.806  27.230  28.026  1.00  0.00    -0.248 NA
ATOM     43  C   UNL A   1      45.389  25.144  27.158  1.00  0.00     0.031 C 
ATOM     44  C   UNL A   1      40.548  25.903  28.326  1.00  0.00     0.029 A 
ATOM     45  N   UNL A   1      41.955  27.619  28.593  1.00  0.00    -0.354 N 
ATOM     46  C   UNL A   1      46.183  27.174  27.851  1.00  0.00     0.074 A 
ATOM     47  C   UNL A   1      46.492  25.844  27.373  1.00  0.00     0.031 C 
ATOM     48  C   UNL A   1      39.840  26.930  28.823  1.00  0.00     0.029 A 
ATOM     49  C   UNL A   1      40.733  28.064  29.043  1.00  0.00     0.049 A 
ATOM     50  H   UNL A   1      42.762  28.183  28.582  1.00  0.00     0.167 HD
ATOM     51  C   UNL A   1      47.105  28.148  28.038  1.00  0.00     0.034 A 
ATOM     52  C   UNL A   1      40.373  29.246  29.583  1.00  0.00     0.034 A 
ATOM     53  C   UNL A   1      46.789  29.486  28.455  1.00  0.00     0.049 A 
ATOM     54  C   UNL A   1      41.409  30.327  29.737  1.00  0.00     0.074 A 
ATOM     55  C   UNL A   1      47.640  30.569  28.590  1.00  0.00     0.029 A 
ATOM     56  N   UNL A   1      45.522  29.927  28.802  1.00  0.00    -0.354 N 
ATOM     57  N   UNL A   1      42.682  30.299  29.427  1.00  0.00    -0.248 NA
ATOM     58  C   UNL A   1      40.953  31.614  30.282  1.00  0.00     0.031 C 
ATOM     59  C   UNL A   1      46.889  31.663  29.031  1.00  0.00     0.029 A 
ATOM     60  C   UNL A   1      45.566  31.266  29.151  1.00  0.00     0.049 A 
ATOM     61  H   UNL A   1      44.709  29.371  28.800  1.00  0.00     0.167 HD
ATOM     62  C   UNL A   1      43.170  31.573  29.698  1.00  0.00     0.074 A 
ATOM     63  C   UNL A   1      42.051  32.353  30.185  1.00  0.00     0.031 C 
ATOM     64  C   UNL A   1      44.431  32.050  29.567  1.00  0.00     0.034 A 
BRANCH  51  65
ATOM     65  C   UNL A   1      48.543  27.815  27.732  1.00  0.00     0.023 A 
ATOM     66  C   UNL A   1      49.375  27.326  28.760  1.00  0.00     0.012 A 
ATOM     67  C   UNL A   1      49.057  27.939  26.426  1.00  0.00     0.148 A 
ATOM     68  C   UNL A   1      50.707  27.003  28.503  1.00  0.00     0.002 A 
ATOM     69  C   UNL A   1      50.374  27.571  26.169  1.00  0.00     0.091 A 
ATOM     70  F   UNL A   1      48.259  28.425  25.465  1.00  0.00    -0.205 F 
ATOM     71  C   UNL A   1      51.203  27.116  27.208  1.00  0.00     0.022 A 
BRANCH  69  72
ATOM     72  S   UNL A   1      51.083  27.604  24.519  1.00  0.00     0.127 S 
ATOM     73  O   UNL A   1      50.159  26.744  23.783  1.00  0.00    -0.237 OA
ATOM     74  O   UNL A   1      50.997  29.024  24.175  1.00  0.00    -0.237 OA
ATOM     75  O   UNL A   1      52.440  27.095  24.656  1.00  0.00    -0.744 OA
ENDBRANCH  69  72
ENDBRANCH  51  65
BRANCH  52  76
ATOM     76  C   UNL A   1      38.949  29.498  29.947  1.00  0.00     0.023 A 
ATOM     77  C   UNL A   1      38.474  29.061  31.200  1.00  0.00     0.012 A 
ATOM     78  C   UNL A   1      38.073  30.182  29.083  1.00  0.00     0.148 A 
ATOM     79  C   UNL A   1      37.147  29.272  31.573  1.00  0.00     0.002 A 
ATOM     80  C   UNL A   1      36.765  30.436  29.483  1.00  0.00     0.091 A 
ATOM     81  F   UNL A   1      38.538  30.580  27.890  1.00  0.00    -0.205 F 
ATOM     82  C   UNL A   1      36.295  29.967  30.719  1.00  0.00     0.022 A 
BRANCH  80  83
ATOM     83  S   UNL A   1      35.634  31.432  28.504  1.00  0.00     0.127 S 
ATOM     84  O   UNL A   1      35.264  30.506  27.439  1.00  0.00    -0.237 OA
ATOM     85  O   UNL A   1      34.572  31.719  29.469  1.00  0.00    -0.237 OA
ATOM     86  O   UNL A   1      36.399  32.601  28.091  1.00  0.00    -0.744 OA
ENDBRANCH  80  83
ENDBRANCH  52  76
BRANCH  64  87
ATOM     87  C   UNL A   1      44.676  33.497  29.904  1.00  0.00     0.023 A 
ATOM     88  C   UNL A   1      45.140  33.850  31.186  1.00  0.00     0.012 A 
ATOM     89  C   UNL A   1      44.537  34.494  28.917  1.00  0.00     0.148 A 
ATOM     90  C   UNL A   1      45.436  35.179  31.489  1.00  0.00     0.002 A 
ATOM     91  C   UNL A   1      44.880  35.807  29.213  1.00  0.00     0.091 A 
ATOM     92  F   UNL A   1      44.077  34.138  27.710  1.00  0.00    -0.205 F 
ATOM     93  C   UNL A   1      45.320  36.154  30.501  1.00  0.00     0.022 A 
BRANCH  91  94
ATOM     94  S   UNL A   1      44.855  37.110  27.976  1.00  0.00     0.127 S 
ATOM     95  O   UNL A   1      43.435  37.170  27.635  1.00  0.00    -0.237 OA
ATOM     96  O   UNL A   1      45.351  38.263  28.728  1.00  0.00    -0.237 OA
ATOM     97  O   UNL A   1      45.737  36.663  26.905  1.00  0.00    -0.744 OA
ENDBRANCH  91  94
ENDBRANCH  64  87
ENDBRANCH  38  39
ENDBRANCH  30  33
ENDBRANCH  28  29
ENDBRANCH  27  28
ENDBRANCH   1  27
TORSDOF 18
ENDMDL
