MODEL 1
REMARK VINA RESULT:     -13.7      0.000      0.000
REMARK SMILES Cc1cnn(C2(C(=O)NCCCCNC(=O)c3ccc(-c4c5nc(c(-c6cccc(S(=O)(=O)[O-])c6F)c6ccc([nH]6)c(-c6cccc(S(=O)(=O)[O-])c6F)c6nc(c(-c7cccc(S(=O)(=O)[O-])c7F)c7ccc4[nH]7)C=C6)C=C5)cc3)CCN(C(=O)c3cc4ccccc4[nH]3)CC2)c1
REMARK SMILES IDX 12 1 11 2 10 3 9 4 7 5 8 6 6 8 80 9 95 10 81 11 94 12 82 13
REMARK SMILES IDX 83 14 84 15 5 16 1 17 2 18 3 19 96 20 4 21 85 22 86 23 93 24
REMARK SMILES IDX 87 25 92 26 88 28 91 29 89 30 90 31 13 32 14 33 15 34 16 36
REMARK SMILES IDX 17 37 18 38 79 39 19 40 78 41 20 42 21 43 22 44 72 45 23 46
REMARK SMILES IDX 77 47 71 48 73 49 24 50 76 51 70 52 69 53 25 55 57 56 37 57
REMARK SMILES IDX 56 58 38 59 41 60 55 61 74 62 39 63 40 64 54 66 75 67 42 68
REMARK SMILES IDX 26 69 27 70 35 71 28 72 30 73 36 74 29 75 31 76 32 77 33 78
REMARK SMILES IDX 34 79 58 80 59 81 67 82 60 83 62 84 68 85 61 86 63 87 64 88
REMARK SMILES IDX 65 89 66 90 43 91 44 92 52 93 45 94 47 95 53 96 46 97 48 98
REMARK SMILES IDX 49 99 50 100 51 101
REMARK H PARENT 9 7 93 27 14 35 73 54 41 65
REMARK Flexibility Score: inf
ROOT
ATOM      1  C   UNL A   1      38.260  19.692  24.969  1.00  0.00     0.023 C 
ENDROOT
BRANCH   1   2
ATOM      2  C   UNL A   1      37.330  20.882  24.696  1.00  0.00     0.023 C 
BRANCH   2   3
ATOM      3  C   UNL A   1      35.841  20.679  25.019  1.00  0.00     0.116 C 
BRANCH   3   4
ATOM      4  N   UNL A   1      35.443  21.357  26.245  1.00  0.00    -0.354 N 
ATOM      5  C   UNL A   1      34.278  21.972  26.657  1.00  0.00     0.248 C 
ATOM      6  O   UNL A   1      34.400  22.570  27.727  1.00  0.00    -0.272 OA
ATOM      7  H   UNL A   1      36.155  21.380  26.925  1.00  0.00     0.163 HD
BRANCH   5   8
ATOM      8  C   UNL A   1      32.973  21.929  25.785  1.00  0.00     0.144 C 
ATOM      9  C   UNL A   1      31.780  21.961  26.773  1.00  0.00     0.062 C 
ATOM     10  C   UNL A   1      33.063  23.123  24.799  1.00  0.00     0.062 C 
ATOM     11  C   UNL A   1      30.522  22.630  26.253  1.00  0.00     0.123 C 
ATOM     12  C   UNL A   1      31.739  23.762  24.409  1.00  0.00     0.123 C 
ATOM     13  N   UNL A   1      30.788  23.853  25.516  1.00  0.00    -0.337 N 
ATOM     14  C   UNL A   1      30.038  24.995  25.819  1.00  0.00     0.270 C 
ATOM     15  O   UNL A   1      29.468  25.128  26.899  1.00  0.00    -0.267 OA
BRANCH   8  16
ATOM     16  N   UNL A   1      32.797  20.683  24.963  1.00  0.00    -0.257 N 
ATOM     17  C   UNL A   1      32.178  18.763  21.899  1.00  0.00     0.048 C 
ATOM     18  C   UNL A   1      32.418  19.312  23.249  1.00  0.00    -0.013 A 
ATOM     19  C   UNL A   1      32.531  18.632  24.474  1.00  0.00     0.138 A 
ATOM     20  C   UNL A   1      32.584  20.632  23.598  1.00  0.00     0.113 A 
ATOM     21  N   UNL A   1      32.640  19.464  25.508  1.00  0.00    -0.180 NA
ENDBRANCH   8  16
BRANCH  14  22
ATOM     22  C   UNL A   1      29.963  26.028  24.811  1.00  0.00     0.105 A 
ATOM     23  C   UNL A   1      30.963  26.774  24.208  1.00  0.00     0.042 A 
ATOM     24  N   UNL A   1      28.778  26.427  24.235  1.00  0.00    -0.351 N 
ATOM     25  C   UNL A   1      30.349  27.774  23.411  1.00  0.00     0.000 A 
ATOM     26  C   UNL A   1      28.977  27.534  23.442  1.00  0.00     0.046 A 
ATOM     27  H   UNL A   1      27.910  25.983  24.372  1.00  0.00     0.167 HD
ATOM     28  C   UNL A   1      30.835  28.880  22.692  1.00  0.00     0.010 A 
ATOM     29  C   UNL A   1      28.057  28.347  22.773  1.00  0.00     0.026 A 
ATOM     30  C   UNL A   1      29.927  29.719  22.040  1.00  0.00     0.001 A 
ATOM     31  C   UNL A   1      28.559  29.452  22.078  1.00  0.00     0.002 A 
ENDBRANCH  14  22
ENDBRANCH   5   8
ENDBRANCH   3   4
ENDBRANCH   2   3
ENDBRANCH   1   2
BRANCH   1  32
ATOM     32  C   UNL A   1      39.262  19.921  26.089  1.00  0.00     0.116 C 
BRANCH  32  33
ATOM     33  N   UNL A   1      40.455  19.070  25.976  1.00  0.00    -0.352 N 
ATOM     34  C   UNL A   1      41.788  19.452  25.903  1.00  0.00     0.251 C 
ATOM     35  H   UNL A   1      40.287  18.101  25.948  1.00  0.00     0.163 HD
ATOM     36  O   UNL A   1      42.640  18.700  25.462  1.00  0.00    -0.269 OA
BRANCH  34  37
ATOM     37  C   UNL A   1      42.153  20.789  26.403  1.00  0.00     0.039 A 
ATOM     38  C   UNL A   1      42.657  21.801  25.577  1.00  0.00     0.014 A 
ATOM     39  C   UNL A   1      41.945  21.012  27.756  1.00  0.00     0.014 A 
ATOM     40  C   UNL A   1      42.891  23.059  26.131  1.00  0.00     0.010 A 
ATOM     41  C   UNL A   1      41.927  22.287  28.228  1.00  0.00     0.010 A 
ATOM     42  C   UNL A   1      42.518  23.280  27.461  1.00  0.00    -0.014 A 
BRANCH  42  43
ATOM     43  C   UNL A   1      42.684  24.553  28.138  1.00  0.00     0.031 A 
ATOM     44  C   UNL A   1      41.525  25.469  28.018  1.00  0.00     0.074 A 
ATOM     45  C   UNL A   1      43.645  24.682  29.079  1.00  0.00     0.049 A 
ATOM     46  N   UNL A   1      41.485  26.607  27.408  1.00  0.00    -0.248 NA
ATOM     47  C   UNL A   1      40.210  24.997  28.480  1.00  0.00     0.031 C 
ATOM     48  C   UNL A   1      44.596  23.656  29.540  1.00  0.00     0.029 A 
ATOM     49  N   UNL A   1      43.824  25.677  29.985  1.00  0.00    -0.354 N 
ATOM     50  C   UNL A   1      40.207  27.105  27.650  1.00  0.00     0.074 A 
ATOM     51  C   UNL A   1      39.413  25.972  28.039  1.00  0.00     0.031 C 
ATOM     52  C   UNL A   1      45.019  23.967  30.782  1.00  0.00     0.029 A 
ATOM     53  C   UNL A   1      44.490  25.269  31.140  1.00  0.00     0.049 A 
ATOM     54  H   UNL A   1      43.515  26.600  29.840  1.00  0.00     0.167 HD
ATOM     55  C   UNL A   1      39.992  28.440  27.827  1.00  0.00     0.034 A 
ATOM     56  C   UNL A   1      44.500  25.915  32.333  1.00  0.00     0.034 A 
ATOM     57  C   UNL A   1      41.163  29.202  27.452  1.00  0.00     0.049 A 
ATOM     58  C   UNL A   1      44.123  27.326  32.060  1.00  0.00     0.074 A 
ATOM     59  C   UNL A   1      41.956  29.278  26.323  1.00  0.00     0.029 A 
ATOM     60  N   UNL A   1      41.922  29.726  28.476  1.00  0.00    -0.354 N 
ATOM     61  N   UNL A   1      44.843  28.129  31.324  1.00  0.00    -0.248 NA
ATOM     62  C   UNL A   1      42.719  27.688  32.189  1.00  0.00     0.031 C 
ATOM     63  C   UNL A   1      43.290  29.351  26.823  1.00  0.00     0.029 A 
ATOM     64  C   UNL A   1      43.229  29.414  28.216  1.00  0.00     0.049 A 
ATOM     65  H   UNL A   1      41.584  30.230  29.251  1.00  0.00     0.167 HD
ATOM     66  C   UNL A   1      43.914  28.787  30.526  1.00  0.00     0.074 A 
ATOM     67  C   UNL A   1      42.624  28.561  31.181  1.00  0.00     0.031 C 
ATOM     68  C   UNL A   1      44.216  29.171  29.248  1.00  0.00     0.034 A 
BRANCH  55  69
ATOM     69  C   UNL A   1      38.916  29.059  28.703  1.00  0.00     0.023 A 
ATOM     70  C   UNL A   1      38.111  30.056  28.101  1.00  0.00     0.012 A 
ATOM     71  C   UNL A   1      38.822  28.936  30.109  1.00  0.00     0.148 A 
ATOM     72  C   UNL A   1      37.336  30.938  28.859  1.00  0.00     0.002 A 
ATOM     73  C   UNL A   1      37.990  29.766  30.852  1.00  0.00     0.091 A 
ATOM     74  F   UNL A   1      39.628  28.110  30.774  1.00  0.00    -0.205 F 
ATOM     75  C   UNL A   1      37.274  30.794  30.238  1.00  0.00     0.022 A 
BRANCH  73  76
ATOM     76  S   UNL A   1      37.838  29.591  32.636  1.00  0.00     0.127 S 
ATOM     77  O   UNL A   1      36.780  30.552  32.932  1.00  0.00    -0.237 OA
ATOM     78  O   UNL A   1      37.456  28.185  32.767  1.00  0.00    -0.237 OA
ATOM     79  O   UNL A   1      39.157  29.902  33.174  1.00  0.00    -0.744 OA
ENDBRANCH  73  76
ENDBRANCH  55  69
BRANCH  56  80
ATOM     80  C   UNL A   1      44.504  25.321  33.695  1.00  0.00     0.023 A 
ATOM     81  C   UNL A   1      43.301  25.215  34.423  1.00  0.00     0.012 A 
ATOM     82  C   UNL A   1      45.636  24.635  34.195  1.00  0.00     0.148 A 
ATOM     83  C   UNL A   1      43.228  24.443  35.592  1.00  0.00     0.002 A 
ATOM     84  C   UNL A   1      45.568  23.897  35.372  1.00  0.00     0.091 A 
ATOM     85  F   UNL A   1      46.760  24.612  33.468  1.00  0.00    -0.205 F 
ATOM     86  C   UNL A   1      44.361  23.784  36.067  1.00  0.00     0.022 A 
BRANCH  84  87
ATOM     87  S   UNL A   1      47.012  23.044  36.023  1.00  0.00     0.127 S 
ATOM     88  O   UNL A   1      47.974  24.136  36.176  1.00  0.00    -0.237 OA
ATOM     89  O   UNL A   1      46.495  22.496  37.271  1.00  0.00    -0.237 OA
ATOM     90  O   UNL A   1      47.386  22.071  35.000  1.00  0.00    -0.744 OA
ENDBRANCH  84  87
ENDBRANCH  56  80
BRANCH  68  91
ATOM     91  C   UNL A   1      45.648  29.073  28.773  1.00  0.00     0.023 A 
ATOM     92  C   UNL A   1      46.630  30.020  29.133  1.00  0.00     0.012 A 
ATOM     93  C   UNL A   1      46.059  27.889  28.140  1.00  0.00     0.148 A 
ATOM     94  C   UNL A   1      47.983  29.799  28.860  1.00  0.00     0.002 A 
ATOM     95  C   UNL A   1      47.410  27.649  27.912  1.00  0.00     0.091 A 
ATOM     96  F   UNL A   1      45.119  26.992  27.805  1.00  0.00    -0.205 F 
ATOM     97  C   UNL A   1      48.374  28.605  28.263  1.00  0.00     0.022 A 
BRANCH  95  98
ATOM     98  S   UNL A   1      47.984  26.075  27.272  1.00  0.00     0.127 S 
ATOM     99  O   UNL A   1      47.838  26.261  25.831  1.00  0.00    -0.237 OA
ATOM    100  O   UNL A   1      49.369  26.027  27.745  1.00  0.00    -0.237 OA
ATOM    101  O   UNL A   1      47.120  25.062  27.867  1.00  0.00    -0.744 OA
ENDBRANCH  95  98
ENDBRANCH  68  91
ENDBRANCH  42  43
ENDBRANCH  34  37
ENDBRANCH  32  33
ENDBRANCH   1  32
TORSDOF 16
ENDMDL
MODEL 2
REMARK VINA RESULT:     -13.7      3.101      8.160
REMARK SMILES Cc1cnn(C2(C(=O)NCCCCNC(=O)c3ccc(-c4c5nc(c(-c6cccc(S(=O)(=O)[O-])c6F)c6ccc([nH]6)c(-c6cccc(S(=O)(=O)[O-])c6F)c6nc(c(-c7cccc(S(=O)(=O)[O-])c7F)c7ccc4[nH]7)C=C6)C=C5)cc3)CCN(C(=O)c3cc4ccccc4[nH]3)CC2)c1
REMARK SMILES IDX 12 1 11 2 10 3 9 4 7 5 8 6 6 8 80 9 95 10 81 11 94 12 82 13
REMARK SMILES IDX 83 14 84 15 5 16 1 17 2 18 3 19 96 20 4 21 85 22 86 23 93 24
REMARK SMILES IDX 87 25 92 26 88 28 91 29 89 30 90 31 13 32 14 33 15 34 16 36
REMARK SMILES IDX 17 37 18 38 79 39 19 40 78 41 20 42 21 43 22 44 72 45 23 46
REMARK SMILES IDX 77 47 71 48 73 49 24 50 76 51 70 52 69 53 25 55 57 56 37 57
REMARK SMILES IDX 56 58 38 59 41 60 55 61 74 62 39 63 40 64 54 66 75 67 42 68
REMARK SMILES IDX 26 69 27 70 35 71 28 72 30 73 36 74 29 75 31 76 32 77 33 78
REMARK SMILES IDX 34 79 58 80 59 81 67 82 60 83 62 84 68 85 61 86 63 87 64 88
REMARK SMILES IDX 65 89 66 90 43 91 44 92 52 93 45 94 47 95 53 96 46 97 48 98
REMARK SMILES IDX 49 99 50 100 51 101
REMARK H PARENT 9 7 93 27 14 35 73 54 41 65
REMARK Flexibility Score: inf
ROOT
ATOM      1  C   UNL A   1      33.131  29.964  26.209  1.00  0.00     0.023 C 
ENDROOT
BRANCH   1   2
ATOM      2  C   UNL A   1      32.004  29.227  26.945  1.00  0.00     0.023 C 
BRANCH   2   3
ATOM      3  C   UNL A   1      32.280  27.766  27.336  1.00  0.00     0.116 C 
BRANCH   3   4
ATOM      4  N   UNL A   1      31.127  26.906  27.114  1.00  0.00    -0.354 N 
ATOM      5  C   UNL A   1      30.880  25.844  26.266  1.00  0.00     0.248 C 
ATOM      6  O   UNL A   1      29.703  25.480  26.279  1.00  0.00    -0.272 OA
ATOM      7  H   UNL A   1      30.360  27.127  27.692  1.00  0.00     0.163 HD
BRANCH   5   8
ATOM      8  C   UNL A   1      32.009  25.237  25.359  1.00  0.00     0.144 C 
ATOM      9  C   UNL A   1      33.302  25.222  26.214  1.00  0.00     0.062 C 
ATOM     10  C   UNL A   1      31.497  23.851  24.888  1.00  0.00     0.062 C 
ATOM     11  C   UNL A   1      34.277  24.104  25.899  1.00  0.00     0.123 C 
ATOM     12  C   UNL A   1      32.563  22.786  24.679  1.00  0.00     0.123 C 
ATOM     13  N   UNL A   1      33.627  22.824  25.681  1.00  0.00    -0.337 N 
ATOM     14  C   UNL A   1      34.134  21.695  26.334  1.00  0.00     0.270 C 
ATOM     15  O   UNL A   1      34.819  21.788  27.350  1.00  0.00    -0.267 OA
BRANCH   8  16
ATOM     16  N   UNL A   1      32.335  26.035  24.129  1.00  0.00    -0.257 N 
ATOM     17  C   UNL A   1      34.135  28.555  22.162  1.00  0.00     0.048 C 
ATOM     18  C   UNL A   1      33.263  27.517  22.749  1.00  0.00    -0.013 A 
ATOM     19  C   UNL A   1      32.172  26.847  22.171  1.00  0.00     0.138 A 
ATOM     20  C   UNL A   1      33.337  26.980  24.013  1.00  0.00     0.113 A 
ATOM     21  N   UNL A   1      31.550  26.048  23.037  1.00  0.00    -0.180 NA
ENDBRANCH   8  16
BRANCH  14  22
ATOM     22  C   UNL A   1      33.814  20.402  25.774  1.00  0.00     0.105 A 
ATOM     23  C   UNL A   1      32.736  19.562  26.002  1.00  0.00     0.042 A 
ATOM     24  N   UNL A   1      34.595  19.784  24.823  1.00  0.00    -0.351 N 
ATOM     25  C   UNL A   1      32.981  18.336  25.332  1.00  0.00     0.000 A 
ATOM     26  C   UNL A   1      34.153  18.502  24.596  1.00  0.00     0.046 A 
ATOM     27  H   UNL A   1      35.361  20.203  24.368  1.00  0.00     0.167 HD
ATOM     28  C   UNL A   1      32.328  17.091  25.311  1.00  0.00     0.010 A 
ATOM     29  C   UNL A   1      34.704  17.476  23.821  1.00  0.00     0.026 A 
ATOM     30  C   UNL A   1      32.880  16.047  24.564  1.00  0.00     0.001 A 
ATOM     31  C   UNL A   1      34.049  16.240  23.828  1.00  0.00     0.002 A 
ENDBRANCH  14  22
ENDBRANCH   5   8
ENDBRANCH   3   4
ENDBRANCH   2   3
ENDBRANCH   1   2
BRANCH   1  32
ATOM     32  C   UNL A   1      34.372  30.218  27.050  1.00  0.00     0.116 C 
BRANCH  32  33
ATOM     33  N   UNL A   1      34.198  31.312  28.016  1.00  0.00    -0.352 N 
ATOM     34  C   UNL A   1      34.886  31.540  29.201  1.00  0.00     0.251 C 
ATOM     35  H   UNL A   1      33.502  31.970  27.793  1.00  0.00     0.163 HD
ATOM     36  O   UNL A   1      34.426  32.255  30.073  1.00  0.00    -0.269 OA
BRANCH  34  37
ATOM     37  C   UNL A   1      36.209  30.912  29.364  1.00  0.00     0.039 A 
ATOM     38  C   UNL A   1      36.402  29.525  29.358  1.00  0.00     0.014 A 
ATOM     39  C   UNL A   1      37.282  31.779  29.501  1.00  0.00     0.014 A 
ATOM     40  C   UNL A   1      37.703  29.033  29.434  1.00  0.00     0.010 A 
ATOM     41  C   UNL A   1      38.546  31.313  29.316  1.00  0.00     0.010 A 
ATOM     42  C   UNL A   1      38.763  29.946  29.411  1.00  0.00    -0.014 A 
BRANCH  42  43
ATOM     43  C   UNL A   1      40.159  29.554  29.456  1.00  0.00     0.031 A 
ATOM     44  C   UNL A   1      40.694  29.337  30.820  1.00  0.00     0.074 A 
ATOM     45  C   UNL A   1      40.749  29.077  28.336  1.00  0.00     0.049 A 
ATOM     46  N   UNL A   1      41.605  30.025  31.424  1.00  0.00    -0.248 NA
ATOM     47  C   UNL A   1      40.026  28.350  31.684  1.00  0.00     0.031 C 
ATOM     48  C   UNL A   1      40.139  28.889  27.009  1.00  0.00     0.029 A 
ATOM     49  N   UNL A   1      41.943  28.445  28.204  1.00  0.00    -0.354 N 
ATOM     50  C   UNL A   1      41.805  29.377  32.641  1.00  0.00     0.074 A 
ATOM     51  C   UNL A   1      40.632  28.573  32.852  1.00  0.00     0.031 C 
ATOM     52  C   UNL A   1      40.834  27.954  26.328  1.00  0.00     0.029 A 
ATOM     53  C   UNL A   1      42.004  27.591  27.103  1.00  0.00     0.049 A 
ATOM     54  H   UNL A   1      42.694  28.576  28.825  1.00  0.00     0.167 HD
ATOM     55  C   UNL A   1      43.044  29.304  33.206  1.00  0.00     0.034 A 
ATOM     56  C   UNL A   1      42.896  26.586  26.915  1.00  0.00     0.034 A 
ATOM     57  C   UNL A   1      43.967  30.194  32.536  1.00  0.00     0.049 A 
ATOM     58  C   UNL A   1      44.058  26.872  27.796  1.00  0.00     0.074 A 
ATOM     59  C   UNL A   1      43.972  31.540  32.226  1.00  0.00     0.029 A 
ATOM     60  N   UNL A   1      44.894  29.615  31.698  1.00  0.00    -0.354 N 
ATOM     61  N   UNL A   1      44.819  27.924  27.657  1.00  0.00    -0.248 NA
ATOM     62  C   UNL A   1      44.070  26.262  29.117  1.00  0.00     0.031 C 
ATOM     63  C   UNL A   1      44.498  31.603  30.901  1.00  0.00     0.029 A 
ATOM     64  C   UNL A   1      44.873  30.313  30.521  1.00  0.00     0.049 A 
ATOM     65  H   UNL A   1      45.465  28.841  31.908  1.00  0.00     0.167 HD
ATOM     66  C   UNL A   1      45.009  28.383  28.956  1.00  0.00     0.074 A 
ATOM     67  C   UNL A   1      44.625  27.260  29.814  1.00  0.00     0.031 C 
ATOM     68  C   UNL A   1      45.142  29.717  29.229  1.00  0.00     0.034 A 
BRANCH  55  69
ATOM     69  C   UNL A   1      43.558  28.170  34.077  1.00  0.00     0.023 A 
ATOM     70  C   UNL A   1      44.132  28.538  35.317  1.00  0.00     0.012 A 
ATOM     71  C   UNL A   1      43.764  26.835  33.658  1.00  0.00     0.148 A 
ATOM     72  C   UNL A   1      44.942  27.664  36.047  1.00  0.00     0.002 A 
ATOM     73  C   UNL A   1      44.506  25.944  34.426  1.00  0.00     0.091 A 
ATOM     74  F   UNL A   1      43.365  26.431  32.453  1.00  0.00    -0.205 F 
ATOM     75  C   UNL A   1      45.130  26.363  35.602  1.00  0.00     0.022 A 
BRANCH  73  76
ATOM     76  S   UNL A   1      44.742  24.235  33.917  1.00  0.00     0.127 S 
ATOM     77  O   UNL A   1      43.383  23.711  34.024  1.00  0.00    -0.237 OA
ATOM     78  O   UNL A   1      45.241  24.396  32.552  1.00  0.00    -0.237 OA
ATOM     79  O   UNL A   1      45.719  23.680  34.847  1.00  0.00    -0.744 OA
ENDBRANCH  73  76
ENDBRANCH  55  69
BRANCH  56  80
ATOM     80  C   UNL A   1      42.665  25.266  26.274  1.00  0.00     0.023 A 
ATOM     81  C   UNL A   1      43.569  24.782  25.307  1.00  0.00     0.012 A 
ATOM     82  C   UNL A   1      41.697  24.363  26.776  1.00  0.00     0.148 A 
ATOM     83  C   UNL A   1      43.519  23.449  24.872  1.00  0.00     0.002 A 
ATOM     84  C   UNL A   1      41.630  23.052  26.318  1.00  0.00     0.091 A 
ATOM     85  F   UNL A   1      40.903  24.751  27.782  1.00  0.00    -0.205 F 
ATOM     86  C   UNL A   1      42.550  22.584  25.376  1.00  0.00     0.022 A 
BRANCH  84  87
ATOM     87  S   UNL A   1      40.385  21.911  26.937  1.00  0.00     0.127 S 
ATOM     88  O   UNL A   1      40.755  21.783  28.347  1.00  0.00    -0.237 OA
ATOM     89  O   UNL A   1      39.154  22.650  26.687  1.00  0.00    -0.237 OA
ATOM     90  O   UNL A   1      40.564  20.680  26.170  1.00  0.00    -0.744 OA
ENDBRANCH  84  87
ENDBRANCH  56  80
BRANCH  68  91
ATOM     91  C   UNL A   1      45.302  30.687  28.082  1.00  0.00     0.023 A 
ATOM     92  C   UNL A   1      44.198  31.243  27.402  1.00  0.00     0.012 A 
ATOM     93  C   UNL A   1      46.579  31.218  27.834  1.00  0.00     0.148 A 
ATOM     94  C   UNL A   1      44.361  32.292  26.492  1.00  0.00     0.002 A 
ATOM     95  C   UNL A   1      46.734  32.292  26.964  1.00  0.00     0.091 A 
ATOM     96  F   UNL A   1      47.623  30.687  28.488  1.00  0.00    -0.205 F 
ATOM     97  C   UNL A   1      45.629  32.827  26.285  1.00  0.00     0.022 A 
BRANCH  95  98
ATOM     98  S   UNL A   1      48.317  33.110  26.762  1.00  0.00     0.127 S 
ATOM     99  O   UNL A   1      49.196  31.992  26.428  1.00  0.00    -0.237 OA
ATOM    100  O   UNL A   1      48.057  34.035  25.656  1.00  0.00    -0.237 OA
ATOM    101  O   UNL A   1      48.592  33.769  28.032  1.00  0.00    -0.744 OA
ENDBRANCH  95  98
ENDBRANCH  68  91
ENDBRANCH  42  43
ENDBRANCH  34  37
ENDBRANCH  32  33
ENDBRANCH   1  32
TORSDOF 16
ENDMDL
MODEL 3
REMARK VINA RESULT:     -13.4      3.021      7.978
REMARK SMILES Cc1cnn(C2(C(=O)NCCCCNC(=O)c3ccc(-c4c5nc(c(-c6cccc(S(=O)(=O)[O-])c6F)c6ccc([nH]6)c(-c6cccc(S(=O)(=O)[O-])c6F)c6nc(c(-c7cccc(S(=O)(=O)[O-])c7F)c7ccc4[nH]7)C=C6)C=C5)cc3)CCN(C(=O)c3cc4ccccc4[nH]3)CC2)c1
REMARK SMILES IDX 12 1 11 2 10 3 9 4 7 5 8 6 6 8 80 9 95 10 81 11 94 12 82 13
REMARK SMILES IDX 83 14 84 15 5 16 1 17 2 18 3 19 96 20 4 21 85 22 86 23 93 24
REMARK SMILES IDX 87 25 92 26 88 28 91 29 89 30 90 31 13 32 14 33 15 34 16 36
REMARK SMILES IDX 17 37 18 38 79 39 19 40 78 41 20 42 21 43 22 44 72 45 23 46
REMARK SMILES IDX 77 47 71 48 73 49 24 50 76 51 70 52 69 53 25 55 57 56 37 57
REMARK SMILES IDX 56 58 38 59 41 60 55 61 74 62 39 63 40 64 54 66 75 67 42 68
REMARK SMILES IDX 26 69 27 70 35 71 28 72 30 73 36 74 29 75 31 76 32 77 33 78
REMARK SMILES IDX 34 79 58 80 59 81 67 82 60 83 62 84 68 85 61 86 63 87 64 88
REMARK SMILES IDX 65 89 66 90 43 91 44 92 52 93 45 94 47 95 53 96 46 97 48 98
REMARK SMILES IDX 49 99 50 100 51 101
REMARK H PARENT 9 7 93 27 14 35 73 54 41 65
REMARK Flexibility Score: inf
ROOT
ATOM      1  C   UNL A   1      33.009  28.715  27.169  1.00  0.00     0.023 C 
ENDROOT
BRANCH   1   2
ATOM      2  C   UNL A   1      31.851  29.671  26.849  1.00  0.00     0.023 C 
BRANCH   2   3
ATOM      3  C   UNL A   1      31.533  29.892  25.362  1.00  0.00     0.116 C 
BRANCH   3   4
ATOM      4  N   UNL A   1      32.691  29.666  24.508  1.00  0.00    -0.354 N 
ATOM      5  C   UNL A   1      32.993  28.725  23.544  1.00  0.00     0.248 C 
ATOM      6  O   UNL A   1      34.161  28.790  23.156  1.00  0.00    -0.272 OA
ATOM      7  H   UNL A   1      33.410  30.324  24.647  1.00  0.00     0.163 HD
BRANCH   5   8
ATOM      8  C   UNL A   1      31.935  27.668  23.066  1.00  0.00     0.144 C 
ATOM      9  C   UNL A   1      32.342  27.253  21.630  1.00  0.00     0.062 C 
ATOM     10  C   UNL A   1      31.940  26.532  24.123  1.00  0.00     0.062 C 
ATOM     11  C   UNL A   1      31.987  25.831  21.238  1.00  0.00     0.123 C 
ATOM     12  C   UNL A   1      31.644  25.136  23.597  1.00  0.00     0.123 C 
ATOM     13  N   UNL A   1      32.247  24.866  22.292  1.00  0.00    -0.337 N 
ATOM     14  C   UNL A   1      32.935  23.692  21.970  1.00  0.00     0.270 C 
ATOM     15  O   UNL A   1      33.655  23.614  20.977  1.00  0.00    -0.267 OA
BRANCH   8  16
ATOM     16  N   UNL A   1      30.526  28.179  22.966  1.00  0.00    -0.257 N 
ATOM     17  C   UNL A   1      26.898  28.099  23.506  1.00  0.00     0.048 C 
ATOM     18  C   UNL A   1      28.311  28.335  23.146  1.00  0.00    -0.013 A 
ATOM     19  C   UNL A   1      28.864  29.355  22.354  1.00  0.00     0.138 A 
ATOM     20  C   UNL A   1      29.404  27.588  23.517  1.00  0.00     0.113 A 
ATOM     21  N   UNL A   1      30.170  29.191  22.154  1.00  0.00    -0.180 NA
ENDBRANCH   8  16
BRANCH  14  22
ATOM     22  C   UNL A   1      32.780  22.564  22.860  1.00  0.00     0.105 A 
ATOM     23  C   UNL A   1      33.043  22.441  24.215  1.00  0.00     0.042 A 
ATOM     24  N   UNL A   1      32.269  21.353  22.451  1.00  0.00    -0.351 N 
ATOM     25  C   UNL A   1      32.881  21.079  24.574  1.00  0.00     0.000 A 
ATOM     26  C   UNL A   1      32.392  20.416  23.451  1.00  0.00     0.046 A 
ATOM     27  H   UNL A   1      31.872  21.181  21.566  1.00  0.00     0.167 HD
ATOM     28  C   UNL A   1      33.137  20.344  25.746  1.00  0.00     0.010 A 
ATOM     29  C   UNL A   1      32.131  19.042  23.443  1.00  0.00     0.026 A 
ATOM     30  C   UNL A   1      32.908  18.965  25.747  1.00  0.00     0.001 A 
ATOM     31  C   UNL A   1      32.409  18.327  24.613  1.00  0.00     0.002 A 
ENDBRANCH  14  22
ENDBRANCH   5   8
ENDBRANCH   3   4
ENDBRANCH   2   3
ENDBRANCH   1   2
BRANCH   1  32
ATOM     32  C   UNL A   1      34.361  29.392  27.319  1.00  0.00     0.116 C 
BRANCH  32  33
ATOM     33  N   UNL A   1      34.265  30.757  27.856  1.00  0.00    -0.352 N 
ATOM     34  C   UNL A   1      34.983  31.333  28.895  1.00  0.00     0.251 C 
ATOM     35  H   UNL A   1      33.604  31.341  27.420  1.00  0.00     0.163 HD
ATOM     36  O   UNL A   1      34.579  32.327  29.471  1.00  0.00    -0.269 OA
BRANCH  34  37
ATOM     37  C   UNL A   1      36.272  30.721  29.268  1.00  0.00     0.039 A 
ATOM     38  C   UNL A   1      36.384  29.410  29.745  1.00  0.00     0.014 A 
ATOM     39  C   UNL A   1      37.396  31.515  29.095  1.00  0.00     0.014 A 
ATOM     40  C   UNL A   1      37.657  28.896  29.988  1.00  0.00     0.010 A 
ATOM     41  C   UNL A   1      38.626  30.937  29.084  1.00  0.00     0.010 A 
ATOM     42  C   UNL A   1      38.766  29.679  29.649  1.00  0.00    -0.014 A 
BRANCH  42  43
ATOM     43  C   UNL A   1      40.139  29.241  29.828  1.00  0.00     0.031 A 
ATOM     44  C   UNL A   1      40.597  29.214  31.236  1.00  0.00     0.074 A 
ATOM     45  C   UNL A   1      40.758  28.576  28.826  1.00  0.00     0.049 A 
ATOM     46  N   UNL A   1      41.510  29.949  31.779  1.00  0.00    -0.248 NA
ATOM     47  C   UNL A   1      39.842  28.399  32.201  1.00  0.00     0.031 C 
ATOM     48  C   UNL A   1      40.203  28.212  27.511  1.00  0.00     0.029 A 
ATOM     49  N   UNL A   1      41.925  27.883  28.856  1.00  0.00    -0.354 N 
ATOM     50  C   UNL A   1      41.620  29.487  33.088  1.00  0.00     0.074 A 
ATOM     51  C   UNL A   1      40.402  28.772  33.354  1.00  0.00     0.031 C 
ATOM     52  C   UNL A   1      40.884  27.158  27.018  1.00  0.00     0.029 A 
ATOM     53  C   UNL A   1      41.997  26.870  27.901  1.00  0.00     0.049 A 
ATOM     54  H   UNL A   1      42.651  28.078  29.490  1.00  0.00     0.167 HD
ATOM     55  C   UNL A   1      42.826  29.452  33.725  1.00  0.00     0.034 A 
ATOM     56  C   UNL A   1      42.848  25.813  27.915  1.00  0.00     0.034 A 
ATOM     57  C   UNL A   1      43.822  30.191  32.980  1.00  0.00     0.049 A 
ATOM     58  C   UNL A   1      43.978  26.183  28.805  1.00  0.00     0.074 A 
ATOM     59  C   UNL A   1      43.906  31.472  32.471  1.00  0.00     0.029 A 
ATOM     60  N   UNL A   1      44.759  29.454  32.290  1.00  0.00    -0.354 N 
ATOM     61  N   UNL A   1      44.795  27.170  28.551  1.00  0.00    -0.248 NA
ATOM     62  C   UNL A   1      43.899  25.782  30.201  1.00  0.00     0.031 C 
ATOM     63  C   UNL A   1      44.497  31.311  31.182  1.00  0.00     0.029 A 
ATOM     64  C   UNL A   1      44.827  29.964  31.022  1.00  0.00     0.049 A 
ATOM     65  H   UNL A   1      45.281  28.699  32.644  1.00  0.00     0.167 HD
ATOM     66  C   UNL A   1      44.945  27.813  29.774  1.00  0.00     0.074 A 
ATOM     67  C   UNL A   1      44.467  26.851  30.769  1.00  0.00     0.031 C 
ATOM     68  C   UNL A   1      45.129  29.167  29.851  1.00  0.00     0.034 A 
BRANCH  55  69
ATOM     69  C   UNL A   1      43.243  28.444  34.782  1.00  0.00     0.023 A 
ATOM     70  C   UNL A   1      43.870  28.967  35.938  1.00  0.00     0.012 A 
ATOM     71  C   UNL A   1      43.313  27.042  34.607  1.00  0.00     0.148 A 
ATOM     72  C   UNL A   1      44.604  28.160  36.812  1.00  0.00     0.002 A 
ATOM     73  C   UNL A   1      43.978  26.232  35.521  1.00  0.00     0.091 A 
ATOM     74  F   UNL A   1      42.856  26.473  33.492  1.00  0.00    -0.205 F 
ATOM     75  C   UNL A   1      44.659  26.789  36.604  1.00  0.00     0.022 A 
BRANCH  73  76
ATOM     76  S   UNL A   1      44.040  24.445  35.322  1.00  0.00     0.127 S 
ATOM     77  O   UNL A   1      44.853  24.316  34.117  1.00  0.00    -0.237 OA
ATOM     78  O   UNL A   1      44.695  24.030  36.562  1.00  0.00    -0.237 OA
ATOM     79  O   UNL A   1      42.651  24.016  35.209  1.00  0.00    -0.744 OA
ENDBRANCH  73  76
ENDBRANCH  55  69
BRANCH  56  80
ATOM     80  C   UNL A   1      42.584  24.421  27.468  1.00  0.00     0.023 A 
ATOM     81  C   UNL A   1      41.320  23.836  27.688  1.00  0.00     0.012 A 
ATOM     82  C   UNL A   1      43.482  23.740  26.612  1.00  0.00     0.148 A 
ATOM     83  C   UNL A   1      40.962  22.631  27.064  1.00  0.00     0.002 A 
ATOM     84  C   UNL A   1      43.135  22.529  26.022  1.00  0.00     0.091 A 
ATOM     85  F   UNL A   1      44.641  24.324  26.283  1.00  0.00    -0.205 F 
ATOM     86  C   UNL A   1      41.869  21.977  26.232  1.00  0.00     0.022 A 
BRANCH  84  87
ATOM     87  S   UNL A   1      44.283  21.650  24.952  1.00  0.00     0.127 S 
ATOM     88  O   UNL A   1      45.533  21.727  25.710  1.00  0.00    -0.237 OA
ATOM     89  O   UNL A   1      43.678  20.325  24.891  1.00  0.00    -0.237 OA
ATOM     90  O   UNL A   1      44.309  22.404  23.701  1.00  0.00    -0.744 OA
ENDBRANCH  84  87
ENDBRANCH  56  80
BRANCH  68  91
ATOM     91  C   UNL A   1      45.390  29.944  28.581  1.00  0.00     0.023 A 
ATOM     92  C   UNL A   1      44.347  30.418  27.757  1.00  0.00     0.012 A 
ATOM     93  C   UNL A   1      46.697  30.395  28.334  1.00  0.00     0.148 A 
ATOM     94  C   UNL A   1      44.601  31.309  26.709  1.00  0.00     0.002 A 
ATOM     95  C   UNL A   1      46.941  31.317  27.322  1.00  0.00     0.091 A 
ATOM     96  F   UNL A   1      47.682  29.942  29.125  1.00  0.00    -0.205 F 
ATOM     97  C   UNL A   1      45.897  31.770  26.502  1.00  0.00     0.022 A 
BRANCH  95  98
ATOM     98  S   UNL A   1      48.562  32.049  27.096  1.00  0.00     0.127 S 
ATOM     99  O   UNL A   1      48.304  33.042  26.056  1.00  0.00    -0.237 OA
ATOM    100  O   UNL A   1      48.844  32.610  28.419  1.00  0.00    -0.237 OA
ATOM    101  O   UNL A   1      49.446  30.955  26.716  1.00  0.00    -0.744 OA
ENDBRANCH  95  98
ENDBRANCH  68  91
ENDBRANCH  42  43
ENDBRANCH  34  37
ENDBRANCH  32  33
ENDBRANCH   1  32
TORSDOF 16
ENDMDL
