MODEL 1
REMARK VINA RESULT:     -10.8      0.000      0.000
REMARK SMILES COCCN(CC(=O)NCCCCNC(=O)c1ccc(-c2c3nc(c(-c4cccc(S(=O)(=O)[O-])c4F)c4ccc([nH]4)c(-c4cccc(S(=O)(=O)[O-])c4F)c4nc(c(-c5cccc(S(=O)(=O)[O-])c5F)c5ccc2[nH]5)C=C4)C=C3)cc1)C(=O)c1cccc(N)c1
REMARK SMILES IDX 11 1 10 2 9 3 7 4 8 5 6 7 5 8 4 9 3 10 2 11 1 12 80 13 81 14
REMARK SMILES IDX 82 15 83 16 88 17 84 18 86 19 85 20 87 21 12 24 13 25 14 26
REMARK SMILES IDX 15 27 16 29 17 30 18 31 79 32 19 33 78 34 20 35 21 36 22 37
REMARK SMILES IDX 72 38 23 39 77 40 71 41 73 42 24 43 76 44 70 45 69 46 25 48
REMARK SMILES IDX 57 49 37 50 56 51 38 52 41 53 55 54 74 55 39 56 40 57 54 59
REMARK SMILES IDX 75 60 42 61 26 62 27 63 35 64 28 65 30 66 36 67 29 68 31 69
REMARK SMILES IDX 32 70 33 71 34 72 58 73 59 74 67 75 60 76 62 77 68 78 61 79
REMARK SMILES IDX 63 80 64 81 65 82 66 83 43 84 44 85 52 86 45 87 47 88 53 89
REMARK SMILES IDX 46 90 48 91 49 92 50 93 51 94
REMARK H PARENT 9 6 87 22 87 23 14 28 73 47 41 58
REMARK Flexibility Score: inf
ROOT
ATOM      1  C   UNL A   1      32.125  30.673  26.097  1.00  0.00     0.023 C 
ENDROOT
BRANCH   1   2
ATOM      2  C   UNL A   1      33.310  29.860  26.613  1.00  0.00     0.116 C 
BRANCH   2   3
ATOM      3  N   UNL A   1      33.913  28.990  25.628  1.00  0.00    -0.355 N 
ATOM      4  C   UNL A   1      33.332  28.062  24.814  1.00  0.00     0.239 C 
ATOM      5  O   UNL A   1      33.960  27.744  23.798  1.00  0.00    -0.273 OA
ATOM      6  H   UNL A   1      34.888  29.080  25.530  1.00  0.00     0.163 HD
BRANCH   4   7
ATOM      7  C   UNL A   1      31.901  27.528  25.034  1.00  0.00     0.219 C 
BRANCH   7   8
ATOM      8  N   UNL A   1      31.260  26.797  23.932  1.00  0.00    -0.327 N 
BRANCH   8   9
ATOM      9  C   UNL A   1      31.087  25.341  24.079  1.00  0.00     0.149 C 
BRANCH   9  10
ATOM     10  C   UNL A   1      32.381  24.518  23.951  1.00  0.00     0.181 C 
BRANCH  10  11
ATOM     11  O   UNL A   1      32.220  23.386  23.101  1.00  0.00    -0.383 OA
ATOM     12  C   UNL A   1      33.270  23.230  22.160  1.00  0.00     0.194 C 
ENDBRANCH  10  11
ENDBRANCH   9  10
ENDBRANCH   8   9
BRANCH   8  13
ATOM     13  C   UNL A   1      30.654  27.415  22.829  1.00  0.00     0.254 C 
ATOM     14  O   UNL A   1      30.840  27.050  21.671  1.00  0.00    -0.269 OA
BRANCH  13  15
ATOM     15  C   UNL A   1      29.654  28.487  23.034  1.00  0.00     0.042 A 
ATOM     16  C   UNL A   1      28.304  28.134  22.942  1.00  0.00     0.014 A 
ATOM     17  C   UNL A   1      30.016  29.819  23.245  1.00  0.00     0.039 A 
ATOM     18  C   UNL A   1      27.320  29.102  23.124  1.00  0.00     0.003 A 
ATOM     19  C   UNL A   1      29.035  30.784  23.489  1.00  0.00     0.032 A 
ATOM     20  C   UNL A   1      27.689  30.419  23.400  1.00  0.00     0.025 A 
BRANCH  19  21
ATOM     21  N   UNL A   1      29.387  32.107  23.696  1.00  0.00    -0.399 N 
ATOM     22  H   UNL A   1      29.955  32.351  24.462  1.00  0.00     0.156 HD
ATOM     23  H   UNL A   1      29.069  32.803  23.077  1.00  0.00     0.156 HD
ENDBRANCH  19  21
ENDBRANCH  13  15
ENDBRANCH   8  13
ENDBRANCH   7   8
ENDBRANCH   4   7
ENDBRANCH   2   3
ENDBRANCH   1   2
BRANCH   1  24
ATOM     24  C   UNL A   1      31.734  31.882  26.944  1.00  0.00     0.023 C 
BRANCH  24  25
ATOM     25  C   UNL A   1      32.890  32.723  27.462  1.00  0.00     0.116 C 
BRANCH  25  26
ATOM     26  N   UNL A   1      32.528  34.103  27.752  1.00  0.00    -0.352 N 
ATOM     27  C   UNL A   1      33.084  34.949  28.682  1.00  0.00     0.251 C 
ATOM     28  H   UNL A   1      31.792  34.477  27.214  1.00  0.00     0.163 HD
ATOM     29  O   UNL A   1      32.614  36.070  28.863  1.00  0.00    -0.269 OA
BRANCH  27  30
ATOM     30  C   UNL A   1      34.229  34.479  29.488  1.00  0.00     0.039 A 
ATOM     31  C   UNL A   1      33.989  33.666  30.599  1.00  0.00     0.014 A 
ATOM     32  C   UNL A   1      35.536  34.797  29.112  1.00  0.00     0.014 A 
ATOM     33  C   UNL A   1      35.069  33.113  31.294  1.00  0.00     0.010 A 
ATOM     34  C   UNL A   1      36.604  34.185  29.756  1.00  0.00     0.010 A 
ATOM     35  C   UNL A   1      36.382  33.343  30.856  1.00  0.00    -0.014 A 
BRANCH  35  36
ATOM     36  C   UNL A   1      37.552  32.727  31.530  1.00  0.00     0.031 A 
ATOM     37  C   UNL A   1      38.268  31.579  30.875  1.00  0.00     0.074 A 
ATOM     38  C   UNL A   1      37.892  33.116  32.774  1.00  0.00     0.049 A 
ATOM     39  N   UNL A   1      39.224  30.823  31.347  1.00  0.00    -0.248 NA
ATOM     40  C   UNL A   1      37.822  31.209  29.520  1.00  0.00     0.031 C 
ATOM     41  C   UNL A   1      37.229  34.168  33.546  1.00  0.00     0.029 A 
ATOM     42  N   UNL A   1      38.862  32.644  33.623  1.00  0.00    -0.354 N 
ATOM     43  C   UNL A   1      39.457  29.858  30.374  1.00  0.00     0.074 A 
ATOM     44  C   UNL A   1      38.520  30.106  29.299  1.00  0.00     0.031 C 
ATOM     45  C   UNL A   1      37.813  34.265  34.751  1.00  0.00     0.029 A 
ATOM     46  C   UNL A   1      38.870  33.264  34.851  1.00  0.00     0.049 A 
ATOM     47  H   UNL A   1      39.492  31.929  33.377  1.00  0.00     0.167 HD
ATOM     48  C   UNL A   1      40.386  28.873  30.360  1.00  0.00     0.034 A 
ATOM     49  C   UNL A   1      39.639  33.045  35.936  1.00  0.00     0.034 A 
ATOM     50  C   UNL A   1      41.355  28.673  31.402  1.00  0.00     0.049 A 
ATOM     51  C   UNL A   1      40.702  31.981  35.877  1.00  0.00     0.074 A 
ATOM     52  C   UNL A   1      42.401  27.769  31.442  1.00  0.00     0.029 A 
ATOM     53  N   UNL A   1      41.398  29.389  32.589  1.00  0.00    -0.354 N 
ATOM     54  N   UNL A   1      41.008  31.175  34.888  1.00  0.00    -0.248 NA
ATOM     55  C   UNL A   1      41.549  31.819  37.068  1.00  0.00     0.031 C 
ATOM     56  C   UNL A   1      43.071  27.932  32.660  1.00  0.00     0.029 A 
ATOM     57  C   UNL A   1      42.451  28.947  33.370  1.00  0.00     0.049 A 
ATOM     58  H   UNL A   1      40.771  30.105  32.839  1.00  0.00     0.167 HD
ATOM     59  C   UNL A   1      42.107  30.442  35.320  1.00  0.00     0.074 A 
ATOM     60  C   UNL A   1      42.419  30.906  36.657  1.00  0.00     0.031 C 
ATOM     61  C   UNL A   1      42.788  29.464  34.672  1.00  0.00     0.034 A 
BRANCH  48  62
ATOM     62  C   UNL A   1      40.428  27.978  29.150  1.00  0.00     0.023 A 
ATOM     63  C   UNL A   1      39.519  26.905  29.048  1.00  0.00     0.012 A 
ATOM     64  C   UNL A   1      41.344  28.207  28.107  1.00  0.00     0.148 A 
ATOM     65  C   UNL A   1      39.553  26.046  27.951  1.00  0.00     0.002 A 
ATOM     66  C   UNL A   1      41.342  27.374  26.993  1.00  0.00     0.091 A 
ATOM     67  F   UNL A   1      42.219  29.216  28.229  1.00  0.00    -0.205 F 
ATOM     68  C   UNL A   1      40.458  26.285  26.920  1.00  0.00     0.022 A 
BRANCH  66  69
ATOM     69  S   UNL A   1      42.419  27.655  25.584  1.00  0.00     0.127 S 
ATOM     70  O   UNL A   1      43.739  27.653  26.214  1.00  0.00    -0.237 OA
ATOM     71  O   UNL A   1      42.145  26.490  24.742  1.00  0.00    -0.237 OA
ATOM     72  O   UNL A   1      41.995  28.924  25.010  1.00  0.00    -0.744 OA
ENDBRANCH  66  69
ENDBRANCH  48  62
BRANCH  49  73
ATOM     73  C   UNL A   1      39.491  33.918  37.135  1.00  0.00     0.023 A 
ATOM     74  C   UNL A   1      39.931  35.254  37.063  1.00  0.00     0.012 A 
ATOM     75  C   UNL A   1      38.881  33.458  38.317  1.00  0.00     0.148 A 
ATOM     76  C   UNL A   1      39.787  36.111  38.154  1.00  0.00     0.002 A 
ATOM     77  C   UNL A   1      38.697  34.330  39.383  1.00  0.00     0.091 A 
ATOM     78  F   UNL A   1      38.476  32.181  38.365  1.00  0.00    -0.205 F 
ATOM     79  C   UNL A   1      39.161  35.653  39.308  1.00  0.00     0.022 A 
BRANCH  77  80
ATOM     80  S   UNL A   1      37.797  33.869  40.868  1.00  0.00     0.127 S 
ATOM     81  O   UNL A   1      38.757  32.997  41.540  1.00  0.00    -0.237 OA
ATOM     82  O   UNL A   1      37.590  35.168  41.510  1.00  0.00    -0.237 OA
ATOM     83  O   UNL A   1      36.576  33.224  40.406  1.00  0.00    -0.744 OA
ENDBRANCH  77  80
ENDBRANCH  49  73
BRANCH  61  84
ATOM     84  C   UNL A   1      43.973  28.853  35.370  1.00  0.00     0.023 A 
ATOM     85  C   UNL A   1      45.253  29.416  35.200  1.00  0.00     0.012 A 
ATOM     86  C   UNL A   1      43.801  27.782  36.270  1.00  0.00     0.148 A 
ATOM     87  C   UNL A   1      46.348  28.908  35.899  1.00  0.00     0.002 A 
ATOM     88  C   UNL A   1      44.888  27.312  36.998  1.00  0.00     0.091 A 
ATOM     89  F   UNL A   1      42.578  27.247  36.401  1.00  0.00    -0.205 F 
ATOM     90  C   UNL A   1      46.163  27.866  36.807  1.00  0.00     0.022 A 
BRANCH  88  91
ATOM     91  S   UNL A   1      44.722  26.042  38.257  1.00  0.00     0.127 S 
ATOM     92  O   UNL A   1      43.796  26.672  39.196  1.00  0.00    -0.237 OA
ATOM     93  O   UNL A   1      44.157  24.924  37.501  1.00  0.00    -0.237 OA
ATOM     94  O   UNL A   1      46.066  25.805  38.766  1.00  0.00    -0.744 OA
ENDBRANCH  88  91
ENDBRANCH  61  84
ENDBRANCH  35  36
ENDBRANCH  27  30
ENDBRANCH  25  26
ENDBRANCH  24  25
ENDBRANCH   1  24
TORSDOF 21
ENDMDL
MODEL 2
REMARK VINA RESULT:     -10.2      6.681     11.809
REMARK SMILES COCCN(CC(=O)NCCCCNC(=O)c1ccc(-c2c3nc(c(-c4cccc(S(=O)(=O)[O-])c4F)c4ccc([nH]4)c(-c4cccc(S(=O)(=O)[O-])c4F)c4nc(c(-c5cccc(S(=O)(=O)[O-])c5F)c5ccc2[nH]5)C=C4)C=C3)cc1)C(=O)c1cccc(N)c1
REMARK SMILES IDX 11 1 10 2 9 3 7 4 8 5 6 7 5 8 4 9 3 10 2 11 1 12 80 13 81 14
REMARK SMILES IDX 82 15 83 16 88 17 84 18 86 19 85 20 87 21 12 24 13 25 14 26
REMARK SMILES IDX 15 27 16 29 17 30 18 31 79 32 19 33 78 34 20 35 21 36 22 37
REMARK SMILES IDX 72 38 23 39 77 40 71 41 73 42 24 43 76 44 70 45 69 46 25 48
REMARK SMILES IDX 57 49 37 50 56 51 38 52 41 53 55 54 74 55 39 56 40 57 54 59
REMARK SMILES IDX 75 60 42 61 26 62 27 63 35 64 28 65 30 66 36 67 29 68 31 69
REMARK SMILES IDX 32 70 33 71 34 72 58 73 59 74 67 75 60 76 62 77 68 78 61 79
REMARK SMILES IDX 63 80 64 81 65 82 66 83 43 84 44 85 52 86 45 87 47 88 53 89
REMARK SMILES IDX 46 90 48 91 49 92 50 93 51 94
REMARK H PARENT 9 6 87 22 87 23 14 28 73 47 41 58
REMARK Flexibility Score: inf
ROOT
ATOM      1  C   UNL A   1      36.902  19.232  24.981  1.00  0.00     0.023 C 
ENDROOT
BRANCH   1   2
ATOM      2  C   UNL A   1      35.745  20.226  24.923  1.00  0.00     0.116 C 
BRANCH   2   3
ATOM      3  N   UNL A   1      34.434  19.626  25.032  1.00  0.00    -0.355 N 
ATOM      4  C   UNL A   1      33.291  20.124  25.584  1.00  0.00     0.239 C 
ATOM      5  O   UNL A   1      32.227  19.621  25.207  1.00  0.00    -0.273 OA
ATOM      6  H   UNL A   1      34.355  18.722  24.651  1.00  0.00     0.163 HD
BRANCH   4   7
ATOM      7  C   UNL A   1      33.273  21.353  26.517  1.00  0.00     0.219 C 
BRANCH   7   8
ATOM      8  N   UNL A   1      33.691  22.647  25.962  1.00  0.00    -0.327 N 
BRANCH   8   9
ATOM      9  C   UNL A   1      34.834  23.331  26.593  1.00  0.00     0.149 C 
BRANCH   9  10
ATOM     10  C   UNL A   1      35.840  23.955  25.610  1.00  0.00     0.181 C 
BRANCH  10  11
ATOM     11  O   UNL A   1      37.098  23.287  25.626  1.00  0.00    -0.383 OA
ATOM     12  C   UNL A   1      38.115  24.009  26.301  1.00  0.00     0.194 C 
ENDBRANCH  10  11
ENDBRANCH   9  10
ENDBRANCH   8   9
BRANCH   8  13
ATOM     13  C   UNL A   1      33.184  23.190  24.773  1.00  0.00     0.254 C 
ATOM     14  O   UNL A   1      33.511  22.786  23.660  1.00  0.00    -0.269 OA
BRANCH  13  15
ATOM     15  C   UNL A   1      32.125  24.222  24.819  1.00  0.00     0.042 A 
ATOM     16  C   UNL A   1      32.231  25.296  23.929  1.00  0.00     0.014 A 
ATOM     17  C   UNL A   1      31.085  24.187  25.750  1.00  0.00     0.039 A 
ATOM     18  C   UNL A   1      31.264  26.297  23.931  1.00  0.00     0.003 A 
ATOM     19  C   UNL A   1      30.077  25.155  25.717  1.00  0.00     0.032 A 
ATOM     20  C   UNL A   1      30.191  26.220  24.820  1.00  0.00     0.025 A 
BRANCH  19  21
ATOM     21  N   UNL A   1      29.045  25.127  26.639  1.00  0.00    -0.399 N 
ATOM     22  H   UNL A   1      28.253  25.697  26.509  1.00  0.00     0.156 HD
ATOM     23  H   UNL A   1      29.103  24.537  27.425  1.00  0.00     0.156 HD
ENDBRANCH  19  21
ENDBRANCH  13  15
ENDBRANCH   8  13
ENDBRANCH   7   8
ENDBRANCH   4   7
ENDBRANCH   2   3
ENDBRANCH   1   2
BRANCH   1  24
ATOM     24  C   UNL A   1      38.294  19.826  24.783  1.00  0.00     0.023 C 
BRANCH  24  25
ATOM     25  C   UNL A   1      39.171  19.874  26.025  1.00  0.00     0.116 C 
BRANCH  25  26
ATOM     26  N   UNL A   1      40.383  19.075  25.919  1.00  0.00    -0.352 N 
ATOM     27  C   UNL A   1      41.686  19.483  26.081  1.00  0.00     0.251 C 
ATOM     28  H   UNL A   1      40.253  18.122  25.704  1.00  0.00     0.163 HD
ATOM     29  O   UNL A   1      42.613  18.701  25.881  1.00  0.00    -0.269 OA
BRANCH  27  30
ATOM     30  C   UNL A   1      41.959  20.885  26.460  1.00  0.00     0.039 A 
ATOM     31  C   UNL A   1      42.273  21.181  27.788  1.00  0.00     0.014 A 
ATOM     32  C   UNL A   1      41.957  21.891  25.491  1.00  0.00     0.014 A 
ATOM     33  C   UNL A   1      42.655  22.480  28.133  1.00  0.00     0.010 A 
ATOM     34  C   UNL A   1      42.411  23.162  25.820  1.00  0.00     0.010 A 
ATOM     35  C   UNL A   1      42.759  23.471  27.145  1.00  0.00    -0.014 A 
BRANCH  35  36
ATOM     36  C   UNL A   1      43.216  24.848  27.459  1.00  0.00     0.031 A 
ATOM     37  C   UNL A   1      42.259  25.824  28.083  1.00  0.00     0.074 A 
ATOM     38  C   UNL A   1      44.442  25.252  27.075  1.00  0.00     0.049 A 
ATOM     39  N   UNL A   1      42.416  27.099  28.319  1.00  0.00    -0.248 NA
ATOM     40  C   UNL A   1      40.933  25.302  28.458  1.00  0.00     0.031 C 
ATOM     41  C   UNL A   1      45.437  24.420  26.395  1.00  0.00     0.029 A 
ATOM     42  N   UNL A   1      45.048  26.480  27.172  1.00  0.00    -0.354 N 
ATOM     43  C   UNL A   1      41.197  27.544  28.818  1.00  0.00     0.074 A 
ATOM     44  C   UNL A   1      40.301  26.408  28.821  1.00  0.00     0.031 C 
ATOM     45  C   UNL A   1      46.528  25.159  26.141  1.00  0.00     0.029 A 
ATOM     46  C   UNL A   1      46.303  26.523  26.610  1.00  0.00     0.049 A 
ATOM     47  H   UNL A   1      44.625  27.257  27.604  1.00  0.00     0.167 HD
ATOM     48  C   UNL A   1      40.861  28.778  29.264  1.00  0.00     0.034 A 
ATOM     49  C   UNL A   1      47.169  27.546  26.482  1.00  0.00     0.034 A 
ATOM     50  C   UNL A   1      41.774  29.885  29.318  1.00  0.00     0.049 A 
ATOM     51  C   UNL A   1      46.795  28.896  27.034  1.00  0.00     0.074 A 
ATOM     52  C   UNL A   1      41.565  31.148  29.841  1.00  0.00     0.029 A 
ATOM     53  N   UNL A   1      43.073  29.862  28.832  1.00  0.00    -0.354 N 
ATOM     54  N   UNL A   1      45.690  29.261  27.640  1.00  0.00    -0.248 NA
ATOM     55  C   UNL A   1      47.796  29.965  26.917  1.00  0.00     0.031 C 
ATOM     56  C   UNL A   1      42.736  31.894  29.661  1.00  0.00     0.029 A 
ATOM     57  C   UNL A   1      43.678  31.089  29.040  1.00  0.00     0.049 A 
ATOM     58  H   UNL A   1      43.501  29.088  28.401  1.00  0.00     0.167 HD
ATOM     59  C   UNL A   1      45.880  30.585  28.015  1.00  0.00     0.074 A 
ATOM     60  C   UNL A   1      47.210  30.957  27.575  1.00  0.00     0.031 C 
ATOM     61  C   UNL A   1      45.026  31.423  28.654  1.00  0.00     0.034 A 
BRANCH  48  62
ATOM     62  C   UNL A   1      39.459  28.969  29.780  1.00  0.00     0.023 A 
ATOM     63  C   UNL A   1      39.157  28.628  31.114  1.00  0.00     0.012 A 
ATOM     64  C   UNL A   1      38.448  29.505  28.960  1.00  0.00     0.148 A 
ATOM     65  C   UNL A   1      37.862  28.770  31.610  1.00  0.00     0.002 A 
ATOM     66  C   UNL A   1      37.170  29.688  29.475  1.00  0.00     0.091 A 
ATOM     67  F   UNL A   1      38.743  29.801  27.686  1.00  0.00    -0.205 F 
ATOM     68  C   UNL A   1      36.871  29.309  30.794  1.00  0.00     0.022 A 
BRANCH  66  69
ATOM     69  S   UNL A   1      35.852  30.447  28.519  1.00  0.00     0.127 S 
ATOM     70  O   UNL A   1      35.112  31.169  29.553  1.00  0.00    -0.237 OA
ATOM     71  O   UNL A   1      36.592  31.304  27.590  1.00  0.00    -0.237 OA
ATOM     72  O   UNL A   1      35.141  29.347  27.885  1.00  0.00    -0.744 OA
ENDBRANCH  66  69
ENDBRANCH  48  62
BRANCH  49  73
ATOM     73  C   UNL A   1      48.514  27.307  25.887  1.00  0.00     0.023 A 
ATOM     74  C   UNL A   1      49.543  26.805  26.709  1.00  0.00     0.012 A 
ATOM     75  C   UNL A   1      48.770  27.520  24.520  1.00  0.00     0.148 A 
ATOM     76  C   UNL A   1      50.808  26.542  26.185  1.00  0.00     0.002 A 
ATOM     77  C   UNL A   1      50.019  27.211  23.994  1.00  0.00     0.091 A 
ATOM     78  F   UNL A   1      47.778  28.004  23.758  1.00  0.00    -0.205 F 
ATOM     79  C   UNL A   1      51.043  26.734  24.828  1.00  0.00     0.022 A 
BRANCH  77  80
ATOM     80  S   UNL A   1      50.383  27.312  22.238  1.00  0.00     0.127 S 
ATOM     81  O   UNL A   1      50.265  28.747  21.991  1.00  0.00    -0.237 OA
ATOM     82  O   UNL A   1      51.749  26.788  22.184  1.00  0.00    -0.237 OA
ATOM     83  O   UNL A   1      49.390  26.475  21.579  1.00  0.00    -0.744 OA
ENDBRANCH  77  80
ENDBRANCH  49  73
BRANCH  61  84
ATOM     84  C   UNL A   1      45.507  32.814  28.967  1.00  0.00     0.023 A 
ATOM     85  C   UNL A   1      46.222  33.057  30.157  1.00  0.00     0.012 A 
ATOM     86  C   UNL A   1      45.336  33.857  28.036  1.00  0.00     0.148 A 
ATOM     87  C   UNL A   1      46.740  34.323  30.424  1.00  0.00     0.002 A 
ATOM     88  C   UNL A   1      45.895  35.105  28.288  1.00  0.00     0.091 A 
ATOM     89  F   UNL A   1      44.635  33.611  26.920  1.00  0.00    -0.205 F 
ATOM     90  C   UNL A   1      46.589  35.343  29.486  1.00  0.00     0.022 A 
BRANCH  88  91
ATOM     91  S   UNL A   1      45.834  36.444  27.092  1.00  0.00     0.127 S 
ATOM     92  O   UNL A   1      44.398  36.709  27.016  1.00  0.00    -0.237 OA
ATOM     93  O   UNL A   1      46.612  37.490  27.755  1.00  0.00    -0.237 OA
ATOM     94  O   UNL A   1      46.440  35.922  25.876  1.00  0.00    -0.744 OA
ENDBRANCH  88  91
ENDBRANCH  61  84
ENDBRANCH  35  36
ENDBRANCH  27  30
ENDBRANCH  25  26
ENDBRANCH  24  25
ENDBRANCH   1  24
TORSDOF 21
ENDMDL
MODEL 3
REMARK VINA RESULT:     -10.2      1.970      8.339
REMARK SMILES COCCN(CC(=O)NCCCCNC(=O)c1ccc(-c2c3nc(c(-c4cccc(S(=O)(=O)[O-])c4F)c4ccc([nH]4)c(-c4cccc(S(=O)(=O)[O-])c4F)c4nc(c(-c5cccc(S(=O)(=O)[O-])c5F)c5ccc2[nH]5)C=C4)C=C3)cc1)C(=O)c1cccc(N)c1
REMARK SMILES IDX 11 1 10 2 9 3 7 4 8 5 6 7 5 8 4 9 3 10 2 11 1 12 80 13 81 14
REMARK SMILES IDX 82 15 83 16 88 17 84 18 86 19 85 20 87 21 12 24 13 25 14 26
REMARK SMILES IDX 15 27 16 29 17 30 18 31 79 32 19 33 78 34 20 35 21 36 22 37
REMARK SMILES IDX 72 38 23 39 77 40 71 41 73 42 24 43 76 44 70 45 69 46 25 48
REMARK SMILES IDX 57 49 37 50 56 51 38 52 41 53 55 54 74 55 39 56 40 57 54 59
REMARK SMILES IDX 75 60 42 61 26 62 27 63 35 64 28 65 30 66 36 67 29 68 31 69
REMARK SMILES IDX 32 70 33 71 34 72 58 73 59 74 67 75 60 76 62 77 68 78 61 79
REMARK SMILES IDX 63 80 64 81 65 82 66 83 43 84 44 85 52 86 45 87 47 88 53 89
REMARK SMILES IDX 46 90 48 91 49 92 50 93 51 94
REMARK H PARENT 9 6 87 22 87 23 14 28 73 47 41 58
REMARK Flexibility Score: inf
ROOT
ATOM      1  C   UNL A   1      31.736  30.199  26.642  1.00  0.00     0.023 C 
ENDROOT
BRANCH   1   2
ATOM      2  C   UNL A   1      32.975  29.755  25.867  1.00  0.00     0.116 C 
BRANCH   2   3
ATOM      3  N   UNL A   1      32.797  29.705  24.433  1.00  0.00    -0.355 N 
ATOM      4  C   UNL A   1      33.097  28.707  23.553  1.00  0.00     0.239 C 
ATOM      5  O   UNL A   1      32.498  28.722  22.472  1.00  0.00    -0.273 OA
ATOM      6  H   UNL A   1      32.400  30.511  24.032  1.00  0.00     0.163 HD
BRANCH   4   7
ATOM      7  C   UNL A   1      34.015  27.519  23.908  1.00  0.00     0.219 C 
BRANCH   7   8
ATOM      8  N   UNL A   1      33.408  26.184  24.009  1.00  0.00    -0.327 N 
BRANCH   8   9
ATOM      9  C   UNL A   1      32.319  25.994  24.983  1.00  0.00     0.149 C 
BRANCH   9  10
ATOM     10  C   UNL A   1      30.953  25.644  24.368  1.00  0.00     0.181 C 
BRANCH  10  11
ATOM     11  O   UNL A   1      30.294  24.596  25.074  1.00  0.00    -0.383 OA
ATOM     12  C   UNL A   1      30.955  24.214  26.269  1.00  0.00     0.194 C 
ENDBRANCH  10  11
ENDBRANCH   9  10
ENDBRANCH   8   9
BRANCH   8  13
ATOM     13  C   UNL A   1      33.682  25.131  23.125  1.00  0.00     0.254 C 
ATOM     14  O   UNL A   1      33.645  25.256  21.903  1.00  0.00    -0.269 OA
BRANCH  13  15
ATOM     15  C   UNL A   1      34.147  23.826  23.645  1.00  0.00     0.042 A 
ATOM     16  C   UNL A   1      35.516  23.680  23.888  1.00  0.00     0.014 A 
ATOM     17  C   UNL A   1      33.285  22.743  23.831  1.00  0.00     0.039 A 
ATOM     18  C   UNL A   1      36.010  22.473  24.375  1.00  0.00     0.003 A 
ATOM     19  C   UNL A   1      33.762  21.548  24.377  1.00  0.00     0.032 A 
ATOM     20  C   UNL A   1      35.132  21.416  24.621  1.00  0.00     0.025 A 
BRANCH  19  21
ATOM     21  N   UNL A   1      32.913  20.471  24.560  1.00  0.00    -0.399 N 
ATOM     22  H   UNL A   1      32.058  20.593  25.032  1.00  0.00     0.156 HD
ATOM     23  H   UNL A   1      33.165  19.582  24.220  1.00  0.00     0.156 HD
ENDBRANCH  19  21
ENDBRANCH  13  15
ENDBRANCH   8  13
ENDBRANCH   7   8
ENDBRANCH   4   7
ENDBRANCH   2   3
ENDBRANCH   1   2
BRANCH   1  24
ATOM     24  C   UNL A   1      31.567  31.707  26.809  1.00  0.00     0.023 C 
BRANCH  24  25
ATOM     25  C   UNL A   1      32.832  32.476  27.158  1.00  0.00     0.116 C 
BRANCH  25  26
ATOM     26  N   UNL A   1      32.588  33.851  27.569  1.00  0.00    -0.352 N 
ATOM     27  C   UNL A   1      33.232  34.572  28.547  1.00  0.00     0.251 C 
ATOM     28  H   UNL A   1      31.873  34.325  27.085  1.00  0.00     0.163 HD
ATOM     29  O   UNL A   1      32.858  35.707  28.832  1.00  0.00    -0.269 OA
BRANCH  27  30
ATOM     30  C   UNL A   1      34.354  33.949  29.278  1.00  0.00     0.039 A 
ATOM     31  C   UNL A   1      34.076  33.057  30.318  1.00  0.00     0.014 A 
ATOM     32  C   UNL A   1      35.674  34.204  28.899  1.00  0.00     0.014 A 
ATOM     33  C   UNL A   1      35.124  32.367  30.932  1.00  0.00     0.010 A 
ATOM     34  C   UNL A   1      36.706  33.461  29.457  1.00  0.00     0.010 A 
ATOM     35  C   UNL A   1      36.443  32.540  30.484  1.00  0.00    -0.014 A 
BRANCH  35  36
ATOM     36  C   UNL A   1      37.577  31.783  31.070  1.00  0.00     0.031 A 
ATOM     37  C   UNL A   1      38.057  32.120  32.454  1.00  0.00     0.074 A 
ATOM     38  C   UNL A   1      38.245  30.886  30.320  1.00  0.00     0.049 A 
ATOM     39  N   UNL A   1      39.103  31.673  33.098  1.00  0.00    -0.248 NA
ATOM     40  C   UNL A   1      37.278  33.125  33.198  1.00  0.00     0.031 C 
ATOM     41  C   UNL A   1      37.922  30.524  28.939  1.00  0.00     0.029 A 
ATOM     42  N   UNL A   1      39.361  30.139  30.606  1.00  0.00    -0.354 N 
ATOM     43  C   UNL A   1      39.138  32.375  34.296  1.00  0.00     0.074 A 
ATOM     44  C   UNL A   1      38.026  33.302  34.276  1.00  0.00     0.031 C 
ATOM     45  C   UNL A   1      38.814  29.623  28.500  1.00  0.00     0.029 A 
ATOM     46  C   UNL A   1      39.791  29.364  29.553  1.00  0.00     0.049 A 
ATOM     47  H   UNL A   1      39.811  30.155  31.481  1.00  0.00     0.167 HD
ATOM     48  C   UNL A   1      39.997  32.242  35.334  1.00  0.00     0.034 A 
ATOM     49  C   UNL A   1      40.854  28.544  29.449  1.00  0.00     0.034 A 
ATOM     50  C   UNL A   1      41.060  31.276  35.375  1.00  0.00     0.049 A 
ATOM     51  C   UNL A   1      41.765  28.370  30.635  1.00  0.00     0.074 A 
ATOM     52  C   UNL A   1      41.925  30.991  36.415  1.00  0.00     0.029 A 
ATOM     53  N   UNL A   1      41.402  30.435  34.327  1.00  0.00    -0.354 N 
ATOM     54  N   UNL A   1      41.694  28.934  31.818  1.00  0.00    -0.248 NA
ATOM     55  C   UNL A   1      42.879  27.424  30.487  1.00  0.00     0.031 C 
ATOM     56  C   UNL A   1      42.799  29.983  35.991  1.00  0.00     0.029 A 
ATOM     57  C   UNL A   1      42.467  29.631  34.693  1.00  0.00     0.049 A 
ATOM     58  H   UNL A   1      40.954  30.414  33.450  1.00  0.00     0.167 HD
ATOM     59  C   UNL A   1      42.725  28.380  32.567  1.00  0.00     0.074 A 
ATOM     60  C   UNL A   1      43.401  27.429  31.707  1.00  0.00     0.031 C 
ATOM     61  C   UNL A   1      43.087  28.643  33.847  1.00  0.00     0.034 A 
BRANCH  48  62
ATOM     62  C   UNL A   1      39.779  33.129  36.531  1.00  0.00     0.023 A 
ATOM     63  C   UNL A   1      40.358  34.414  36.559  1.00  0.00     0.012 A 
ATOM     64  C   UNL A   1      38.987  32.707  37.616  1.00  0.00     0.148 A 
ATOM     65  C   UNL A   1      40.194  35.246  37.666  1.00  0.00     0.002 A 
ATOM     66  C   UNL A   1      38.789  33.560  38.696  1.00  0.00     0.091 A 
ATOM     67  F   UNL A   1      38.464  31.473  37.587  1.00  0.00    -0.205 F 
ATOM     68  C   UNL A   1      39.402  34.822  38.730  1.00  0.00     0.022 A 
BRANCH  66  69
ATOM     69  S   UNL A   1      37.721  33.127  40.074  1.00  0.00     0.127 S 
ATOM     70  O   UNL A   1      38.417  31.971  40.638  1.00  0.00    -0.237 OA
ATOM     71  O   UNL A   1      37.775  34.333  40.903  1.00  0.00    -0.237 OA
ATOM     72  O   UNL A   1      36.415  32.857  39.491  1.00  0.00    -0.744 OA
ENDBRANCH  66  69
ENDBRANCH  48  62
BRANCH  49  73
ATOM     73  C   UNL A   1      41.058  27.753  28.202  1.00  0.00     0.023 A 
ATOM     74  C   UNL A   1      41.661  28.376  27.092  1.00  0.00     0.012 A 
ATOM     75  C   UNL A   1      40.712  26.391  28.122  1.00  0.00     0.148 A 
ATOM     76  C   UNL A   1      41.894  27.664  25.916  1.00  0.00     0.002 A 
ATOM     77  C   UNL A   1      40.991  25.675  26.964  1.00  0.00     0.091 A 
ATOM     78  F   UNL A   1      40.133  25.821  29.189  1.00  0.00    -0.205 F 
ATOM     79  C   UNL A   1      41.570  26.312  25.855  1.00  0.00     0.022 A 
BRANCH  77  80
ATOM     80  S   UNL A   1      40.718  23.904  26.831  1.00  0.00     0.127 S 
ATOM     81  O   UNL A   1      39.300  23.846  26.485  1.00  0.00    -0.237 OA
ATOM     82  O   UNL A   1      41.632  23.540  25.747  1.00  0.00    -0.237 OA
ATOM     83  O   UNL A   1      41.073  23.351  28.130  1.00  0.00    -0.744 OA
ENDBRANCH  77  80
ENDBRANCH  49  73
BRANCH  61  84
ATOM     84  C   UNL A   1      44.238  27.864  34.426  1.00  0.00     0.023 A 
ATOM     85  C   UNL A   1      45.542  28.393  34.365  1.00  0.00     0.012 A 
ATOM     86  C   UNL A   1      44.010  26.657  35.115  1.00  0.00     0.148 A 
ATOM     87  C   UNL A   1      46.606  27.719  34.964  1.00  0.00     0.002 A 
ATOM     88  C   UNL A   1      45.068  26.016  35.750  1.00  0.00     0.091 A 
ATOM     89  F   UNL A   1      42.764  26.161  35.144  1.00  0.00    -0.205 F 
ATOM     90  C   UNL A   1      46.368  26.539  35.666  1.00  0.00     0.022 A 
BRANCH  88  91
ATOM     91  S   UNL A   1      44.835  24.547  36.757  1.00  0.00     0.127 S 
ATOM     92  O   UNL A   1      44.378  23.574  35.765  1.00  0.00    -0.237 OA
ATOM     93  O   UNL A   1      46.182  24.305  37.273  1.00  0.00    -0.237 OA
ATOM     94  O   UNL A   1      43.858  24.910  37.774  1.00  0.00    -0.744 OA
ENDBRANCH  88  91
ENDBRANCH  61  84
ENDBRANCH  35  36
ENDBRANCH  27  30
ENDBRANCH  25  26
ENDBRANCH  24  25
ENDBRANCH   1  24
TORSDOF 21
ENDMDL
