MODEL 1
REMARK VINA RESULT:     -11.9      0.000      0.000
REMARK SMILES C[C@H](C[C@@H]1CCCC[NH2+]1)Nc1cc(C(=O)NCCCCNC(=O)c2ccc(-c3c4nc(c(-c5cccc(S(=O)(=O)[O-])c5F)c5ccc([nH]5)c(-c5cccc(S(=O)(=O)[O-])c5F)c5nc(c(-c6cccc(S(=O)(=O)[O-])c6F)c6ccc3[nH]6)C=C5)C=C4)cc2)ccc1F
REMARK SMILES IDX 18 1 17 2 16 3 14 4 15 5 13 7 11 8 12 9 89 10 88 11 90 12
REMARK SMILES IDX 87 13 10 14 2 16 1 17 3 18 4 19 5 20 9 21 6 22 8 23 7 26
REMARK SMILES IDX 19 27 20 28 21 29 22 30 23 32 24 33 25 34 86 35 26 36 85 37
REMARK SMILES IDX 27 38 28 39 29 40 79 41 30 42 84 43 78 44 80 45 31 46 83 47
REMARK SMILES IDX 77 48 76 49 32 51 64 52 44 53 63 54 45 55 48 56 62 57 81 58
REMARK SMILES IDX 46 59 47 60 61 62 82 63 49 64 33 65 34 66 42 67 35 68 37 69
REMARK SMILES IDX 43 70 36 71 38 72 39 73 40 74 41 75 65 76 66 77 74 78 67 79
REMARK SMILES IDX 69 80 75 81 68 82 70 83 71 84 72 85 73 86 50 87 51 88 59 89
REMARK SMILES IDX 52 90 54 91 60 92 53 93 55 94 56 95 57 96 58 97
REMARK H PARENT 16 6 10 15 9 24 9 25 21 31 80 50 48 61
REMARK Flexibility Score: inf
ROOT
ATOM      1  C   UNL A   1      32.313  30.170  26.790  1.00  0.00     0.023 C 
ENDROOT
BRANCH   1   2
ATOM      2  C   UNL A   1      32.388  29.721  25.330  1.00  0.00     0.116 C 
BRANCH   2   3
ATOM      3  N   UNL A   1      31.140  29.998  24.656  1.00  0.00    -0.352 N 
ATOM      4  C   UNL A   1      30.374  29.275  23.782  1.00  0.00     0.251 C 
ATOM      5  O   UNL A   1      29.365  29.833  23.345  1.00  0.00    -0.269 OA
ATOM      6  H   UNL A   1      30.766  30.884  24.867  1.00  0.00     0.163 HD
BRANCH   4   7
ATOM      7  C   UNL A   1      30.650  27.861  23.368  1.00  0.00     0.042 A 
ATOM      8  C   UNL A   1      30.558  25.511  24.120  1.00  0.00     0.071 A 
ATOM      9  C   UNL A   1      30.314  26.878  24.317  1.00  0.00     0.042 A 
ATOM     10  C   UNL A   1      31.192  25.138  22.934  1.00  0.00     0.146 A 
ATOM     11  C   UNL A   1      31.477  26.077  21.946  1.00  0.00     0.042 A 
ATOM     12  F   UNL A   1      31.473  23.849  22.687  1.00  0.00    -0.205 F 
ATOM     13  C   UNL A   1      31.185  27.431  22.154  1.00  0.00     0.017 A 
BRANCH   8  14
ATOM     14  N   UNL A   1      30.179  24.635  25.117  1.00  0.00    -0.380 N 
ATOM     15  H   UNL A   1      29.247  24.671  25.430  1.00  0.00     0.160 HD
BRANCH  14  16
ATOM     16  C   UNL A   1      31.061  23.665  25.736  1.00  0.00     0.082 C 
ATOM     17  C   UNL A   1      30.313  22.973  26.874  1.00  0.00     0.031 C 
BRANCH  16  18
ATOM     18  C   UNL A   1      32.374  24.332  26.224  1.00  0.00     0.089 C 
BRANCH  18  19
ATOM     19  C   UNL A   1      33.694  23.556  25.974  1.00  0.00     0.184 C 
ATOM     20  C   UNL A   1      34.844  24.496  25.558  1.00  0.00     0.065 C 
ATOM     21  N   UNL A   1      33.482  22.576  24.887  1.00  0.00    -0.344 N 
ATOM     22  C   UNL A   1      36.129  23.728  25.273  1.00  0.00     0.012 C 
ATOM     23  C   UNL A   1      34.686  21.784  24.619  1.00  0.00     0.260 C 
ATOM     24  H   UNL A   1      33.222  23.078  24.037  1.00  0.00     0.346 HD
ATOM     25  H   UNL A   1      32.742  21.936  25.178  1.00  0.00     0.346 HD
ATOM     26  C   UNL A   1      35.873  22.657  24.225  1.00  0.00     0.062 C 
ENDBRANCH  18  19
ENDBRANCH  16  18
ENDBRANCH  14  16
ENDBRANCH   8  14
ENDBRANCH   4   7
ENDBRANCH   2   3
ENDBRANCH   1   2
BRANCH   1  27
ATOM     27  C   UNL A   1      31.938  31.644  26.969  1.00  0.00     0.023 C 
BRANCH  27  28
ATOM     28  C   UNL A   1      33.108  32.571  27.289  1.00  0.00     0.116 C 
BRANCH  28  29
ATOM     29  N   UNL A   1      32.691  33.923  27.635  1.00  0.00    -0.352 N 
ATOM     30  C   UNL A   1      33.182  34.743  28.624  1.00  0.00     0.251 C 
ATOM     31  H   UNL A   1      31.963  34.299  27.091  1.00  0.00     0.163 HD
ATOM     32  O   UNL A   1      32.654  35.822  28.848  1.00  0.00    -0.269 OA
BRANCH  30  33
ATOM     33  C   UNL A   1      34.326  34.281  29.438  1.00  0.00     0.039 A 
ATOM     34  C   UNL A   1      34.066  33.561  30.606  1.00  0.00     0.014 A 
ATOM     35  C   UNL A   1      35.639  34.520  29.028  1.00  0.00     0.014 A 
ATOM     36  C   UNL A   1      35.129  33.021  31.330  1.00  0.00     0.010 A 
ATOM     37  C   UNL A   1      36.693  33.928  29.715  1.00  0.00     0.010 A 
ATOM     38  C   UNL A   1      36.448  33.169  30.871  1.00  0.00    -0.014 A 
BRANCH  38  39
ATOM     39  C   UNL A   1      37.581  32.512  31.567  1.00  0.00     0.031 A 
ATOM     40  C   UNL A   1      38.296  31.356  30.928  1.00  0.00     0.074 A 
ATOM     41  C   UNL A   1      37.910  32.911  32.812  1.00  0.00     0.049 A 
ATOM     42  N   UNL A   1      39.278  30.634  31.402  1.00  0.00    -0.248 NA
ATOM     43  C   UNL A   1      37.837  30.938  29.592  1.00  0.00     0.031 C 
ATOM     44  C   UNL A   1      37.237  33.970  33.564  1.00  0.00     0.029 A 
ATOM     45  N   UNL A   1      38.881  32.460  33.670  1.00  0.00    -0.354 N 
ATOM     46  C   UNL A   1      39.536  29.665  30.442  1.00  0.00     0.074 A 
ATOM     47  C   UNL A   1      38.585  29.866  29.371  1.00  0.00     0.031 C 
ATOM     48  C   UNL A   1      37.825  34.101  34.764  1.00  0.00     0.029 A 
ATOM     49  C   UNL A   1      38.899  33.119  34.878  1.00  0.00     0.049 A 
ATOM     50  H   UNL A   1      39.506  31.734  33.444  1.00  0.00     0.167 HD
ATOM     51  C   UNL A   1      40.502  28.718  30.435  1.00  0.00     0.034 A 
ATOM     52  C   UNL A   1      39.694  32.954  35.954  1.00  0.00     0.034 A 
ATOM     53  C   UNL A   1      41.477  28.557  31.478  1.00  0.00     0.049 A 
ATOM     54  C   UNL A   1      40.788  31.922  35.902  1.00  0.00     0.074 A 
ATOM     55  C   UNL A   1      42.542  27.675  31.528  1.00  0.00     0.029 A 
ATOM     56  N   UNL A   1      41.512  29.295  32.651  1.00  0.00    -0.354 N 
ATOM     57  N   UNL A   1      41.106  31.110  34.923  1.00  0.00    -0.248 NA
ATOM     58  C   UNL A   1      41.654  31.804  37.085  1.00  0.00     0.031 C 
ATOM     59  C   UNL A   1      43.216  27.874  32.735  1.00  0.00     0.029 A 
ATOM     60  C   UNL A   1      42.581  28.890  33.431  1.00  0.00     0.049 A 
ATOM     61  H   UNL A   1      40.873  30.003  32.892  1.00  0.00     0.167 HD
ATOM     62  C   UNL A   1      42.227  30.412  35.356  1.00  0.00     0.074 A 
ATOM     63  C   UNL A   1      42.542  30.907  36.681  1.00  0.00     0.031 C 
ATOM     64  C   UNL A   1      42.921  29.437  34.720  1.00  0.00     0.034 A 
BRANCH  51  65
ATOM     65  C   UNL A   1      40.608  27.827  29.226  1.00  0.00     0.023 A 
ATOM     66  C   UNL A   1      39.720  26.740  29.095  1.00  0.00     0.012 A 
ATOM     67  C   UNL A   1      41.510  28.113  28.183  1.00  0.00     0.148 A 
ATOM     68  C   UNL A   1      39.741  25.938  27.956  1.00  0.00     0.002 A 
ATOM     69  C   UNL A   1      41.498  27.333  27.032  1.00  0.00     0.091 A 
ATOM     70  F   UNL A   1      42.360  29.139  28.336  1.00  0.00    -0.205 F 
ATOM     71  C   UNL A   1      40.620  26.242  26.921  1.00  0.00     0.022 A 
BRANCH  69  72
ATOM     72  S   UNL A   1      42.534  27.687  25.607  1.00  0.00     0.127 S 
ATOM     73  O   UNL A   1      43.861  27.755  26.218  1.00  0.00    -0.237 OA
ATOM     74  O   UNL A   1      42.310  26.512  24.765  1.00  0.00    -0.237 OA
ATOM     75  O   UNL A   1      42.039  28.938  25.051  1.00  0.00    -0.744 OA
ENDBRANCH  69  72
ENDBRANCH  51  65
BRANCH  52  76
ATOM     76  C   UNL A   1      39.544  33.862  37.127  1.00  0.00     0.023 A 
ATOM     77  C   UNL A   1      39.941  35.208  37.005  1.00  0.00     0.012 A 
ATOM     78  C   UNL A   1      38.958  33.425  38.330  1.00  0.00     0.148 A 
ATOM     79  C   UNL A   1      39.774  36.098  38.065  1.00  0.00     0.002 A 
ATOM     80  C   UNL A   1      38.746  34.331  39.365  1.00  0.00     0.091 A 
ATOM     81  F   UNL A   1      38.598  32.138  38.432  1.00  0.00    -0.205 F 
ATOM     82  C   UNL A   1      39.167  35.664  39.240  1.00  0.00     0.022 A 
BRANCH  80  83
ATOM     83  S   UNL A   1      37.845  33.895  40.857  1.00  0.00     0.127 S 
ATOM     84  O   UNL A   1      37.756  35.184  41.539  1.00  0.00    -0.237 OA
ATOM     85  O   UNL A   1      36.581  33.397  40.313  1.00  0.00    -0.237 OA
ATOM     86  O   UNL A   1      38.653  32.881  41.520  1.00  0.00    -0.744 OA
ENDBRANCH  80  83
ENDBRANCH  52  76
BRANCH  64  87
ATOM     87  C   UNL A   1      44.114  28.841  35.419  1.00  0.00     0.023 A 
ATOM     88  C   UNL A   1      45.375  29.453  35.281  1.00  0.00     0.012 A 
ATOM     89  C   UNL A   1      43.959  27.764  36.312  1.00  0.00     0.148 A 
ATOM     90  C   UNL A   1      46.468  28.992  36.014  1.00  0.00     0.002 A 
ATOM     91  C   UNL A   1      45.042  27.338  37.072  1.00  0.00     0.091 A 
ATOM     92  F   UNL A   1      42.752  27.187  36.414  1.00  0.00    -0.205 F 
ATOM     93  C   UNL A   1      46.298  27.946  36.919  1.00  0.00     0.022 A 
BRANCH  91  94
ATOM     94  S   UNL A   1      44.895  26.069  38.335  1.00  0.00     0.127 S 
ATOM     95  O   UNL A   1      43.868  26.637  39.209  1.00  0.00    -0.237 OA
ATOM     96  O   UNL A   1      44.460  24.907  37.560  1.00  0.00    -0.237 OA
ATOM     97  O   UNL A   1      46.218  25.939  38.930  1.00  0.00    -0.744 OA
ENDBRANCH  91  94
ENDBRANCH  64  87
ENDBRANCH  38  39
ENDBRANCH  30  33
ENDBRANCH  28  29
ENDBRANCH  27  28
ENDBRANCH   1  27
TORSDOF 18
ENDMDL
MODEL 2
REMARK VINA RESULT:     -11.8      2.407      8.198
REMARK SMILES C[C@H](C[C@@H]1CCCC[NH2+]1)Nc1cc(C(=O)NCCCCNC(=O)c2ccc(-c3c4nc(c(-c5cccc(S(=O)(=O)[O-])c5F)c5ccc([nH]5)c(-c5cccc(S(=O)(=O)[O-])c5F)c5nc(c(-c6cccc(S(=O)(=O)[O-])c6F)c6ccc3[nH]6)C=C5)C=C4)cc2)ccc1F
REMARK SMILES IDX 18 1 17 2 16 3 14 4 15 5 13 7 11 8 12 9 89 10 88 11 90 12
REMARK SMILES IDX 87 13 10 14 2 16 1 17 3 18 4 19 5 20 9 21 6 22 8 23 7 26
REMARK SMILES IDX 19 27 20 28 21 29 22 30 23 32 24 33 25 34 86 35 26 36 85 37
REMARK SMILES IDX 27 38 28 39 29 40 79 41 30 42 84 43 78 44 80 45 31 46 83 47
REMARK SMILES IDX 77 48 76 49 32 51 64 52 44 53 63 54 45 55 48 56 62 57 81 58
REMARK SMILES IDX 46 59 47 60 61 62 82 63 49 64 33 65 34 66 42 67 35 68 37 69
REMARK SMILES IDX 43 70 36 71 38 72 39 73 40 74 41 75 65 76 66 77 74 78 67 79
REMARK SMILES IDX 69 80 75 81 68 82 70 83 71 84 72 85 73 86 50 87 51 88 59 89
REMARK SMILES IDX 52 90 54 91 60 92 53 93 55 94 56 95 57 96 58 97
REMARK H PARENT 16 6 10 15 9 24 9 25 21 31 80 50 48 61
REMARK Flexibility Score: inf
ROOT
ATOM      1  C   UNL A   1      32.831  29.194  24.055  1.00  0.00     0.023 C 
ENDROOT
BRANCH   1   2
ATOM      2  C   UNL A   1      32.229  28.694  22.741  1.00  0.00     0.116 C 
BRANCH   2   3
ATOM      3  N   UNL A   1      33.009  27.595  22.219  1.00  0.00    -0.352 N 
ATOM      4  C   UNL A   1      33.261  26.332  22.679  1.00  0.00     0.251 C 
ATOM      5  O   UNL A   1      34.025  25.642  22.000  1.00  0.00    -0.269 OA
ATOM      6  H   UNL A   1      33.446  27.796  21.360  1.00  0.00     0.163 HD
BRANCH   4   7
ATOM      7  C   UNL A   1      32.644  25.726  23.904  1.00  0.00     0.042 A 
ATOM      8  C   UNL A   1      33.089  24.268  25.846  1.00  0.00     0.071 A 
ATOM      9  C   UNL A   1      33.512  24.954  24.698  1.00  0.00     0.042 A 
ATOM     10  C   UNL A   1      31.735  24.345  26.176  1.00  0.00     0.146 A 
ATOM     11  C   UNL A   1      30.864  25.152  25.450  1.00  0.00     0.042 A 
ATOM     12  F   UNL A   1      31.257  23.697  27.250  1.00  0.00    -0.205 F 
ATOM     13  C   UNL A   1      31.323  25.859  24.331  1.00  0.00     0.017 A 
BRANCH   8  14
ATOM     14  N   UNL A   1      34.030  23.547  26.554  1.00  0.00    -0.380 N 
ATOM     15  H   UNL A   1      34.515  24.009  27.274  1.00  0.00     0.160 HD
BRANCH  14  16
ATOM     16  C   UNL A   1      34.353  22.156  26.307  1.00  0.00     0.082 C 
ATOM     17  C   UNL A   1      35.464  22.085  25.261  1.00  0.00     0.031 C 
BRANCH  16  18
ATOM     18  C   UNL A   1      33.096  21.356  25.875  1.00  0.00     0.089 C 
BRANCH  18  19
ATOM     19  C   UNL A   1      33.331  19.948  25.268  1.00  0.00     0.184 C 
ATOM     20  C   UNL A   1      32.528  19.742  23.967  1.00  0.00     0.065 C 
ATOM     21  N   UNL A   1      32.903  18.921  26.243  1.00  0.00    -0.344 N 
ATOM     22  C   UNL A   1      32.727  18.344  23.393  1.00  0.00     0.012 C 
ATOM     23  C   UNL A   1      33.127  17.562  25.743  1.00  0.00     0.260 C 
ATOM     24  H   UNL A   1      31.908  19.043  26.433  1.00  0.00     0.346 HD
ATOM     25  H   UNL A   1      33.458  19.041  27.090  1.00  0.00     0.346 HD
ATOM     26  C   UNL A   1      32.378  17.298  24.440  1.00  0.00     0.062 C 
ENDBRANCH  18  19
ENDBRANCH  16  18
ENDBRANCH  14  16
ENDBRANCH   8  14
ENDBRANCH   4   7
ENDBRANCH   2   3
ENDBRANCH   1   2
BRANCH   1  27
ATOM     27  C   UNL A   1      31.789  29.563  25.115  1.00  0.00     0.023 C 
BRANCH  27  28
ATOM     28  C   UNL A   1      32.365  30.003  26.458  1.00  0.00     0.116 C 
BRANCH  28  29
ATOM     29  N   UNL A   1      32.238  31.434  26.697  1.00  0.00    -0.352 N 
ATOM     30  C   UNL A   1      33.094  32.267  27.380  1.00  0.00     0.251 C 
ATOM     31  H   UNL A   1      31.436  31.861  26.321  1.00  0.00     0.163 HD
ATOM     32  O   UNL A   1      32.791  33.435  27.575  1.00  0.00    -0.269 OA
BRANCH  30  33
ATOM     33  C   UNL A   1      34.357  31.717  27.912  1.00  0.00     0.039 A 
ATOM     34  C   UNL A   1      35.429  32.588  28.120  1.00  0.00     0.014 A 
ATOM     35  C   UNL A   1      34.467  30.364  28.240  1.00  0.00     0.014 A 
ATOM     36  C   UNL A   1      36.594  32.112  28.723  1.00  0.00     0.010 A 
ATOM     37  C   UNL A   1      35.604  29.906  28.897  1.00  0.00     0.010 A 
ATOM     38  C   UNL A   1      36.676  30.776  29.149  1.00  0.00    -0.014 A 
BRANCH  38  39
ATOM     39  C   UNL A   1      37.863  30.279  29.888  1.00  0.00     0.031 A 
ATOM     40  C   UNL A   1      38.127  30.737  31.295  1.00  0.00     0.074 A 
ATOM     41  C   UNL A   1      38.742  29.476  29.258  1.00  0.00     0.049 A 
ATOM     42  N   UNL A   1      39.130  30.442  32.079  1.00  0.00    -0.248 NA
ATOM     43  C   UNL A   1      37.152  31.664  31.893  1.00  0.00     0.031 C 
ATOM     44  C   UNL A   1      38.632  29.027  27.869  1.00  0.00     0.029 A 
ATOM     45  N   UNL A   1      39.913  28.909  29.697  1.00  0.00    -0.354 N 
ATOM     46  C   UNL A   1      38.925  31.163  33.247  1.00  0.00     0.074 A 
ATOM     47  C   UNL A   1      37.719  31.940  33.059  1.00  0.00     0.031 C 
ATOM     48  C   UNL A   1      39.679  28.242  27.574  1.00  0.00     0.029 A 
ATOM     49  C   UNL A   1      40.550  28.150  28.743  1.00  0.00     0.049 A 
ATOM     50  H   UNL A   1      40.263  29.033  30.609  1.00  0.00     0.167 HD
ATOM     51  C   UNL A   1      39.653  31.151  34.388  1.00  0.00     0.034 A 
ATOM     52  C   UNL A   1      41.704  27.455  28.803  1.00  0.00     0.034 A 
ATOM     53  C   UNL A   1      40.821  30.337  34.587  1.00  0.00     0.049 A 
ATOM     54  C   UNL A   1      42.470  27.424  30.097  1.00  0.00     0.074 A 
ATOM     55  C   UNL A   1      41.583  30.199  35.732  1.00  0.00     0.029 A 
ATOM     56  N   UNL A   1      41.391  29.521  33.623  1.00  0.00    -0.354 N 
ATOM     57  N   UNL A   1      42.181  28.001  31.238  1.00  0.00    -0.248 NA
ATOM     58  C   UNL A   1      43.702  26.622  30.126  1.00  0.00     0.031 C 
ATOM     59  C   UNL A   1      42.622  29.305  35.459  1.00  0.00     0.029 A 
ATOM     60  C   UNL A   1      42.497  28.875  34.148  1.00  0.00     0.049 A 
ATOM     61  H   UNL A   1      41.060  29.416  32.703  1.00  0.00     0.167 HD
ATOM     62  C   UNL A   1      43.172  27.605  32.128  1.00  0.00     0.074 A 
ATOM     63  C   UNL A   1      44.063  26.726  31.398  1.00  0.00     0.031 C 
ATOM     64  C   UNL A   1      43.337  27.952  33.428  1.00  0.00     0.034 A 
BRANCH  51  65
ATOM     65  C   UNL A   1      39.167  31.984  35.544  1.00  0.00     0.023 A 
ATOM     66  C   UNL A   1      39.365  33.380  35.514  1.00  0.00     0.012 A 
ATOM     67  C   UNL A   1      38.440  31.411  36.604  1.00  0.00     0.148 A 
ATOM     68  C   UNL A   1      38.866  34.190  36.531  1.00  0.00     0.002 A 
ATOM     69  C   UNL A   1      37.909  32.230  37.594  1.00  0.00     0.091 A 
ATOM     70  F   UNL A   1      38.280  30.079  36.624  1.00  0.00    -0.205 F 
ATOM     71  C   UNL A   1      38.128  33.617  37.564  1.00  0.00     0.022 A 
BRANCH  69  72
ATOM     72  S   UNL A   1      36.877  31.602  38.925  1.00  0.00     0.127 S 
ATOM     73  O   UNL A   1      37.802  31.636  40.056  1.00  0.00    -0.237 OA
ATOM     74  O   UNL A   1      35.808  32.601  38.981  1.00  0.00    -0.237 OA
ATOM     75  O   UNL A   1      36.448  30.275  38.508  1.00  0.00    -0.744 OA
ENDBRANCH  69  72
ENDBRANCH  51  65
BRANCH  52  76
ATOM     76  C   UNL A   1      42.140  26.649  27.627  1.00  0.00     0.023 A 
ATOM     77  C   UNL A   1      42.932  27.260  26.635  1.00  0.00     0.012 A 
ATOM     78  C   UNL A   1      41.834  25.279  27.514  1.00  0.00     0.148 A 
ATOM     79  C   UNL A   1      43.397  26.526  25.543  1.00  0.00     0.002 A 
ATOM     80  C   UNL A   1      42.345  24.541  26.451  1.00  0.00     0.091 A 
ATOM     81  F   UNL A   1      41.068  24.718  28.461  1.00  0.00    -0.205 F 
ATOM     82  C   UNL A   1      43.114  25.166  25.457  1.00  0.00     0.022 A 
BRANCH  80  83
ATOM     83  S   UNL A   1      42.150  22.759  26.334  1.00  0.00     0.127 S 
ATOM     84  O   UNL A   1      40.707  22.605  26.490  1.00  0.00    -0.237 OA
ATOM     85  O   UNL A   1      42.658  22.487  24.990  1.00  0.00    -0.237 OA
ATOM     86  O   UNL A   1      42.967  22.204  27.406  1.00  0.00    -0.744 OA
ENDBRANCH  80  83
ENDBRANCH  52  76
BRANCH  64  87
ATOM     87  C   UNL A   1      44.508  27.371  34.176  1.00  0.00     0.023 A 
ATOM     88  C   UNL A   1      45.719  28.087  34.232  1.00  0.00     0.012 A 
ATOM     89  C   UNL A   1      44.364  26.188  34.927  1.00  0.00     0.148 A 
ATOM     90  C   UNL A   1      46.776  27.627  35.017  1.00  0.00     0.002 A 
ATOM     91  C   UNL A   1      45.405  25.760  35.741  1.00  0.00     0.091 A 
ATOM     92  F   UNL A   1      43.206  25.515  34.844  1.00  0.00    -0.205 F 
ATOM     93  C   UNL A   1      46.613  26.473  35.782  1.00  0.00     0.022 A 
BRANCH  91  94
ATOM     94  S   UNL A   1      45.251  24.345  36.839  1.00  0.00     0.127 S 
ATOM     95  O   UNL A   1      46.612  24.226  37.362  1.00  0.00    -0.237 OA
ATOM     96  O   UNL A   1      44.264  24.813  37.812  1.00  0.00    -0.237 OA
ATOM     97  O   UNL A   1      44.803  23.237  36.007  1.00  0.00    -0.744 OA
ENDBRANCH  91  94
ENDBRANCH  64  87
ENDBRANCH  38  39
ENDBRANCH  30  33
ENDBRANCH  28  29
ENDBRANCH  27  28
ENDBRANCH   1  27
TORSDOF 18
ENDMDL
MODEL 3
REMARK VINA RESULT:     -11.7      1.413      2.156
REMARK SMILES C[C@H](C[C@@H]1CCCC[NH2+]1)Nc1cc(C(=O)NCCCCNC(=O)c2ccc(-c3c4nc(c(-c5cccc(S(=O)(=O)[O-])c5F)c5ccc([nH]5)c(-c5cccc(S(=O)(=O)[O-])c5F)c5nc(c(-c6cccc(S(=O)(=O)[O-])c6F)c6ccc3[nH]6)C=C5)C=C4)cc2)ccc1F
REMARK SMILES IDX 18 1 17 2 16 3 14 4 15 5 13 7 11 8 12 9 89 10 88 11 90 12
REMARK SMILES IDX 87 13 10 14 2 16 1 17 3 18 4 19 5 20 9 21 6 22 8 23 7 26
REMARK SMILES IDX 19 27 20 28 21 29 22 30 23 32 24 33 25 34 86 35 26 36 85 37
REMARK SMILES IDX 27 38 28 39 29 40 79 41 30 42 84 43 78 44 80 45 31 46 83 47
REMARK SMILES IDX 77 48 76 49 32 51 64 52 44 53 63 54 45 55 48 56 62 57 81 58
REMARK SMILES IDX 46 59 47 60 61 62 82 63 49 64 33 65 34 66 42 67 35 68 37 69
REMARK SMILES IDX 43 70 36 71 38 72 39 73 40 74 41 75 65 76 66 77 74 78 67 79
REMARK SMILES IDX 69 80 75 81 68 82 70 83 71 84 72 85 73 86 50 87 51 88 59 89
REMARK SMILES IDX 52 90 54 91 60 92 53 93 55 94 56 95 57 96 58 97
REMARK H PARENT 16 6 10 15 9 24 9 25 21 31 80 50 48 61
REMARK Flexibility Score: inf
ROOT
ATOM      1  C   UNL A   1      32.163  30.265  26.141  1.00  0.00     0.023 C 
ENDROOT
BRANCH   1   2
ATOM      2  C   UNL A   1      32.668  29.084  26.970  1.00  0.00     0.116 C 
BRANCH   2   3
ATOM      3  N   UNL A   1      31.630  28.088  27.109  1.00  0.00    -0.352 N 
ATOM      4  C   UNL A   1      31.418  26.876  26.511  1.00  0.00     0.251 C 
ATOM      5  O   UNL A   1      30.385  26.281  26.826  1.00  0.00    -0.269 OA
ATOM      6  H   UNL A   1      30.935  28.331  27.763  1.00  0.00     0.163 HD
BRANCH   4   7
ATOM      7  C   UNL A   1      32.365  26.213  25.556  1.00  0.00     0.042 A 
ATOM      8  C   UNL A   1      33.995  24.374  25.321  1.00  0.00     0.071 A 
ATOM      9  C   UNL A   1      33.032  25.080  26.057  1.00  0.00     0.042 A 
ATOM     10  C   UNL A   1      34.311  24.857  24.050  1.00  0.00     0.146 A 
ATOM     11  C   UNL A   1      33.624  25.935  23.500  1.00  0.00     0.042 A 
ATOM     12  F   UNL A   1      35.237  24.242  23.298  1.00  0.00    -0.205 F 
ATOM     13  C   UNL A   1      32.637  26.596  24.243  1.00  0.00     0.017 A 
BRANCH   8  14
ATOM     14  N   UNL A   1      34.580  23.270  25.909  1.00  0.00    -0.380 N 
ATOM     15  H   UNL A   1      35.498  23.365  26.249  1.00  0.00     0.160 HD
BRANCH  14  16
ATOM     16  C   UNL A   1      33.933  21.982  26.062  1.00  0.00     0.082 C 
ATOM     17  C   UNL A   1      33.782  21.678  27.551  1.00  0.00     0.031 C 
BRANCH  16  18
ATOM     18  C   UNL A   1      34.718  20.869  25.318  1.00  0.00     0.089 C 
BRANCH  18  19
ATOM     19  C   UNL A   1      33.937  19.579  24.956  1.00  0.00     0.184 C 
ATOM     20  C   UNL A   1      34.880  18.446  24.499  1.00  0.00     0.065 C 
ATOM     21  N   UNL A   1      32.999  19.872  23.852  1.00  0.00    -0.344 N 
ATOM     22  C   UNL A   1      34.109  17.191  24.104  1.00  0.00     0.012 C 
ATOM     23  C   UNL A   1      32.204  18.698  23.479  1.00  0.00     0.260 C 
ATOM     24  H   UNL A   1      33.533  20.180  23.039  1.00  0.00     0.346 HD
ATOM     25  H   UNL A   1      32.357  20.599  24.169  1.00  0.00     0.346 HD
ATOM     26  C   UNL A   1      33.079  17.528  23.039  1.00  0.00     0.062 C 
ENDBRANCH  18  19
ENDBRANCH  16  18
ENDBRANCH  14  16
ENDBRANCH   8  14
ENDBRANCH   4   7
ENDBRANCH   2   3
ENDBRANCH   1   2
BRANCH   1  27
ATOM     27  C   UNL A   1      31.802  31.499  26.972  1.00  0.00     0.023 C 
BRANCH  27  28
ATOM     28  C   UNL A   1      32.987  32.373  27.376  1.00  0.00     0.116 C 
BRANCH  28  29
ATOM     29  N   UNL A   1      32.616  33.754  27.649  1.00  0.00    -0.352 N 
ATOM     30  C   UNL A   1      33.154  34.618  28.575  1.00  0.00     0.251 C 
ATOM     31  H   UNL A   1      31.886  34.118  27.098  1.00  0.00     0.163 HD
ATOM     32  O   UNL A   1      32.661  35.723  28.744  1.00  0.00    -0.269 OA
BRANCH  30  33
ATOM     33  C   UNL A   1      34.303  34.172  29.389  1.00  0.00     0.039 A 
ATOM     34  C   UNL A   1      34.053  33.437  30.550  1.00  0.00     0.014 A 
ATOM     35  C   UNL A   1      35.613  34.442  28.987  1.00  0.00     0.014 A 
ATOM     36  C   UNL A   1      35.124  32.913  31.275  1.00  0.00     0.010 A 
ATOM     37  C   UNL A   1      36.676  33.866  29.674  1.00  0.00     0.010 A 
ATOM     38  C   UNL A   1      36.441  33.092  30.822  1.00  0.00    -0.014 A 
BRANCH  38  39
ATOM     39  C   UNL A   1      37.585  32.452  31.518  1.00  0.00     0.031 A 
ATOM     40  C   UNL A   1      38.313  31.302  30.881  1.00  0.00     0.074 A 
ATOM     41  C   UNL A   1      37.913  32.861  32.759  1.00  0.00     0.049 A 
ATOM     42  N   UNL A   1      39.305  30.595  31.355  1.00  0.00    -0.248 NA
ATOM     43  C   UNL A   1      37.854  30.873  29.549  1.00  0.00     0.031 C 
ATOM     44  C   UNL A   1      37.229  33.915  33.509  1.00  0.00     0.029 A 
ATOM     45  N   UNL A   1      38.892  32.426  33.617  1.00  0.00    -0.354 N 
ATOM     46  C   UNL A   1      39.572  29.626  30.399  1.00  0.00     0.074 A 
ATOM     47  C   UNL A   1      38.615  29.809  29.330  1.00  0.00     0.031 C 
ATOM     48  C   UNL A   1      37.819  34.059  34.706  1.00  0.00     0.029 A 
ATOM     49  C   UNL A   1      38.905  33.090  34.821  1.00  0.00     0.049 A 
ATOM     50  H   UNL A   1      39.526  31.707  33.392  1.00  0.00     0.167 HD
ATOM     51  C   UNL A   1      40.550  28.690  30.393  1.00  0.00     0.034 A 
ATOM     52  C   UNL A   1      39.706  32.940  35.896  1.00  0.00     0.034 A 
ATOM     53  C   UNL A   1      41.531  28.547  31.434  1.00  0.00     0.049 A 
ATOM     54  C   UNL A   1      40.813  31.923  35.845  1.00  0.00     0.074 A 
ATOM     55  C   UNL A   1      42.606  27.679  31.484  1.00  0.00     0.029 A 
ATOM     56  N   UNL A   1      41.560  29.291  32.603  1.00  0.00    -0.354 N 
ATOM     57  N   UNL A   1      41.138  31.111  34.869  1.00  0.00    -0.248 NA
ATOM     58  C   UNL A   1      41.683  31.821  37.026  1.00  0.00     0.031 C 
ATOM     59  C   UNL A   1      43.282  27.891  32.688  1.00  0.00     0.029 A 
ATOM     60  C   UNL A   1      42.637  28.902  33.381  1.00  0.00     0.049 A 
ATOM     61  H   UNL A   1      40.912  29.991  32.844  1.00  0.00     0.167 HD
ATOM     62  C   UNL A   1      42.269  30.428  35.302  1.00  0.00     0.074 A 
ATOM     63  C   UNL A   1      42.582  30.933  36.623  1.00  0.00     0.031 C 
ATOM     64  C   UNL A   1      42.973  29.459  34.667  1.00  0.00     0.034 A 
BRANCH  51  65
ATOM     65  C   UNL A   1      40.664  27.795  29.188  1.00  0.00     0.023 A 
ATOM     66  C   UNL A   1      39.789  26.697  29.064  1.00  0.00     0.012 A 
ATOM     67  C   UNL A   1      41.559  28.088  28.141  1.00  0.00     0.148 A 
ATOM     68  C   UNL A   1      39.816  25.890  27.929  1.00  0.00     0.002 A 
ATOM     69  C   UNL A   1      41.553  27.303  26.994  1.00  0.00     0.091 A 
ATOM     70  F   UNL A   1      42.397  29.125  28.287  1.00  0.00    -0.205 F 
ATOM     71  C   UNL A   1      40.689  26.200  26.889  1.00  0.00     0.022 A 
BRANCH  69  72
ATOM     72  S   UNL A   1      42.581  27.663  25.564  1.00  0.00     0.127 S 
ATOM     73  O   UNL A   1      42.356  26.482  24.734  1.00  0.00    -0.237 OA
ATOM     74  O   UNL A   1      41.974  28.893  25.052  1.00  0.00    -0.237 OA
ATOM     75  O   UNL A   1      43.936  27.819  26.073  1.00  0.00    -0.744 OA
ENDBRANCH  69  72
ENDBRANCH  51  65
BRANCH  52  76
ATOM     76  C   UNL A   1      39.548  33.852  37.065  1.00  0.00     0.023 A 
ATOM     77  C   UNL A   1      39.934  35.201  36.938  1.00  0.00     0.012 A 
ATOM     78  C   UNL A   1      38.965  33.415  38.270  1.00  0.00     0.148 A 
ATOM     79  C   UNL A   1      39.760  36.094  37.995  1.00  0.00     0.002 A 
ATOM     80  C   UNL A   1      38.745  34.323  39.301  1.00  0.00     0.091 A 
ATOM     81  F   UNL A   1      38.616  32.126  38.377  1.00  0.00    -0.205 F 
ATOM     82  C   UNL A   1      39.155  35.659  39.171  1.00  0.00     0.022 A 
BRANCH  80  83
ATOM     83  S   UNL A   1      37.847  33.886  40.795  1.00  0.00     0.127 S 
ATOM     84  O   UNL A   1      36.656  33.240  40.249  1.00  0.00    -0.237 OA
ATOM     85  O   UNL A   1      38.788  32.985  41.460  1.00  0.00    -0.237 OA
ATOM     86  O   UNL A   1      37.621  35.142  41.497  1.00  0.00    -0.744 OA
ENDBRANCH  80  83
ENDBRANCH  52  76
BRANCH  64  87
ATOM     87  C   UNL A   1      44.176  28.882  35.365  1.00  0.00     0.023 A 
ATOM     88  C   UNL A   1      45.434  29.492  35.197  1.00  0.00     0.012 A 
ATOM     89  C   UNL A   1      44.034  27.825  36.285  1.00  0.00     0.148 A 
ATOM     90  C   UNL A   1      46.537  29.050  35.927  1.00  0.00     0.002 A 
ATOM     91  C   UNL A   1      45.127  27.419  37.041  1.00  0.00     0.091 A 
ATOM     92  F   UNL A   1      42.829  27.249  36.416  1.00  0.00    -0.205 F 
ATOM     93  C   UNL A   1      46.380  28.025  36.858  1.00  0.00     0.022 A 
BRANCH  91  94
ATOM     94  S   UNL A   1      44.997  26.180  38.336  1.00  0.00     0.127 S 
ATOM     95  O   UNL A   1      46.387  26.064  38.777  1.00  0.00    -0.237 OA
ATOM     96  O   UNL A   1      44.104  26.827  39.297  1.00  0.00    -0.237 OA
ATOM     97  O   UNL A   1      44.444  24.991  37.700  1.00  0.00    -0.744 OA
ENDBRANCH  91  94
ENDBRANCH  64  87
ENDBRANCH  38  39
ENDBRANCH  30  33
ENDBRANCH  28  29
ENDBRANCH  27  28
ENDBRANCH   1  27
TORSDOF 18
ENDMDL
