MODEL 1
REMARK VINA RESULT:     -11.2      0.000      0.000
REMARK SMILES C[C@H](CNc1cccc(F)c1C(=O)NCCCCNC(=O)c1ccc(-c2c3nc(c(-c4cccc(S(=O)(=O)[O-])c4F)c4ccc([nH]4)c(-c4cccc(S(=O)(=O)[O-])c4F)c4nc(c(-c5cccc(S(=O)(=O)[O-])c5F)c5ccc2[nH]5)C=C4)C=C3)cc1)C[NH+]1CCCC1
REMARK SMILES IDX 15 1 14 2 12 3 13 4 11 6 5 7 6 8 7 9 9 10 8 11 10 12 4 13
REMARK SMILES IDX 3 15 2 16 1 17 85 18 86 19 87 20 90 21 88 23 89 24 16 25
REMARK SMILES IDX 17 26 18 27 19 28 20 29 21 31 22 32 23 33 84 34 24 35 83 36
REMARK SMILES IDX 25 37 26 38 27 39 77 40 28 41 82 42 76 43 78 44 29 45 81 46
REMARK SMILES IDX 75 47 74 48 30 50 62 51 42 52 61 53 43 54 46 55 60 56 79 57
REMARK SMILES IDX 44 58 45 59 59 61 80 62 47 63 31 64 32 65 40 66 33 67 35 68
REMARK SMILES IDX 41 69 34 70 36 71 37 72 38 73 39 74 63 75 64 76 72 77 65 78
REMARK SMILES IDX 67 79 73 80 66 81 68 82 69 83 70 84 71 85 48 86 49 87 57 88
REMARK SMILES IDX 50 89 52 90 58 91 51 92 53 93 54 94 55 95 56 96
REMARK H PARENT 14 5 4 14 86 22 19 30 78 49 46 60
REMARK Flexibility Score: inf
ROOT
ATOM      1  C   UNL A   1      35.096  24.082  24.311  1.00  0.00     0.116 C 
ENDROOT
BRANCH   1   2
ATOM      2  N   UNL A   1      34.179  24.577  23.304  1.00  0.00    -0.352 N 
ATOM      3  C   UNL A   1      33.224  25.565  23.315  1.00  0.00     0.256 C 
ATOM      4  O   UNL A   1      32.546  25.647  22.289  1.00  0.00    -0.269 OA
ATOM      5  H   UNL A   1      34.254  24.113  22.440  1.00  0.00     0.163 HD
BRANCH   3   6
ATOM      6  C   UNL A   1      32.923  26.452  24.482  1.00  0.00     0.098 A 
ATOM      7  C   UNL A   1      31.844  26.137  25.353  1.00  0.00     0.050 A 
ATOM      8  C   UNL A   1      31.693  26.875  26.545  1.00  0.00     0.027 A 
ATOM      9  C   UNL A   1      32.508  27.965  26.837  1.00  0.00     0.005 A 
ATOM     10  C   UNL A   1      33.633  27.629  24.732  1.00  0.00     0.138 A 
ATOM     11  C   UNL A   1      33.451  28.367  25.904  1.00  0.00     0.040 A 
ATOM     12  F   UNL A   1      34.470  28.152  23.824  1.00  0.00    -0.206 F 
BRANCH   7  13
ATOM     13  N   UNL A   1      30.843  25.209  25.007  1.00  0.00    -0.384 N 
ATOM     14  H   UNL A   1      30.259  25.357  24.229  1.00  0.00     0.160 HD
BRANCH  13  15
ATOM     15  C   UNL A   1      30.702  24.014  25.847  1.00  0.00     0.122 C 
BRANCH  15  16
ATOM     16  C   UNL A   1      31.977  23.149  25.992  1.00  0.00     0.060 C 
ATOM     17  C   UNL A   1      32.585  23.084  27.392  1.00  0.00     0.015 C 
BRANCH  16  18
ATOM     18  C   UNL A   1      31.766  21.722  25.446  1.00  0.00     0.267 C 
BRANCH  18  19
ATOM     19  N   UNL A   1      32.968  21.236  24.736  1.00  0.00    -0.335 N 
ATOM     20  C   UNL A   1      32.673  20.931  23.328  1.00  0.00     0.262 C 
ATOM     21  C   UNL A   1      33.466  19.971  25.316  1.00  0.00     0.262 C 
ATOM     22  H   UNL A   1      33.656  21.983  24.822  1.00  0.00     0.348 HD
ATOM     23  C   UNL A   1      32.186  19.496  23.327  1.00  0.00     0.067 C 
ATOM     24  C   UNL A   1      33.057  18.840  24.377  1.00  0.00     0.067 C 
ENDBRANCH  18  19
ENDBRANCH  16  18
ENDBRANCH  15  16
ENDBRANCH  13  15
ENDBRANCH   7  13
ENDBRANCH   3   6
ENDBRANCH   1   2
BRANCH   1  25
ATOM     25  C   UNL A   1      36.314  23.373  23.723  1.00  0.00     0.023 C 
BRANCH  25  26
ATOM     26  C   UNL A   1      36.469  21.889  24.055  1.00  0.00     0.023 C 
BRANCH  26  27
ATOM     27  C   UNL A   1      36.890  21.555  25.483  1.00  0.00     0.116 C 
BRANCH  27  28
ATOM     28  N   UNL A   1      37.964  20.573  25.557  1.00  0.00    -0.352 N 
ATOM     29  C   UNL A   1      39.252  20.701  26.027  1.00  0.00     0.251 C 
ATOM     30  H   UNL A   1      37.733  19.678  25.219  1.00  0.00     0.163 HD
ATOM     31  O   UNL A   1      40.043  19.772  25.914  1.00  0.00    -0.269 OA
BRANCH  29  32
ATOM     32  C   UNL A   1      39.693  21.978  26.632  1.00  0.00     0.039 A 
ATOM     33  C   UNL A   1      40.689  21.950  27.611  1.00  0.00     0.014 A 
ATOM     34  C   UNL A   1      39.154  23.195  26.211  1.00  0.00     0.014 A 
ATOM     35  C   UNL A   1      41.224  23.150  28.087  1.00  0.00     0.010 A 
ATOM     36  C   UNL A   1      39.735  24.388  26.634  1.00  0.00     0.010 A 
ATOM     37  C   UNL A   1      40.791  24.377  27.558  1.00  0.00    -0.014 A 
BRANCH  37  38
ATOM     38  C   UNL A   1      41.470  25.657  27.894  1.00  0.00     0.031 A 
ATOM     39  C   UNL A   1      40.725  26.749  28.608  1.00  0.00     0.074 A 
ATOM     40  C   UNL A   1      42.721  25.878  27.443  1.00  0.00     0.049 A 
ATOM     41  N   UNL A   1      41.108  27.973  28.866  1.00  0.00    -0.248 NA
ATOM     42  C   UNL A   1      39.362  26.437  29.066  1.00  0.00     0.031 C 
ATOM     43  C   UNL A   1      43.523  24.922  26.673  1.00  0.00     0.029 A 
ATOM     44  N   UNL A   1      43.527  26.986  27.535  1.00  0.00    -0.354 N 
ATOM     45  C   UNL A   1      40.025  28.588  29.481  1.00  0.00     0.074 A 
ATOM     46  C   UNL A   1      38.960  27.610  29.537  1.00  0.00     0.031 C 
ATOM     47  C   UNL A   1      44.703  25.483  26.367  1.00  0.00     0.029 A 
ATOM     48  C   UNL A   1      44.731  26.848  26.884  1.00  0.00     0.049 A 
ATOM     49  H   UNL A   1      43.266  27.803  28.019  1.00  0.00     0.167 HD
ATOM     50  C   UNL A   1      39.935  29.844  29.978  1.00  0.00     0.034 A 
ATOM     51  C   UNL A   1      45.744  27.722  26.713  1.00  0.00     0.034 A 
ATOM     52  C   UNL A   1      41.013  30.796  29.968  1.00  0.00     0.049 A 
ATOM     53  C   UNL A   1      45.636  29.094  27.319  1.00  0.00     0.074 A 
ATOM     54  C   UNL A   1      41.040  32.067  30.514  1.00  0.00     0.029 A 
ATOM     55  N   UNL A   1      42.255  30.584  29.389  1.00  0.00    -0.354 N 
ATOM     56  N   UNL A   1      44.653  29.613  28.013  1.00  0.00    -0.248 NA
ATOM     57  C   UNL A   1      46.790  29.991  27.150  1.00  0.00     0.031 C 
ATOM     58  C   UNL A   1      42.296  32.627  30.260  1.00  0.00     0.029 A 
ATOM     59  C   UNL A   1      43.057  31.698  29.568  1.00  0.00     0.049 A 
ATOM     60  H   UNL A   1      42.526  29.762  28.920  1.00  0.00     0.167 HD
ATOM     61  C   UNL A   1      45.078  30.882  28.390  1.00  0.00     0.074 A 
ATOM     62  C   UNL A   1      46.417  31.047  27.863  1.00  0.00     0.031 C 
ATOM     63  C   UNL A   1      44.410  31.829  29.092  1.00  0.00     0.034 A 
BRANCH  50  64
ATOM     64  C   UNL A   1      38.647  30.245  30.646  1.00  0.00     0.023 A 
ATOM     65  C   UNL A   1      38.464  29.957  32.013  1.00  0.00     0.012 A 
ATOM     66  C   UNL A   1      37.662  30.977  29.955  1.00  0.00     0.148 A 
ATOM     67  C   UNL A   1      37.311  30.368  32.678  1.00  0.00     0.002 A 
ATOM     68  C   UNL A   1      36.532  31.420  30.634  1.00  0.00     0.091 A 
ATOM     69  F   UNL A   1      37.845  31.223  28.650  1.00  0.00    -0.205 F 
ATOM     70  C   UNL A   1      36.351  31.109  31.992  1.00  0.00     0.022 A 
BRANCH  68  71
ATOM     71  S   UNL A   1      35.276  32.447  29.863  1.00  0.00     0.127 S 
ATOM     72  O   UNL A   1      34.363  32.686  30.980  1.00  0.00    -0.237 OA
ATOM     73  O   UNL A   1      36.048  33.616  29.444  1.00  0.00    -0.237 OA
ATOM     74  O   UNL A   1      34.730  31.657  28.767  1.00  0.00    -0.744 OA
ENDBRANCH  68  71
ENDBRANCH  50  64
BRANCH  51  75
ATOM     75  C   UNL A   1      46.982  27.286  26.006  1.00  0.00     0.023 A 
ATOM     76  C   UNL A   1      47.139  27.608  24.643  1.00  0.00     0.012 A 
ATOM     77  C   UNL A   1      48.024  26.620  26.679  1.00  0.00     0.148 A 
ATOM     78  C   UNL A   1      48.303  27.259  23.960  1.00  0.00     0.002 A 
ATOM     79  C   UNL A   1      49.204  26.324  26.005  1.00  0.00     0.091 A 
ATOM     80  F   UNL A   1      47.850  26.312  27.971  1.00  0.00    -0.205 F 
ATOM     81  C   UNL A   1      49.339  26.630  24.642  1.00  0.00     0.022 A 
BRANCH  79  82
ATOM     82  S   UNL A   1      50.644  25.641  26.836  1.00  0.00     0.127 S 
ATOM     83  O   UNL A   1      50.977  26.703  27.780  1.00  0.00    -0.237 OA
ATOM     84  O   UNL A   1      50.094  24.426  27.443  1.00  0.00    -0.237 OA
ATOM     85  O   UNL A   1      51.622  25.395  25.786  1.00  0.00    -0.744 OA
ENDBRANCH  79  82
ENDBRANCH  51  75
BRANCH  63  86
ATOM     86  C   UNL A   1      45.114  33.132  29.365  1.00  0.00     0.023 A 
ATOM     87  C   UNL A   1      45.933  33.254  30.504  1.00  0.00     0.012 A 
ATOM     88  C   UNL A   1      45.054  34.191  28.437  1.00  0.00     0.148 A 
ATOM     89  C   UNL A   1      46.666  34.419  30.728  1.00  0.00     0.002 A 
ATOM     90  C   UNL A   1      45.823  35.332  28.644  1.00  0.00     0.091 A 
ATOM     91  F   UNL A   1      44.253  34.064  27.370  1.00  0.00    -0.205 F 
ATOM     92  C   UNL A   1      46.621  35.451  29.792  1.00  0.00     0.022 A 
BRANCH  90  93
ATOM     93  S   UNL A   1      45.901  36.664  27.440  1.00  0.00     0.127 S 
ATOM     94  O   UNL A   1      46.832  37.590  28.080  1.00  0.00    -0.237 OA
ATOM     95  O   UNL A   1      46.432  35.985  26.256  1.00  0.00    -0.237 OA
ATOM     96  O   UNL A   1      44.534  37.147  27.293  1.00  0.00    -0.744 OA
ENDBRANCH  90  93
ENDBRANCH  63  86
ENDBRANCH  37  38
ENDBRANCH  29  32
ENDBRANCH  27  28
ENDBRANCH  26  27
ENDBRANCH  25  26
ENDBRANCH   1  25
TORSDOF 19
ENDMDL
MODEL 2
REMARK VINA RESULT:     -11.1      5.002     10.168
REMARK SMILES C[C@H](CNc1cccc(F)c1C(=O)NCCCCNC(=O)c1ccc(-c2c3nc(c(-c4cccc(S(=O)(=O)[O-])c4F)c4ccc([nH]4)c(-c4cccc(S(=O)(=O)[O-])c4F)c4nc(c(-c5cccc(S(=O)(=O)[O-])c5F)c5ccc2[nH]5)C=C4)C=C3)cc1)C[NH+]1CCCC1
REMARK SMILES IDX 15 1 14 2 12 3 13 4 11 6 5 7 6 8 7 9 9 10 8 11 10 12 4 13
REMARK SMILES IDX 3 15 2 16 1 17 85 18 86 19 87 20 90 21 88 23 89 24 16 25
REMARK SMILES IDX 17 26 18 27 19 28 20 29 21 31 22 32 23 33 84 34 24 35 83 36
REMARK SMILES IDX 25 37 26 38 27 39 77 40 28 41 82 42 76 43 78 44 29 45 81 46
REMARK SMILES IDX 75 47 74 48 30 50 62 51 42 52 61 53 43 54 46 55 60 56 79 57
REMARK SMILES IDX 44 58 45 59 59 61 80 62 47 63 31 64 32 65 40 66 33 67 35 68
REMARK SMILES IDX 41 69 34 70 36 71 37 72 38 73 39 74 63 75 64 76 72 77 65 78
REMARK SMILES IDX 67 79 73 80 66 81 68 82 69 83 70 84 71 85 48 86 49 87 57 88
REMARK SMILES IDX 50 89 52 90 58 91 51 92 53 93 54 94 55 95 56 96
REMARK H PARENT 14 5 4 14 86 22 19 30 78 49 46 60
REMARK Flexibility Score: inf
ROOT
ATOM      1  C   UNL A   1      32.325  26.979  26.532  1.00  0.00     0.116 C 
ENDROOT
BRANCH   1   2
ATOM      2  N   UNL A   1      31.504  25.827  26.846  1.00  0.00    -0.352 N 
ATOM      3  C   UNL A   1      31.507  24.528  26.399  1.00  0.00     0.256 C 
ATOM      4  O   UNL A   1      30.580  23.830  26.816  1.00  0.00    -0.269 OA
ATOM      5  H   UNL A   1      30.804  26.012  27.513  1.00  0.00     0.163 HD
BRANCH   3   6
ATOM      6  C   UNL A   1      32.482  23.963  25.415  1.00  0.00     0.098 A 
ATOM      7  C   UNL A   1      32.340  24.252  24.030  1.00  0.00     0.050 A 
ATOM      8  C   UNL A   1      33.368  23.868  23.144  1.00  0.00     0.027 A 
ATOM      9  C   UNL A   1      34.465  23.127  23.577  1.00  0.00     0.005 A 
ATOM     10  C   UNL A   1      33.518  23.104  25.793  1.00  0.00     0.138 A 
ATOM     11  C   UNL A   1      34.513  22.707  24.897  1.00  0.00     0.040 A 
ATOM     12  F   UNL A   1      33.565  22.555  27.016  1.00  0.00    -0.206 F 
BRANCH   7  13
ATOM     13  N   UNL A   1      31.154  24.784  23.489  1.00  0.00    -0.384 N 
ATOM     14  H   UNL A   1      30.335  24.241  23.425  1.00  0.00     0.160 HD
BRANCH  13  15
ATOM     15  C   UNL A   1      31.181  26.176  23.025  1.00  0.00     0.122 C 
BRANCH  15  16
ATOM     16  C   UNL A   1      29.844  26.946  23.157  1.00  0.00     0.060 C 
ATOM     17  C   UNL A   1      28.925  26.499  24.292  1.00  0.00     0.015 C 
BRANCH  16  18
ATOM     18  C   UNL A   1      30.068  28.470  23.235  1.00  0.00     0.267 C 
BRANCH  18  19
ATOM     19  N   UNL A   1      29.159  29.193  22.320  1.00  0.00    -0.335 N 
ATOM     20  C   UNL A   1      29.494  30.624  22.249  1.00  0.00     0.262 C 
ATOM     21  C   UNL A   1      27.760  29.141  22.793  1.00  0.00     0.262 C 
ATOM     22  H   UNL A   1      29.265  28.737  21.414  1.00  0.00     0.348 HD
ATOM     23  C   UNL A   1      28.733  31.266  23.390  1.00  0.00     0.067 C 
ATOM     24  C   UNL A   1      27.427  30.498  23.403  1.00  0.00     0.067 C 
ENDBRANCH  18  19
ENDBRANCH  16  18
ENDBRANCH  15  16
ENDBRANCH  13  15
ENDBRANCH   7  13
ENDBRANCH   3   6
ENDBRANCH   1   2
BRANCH   1  25
ATOM     25  C   UNL A   1      31.917  28.238  27.293  1.00  0.00     0.023 C 
BRANCH  25  26
ATOM     26  C   UNL A   1      31.425  29.417  26.453  1.00  0.00     0.023 C 
BRANCH  26  27
ATOM     27  C   UNL A   1      32.480  30.433  26.027  1.00  0.00     0.116 C 
BRANCH  27  28
ATOM     28  N   UNL A   1      32.247  31.770  26.558  1.00  0.00    -0.352 N 
ATOM     29  C   UNL A   1      33.029  32.543  27.388  1.00  0.00     0.251 C 
ATOM     30  H   UNL A   1      31.399  32.185  26.280  1.00  0.00     0.163 HD
ATOM     31  O   UNL A   1      32.608  33.616  27.804  1.00  0.00    -0.269 OA
BRANCH  29  32
ATOM     32  C   UNL A   1      34.361  32.057  27.810  1.00  0.00     0.039 A 
ATOM     33  C   UNL A   1      35.400  32.980  27.952  1.00  0.00     0.014 A 
ATOM     34  C   UNL A   1      34.575  30.708  28.099  1.00  0.00     0.014 A 
ATOM     35  C   UNL A   1      36.623  32.569  28.491  1.00  0.00     0.010 A 
ATOM     36  C   UNL A   1      35.767  30.313  28.699  1.00  0.00     0.010 A 
ATOM     37  C   UNL A   1      36.795  31.243  28.924  1.00  0.00    -0.014 A 
BRANCH  37  38
ATOM     38  C   UNL A   1      38.003  30.818  29.677  1.00  0.00     0.031 A 
ATOM     39  C   UNL A   1      38.959  29.821  29.084  1.00  0.00     0.074 A 
ATOM     40  C   UNL A   1      38.169  31.237  30.948  1.00  0.00     0.049 A 
ATOM     41  N   UNL A   1      39.988  29.237  29.641  1.00  0.00    -0.248 NA
ATOM     42  C   UNL A   1      38.711  29.406  27.694  1.00  0.00     0.031 C 
ATOM     43  C   UNL A   1      37.270  32.147  31.662  1.00  0.00     0.029 A 
ATOM     44  N   UNL A   1      39.132  30.928  31.877  1.00  0.00    -0.354 N 
ATOM     45  C   UNL A   1      40.487  28.359  28.687  1.00  0.00     0.074 A 
ATOM     46  C   UNL A   1      39.634  28.470  27.523  1.00  0.00     0.031 C 
ATOM     47  C   UNL A   1      37.724  32.324  32.913  1.00  0.00     0.029 A 
ATOM     48  C   UNL A   1      38.923  31.515  33.104  1.00  0.00     0.049 A 
ATOM     49  H   UNL A   1      39.899  30.341  31.684  1.00  0.00     0.167 HD
ATOM     50  C   UNL A   1      41.573  27.553  28.764  1.00  0.00     0.034 A 
ATOM     51  C   UNL A   1      39.612  31.410  34.258  1.00  0.00     0.034 A 
ATOM     52  C   UNL A   1      42.448  27.484  29.903  1.00  0.00     0.049 A 
ATOM     53  C   UNL A   1      40.843  30.547  34.299  1.00  0.00     0.074 A 
ATOM     54  C   UNL A   1      43.615  26.754  30.045  1.00  0.00     0.029 A 
ATOM     55  N   UNL A   1      42.261  28.172  31.092  1.00  0.00    -0.354 N 
ATOM     56  N   UNL A   1      41.375  29.825  33.344  1.00  0.00    -0.248 NA
ATOM     57  C   UNL A   1      41.590  30.508  35.566  1.00  0.00     0.031 C 
ATOM     58  C   UNL A   1      44.130  26.994  31.322  1.00  0.00     0.029 A 
ATOM     59  C   UNL A   1      43.291  27.887  31.971  1.00  0.00     0.049 A 
ATOM     60  H   UNL A   1      41.506  28.775  31.282  1.00  0.00     0.167 HD
ATOM     61  C   UNL A   1      42.532  29.271  33.880  1.00  0.00     0.074 A 
ATOM     62  C   UNL A   1      42.635  29.757  35.241  1.00  0.00     0.031 C 
ATOM     63  C   UNL A   1      43.417  28.423  33.301  1.00  0.00     0.034 A 
BRANCH  50  64
ATOM     64  C   UNL A   1      41.924  26.730  27.554  1.00  0.00     0.023 A 
ATOM     65  C   UNL A   1      42.563  27.351  26.462  1.00  0.00     0.012 A 
ATOM     66  C   UNL A   1      41.706  25.339  27.527  1.00  0.00     0.148 A 
ATOM     67  C   UNL A   1      42.958  26.608  25.352  1.00  0.00     0.002 A 
ATOM     68  C   UNL A   1      42.140  24.596  26.434  1.00  0.00     0.091 A 
ATOM     69  F   UNL A   1      41.079  24.770  28.566  1.00  0.00    -0.205 F 
ATOM     70  C   UNL A   1      42.757  25.229  25.343  1.00  0.00     0.022 A 
BRANCH  68  71
ATOM     71  S   UNL A   1      41.999  22.806  26.360  1.00  0.00     0.127 S 
ATOM     72  O   UNL A   1      40.553  22.619  26.465  1.00  0.00    -0.237 OA
ATOM     73  O   UNL A   1      42.558  22.508  25.041  1.00  0.00    -0.237 OA
ATOM     74  O   UNL A   1      42.779  22.296  27.479  1.00  0.00    -0.744 OA
ENDBRANCH  68  71
ENDBRANCH  50  64
BRANCH  51  75
ATOM     75  C   UNL A   1      39.196  32.216  35.441  1.00  0.00     0.023 A 
ATOM     76  C   UNL A   1      38.373  31.622  36.417  1.00  0.00     0.012 A 
ATOM     77  C   UNL A   1      39.656  33.532  35.640  1.00  0.00     0.148 A 
ATOM     78  C   UNL A   1      38.001  32.327  37.561  1.00  0.00     0.002 A 
ATOM     79  C   UNL A   1      39.327  34.211  36.808  1.00  0.00     0.091 A 
ATOM     80  F   UNL A   1      40.429  34.085  34.694  1.00  0.00    -0.205 F 
ATOM     81  C   UNL A   1      38.487  33.615  37.762  1.00  0.00     0.022 A 
BRANCH  79  82
ATOM     82  S   UNL A   1      40.019  35.817  37.219  1.00  0.00     0.127 S 
ATOM     83  O   UNL A   1      39.322  36.134  38.463  1.00  0.00    -0.237 OA
ATOM     84  O   UNL A   1      41.441  35.503  37.372  1.00  0.00    -0.237 OA
ATOM     85  O   UNL A   1      39.714  36.677  36.084  1.00  0.00    -0.744 OA
ENDBRANCH  79  82
ENDBRANCH  51  75
BRANCH  63  86
ATOM     86  C   UNL A   1      44.599  27.973  34.118  1.00  0.00     0.023 A 
ATOM     87  C   UNL A   1      45.760  28.770  34.157  1.00  0.00     0.012 A 
ATOM     88  C   UNL A   1      44.519  26.825  34.931  1.00  0.00     0.148 A 
ATOM     89  C   UNL A   1      46.832  28.420  34.978  1.00  0.00     0.002 A 
ATOM     90  C   UNL A   1      45.573  26.508  35.780  1.00  0.00     0.091 A 
ATOM     91  F   UNL A   1      43.414  26.069  34.865  1.00  0.00    -0.205 F 
ATOM     92  C   UNL A   1      46.733  27.298  35.799  1.00  0.00     0.022 A 
BRANCH  90  93
ATOM     93  S   UNL A   1      45.488  25.139  36.942  1.00  0.00     0.127 S 
ATOM     94  O   UNL A   1      45.430  23.988  36.043  1.00  0.00    -0.237 OA
ATOM     95  O   UNL A   1      46.745  25.275  37.680  1.00  0.00    -0.237 OA
ATOM     96  O   UNL A   1      44.293  25.372  37.743  1.00  0.00    -0.744 OA
ENDBRANCH  90  93
ENDBRANCH  63  86
ENDBRANCH  37  38
ENDBRANCH  29  32
ENDBRANCH  27  28
ENDBRANCH  26  27
ENDBRANCH  25  26
ENDBRANCH   1  25
TORSDOF 19
ENDMDL
MODEL 3
REMARK VINA RESULT:     -11.0      1.509      7.708
REMARK SMILES C[C@H](CNc1cccc(F)c1C(=O)NCCCCNC(=O)c1ccc(-c2c3nc(c(-c4cccc(S(=O)(=O)[O-])c4F)c4ccc([nH]4)c(-c4cccc(S(=O)(=O)[O-])c4F)c4nc(c(-c5cccc(S(=O)(=O)[O-])c5F)c5ccc2[nH]5)C=C4)C=C3)cc1)C[NH+]1CCCC1
REMARK SMILES IDX 15 1 14 2 12 3 13 4 11 6 5 7 6 8 7 9 9 10 8 11 10 12 4 13
REMARK SMILES IDX 3 15 2 16 1 17 85 18 86 19 87 20 90 21 88 23 89 24 16 25
REMARK SMILES IDX 17 26 18 27 19 28 20 29 21 31 22 32 23 33 84 34 24 35 83 36
REMARK SMILES IDX 25 37 26 38 27 39 77 40 28 41 82 42 76 43 78 44 29 45 81 46
REMARK SMILES IDX 75 47 74 48 30 50 62 51 42 52 61 53 43 54 46 55 60 56 79 57
REMARK SMILES IDX 44 58 45 59 59 61 80 62 47 63 31 64 32 65 40 66 33 67 35 68
REMARK SMILES IDX 41 69 34 70 36 71 37 72 38 73 39 74 63 75 64 76 72 77 65 78
REMARK SMILES IDX 67 79 73 80 66 81 68 82 69 83 70 84 71 85 48 86 49 87 57 88
REMARK SMILES IDX 50 89 52 90 58 91 51 92 53 93 54 94 55 95 56 96
REMARK H PARENT 14 5 4 14 86 22 19 30 78 49 46 60
REMARK Flexibility Score: inf
ROOT
ATOM      1  C   UNL A   1      35.371  23.361  23.945  1.00  0.00     0.116 C 
ENDROOT
BRANCH   1   2
ATOM      2  N   UNL A   1      34.689  24.049  22.867  1.00  0.00    -0.352 N 
ATOM      3  C   UNL A   1      33.749  25.050  22.844  1.00  0.00     0.256 C 
ATOM      4  O   UNL A   1      33.307  25.326  21.727  1.00  0.00    -0.269 OA
ATOM      5  H   UNL A   1      34.951  23.735  21.972  1.00  0.00     0.163 HD
BRANCH   3   6
ATOM      6  C   UNL A   1      33.199  25.735  24.055  1.00  0.00     0.098 A 
ATOM      7  C   UNL A   1      32.281  25.055  24.901  1.00  0.00     0.050 A 
ATOM      8  C   UNL A   1      31.920  25.644  26.130  1.00  0.00     0.027 A 
ATOM      9  C   UNL A   1      32.359  26.916  26.486  1.00  0.00     0.005 A 
ATOM     10  C   UNL A   1      33.511  27.060  24.374  1.00  0.00     0.138 A 
ATOM     11  C   UNL A   1      33.120  27.641  25.583  1.00  0.00     0.040 A 
ATOM     12  F   UNL A   1      34.134  27.865  23.502  1.00  0.00    -0.206 F 
BRANCH   7  13
ATOM     13  N   UNL A   1      31.614  23.881  24.498  1.00  0.00    -0.384 N 
ATOM     14  H   UNL A   1      30.828  23.920  23.907  1.00  0.00     0.160 HD
BRANCH  13  15
ATOM     15  C   UNL A   1      32.133  22.599  24.990  1.00  0.00     0.122 C 
BRANCH  15  16
ATOM     16  C   UNL A   1      32.017  21.413  24.002  1.00  0.00     0.060 C 
ATOM     17  C   UNL A   1      32.073  21.771  22.518  1.00  0.00     0.015 C 
BRANCH  16  18
ATOM     18  C   UNL A   1      33.047  20.307  24.312  1.00  0.00     0.267 C 
BRANCH  18  19
ATOM     19  N   UNL A   1      32.413  18.971  24.315  1.00  0.00    -0.335 N 
ATOM     20  C   UNL A   1      33.042  18.081  25.303  1.00  0.00     0.262 C 
ATOM     21  C   UNL A   1      32.578  18.291  23.014  1.00  0.00     0.262 C 
ATOM     22  H   UNL A   1      31.430  19.135  24.530  1.00  0.00     0.348 HD
ATOM     23  C   UNL A   1      34.208  17.443  24.577  1.00  0.00     0.067 C 
ATOM     24  C   UNL A   1      33.665  17.234  23.179  1.00  0.00     0.067 C 
ENDBRANCH  18  19
ENDBRANCH  16  18
ENDBRANCH  15  16
ENDBRANCH  13  15
ENDBRANCH   7  13
ENDBRANCH   3   6
ENDBRANCH   1   2
BRANCH   1  25
ATOM     25  C   UNL A   1      36.655  22.663  23.501  1.00  0.00     0.023 C 
BRANCH  25  26
ATOM     26  C   UNL A   1      37.020  21.372  24.233  1.00  0.00     0.023 C 
BRANCH  26  27
ATOM     27  C   UNL A   1      37.607  21.528  25.632  1.00  0.00     0.116 C 
BRANCH  27  28
ATOM     28  N   UNL A   1      38.784  20.702  25.865  1.00  0.00    -0.352 N 
ATOM     29  C   UNL A   1      40.012  21.035  26.392  1.00  0.00     0.251 C 
ATOM     30  H   UNL A   1      38.686  19.757  25.604  1.00  0.00     0.163 HD
ATOM     31  O   UNL A   1      40.915  20.207  26.417  1.00  0.00    -0.269 OA
BRANCH  29  32
ATOM     32  C   UNL A   1      40.252  22.407  26.891  1.00  0.00     0.039 A 
ATOM     33  C   UNL A   1      41.141  22.590  27.954  1.00  0.00     0.014 A 
ATOM     34  C   UNL A   1      39.635  23.506  26.293  1.00  0.00     0.014 A 
ATOM     35  C   UNL A   1      41.496  23.885  28.343  1.00  0.00     0.010 A 
ATOM     36  C   UNL A   1      40.042  24.794  26.634  1.00  0.00     0.010 A 
ATOM     37  C   UNL A   1      40.994  24.996  27.646  1.00  0.00    -0.014 A 
BRANCH  37  38
ATOM     38  C   UNL A   1      41.497  26.371  27.901  1.00  0.00     0.031 A 
ATOM     39  C   UNL A   1      42.901  26.751  27.522  1.00  0.00     0.074 A 
ATOM     40  C   UNL A   1      40.726  27.238  28.588  1.00  0.00     0.049 A 
ATOM     41  N   UNL A   1      43.553  27.854  27.783  1.00  0.00    -0.248 NA
ATOM     42  C   UNL A   1      43.683  25.752  26.778  1.00  0.00     0.031 C 
ATOM     43  C   UNL A   1      39.372  26.962  29.076  1.00  0.00     0.029 A 
ATOM     44  N   UNL A   1      40.981  28.515  29.026  1.00  0.00    -0.354 N 
ATOM     45  C   UNL A   1      44.831  27.669  27.272  1.00  0.00     0.074 A 
ATOM     46  C   UNL A   1      44.871  26.339  26.705  1.00  0.00     0.031 C 
ATOM     47  C   UNL A   1      38.916  28.035  29.742  1.00  0.00     0.029 A 
ATOM     48  C   UNL A   1      39.954  29.061  29.761  1.00  0.00     0.049 A 
ATOM     49  H   UNL A   1      41.820  28.993  28.834  1.00  0.00     0.167 HD
ATOM     50  C   UNL A   1      45.869  28.539  27.252  1.00  0.00     0.034 A 
ATOM     51  C   UNL A   1      39.857  30.250  30.388  1.00  0.00     0.034 A 
ATOM     52  C   UNL A   1      45.809  29.879  27.769  1.00  0.00     0.049 A 
ATOM     53  C   UNL A   1      41.007  31.216  30.307  1.00  0.00     0.074 A 
ATOM     54  C   UNL A   1      46.786  30.859  27.728  1.00  0.00     0.029 A 
ATOM     55  N   UNL A   1      44.716  30.433  28.417  1.00  0.00    -0.354 N 
ATOM     56  N   UNL A   1      42.161  31.073  29.704  1.00  0.00    -0.248 NA
ATOM     57  C   UNL A   1      40.831  32.521  30.963  1.00  0.00     0.031 C 
ATOM     58  C   UNL A   1      46.285  32.004  28.356  1.00  0.00     0.029 A 
ATOM     59  C   UNL A   1      44.991  31.741  28.776  1.00  0.00     0.049 A 
ATOM     60  H   UNL A   1      43.868  29.965  28.595  1.00  0.00     0.167 HD
ATOM     61  C   UNL A   1      42.837  32.275  29.878  1.00  0.00     0.074 A 
ATOM     62  C   UNL A   1      41.955  33.145  30.629  1.00  0.00     0.031 C 
ATOM     63  C   UNL A   1      44.083  32.618  29.470  1.00  0.00     0.034 A 
BRANCH  50  64
ATOM     64  C   UNL A   1      47.143  28.097  26.583  1.00  0.00     0.023 A 
ATOM     65  C   UNL A   1      48.196  27.597  27.375  1.00  0.00     0.012 A 
ATOM     66  C   UNL A   1      47.270  28.094  25.181  1.00  0.00     0.148 A 
ATOM     67  C   UNL A   1      49.365  27.123  26.785  1.00  0.00     0.002 A 
ATOM     68  C   UNL A   1      48.423  27.580  24.597  1.00  0.00     0.091 A 
ATOM     69  F   UNL A   1      46.266  28.593  24.446  1.00  0.00    -0.205 F 
ATOM     70  C   UNL A   1      49.474  27.103  25.397  1.00  0.00     0.022 A 
BRANCH  68  71
ATOM     71  S   UNL A   1      48.629  27.438  22.817  1.00  0.00     0.127 S 
ATOM     72  O   UNL A   1      49.968  27.995  22.630  1.00  0.00    -0.237 OA
ATOM     73  O   UNL A   1      48.536  25.994  22.610  1.00  0.00    -0.237 OA
ATOM     74  O   UNL A   1      47.543  28.208  22.225  1.00  0.00    -0.744 OA
ENDBRANCH  68  71
ENDBRANCH  50  64
BRANCH  51  75
ATOM     75  C   UNL A   1      38.586  30.621  31.073  1.00  0.00     0.023 A 
ATOM     76  C   UNL A   1      38.449  30.357  32.450  1.00  0.00     0.012 A 
ATOM     77  C   UNL A   1      37.546  31.287  30.395  1.00  0.00     0.148 A 
ATOM     78  C   UNL A   1      37.295  30.732  33.136  1.00  0.00     0.002 A 
ATOM     79  C   UNL A   1      36.421  31.707  31.097  1.00  0.00     0.091 A 
ATOM     80  F   UNL A   1      37.690  31.519  29.083  1.00  0.00    -0.205 F 
ATOM     81  C   UNL A   1      36.287  31.417  32.463  1.00  0.00     0.022 A 
BRANCH  79  82
ATOM     82  S   UNL A   1      35.137  32.716  30.347  1.00  0.00     0.127 S 
ATOM     83  O   UNL A   1      35.894  33.886  29.910  1.00  0.00    -0.237 OA
ATOM     84  O   UNL A   1      34.665  31.848  29.265  1.00  0.00    -0.237 OA
ATOM     85  O   UNL A   1      34.158  32.949  31.398  1.00  0.00    -0.744 OA
ENDBRANCH  79  82
ENDBRANCH  51  75
BRANCH  63  86
ATOM     86  C   UNL A   1      44.575  34.004  29.795  1.00  0.00     0.023 A 
ATOM     87  C   UNL A   1      45.375  34.206  30.937  1.00  0.00     0.012 A 
ATOM     88  C   UNL A   1      44.341  35.078  28.914  1.00  0.00     0.148 A 
ATOM     89  C   UNL A   1      45.917  35.462  31.209  1.00  0.00     0.002 A 
ATOM     90  C   UNL A   1      44.921  36.316  29.167  1.00  0.00     0.091 A 
ATOM     91  F   UNL A   1      43.560  34.870  27.844  1.00  0.00    -0.205 F 
ATOM     92  C   UNL A   1      45.702  36.512  30.318  1.00  0.00     0.022 A 
BRANCH  90  93
ATOM     93  S   UNL A   1      44.778  37.692  28.021  1.00  0.00     0.127 S 
ATOM     94  O   UNL A   1      43.343  37.965  28.060  1.00  0.00    -0.237 OA
ATOM     95  O   UNL A   1      45.611  38.716  28.654  1.00  0.00    -0.237 OA
ATOM     96  O   UNL A   1      45.291  37.204  26.747  1.00  0.00    -0.744 OA
ENDBRANCH  90  93
ENDBRANCH  63  86
ENDBRANCH  37  38
ENDBRANCH  29  32
ENDBRANCH  27  28
ENDBRANCH  26  27
ENDBRANCH  25  26
ENDBRANCH   1  25
TORSDOF 19
ENDMDL
