MODEL 1
REMARK VINA RESULT:     -12.0      0.000      0.000
REMARK SMILES O=C(NCCCCNC(=O)c1ccc(NS(=O)(=O)c2ccccc2)cc1Cl)c1ccc(-c2c3nc(c(-c4cccc(S(=O)(=O)[O-])c4F)c4ccc([nH]4)c(-c4cccc(S(=O)(=O)[O-])c4F)c4nc(c(-c5cccc(S(=O)(=O)[O-])c5F)c5ccc2[nH]5)C=C4)C=C3)cc1
REMARK SMILES IDX 5 1 4 2 3 3 1 4 2 5 28 7 29 8 90 9 30 10 89 11 31 12 32 13
REMARK SMILES IDX 33 14 83 15 34 16 88 17 82 18 84 19 35 20 87 21 81 22 80 23
REMARK SMILES IDX 36 25 68 26 48 27 67 28 49 29 52 30 66 31 85 32 50 33 51 34
REMARK SMILES IDX 65 36 86 37 53 38 37 39 38 40 46 41 39 42 41 43 47 44 40 45
REMARK SMILES IDX 42 46 43 47 44 48 45 49 69 50 70 51 78 52 71 53 73 54 79 55
REMARK SMILES IDX 72 56 74 57 75 58 76 59 77 60 54 61 55 62 63 63 56 64 58 65
REMARK SMILES IDX 64 66 57 67 59 68 60 69 61 70 62 71 6 72 7 73 8 74 9 75
REMARK SMILES IDX 10 77 11 78 12 79 26 80 13 81 25 82 27 83 14 84 15 85 16 87
REMARK SMILES IDX 17 88 18 89 19 90 20 91 24 92 21 93 23 94 22 95
REMARK H PARENT 3 6 84 24 52 35 8 76 15 86
REMARK Flexibility Score: inf
ROOT
ATOM      1  C   UNL A   1      33.890  28.063  25.258  1.00  0.00     0.023 C 
ENDROOT
BRANCH   1   2
ATOM      2  C   UNL A   1      34.116  28.413  26.721  1.00  0.00     0.116 C 
BRANCH   2   3
ATOM      3  N   UNL A   1      33.830  29.809  27.020  1.00  0.00    -0.352 N 
ATOM      4  O   UNL A   1      34.079  31.789  28.070  1.00  0.00    -0.269 OA
ATOM      5  C   UNL A   1      34.549  30.690  27.796  1.00  0.00     0.251 C 
ATOM      6  H   UNL A   1      33.010  30.172  26.613  1.00  0.00     0.163 HD
BRANCH   5   7
ATOM      7  C   UNL A   1      35.869  30.280  28.317  1.00  0.00     0.039 A 
ATOM      8  C   UNL A   1      37.022  30.498  27.559  1.00  0.00     0.014 A 
ATOM      9  C   UNL A   1      35.953  29.641  29.557  1.00  0.00     0.014 A 
ATOM     10  C   UNL A   1      38.225  29.933  27.957  1.00  0.00     0.010 A 
ATOM     11  C   UNL A   1      37.189  29.167  30.006  1.00  0.00     0.010 A 
ATOM     12  C   UNL A   1      38.329  29.281  29.195  1.00  0.00    -0.014 A 
BRANCH  12  13
ATOM     13  C   UNL A   1      39.661  28.817  29.659  1.00  0.00     0.031 A 
ATOM     14  C   UNL A   1      40.398  29.516  30.768  1.00  0.00     0.074 A 
ATOM     15  C   UNL A   1      40.209  27.745  29.052  1.00  0.00     0.049 A 
ATOM     16  N   UNL A   1      41.570  29.234  31.278  1.00  0.00    -0.248 NA
ATOM     17  C   UNL A   1      39.746  30.685  31.380  1.00  0.00     0.031 C 
ATOM     18  C   UNL A   1      39.601  27.010  27.939  1.00  0.00     0.029 A 
ATOM     19  N   UNL A   1      41.395  27.094  29.271  1.00  0.00    -0.354 N 
ATOM     20  C   UNL A   1      41.817  30.207  32.238  1.00  0.00     0.074 A 
ATOM     21  C   UNL A   1      40.672  31.094  32.239  1.00  0.00     0.031 C 
ATOM     22  C   UNL A   1      40.406  25.998  27.587  1.00  0.00     0.029 A 
ATOM     23  C   UNL A   1      41.615  26.056  28.396  1.00  0.00     0.049 A 
ATOM     24  H   UNL A   1      42.026  27.344  29.983  1.00  0.00     0.167 HD
ATOM     25  C   UNL A   1      42.895  30.343  33.048  1.00  0.00     0.034 A 
ATOM     26  C   UNL A   1      42.687  25.258  28.233  1.00  0.00     0.034 A 
ATOM     27  C   UNL A   1      44.021  29.445  33.051  1.00  0.00     0.049 A 
ATOM     28  C   UNL A   1      43.868  25.439  29.140  1.00  0.00     0.074 A 
ATOM     29  C   UNL A   1      45.130  29.459  33.879  1.00  0.00     0.029 A 
ATOM     30  N   UNL A   1      44.195  28.386  32.172  1.00  0.00    -0.354 N 
ATOM     31  N   UNL A   1      44.026  26.287  30.126  1.00  0.00    -0.248 NA
ATOM     32  C   UNL A   1      45.009  24.539  28.927  1.00  0.00     0.031 C 
ATOM     33  C   UNL A   1      45.993  28.437  33.474  1.00  0.00     0.029 A 
ATOM     34  C   UNL A   1      45.403  27.754  32.423  1.00  0.00     0.049 A 
ATOM     35  H   UNL A   1      43.555  28.121  31.473  1.00  0.00     0.167 HD
ATOM     36  C   UNL A   1      45.271  26.004  30.672  1.00  0.00     0.074 A 
ATOM     37  C   UNL A   1      45.813  24.889  29.921  1.00  0.00     0.031 C 
ATOM     38  C   UNL A   1      45.913  26.619  31.695  1.00  0.00     0.034 A 
BRANCH  25  39
ATOM     39  C   UNL A   1      42.913  31.499  34.018  1.00  0.00     0.023 A 
ATOM     40  C   UNL A   1      43.497  32.724  33.640  1.00  0.00     0.012 A 
ATOM     41  C   UNL A   1      42.281  31.395  35.274  1.00  0.00     0.148 A 
ATOM     42  C   UNL A   1      43.482  33.817  34.507  1.00  0.00     0.002 A 
ATOM     43  C   UNL A   1      42.230  32.502  36.114  1.00  0.00     0.091 A 
ATOM     44  F   UNL A   1      41.743  30.218  35.623  1.00  0.00    -0.205 F 
ATOM     45  C   UNL A   1      42.840  33.709  35.737  1.00  0.00     0.022 A 
BRANCH  43  46
ATOM     46  S   UNL A   1      41.357  32.490  37.685  1.00  0.00     0.127 S 
ATOM     47  O   UNL A   1      42.170  31.558  38.465  1.00  0.00    -0.237 OA
ATOM     48  O   UNL A   1      41.462  33.888  38.105  1.00  0.00    -0.237 OA
ATOM     49  O   UNL A   1      40.003  32.042  37.391  1.00  0.00    -0.744 OA
ENDBRANCH  43  46
ENDBRANCH  25  39
BRANCH  26  50
ATOM     50  C   UNL A   1      42.675  24.211  27.174  1.00  0.00     0.023 A 
ATOM     51  C   UNL A   1      43.319  24.454  25.947  1.00  0.00     0.012 A 
ATOM     52  C   UNL A   1      42.059  22.964  27.395  1.00  0.00     0.148 A 
ATOM     53  C   UNL A   1      43.322  23.484  24.944  1.00  0.00     0.002 A 
ATOM     54  C   UNL A   1      42.119  21.980  26.416  1.00  0.00     0.091 A 
ATOM     55  F   UNL A   1      41.445  22.757  28.568  1.00  0.00    -0.205 F 
ATOM     56  C   UNL A   1      42.732  22.245  25.182  1.00  0.00     0.022 A 
BRANCH  54  57
ATOM     57  S   UNL A   1      41.511  20.313  26.690  1.00  0.00     0.127 S 
ATOM     58  O   UNL A   1      41.866  19.656  25.436  1.00  0.00    -0.237 OA
ATOM     59  O   UNL A   1      42.298  19.894  27.850  1.00  0.00    -0.237 OA
ATOM     60  O   UNL A   1      40.085  20.451  26.951  1.00  0.00    -0.744 OA
ENDBRANCH  54  57
ENDBRANCH  26  50
BRANCH  38  61
ATOM     61  C   UNL A   1      47.262  26.079  32.095  1.00  0.00     0.023 A 
ATOM     62  C   UNL A   1      48.423  26.520  31.431  1.00  0.00     0.012 A 
ATOM     63  C   UNL A   1      47.378  25.180  33.172  1.00  0.00     0.148 A 
ATOM     64  C   UNL A   1      49.679  26.047  31.812  1.00  0.00     0.002 A 
ATOM     65  C   UNL A   1      48.636  24.756  33.582  1.00  0.00     0.091 A 
ATOM     66  F   UNL A   1      46.259  24.758  33.778  1.00  0.00    -0.205 F 
ATOM     67  C   UNL A   1      49.786  25.178  32.894  1.00  0.00     0.022 A 
BRANCH  65  68
ATOM     68  S   UNL A   1      48.881  23.714  35.024  1.00  0.00     0.127 S 
ATOM     69  O   UNL A   1      48.337  22.437  34.564  1.00  0.00    -0.237 OA
ATOM     70  O   UNL A   1      50.336  23.737  35.177  1.00  0.00    -0.237 OA
ATOM     71  O   UNL A   1      48.147  24.347  36.110  1.00  0.00    -0.744 OA
ENDBRANCH  65  68
ENDBRANCH  38  61
ENDBRANCH  12  13
ENDBRANCH   5   7
ENDBRANCH   2   3
ENDBRANCH   1   2
BRANCH   1  72
ATOM     72  C   UNL A   1      33.295  29.185  24.413  1.00  0.00     0.023 C 
BRANCH  72  73
ATOM     73  C   UNL A   1      33.278  28.921  22.912  1.00  0.00     0.116 C 
BRANCH  73  74
ATOM     74  N   UNL A   1      31.997  29.230  22.295  1.00  0.00    -0.352 N 
ATOM     75  C   UNL A   1      30.830  28.515  22.377  1.00  0.00     0.252 C 
ATOM     76  H   UNL A   1      31.964  30.052  21.755  1.00  0.00     0.163 HD
ATOM     77  O   UNL A   1      29.797  28.883  21.829  1.00  0.00    -0.269 OA
BRANCH  75  78
ATOM     78  C   UNL A   1      30.866  27.216  23.060  1.00  0.00     0.058 A 
ATOM     79  C   UNL A   1      30.313  27.179  24.339  1.00  0.00     0.017 A 
ATOM     80  C   UNL A   1      31.299  26.042  22.437  1.00  0.00     0.055 A 
ATOM     81  C   UNL A   1      30.141  25.950  24.970  1.00  0.00     0.027 A 
ATOM     82  C   UNL A   1      31.171  24.816  23.104  1.00  0.00     0.048 A 
ATOM     83  Cl  UNL A   1      31.917  26.036  20.824  1.00  0.00    -0.083 Cl
ATOM     84  C   UNL A   1      30.596  24.770  24.379  1.00  0.00     0.050 A 
BRANCH  84  85
ATOM     85  N   UNL A   1      30.333  23.507  25.010  1.00  0.00    -0.280 N 
ATOM     86  H   UNL A   1      29.479  23.047  24.848  1.00  0.00     0.180 HD
BRANCH  85  87
ATOM     87  S   UNL A   1      31.497  22.799  26.042  1.00  0.00     0.261 S 
ATOM     88  O   UNL A   1      31.360  23.469  27.320  1.00  0.00    -0.201 OA
ATOM     89  O   UNL A   1      31.311  21.367  25.948  1.00  0.00    -0.201 OA
BRANCH  87  90
ATOM     90  C   UNL A   1      33.094  23.192  25.383  1.00  0.00     0.087 A 
ATOM     91  C   UNL A   1      33.800  24.280  25.910  1.00  0.00     0.022 A 
ATOM     92  C   UNL A   1      33.642  22.415  24.356  1.00  0.00     0.022 A 
ATOM     93  C   UNL A   1      35.096  24.537  25.466  1.00  0.00     0.001 A 
ATOM     94  C   UNL A   1      34.937  22.688  23.909  1.00  0.00     0.001 A 
ATOM     95  C   UNL A   1      35.666  23.737  24.474  1.00  0.00     0.000 A 
ENDBRANCH  87  90
ENDBRANCH  85  87
ENDBRANCH  84  85
ENDBRANCH  75  78
ENDBRANCH  73  74
ENDBRANCH  72  73
ENDBRANCH   1  72
TORSDOF 17
ENDMDL
MODEL 2
REMARK VINA RESULT:     -11.8      1.144      1.663
REMARK SMILES O=C(NCCCCNC(=O)c1ccc(NS(=O)(=O)c2ccccc2)cc1Cl)c1ccc(-c2c3nc(c(-c4cccc(S(=O)(=O)[O-])c4F)c4ccc([nH]4)c(-c4cccc(S(=O)(=O)[O-])c4F)c4nc(c(-c5cccc(S(=O)(=O)[O-])c5F)c5ccc2[nH]5)C=C4)C=C3)cc1
REMARK SMILES IDX 5 1 4 2 3 3 1 4 2 5 28 7 29 8 90 9 30 10 89 11 31 12 32 13
REMARK SMILES IDX 33 14 83 15 34 16 88 17 82 18 84 19 35 20 87 21 81 22 80 23
REMARK SMILES IDX 36 25 68 26 48 27 67 28 49 29 52 30 66 31 85 32 50 33 51 34
REMARK SMILES IDX 65 36 86 37 53 38 37 39 38 40 46 41 39 42 41 43 47 44 40 45
REMARK SMILES IDX 42 46 43 47 44 48 45 49 69 50 70 51 78 52 71 53 73 54 79 55
REMARK SMILES IDX 72 56 74 57 75 58 76 59 77 60 54 61 55 62 63 63 56 64 58 65
REMARK SMILES IDX 64 66 57 67 59 68 60 69 61 70 62 71 6 72 7 73 8 74 9 75
REMARK SMILES IDX 10 77 11 78 12 79 26 80 13 81 25 82 27 83 14 84 15 85 16 87
REMARK SMILES IDX 17 88 18 89 19 90 20 91 24 92 21 93 23 94 22 95
REMARK H PARENT 3 6 84 24 52 35 8 76 15 86
REMARK Flexibility Score: inf
ROOT
ATOM      1  C   UNL A   1      33.654  28.179  25.403  1.00  0.00     0.023 C 
ENDROOT
BRANCH   1   2
ATOM      2  C   UNL A   1      33.691  28.574  26.872  1.00  0.00     0.116 C 
BRANCH   2   3
ATOM      3  N   UNL A   1      33.657  30.015  27.073  1.00  0.00    -0.352 N 
ATOM      4  O   UNL A   1      34.290  31.993  27.951  1.00  0.00    -0.269 OA
ATOM      5  C   UNL A   1      34.555  30.814  27.744  1.00  0.00     0.251 C 
ATOM      6  H   UNL A   1      32.888  30.482  26.675  1.00  0.00     0.163 HD
BRANCH   5   7
ATOM      7  C   UNL A   1      35.817  30.224  28.238  1.00  0.00     0.039 A 
ATOM      8  C   UNL A   1      35.874  29.654  29.512  1.00  0.00     0.014 A 
ATOM      9  C   UNL A   1      36.960  30.271  27.435  1.00  0.00     0.014 A 
ATOM     10  C   UNL A   1      37.101  29.288  30.047  1.00  0.00     0.010 A 
ATOM     11  C   UNL A   1      38.175  29.800  27.939  1.00  0.00     0.010 A 
ATOM     12  C   UNL A   1      38.262  29.334  29.261  1.00  0.00    -0.014 A 
BRANCH  12  13
ATOM     13  C   UNL A   1      39.532  28.797  29.812  1.00  0.00     0.031 A 
ATOM     14  C   UNL A   1      40.176  29.391  31.034  1.00  0.00     0.074 A 
ATOM     15  C   UNL A   1      40.109  27.754  29.181  1.00  0.00     0.049 A 
ATOM     16  N   UNL A   1      41.286  29.037  31.629  1.00  0.00    -0.248 NA
ATOM     17  C   UNL A   1      39.497  30.533  31.666  1.00  0.00     0.031 C 
ATOM     18  C   UNL A   1      39.592  27.119  27.965  1.00  0.00     0.029 A 
ATOM     19  N   UNL A   1      41.251  27.051  29.462  1.00  0.00    -0.354 N 
ATOM     20  C   UNL A   1      41.464  29.931  32.678  1.00  0.00     0.074 A 
ATOM     21  C   UNL A   1      40.347  30.851  32.637  1.00  0.00     0.031 C 
ATOM     22  C   UNL A   1      40.402  26.110  27.616  1.00  0.00     0.029 A 
ATOM     23  C   UNL A   1      41.529  26.071  28.537  1.00  0.00     0.049 A 
ATOM     24  H   UNL A   1      41.817  27.230  30.246  1.00  0.00     0.167 HD
ATOM     25  C   UNL A   1      42.462  29.974  33.593  1.00  0.00     0.034 A 
ATOM     26  C   UNL A   1      42.592  25.254  28.417  1.00  0.00     0.034 A 
ATOM     27  C   UNL A   1      43.560  29.043  33.635  1.00  0.00     0.049 A 
ATOM     28  C   UNL A   1      43.684  25.333  29.442  1.00  0.00     0.074 A 
ATOM     29  C   UNL A   1      44.584  28.962  34.563  1.00  0.00     0.029 A 
ATOM     30  N   UNL A   1      43.791  28.044  32.701  1.00  0.00    -0.354 N 
ATOM     31  N   UNL A   1      43.768  26.102  30.499  1.00  0.00    -0.248 NA
ATOM     32  C   UNL A   1      44.818  24.415  29.271  1.00  0.00     0.031 C 
ATOM     33  C   UNL A   1      45.457  27.945  34.166  1.00  0.00     0.029 A 
ATOM     34  C   UNL A   1      44.953  27.358  33.017  1.00  0.00     0.049 A 
ATOM     35  H   UNL A   1      43.215  27.850  31.927  1.00  0.00     0.167 HD
ATOM     36  C   UNL A   1      44.947  25.742  31.137  1.00  0.00     0.074 A 
ATOM     37  C   UNL A   1      45.531  24.667  30.360  1.00  0.00     0.031 C 
ATOM     38  C   UNL A   1      45.503  26.263  32.258  1.00  0.00     0.034 A 
BRANCH  25  39
ATOM     39  C   UNL A   1      42.415  31.057  34.643  1.00  0.00     0.023 A 
ATOM     40  C   UNL A   1      41.837  30.792  35.900  1.00  0.00     0.012 A 
ATOM     41  C   UNL A   1      43.015  32.312  34.410  1.00  0.00     0.148 A 
ATOM     42  C   UNL A   1      41.826  31.768  36.898  1.00  0.00     0.002 A 
ATOM     43  C   UNL A   1      43.041  33.263  35.425  1.00  0.00     0.091 A 
ATOM     44  F   UNL A   1      43.548  32.552  33.204  1.00  0.00    -0.205 F 
ATOM     45  C   UNL A   1      42.437  32.996  36.664  1.00  0.00     0.022 A 
BRANCH  43  46
ATOM     46  S   UNL A   1      43.873  34.846  35.251  1.00  0.00     0.127 S 
ATOM     47  O   UNL A   1      45.239  34.428  34.944  1.00  0.00    -0.237 OA
ATOM     48  O   UNL A   1      43.153  35.449  34.129  1.00  0.00    -0.237 OA
ATOM     49  O   UNL A   1      43.702  35.532  36.524  1.00  0.00    -0.744 OA
ENDBRANCH  43  46
ENDBRANCH  25  39
BRANCH  26  50
ATOM     50  C   UNL A   1      42.655  24.286  27.288  1.00  0.00     0.023 A 
ATOM     51  C   UNL A   1      43.361  24.626  26.118  1.00  0.00     0.012 A 
ATOM     52  C   UNL A   1      42.050  23.018  27.384  1.00  0.00     0.148 A 
ATOM     53  C   UNL A   1      43.435  23.731  25.051  1.00  0.00     0.002 A 
ATOM     54  C   UNL A   1      42.181  22.108  26.343  1.00  0.00     0.091 A 
ATOM     55  F   UNL A   1      41.377  22.719  28.504  1.00  0.00    -0.205 F 
ATOM     56  C   UNL A   1      42.855  22.469  25.167  1.00  0.00     0.022 A 
BRANCH  54  57
ATOM     57  S   UNL A   1      41.587  20.418  26.463  1.00  0.00     0.127 S 
ATOM     58  O   UNL A   1      42.084  20.021  27.778  1.00  0.00    -0.237 OA
ATOM     59  O   UNL A   1      40.138  20.603  26.382  1.00  0.00    -0.237 OA
ATOM     60  O   UNL A   1      42.167  19.713  25.329  1.00  0.00    -0.744 OA
ENDBRANCH  54  57
ENDBRANCH  26  50
BRANCH  38  61
ATOM     61  C   UNL A   1      46.793  25.653  32.742  1.00  0.00     0.023 A 
ATOM     62  C   UNL A   1      48.027  26.171  32.301  1.00  0.00     0.012 A 
ATOM     63  C   UNL A   1      46.778  24.605  33.682  1.00  0.00     0.148 A 
ATOM     64  C   UNL A   1      49.227  25.632  32.765  1.00  0.00     0.002 A 
ATOM     65  C   UNL A   1      47.976  24.110  34.181  1.00  0.00     0.091 A 
ATOM     66  F   UNL A   1      45.593  24.113  34.073  1.00  0.00    -0.205 F 
ATOM     67  C   UNL A   1      49.201  24.612  33.713  1.00  0.00     0.022 A 
BRANCH  65  68
ATOM     68  S   UNL A   1      48.042  22.865  35.474  1.00  0.00     0.127 S 
ATOM     69  O   UNL A   1      49.483  22.704  35.659  1.00  0.00    -0.237 OA
ATOM     70  O   UNL A   1      47.356  23.534  36.580  1.00  0.00    -0.237 OA
ATOM     71  O   UNL A   1      47.349  21.698  34.948  1.00  0.00    -0.744 OA
ENDBRANCH  65  68
ENDBRANCH  38  61
ENDBRANCH  12  13
ENDBRANCH   5   7
ENDBRANCH   2   3
ENDBRANCH   1   2
BRANCH   1  72
ATOM     72  C   UNL A   1      33.299  29.310  24.443  1.00  0.00     0.023 C 
BRANCH  72  73
ATOM     73  C   UNL A   1      33.288  28.922  22.968  1.00  0.00     0.116 C 
BRANCH  73  74
ATOM     74  N   UNL A   1      32.028  29.230  22.309  1.00  0.00    -0.352 N 
ATOM     75  C   UNL A   1      30.860  28.512  22.350  1.00  0.00     0.252 C 
ATOM     76  H   UNL A   1      32.012  30.053  21.770  1.00  0.00     0.163 HD
ATOM     77  O   UNL A   1      29.846  28.880  21.769  1.00  0.00    -0.269 OA
BRANCH  75  78
ATOM     78  C   UNL A   1      30.876  27.212  23.031  1.00  0.00     0.058 A 
ATOM     79  C   UNL A   1      30.272  27.168  24.287  1.00  0.00     0.017 A 
ATOM     80  C   UNL A   1      31.341  26.041  22.423  1.00  0.00     0.055 A 
ATOM     81  C   UNL A   1      30.082  25.937  24.907  1.00  0.00     0.027 A 
ATOM     82  C   UNL A   1      31.193  24.813  23.082  1.00  0.00     0.048 A 
ATOM     83  Cl  UNL A   1      32.024  26.043  20.837  1.00  0.00    -0.083 Cl
ATOM     84  C   UNL A   1      30.567  24.761  24.332  1.00  0.00     0.050 A 
BRANCH  84  85
ATOM     85  N   UNL A   1      30.286  23.495  24.949  1.00  0.00    -0.280 N 
ATOM     86  H   UNL A   1      29.453  23.017  24.731  1.00  0.00     0.180 HD
BRANCH  85  87
ATOM     87  S   UNL A   1      31.390  22.812  26.060  1.00  0.00     0.261 S 
ATOM     88  O   UNL A   1      31.174  23.503  27.316  1.00  0.00    -0.201 OA
ATOM     89  O   UNL A   1      31.218  21.377  25.981  1.00  0.00    -0.201 OA
BRANCH  87  90
ATOM     90  C   UNL A   1      33.021  23.203  25.490  1.00  0.00     0.087 A 
ATOM     91  C   UNL A   1      33.614  22.395  24.512  1.00  0.00     0.022 A 
ATOM     92  C   UNL A   1      33.700  24.313  26.006  1.00  0.00     0.022 A 
ATOM     93  C   UNL A   1      34.856  22.750  23.988  1.00  0.00     0.001 A 
ATOM     94  C   UNL A   1      34.949  24.654  25.483  1.00  0.00     0.001 A 
ATOM     95  C   UNL A   1      35.517  23.883  24.467  1.00  0.00     0.000 A 
ENDBRANCH  87  90
ENDBRANCH  85  87
ENDBRANCH  84  85
ENDBRANCH  75  78
ENDBRANCH  73  74
ENDBRANCH  72  73
ENDBRANCH   1  72
TORSDOF 17
ENDMDL
MODEL 3
REMARK VINA RESULT:     -11.8      2.949      8.309
REMARK SMILES O=C(NCCCCNC(=O)c1ccc(NS(=O)(=O)c2ccccc2)cc1Cl)c1ccc(-c2c3nc(c(-c4cccc(S(=O)(=O)[O-])c4F)c4ccc([nH]4)c(-c4cccc(S(=O)(=O)[O-])c4F)c4nc(c(-c5cccc(S(=O)(=O)[O-])c5F)c5ccc2[nH]5)C=C4)C=C3)cc1
REMARK SMILES IDX 5 1 4 2 3 3 1 4 2 5 28 7 29 8 90 9 30 10 89 11 31 12 32 13
REMARK SMILES IDX 33 14 83 15 34 16 88 17 82 18 84 19 35 20 87 21 81 22 80 23
REMARK SMILES IDX 36 25 68 26 48 27 67 28 49 29 52 30 66 31 85 32 50 33 51 34
REMARK SMILES IDX 65 36 86 37 53 38 37 39 38 40 46 41 39 42 41 43 47 44 40 45
REMARK SMILES IDX 42 46 43 47 44 48 45 49 69 50 70 51 78 52 71 53 73 54 79 55
REMARK SMILES IDX 72 56 74 57 75 58 76 59 77 60 54 61 55 62 63 63 56 64 58 65
REMARK SMILES IDX 64 66 57 67 59 68 60 69 61 70 62 71 6 72 7 73 8 74 9 75
REMARK SMILES IDX 10 77 11 78 12 79 26 80 13 81 25 82 27 83 14 84 15 85 16 87
REMARK SMILES IDX 17 88 18 89 19 90 20 91 24 92 21 93 23 94 22 95
REMARK H PARENT 3 6 84 24 52 35 8 76 15 86
REMARK Flexibility Score: inf
ROOT
ATOM      1  C   UNL A   1      31.317  31.704  26.723  1.00  0.00     0.023 C 
ENDROOT
BRANCH   1   2
ATOM      2  C   UNL A   1      32.635  32.445  26.893  1.00  0.00     0.116 C 
BRANCH   2   3
ATOM      3  N   UNL A   1      32.458  33.823  27.328  1.00  0.00    -0.352 N 
ATOM      4  O   UNL A   1      32.724  35.616  28.670  1.00  0.00    -0.269 OA
ATOM      5  C   UNL A   1      33.108  34.501  28.333  1.00  0.00     0.251 C 
ATOM      6  H   UNL A   1      31.780  34.340  26.836  1.00  0.00     0.163 HD
BRANCH   5   7
ATOM      7  C   UNL A   1      34.248  33.855  29.018  1.00  0.00     0.039 A 
ATOM      8  C   UNL A   1      35.555  34.266  28.747  1.00  0.00     0.014 A 
ATOM      9  C   UNL A   1      34.010  32.807  29.912  1.00  0.00     0.014 A 
ATOM     10  C   UNL A   1      36.624  33.527  29.233  1.00  0.00     0.010 A 
ATOM     11  C   UNL A   1      35.092  32.133  30.486  1.00  0.00     0.010 A 
ATOM     12  C   UNL A   1      36.407  32.466  30.127  1.00  0.00    -0.014 A 
BRANCH  12  13
ATOM     13  C   UNL A   1      37.576  31.790  30.745  1.00  0.00     0.031 A 
ATOM     14  C   UNL A   1      38.366  30.747  30.005  1.00  0.00     0.074 A 
ATOM     15  C   UNL A   1      37.914  32.130  32.005  1.00  0.00     0.049 A 
ATOM     16  N   UNL A   1      39.405  30.064  30.414  1.00  0.00    -0.248 NA
ATOM     17  C   UNL A   1      37.936  30.418  28.637  1.00  0.00     0.031 C 
ATOM     18  C   UNL A   1      37.197  33.105  32.833  1.00  0.00     0.029 A 
ATOM     19  N   UNL A   1      38.932  31.696  32.813  1.00  0.00    -0.354 N 
ATOM     20  C   UNL A   1      39.730  29.198  29.377  1.00  0.00     0.074 A 
ATOM     21  C   UNL A   1      38.773  29.438  28.317  1.00  0.00     0.031 C 
ATOM     22  C   UNL A   1      37.807  33.208  34.021  1.00  0.00     0.029 A 
ATOM     23  C   UNL A   1      38.911  32.260  34.067  1.00  0.00     0.049 A 
ATOM     24  H   UNL A   1      39.611  31.044  32.524  1.00  0.00     0.167 HD
ATOM     25  C   UNL A   1      40.737  28.295  29.313  1.00  0.00     0.034 A 
ATOM     26  C   UNL A   1      39.671  32.018  35.151  1.00  0.00     0.034 A 
ATOM     27  C   UNL A   1      41.695  28.076  30.367  1.00  0.00     0.049 A 
ATOM     28  C   UNL A   1      40.772  31.005  35.051  1.00  0.00     0.074 A 
ATOM     29  C   UNL A   1      42.791  27.232  30.371  1.00  0.00     0.029 A 
ATOM     30  N   UNL A   1      41.661  28.689  31.611  1.00  0.00    -0.354 N 
ATOM     31  N   UNL A   1      41.141  30.289  34.018  1.00  0.00    -0.248 NA
ATOM     32  C   UNL A   1      41.578  30.782  36.259  1.00  0.00     0.031 C 
ATOM     33  C   UNL A   1      43.393  27.300  31.631  1.00  0.00     0.029 A 
ATOM     34  C   UNL A   1      42.702  28.224  32.398  1.00  0.00     0.049 A 
ATOM     35  H   UNL A   1      40.995  29.357  31.894  1.00  0.00     0.167 HD
ATOM     36  C   UNL A   1      42.240  29.552  34.440  1.00  0.00     0.074 A 
ATOM     37  C   UNL A   1      42.491  29.929  35.816  1.00  0.00     0.031 C 
ATOM     38  C   UNL A   1      42.967  28.637  33.753  1.00  0.00     0.034 A 
BRANCH  25  39
ATOM     39  C   UNL A   1      40.874  27.472  28.055  1.00  0.00     0.023 A 
ATOM     40  C   UNL A   1      41.475  28.034  26.911  1.00  0.00     0.012 A 
ATOM     41  C   UNL A   1      40.480  26.119  28.033  1.00  0.00     0.148 A 
ATOM     42  C   UNL A   1      41.650  27.274  25.754  1.00  0.00     0.002 A 
ATOM     43  C   UNL A   1      40.700  25.355  26.892  1.00  0.00     0.091 A 
ATOM     44  F   UNL A   1      39.898  25.605  29.125  1.00  0.00    -0.205 F 
ATOM     45  C   UNL A   1      41.273  25.934  25.748  1.00  0.00     0.022 A 
BRANCH  43  46
ATOM     46  S   UNL A   1      40.324  23.600  26.810  1.00  0.00     0.127 S 
ATOM     47  O   UNL A   1      38.910  23.619  26.441  1.00  0.00    -0.237 OA
ATOM     48  O   UNL A   1      41.225  23.142  25.751  1.00  0.00    -0.237 OA
ATOM     49  O   UNL A   1      40.617  23.063  28.132  1.00  0.00    -0.744 OA
ENDBRANCH  43  46
ENDBRANCH  25  39
BRANCH  26  50
ATOM     50  C   UNL A   1      39.416  32.764  36.414  1.00  0.00     0.023 A 
ATOM     51  C   UNL A   1      40.059  33.996  36.638  1.00  0.00     0.012 A 
ATOM     52  C   UNL A   1      38.510  32.274  37.375  1.00  0.00     0.148 A 
ATOM     53  C   UNL A   1      39.829  34.711  37.814  1.00  0.00     0.002 A 
ATOM     54  C   UNL A   1      38.239  33.021  38.515  1.00  0.00     0.091 A 
ATOM     55  F   UNL A   1      37.915  31.095  37.145  1.00  0.00    -0.205 F 
ATOM     56  C   UNL A   1      38.912  34.230  38.746  1.00  0.00     0.022 A 
BRANCH  54  57
ATOM     57  S   UNL A   1      36.973  32.547  39.696  1.00  0.00     0.127 S 
ATOM     58  O   UNL A   1      35.767  32.589  38.874  1.00  0.00    -0.237 OA
ATOM     59  O   UNL A   1      37.410  31.204  40.080  1.00  0.00    -0.237 OA
ATOM     60  O   UNL A   1      37.043  33.530  40.767  1.00  0.00    -0.744 OA
ENDBRANCH  54  57
ENDBRANCH  26  50
BRANCH  38  61
ATOM     61  C   UNL A   1      44.134  28.003  34.464  1.00  0.00     0.023 A 
ATOM     62  C   UNL A   1      45.393  28.634  34.456  1.00  0.00     0.012 A 
ATOM     63  C   UNL A   1      43.962  26.810  35.193  1.00  0.00     0.148 A 
ATOM     64  C   UNL A   1      46.473  28.070  35.134  1.00  0.00     0.002 A 
ATOM     65  C   UNL A   1      45.028  26.283  35.911  1.00  0.00     0.091 A 
ATOM     66  F   UNL A   1      42.761  26.215  35.172  1.00  0.00    -0.205 F 
ATOM     67  C   UNL A   1      46.287  26.904  35.871  1.00  0.00     0.022 A 
BRANCH  65  68
ATOM     68  S   UNL A   1      44.860  24.839  36.967  1.00  0.00     0.127 S 
ATOM     69  O   UNL A   1      44.401  23.828  36.016  1.00  0.00    -0.237 OA
ATOM     70  O   UNL A   1      46.229  24.648  37.447  1.00  0.00    -0.237 OA
ATOM     71  O   UNL A   1      43.901  25.203  38.000  1.00  0.00    -0.744 OA
ENDBRANCH  65  68
ENDBRANCH  38  61
ENDBRANCH  12  13
ENDBRANCH   5   7
ENDBRANCH   2   3
ENDBRANCH   1   2
BRANCH   1  72
ATOM     72  C   UNL A   1      30.660  31.867  25.356  1.00  0.00     0.023 C 
BRANCH  72  73
ATOM     73  C   UNL A   1      30.323  30.562  24.644  1.00  0.00     0.116 C 
BRANCH  73  74
ATOM     74  N   UNL A   1      29.876  30.761  23.273  1.00  0.00    -0.352 N 
ATOM     75  C   UNL A   1      29.451  29.810  22.381  1.00  0.00     0.252 C 
ATOM     76  H   UNL A   1      29.878  31.690  22.949  1.00  0.00     0.163 HD
ATOM     77  O   UNL A   1      29.074  30.097  21.251  1.00  0.00    -0.269 OA
BRANCH  75  78
ATOM     78  C   UNL A   1      29.557  28.401  22.775  1.00  0.00     0.058 A 
ATOM     79  C   UNL A   1      30.811  27.811  22.619  1.00  0.00     0.017 A 
ATOM     80  C   UNL A   1      28.517  27.706  23.399  1.00  0.00     0.055 A 
ATOM     81  C   UNL A   1      31.036  26.542  23.144  1.00  0.00     0.027 A 
ATOM     82  C   UNL A   1      28.740  26.406  23.876  1.00  0.00     0.048 A 
ATOM     83  Cl  UNL A   1      26.974  28.428  23.681  1.00  0.00    -0.083 Cl
ATOM     84  C   UNL A   1      30.003  25.819  23.742  1.00  0.00     0.050 A 
BRANCH  84  85
ATOM     85  N   UNL A   1      30.278  24.548  24.350  1.00  0.00    -0.280 N 
ATOM     86  H   UNL A   1      30.147  23.719  23.835  1.00  0.00     0.180 HD
BRANCH  85  87
ATOM     87  S   UNL A   1      30.833  24.465  25.964  1.00  0.00     0.261 S 
ATOM     88  O   UNL A   1      29.659  24.623  26.800  1.00  0.00    -0.201 OA
ATOM     89  O   UNL A   1      31.639  23.267  26.060  1.00  0.00    -0.201 OA
BRANCH  87  90
ATOM     90  C   UNL A   1      31.889  25.863  26.230  1.00  0.00     0.087 A 
ATOM     91  C   UNL A   1      33.217  25.807  25.790  1.00  0.00     0.022 A 
ATOM     92  C   UNL A   1      31.394  27.009  26.862  1.00  0.00     0.022 A 
ATOM     93  C   UNL A   1      34.027  26.935  25.908  1.00  0.00     0.001 A 
ATOM     94  C   UNL A   1      32.217  28.130  26.987  1.00  0.00     0.001 A 
ATOM     95  C   UNL A   1      33.525  28.097  26.497  1.00  0.00     0.000 A 
ENDBRANCH  87  90
ENDBRANCH  85  87
ENDBRANCH  84  85
ENDBRANCH  75  78
ENDBRANCH  73  74
ENDBRANCH  72  73
ENDBRANCH   1  72
TORSDOF 17
ENDMDL
