MODEL 1
REMARK VINA RESULT:     -12.8      0.000      0.000
REMARK SMILES Cc1cc2c(c(C)c1Cl)C=C(C(=O)NCCCCNC(=O)c1ccc(-c3c4nc(c(-c5cccc(S(=O)(=O)[O-])c5F)c5ccc([nH]5)c(-c5cccc(S(=O)(=O)[O-])c5F)c5nc(c(-c6cccc(S(=O)(=O)[O-])c6F)c6ccc3[nH]6)C=C5)C=C4)cc1)[C@H](C(F)(F)F)O2
REMARK SMILES IDX 17 1 16 2 15 3 14 4 12 5 13 6 11 8 1 9 2 10 3 11 8 12 4 13
REMARK SMILES IDX 6 14 9 15 5 16 90 17 7 18 10 19 85 20 86 21 87 22 88 23
REMARK SMILES IDX 89 24 18 25 19 26 20 27 21 29 22 30 23 31 84 32 24 33 83 34
REMARK SMILES IDX 25 35 26 36 27 37 77 38 28 39 82 40 76 41 78 42 29 43 81 44
REMARK SMILES IDX 75 45 74 46 30 48 62 49 42 50 61 51 43 52 46 53 60 54 79 55
REMARK SMILES IDX 44 56 45 57 59 59 80 60 47 61 31 62 32 63 40 64 33 65 35 66
REMARK SMILES IDX 41 67 34 68 36 69 37 70 38 71 39 72 63 73 64 74 72 75 65 76
REMARK SMILES IDX 67 77 73 78 66 79 68 80 69 81 70 82 71 83 48 84 49 85 57 86
REMARK SMILES IDX 50 87 52 88 58 89 51 90 53 91 54 92 55 93 56 94
REMARK H PARENT 14 7 19 28 78 47 46 58
REMARK Flexibility Score: inf
ROOT
ATOM      1  C   UNL A   1      31.627  29.054  26.511  1.00  0.00     0.023 C 
ENDROOT
BRANCH   1   2
ATOM      2  C   UNL A   1      32.053  27.584  26.481  1.00  0.00     0.023 C 
BRANCH   2   3
ATOM      3  C   UNL A   1      31.041  26.644  25.829  1.00  0.00     0.116 C 
BRANCH   3   4
ATOM      4  N   UNL A   1      31.378  26.370  24.446  1.00  0.00    -0.352 N 
ATOM      5  C   UNL A   1      31.770  25.292  23.729  1.00  0.00     0.251 C 
ATOM      6  O   UNL A   1      31.855  25.472  22.510  1.00  0.00    -0.270 OA
ATOM      7  H   UNL A   1      31.303  27.174  23.884  1.00  0.00     0.163 HD
BRANCH   5   8
ATOM      8  C   UNL A   1      32.099  23.949  24.292  1.00  0.00     0.067 C 
ATOM      9  C   UNL A   1      33.286  17.642  25.381  1.00  0.00     0.046 C 
ATOM     10  C   UNL A   1      32.895  18.988  24.831  1.00  0.00    -0.028 A 
ATOM     11  C   UNL A   1      32.903  20.092  25.691  1.00  0.00     0.052 A 
ATOM     12  C   UNL A   1      32.527  19.174  23.482  1.00  0.00     0.047 A 
ATOM     13  C   UNL A   1      32.570  21.356  25.216  1.00  0.00     0.128 A 
ATOM     14  C   UNL A   1      32.169  20.452  22.991  1.00  0.00    -0.021 A 
ATOM     15  Cl  UNL A   1      32.518  17.787  22.432  1.00  0.00    -0.084 Cl
ATOM     16  C   UNL A   1      32.188  21.550  23.885  1.00  0.00     0.022 A 
ATOM     17  O   UNL A   1      32.612  22.372  26.134  1.00  0.00    -0.475 OA
ATOM     18  C   UNL A   1      31.779  20.676  21.548  1.00  0.00     0.047 C 
ATOM     19  C   UNL A   1      31.800  22.909  23.491  1.00  0.00     0.026 C 
ATOM     20  C   UNL A   1      32.819  23.705  25.586  1.00  0.00     0.314 C 
BRANCH  20  21
ATOM     21  C   UNL A   1      34.319  24.036  25.540  1.00  0.00     0.429 C 
ATOM     22  F   UNL A   1      35.035  23.361  26.466  1.00  0.00    -0.167 F 
ATOM     23  F   UNL A   1      34.830  23.703  24.325  1.00  0.00    -0.167 F 
ATOM     24  F   UNL A   1      34.573  25.352  25.728  1.00  0.00    -0.167 F 
ENDBRANCH  20  21
ENDBRANCH   5   8
ENDBRANCH   3   4
ENDBRANCH   2   3
ENDBRANCH   1   2
BRANCH   1  25
ATOM     25  C   UNL A   1      32.711  30.052  26.120  1.00  0.00     0.116 C 
BRANCH  25  26
ATOM     26  N   UNL A   1      32.455  31.409  26.583  1.00  0.00    -0.352 N 
ATOM     27  C   UNL A   1      33.267  32.194  27.367  1.00  0.00     0.251 C 
ATOM     28  H   UNL A   1      31.601  31.811  26.303  1.00  0.00     0.163 HD
ATOM     29  O   UNL A   1      32.901  33.303  27.744  1.00  0.00    -0.269 OA
BRANCH  27  30
ATOM     30  C   UNL A   1      34.570  31.644  27.785  1.00  0.00     0.039 A 
ATOM     31  C   UNL A   1      35.636  32.522  27.986  1.00  0.00     0.014 A 
ATOM     32  C   UNL A   1      34.686  30.287  28.093  1.00  0.00     0.014 A 
ATOM     33  C   UNL A   1      36.806  32.047  28.578  1.00  0.00     0.010 A 
ATOM     34  C   UNL A   1      35.827  29.831  28.744  1.00  0.00     0.010 A 
ATOM     35  C   UNL A   1      36.893  30.708  28.998  1.00  0.00    -0.014 A 
BRANCH  35  36
ATOM     36  C   UNL A   1      38.083  30.214  29.730  1.00  0.00     0.031 A 
ATOM     37  C   UNL A   1      38.348  30.681  31.132  1.00  0.00     0.074 A 
ATOM     38  C   UNL A   1      38.962  29.408  29.102  1.00  0.00     0.049 A 
ATOM     39  N   UNL A   1      39.339  30.372  31.926  1.00  0.00    -0.248 NA
ATOM     40  C   UNL A   1      37.391  31.640  31.711  1.00  0.00     0.031 C 
ATOM     41  C   UNL A   1      38.855  28.962  27.711  1.00  0.00     0.029 A 
ATOM     42  N   UNL A   1      40.124  28.829  29.547  1.00  0.00    -0.354 N 
ATOM     43  C   UNL A   1      39.141  31.114  33.082  1.00  0.00     0.074 A 
ATOM     44  C   UNL A   1      37.961  31.924  32.873  1.00  0.00     0.031 C 
ATOM     45  C   UNL A   1      39.893  28.159  27.426  1.00  0.00     0.029 A 
ATOM     46  C   UNL A   1      40.746  28.045  28.604  1.00  0.00     0.049 A 
ATOM     47  H   UNL A   1      40.478  28.963  30.456  1.00  0.00     0.167 HD
ATOM     48  C   UNL A   1      39.850  31.088  34.234  1.00  0.00     0.034 A 
ATOM     49  C   UNL A   1      41.867  27.301  28.690  1.00  0.00     0.034 A 
ATOM     50  C   UNL A   1      40.978  30.231  34.460  1.00  0.00     0.049 A 
ATOM     51  C   UNL A   1      42.606  27.246  30.000  1.00  0.00     0.074 A 
ATOM     52  C   UNL A   1      41.708  30.062  35.622  1.00  0.00     0.029 A 
ATOM     53  N   UNL A   1      41.536  29.393  33.507  1.00  0.00    -0.354 N 
ATOM     54  N   UNL A   1      42.311  27.830  31.135  1.00  0.00    -0.248 NA
ATOM     55  C   UNL A   1      43.812  26.405  30.053  1.00  0.00     0.031 C 
ATOM     56  C   UNL A   1      42.708  29.116  35.372  1.00  0.00     0.029 A 
ATOM     57  C   UNL A   1      42.599  28.699  34.055  1.00  0.00     0.049 A 
ATOM     58  H   UNL A   1      41.221  29.303  32.579  1.00  0.00     0.167 HD
ATOM     59  C   UNL A   1      43.274  27.409  32.044  1.00  0.00     0.074 A 
ATOM     60  C   UNL A   1      44.152  26.504  31.333  1.00  0.00     0.031 C 
ATOM     61  C   UNL A   1      43.426  27.756  33.346  1.00  0.00     0.034 A 
BRANCH  48  62
ATOM     62  C   UNL A   1      39.361  31.942  35.371  1.00  0.00     0.023 A 
ATOM     63  C   UNL A   1      38.457  31.386  36.299  1.00  0.00     0.012 A 
ATOM     64  C   UNL A   1      39.826  33.256  35.559  1.00  0.00     0.148 A 
ATOM     65  C   UNL A   1      38.001  32.133  37.383  1.00  0.00     0.002 A 
ATOM     66  C   UNL A   1      39.395  33.984  36.662  1.00  0.00     0.091 A 
ATOM     67  F   UNL A   1      40.665  33.776  34.651  1.00  0.00    -0.205 F 
ATOM     68  C   UNL A   1      38.478  33.427  37.570  1.00  0.00     0.022 A 
BRANCH  66  69
ATOM     69  S   UNL A   1      40.001  35.637  37.026  1.00  0.00     0.127 S 
ATOM     70  O   UNL A   1      39.279  35.949  38.259  1.00  0.00    -0.237 OA
ATOM     71  O   UNL A   1      41.436  35.410  37.201  1.00  0.00    -0.237 OA
ATOM     72  O   UNL A   1      39.653  36.451  35.870  1.00  0.00    -0.744 OA
ENDBRANCH  66  69
ENDBRANCH  48  62
BRANCH  49  73
ATOM     73  C   UNL A   1      42.280  26.453  27.535  1.00  0.00     0.023 A 
ATOM     74  C   UNL A   1      43.145  26.999  26.567  1.00  0.00     0.012 A 
ATOM     75  C   UNL A   1      41.884  25.106  27.421  1.00  0.00     0.148 A 
ATOM     76  C   UNL A   1      43.595  26.227  25.496  1.00  0.00     0.002 A 
ATOM     77  C   UNL A   1      42.375  24.327  26.377  1.00  0.00     0.091 A 
ATOM     78  F   UNL A   1      41.048  24.608  28.342  1.00  0.00    -0.205 F 
ATOM     79  C   UNL A   1      43.221  24.888  25.407  1.00  0.00     0.022 A 
BRANCH  77  80
ATOM     80  S   UNL A   1      42.048  22.564  26.261  1.00  0.00     0.127 S 
ATOM     81  O   UNL A   1      42.724  22.214  25.015  1.00  0.00    -0.237 OA
ATOM     82  O   UNL A   1      42.688  22.053  27.474  1.00  0.00    -0.237 OA
ATOM     83  O   UNL A   1      40.596  22.441  26.257  1.00  0.00    -0.744 OA
ENDBRANCH  77  80
ENDBRANCH  49  73
BRANCH  61  84
ATOM     84  C   UNL A   1      44.579  27.161  34.108  1.00  0.00     0.023 A 
ATOM     85  C   UNL A   1      45.809  27.845  34.131  1.00  0.00     0.012 A 
ATOM     86  C   UNL A   1      44.400  26.018  34.912  1.00  0.00     0.148 A 
ATOM     87  C   UNL A   1      46.850  27.396  34.942  1.00  0.00     0.002 A 
ATOM     88  C   UNL A   1      45.429  25.601  35.748  1.00  0.00     0.091 A 
ATOM     89  F   UNL A   1      43.225  25.376  34.861  1.00  0.00    -0.205 F 
ATOM     90  C   UNL A   1      46.656  26.285  35.760  1.00  0.00     0.022 A 
BRANCH  88  91
ATOM     91  S   UNL A   1      45.238  24.242  36.909  1.00  0.00     0.127 S 
ATOM     92  O   UNL A   1      46.564  24.183  37.519  1.00  0.00    -0.237 OA
ATOM     93  O   UNL A   1      44.181  24.735  37.793  1.00  0.00    -0.237 OA
ATOM     94  O   UNL A   1      44.865  23.082  36.111  1.00  0.00    -0.744 OA
ENDBRANCH  88  91
ENDBRANCH  61  84
ENDBRANCH  35  36
ENDBRANCH  27  30
ENDBRANCH  25  26
ENDBRANCH   1  25
TORSDOF 15
ENDMDL
MODEL 2
REMARK VINA RESULT:     -12.7      1.747      2.239
REMARK SMILES Cc1cc2c(c(C)c1Cl)C=C(C(=O)NCCCCNC(=O)c1ccc(-c3c4nc(c(-c5cccc(S(=O)(=O)[O-])c5F)c5ccc([nH]5)c(-c5cccc(S(=O)(=O)[O-])c5F)c5nc(c(-c6cccc(S(=O)(=O)[O-])c6F)c6ccc3[nH]6)C=C5)C=C4)cc1)[C@H](C(F)(F)F)O2
REMARK SMILES IDX 17 1 16 2 15 3 14 4 12 5 13 6 11 8 1 9 2 10 3 11 8 12 4 13
REMARK SMILES IDX 6 14 9 15 5 16 90 17 7 18 10 19 85 20 86 21 87 22 88 23
REMARK SMILES IDX 89 24 18 25 19 26 20 27 21 29 22 30 23 31 84 32 24 33 83 34
REMARK SMILES IDX 25 35 26 36 27 37 77 38 28 39 82 40 76 41 78 42 29 43 81 44
REMARK SMILES IDX 75 45 74 46 30 48 62 49 42 50 61 51 43 52 46 53 60 54 79 55
REMARK SMILES IDX 44 56 45 57 59 59 80 60 47 61 31 62 32 63 40 64 33 65 35 66
REMARK SMILES IDX 41 67 34 68 36 69 37 70 38 71 39 72 63 73 64 74 72 75 65 76
REMARK SMILES IDX 67 77 73 78 66 79 68 80 69 81 70 82 71 83 48 84 49 85 57 86
REMARK SMILES IDX 50 87 52 88 58 89 51 90 53 91 54 92 55 93 56 94
REMARK H PARENT 14 7 19 28 78 47 46 58
REMARK Flexibility Score: inf
ROOT
ATOM      1  C   UNL A   1      32.044  29.282  27.210  1.00  0.00     0.023 C 
ENDROOT
BRANCH   1   2
ATOM      2  C   UNL A   1      32.223  27.811  26.825  1.00  0.00     0.023 C 
BRANCH   2   3
ATOM      3  C   UNL A   1      33.472  27.521  25.993  1.00  0.00     0.116 C 
BRANCH   3   4
ATOM      4  N   UNL A   1      33.190  27.561  24.571  1.00  0.00    -0.352 N 
ATOM      5  C   UNL A   1      32.891  26.662  23.607  1.00  0.00     0.251 C 
ATOM      6  O   UNL A   1      32.612  27.143  22.504  1.00  0.00    -0.270 OA
ATOM      7  H   UNL A   1      33.226  28.479  24.217  1.00  0.00     0.163 HD
BRANCH   5   8
ATOM      8  C   UNL A   1      32.880  25.179  23.778  1.00  0.00     0.067 C 
ATOM      9  C   UNL A   1      34.263  18.895  24.766  1.00  0.00     0.046 C 
ATOM     10  C   UNL A   1      34.281  20.382  24.532  1.00  0.00    -0.028 A 
ATOM     11  C   UNL A   1      33.080  21.025  24.210  1.00  0.00     0.052 A 
ATOM     12  C   UNL A   1      35.462  21.147  24.630  1.00  0.00     0.047 A 
ATOM     13  C   UNL A   1      33.050  22.401  24.009  1.00  0.00     0.128 A 
ATOM     14  C   UNL A   1      35.448  22.545  24.409  1.00  0.00    -0.021 A 
ATOM     15  Cl  UNL A   1      36.944  20.327  25.024  1.00  0.00    -0.084 Cl
ATOM     16  C   UNL A   1      34.218  23.168  24.087  1.00  0.00     0.022 A 
ATOM     17  O   UNL A   1      31.828  22.936  23.703  1.00  0.00    -0.475 OA
ATOM     18  C   UNL A   1      36.700  23.385  24.517  1.00  0.00     0.047 C 
ATOM     19  C   UNL A   1      34.096  24.601  23.803  1.00  0.00     0.026 C 
ATOM     20  C   UNL A   1      31.658  24.345  24.032  1.00  0.00     0.314 C 
BRANCH  20  21
ATOM     21  C   UNL A   1      31.080  24.497  25.448  1.00  0.00     0.429 C 
ATOM     22  F   UNL A   1      32.035  24.657  26.390  1.00  0.00    -0.167 F 
ATOM     23  F   UNL A   1      30.279  25.593  25.507  1.00  0.00    -0.167 F 
ATOM     24  F   UNL A   1      30.329  23.437  25.825  1.00  0.00    -0.167 F 
ENDBRANCH  20  21
ENDBRANCH   5   8
ENDBRANCH   3   4
ENDBRANCH   2   3
ENDBRANCH   1   2
BRANCH   1  25
ATOM     25  C   UNL A   1      33.071  30.238  26.613  1.00  0.00     0.116 C 
BRANCH  25  26
ATOM     26  N   UNL A   1      32.942  31.609  27.088  1.00  0.00    -0.352 N 
ATOM     27  C   UNL A   1      33.857  32.333  27.815  1.00  0.00     0.251 C 
ATOM     28  H   UNL A   1      32.102  32.071  26.863  1.00  0.00     0.163 HD
ATOM     29  O   UNL A   1      33.597  33.465  28.211  1.00  0.00    -0.269 OA
BRANCH  27  30
ATOM     30  C   UNL A   1      35.142  31.692  28.148  1.00  0.00     0.039 A 
ATOM     31  C   UNL A   1      36.294  32.479  28.194  1.00  0.00     0.014 A 
ATOM     32  C   UNL A   1      35.172  30.349  28.532  1.00  0.00     0.014 A 
ATOM     33  C   UNL A   1      37.471  31.934  28.707  1.00  0.00     0.010 A 
ATOM     34  C   UNL A   1      36.326  29.830  29.106  1.00  0.00     0.010 A 
ATOM     35  C   UNL A   1      37.483  30.619  29.204  1.00  0.00    -0.014 A 
BRANCH  35  36
ATOM     36  C   UNL A   1      38.691  30.061  29.857  1.00  0.00     0.031 A 
ATOM     37  C   UNL A   1      39.089  30.532  31.225  1.00  0.00     0.074 A 
ATOM     38  C   UNL A   1      39.468  29.191  29.182  1.00  0.00     0.049 A 
ATOM     39  N   UNL A   1      40.115  30.173  31.950  1.00  0.00    -0.248 NA
ATOM     40  C   UNL A   1      38.240  31.559  31.854  1.00  0.00     0.031 C 
ATOM     41  C   UNL A   1      39.230  28.731  27.812  1.00  0.00     0.029 A 
ATOM     42  N   UNL A   1      40.622  28.546  29.552  1.00  0.00    -0.354 N 
ATOM     43  C   UNL A   1      40.051  30.944  33.102  1.00  0.00     0.074 A 
ATOM     44  C   UNL A   1      38.912  31.824  32.965  1.00  0.00     0.031 C 
ATOM     45  C   UNL A   1      40.192  27.859  27.467  1.00  0.00     0.029 A 
ATOM     46  C   UNL A   1      41.122  27.709  28.581  1.00  0.00     0.049 A 
ATOM     47  H   UNL A   1      41.051  28.672  30.429  1.00  0.00     0.167 HD
ATOM     48  C   UNL A   1      40.842  30.890  34.199  1.00  0.00     0.034 A 
ATOM     49  C   UNL A   1      42.197  26.897  28.599  1.00  0.00     0.034 A 
ATOM     50  C   UNL A   1      41.928  29.967  34.359  1.00  0.00     0.049 A 
ATOM     51  C   UNL A   1      43.027  26.815  29.852  1.00  0.00     0.074 A 
ATOM     52  C   UNL A   1      42.731  29.769  35.467  1.00  0.00     0.029 A 
ATOM     53  N   UNL A   1      42.359  29.080  33.385  1.00  0.00    -0.354 N 
ATOM     54  N   UNL A   1      42.855  27.434  30.995  1.00  0.00    -0.248 NA
ATOM     55  C   UNL A   1      44.179  25.900  29.834  1.00  0.00     0.031 C 
ATOM     56  C   UNL A   1      43.648  28.758  35.164  1.00  0.00     0.029 A 
ATOM     57  C   UNL A   1      43.415  28.329  33.866  1.00  0.00     0.049 A 
ATOM     58  H   UNL A   1      41.970  28.996  32.484  1.00  0.00     0.167 HD
ATOM     59  C   UNL A   1      43.855  26.967  31.838  1.00  0.00     0.074 A 
ATOM     60  C   UNL A   1      44.620  25.996  31.083  1.00  0.00     0.031 C 
ATOM     61  C   UNL A   1      44.125  27.323  33.118  1.00  0.00     0.034 A 
BRANCH  48  62
ATOM     62  C   UNL A   1      40.494  31.791  35.351  1.00  0.00     0.023 A 
ATOM     63  C   UNL A   1      41.302  32.919  35.602  1.00  0.00     0.012 A 
ATOM     64  C   UNL A   1      39.354  31.565  36.146  1.00  0.00     0.148 A 
ATOM     65  C   UNL A   1      40.998  33.795  36.642  1.00  0.00     0.002 A 
ATOM     66  C   UNL A   1      39.037  32.463  37.159  1.00  0.00     0.091 A 
ATOM     67  F   UNL A   1      38.614  30.473  35.909  1.00  0.00    -0.205 F 
ATOM     68  C   UNL A   1      39.860  33.573  37.412  1.00  0.00     0.022 A 
BRANCH  66  69
ATOM     69  S   UNL A   1      37.557  32.299  38.166  1.00  0.00     0.127 S 
ATOM     70  O   UNL A   1      37.946  33.018  39.379  1.00  0.00    -0.237 OA
ATOM     71  O   UNL A   1      36.550  32.978  37.352  1.00  0.00    -0.237 OA
ATOM     72  O   UNL A   1      37.342  30.868  38.326  1.00  0.00    -0.744 OA
ENDBRANCH  66  69
ENDBRANCH  48  62
BRANCH  49  73
ATOM     73  C   UNL A   1      42.468  26.006  27.435  1.00  0.00     0.023 A 
ATOM     74  C   UNL A   1      43.249  26.498  26.371  1.00  0.00     0.012 A 
ATOM     75  C   UNL A   1      42.023  24.670  27.399  1.00  0.00     0.148 A 
ATOM     76  C   UNL A   1      43.568  25.685  25.284  1.00  0.00     0.002 A 
ATOM     77  C   UNL A   1      42.386  23.849  26.335  1.00  0.00     0.091 A 
ATOM     78  F   UNL A   1      41.269  24.223  28.412  1.00  0.00    -0.205 F 
ATOM     79  C   UNL A   1      43.148  24.357  25.271  1.00  0.00     0.022 A 
BRANCH  77  80
ATOM     80  S   UNL A   1      41.997  22.094  26.303  1.00  0.00     0.127 S 
ATOM     81  O   UNL A   1      40.565  22.110  26.021  1.00  0.00    -0.237 OA
ATOM     82  O   UNL A   1      42.837  21.614  25.205  1.00  0.00    -0.237 OA
ATOM     83  O   UNL A   1      42.386  21.590  27.614  1.00  0.00    -0.744 OA
ENDBRANCH  77  80
ENDBRANCH  49  73
BRANCH  61  84
ATOM     84  C   UNL A   1      45.293  26.668  33.805  1.00  0.00     0.023 A 
ATOM     85  C   UNL A   1      46.551  27.298  33.767  1.00  0.00     0.012 A 
ATOM     86  C   UNL A   1      45.111  25.520  34.602  1.00  0.00     0.148 A 
ATOM     87  C   UNL A   1      47.616  26.793  34.511  1.00  0.00     0.002 A 
ATOM     88  C   UNL A   1      46.166  25.047  35.372  1.00  0.00     0.091 A 
ATOM     89  F   UNL A   1      43.907  24.930  34.609  1.00  0.00    -0.205 F 
ATOM     90  C   UNL A   1      47.420  25.678  35.323  1.00  0.00     0.022 A 
BRANCH  88  91
ATOM     91  S   UNL A   1      45.982  23.679  36.524  1.00  0.00     0.127 S 
ATOM     92  O   UNL A   1      44.979  24.202  37.449  1.00  0.00    -0.237 OA
ATOM     93  O   UNL A   1      45.507  22.603  35.654  1.00  0.00    -0.237 OA
ATOM     94  O   UNL A   1      47.303  23.455  37.095  1.00  0.00    -0.744 OA
ENDBRANCH  88  91
ENDBRANCH  61  84
ENDBRANCH  35  36
ENDBRANCH  27  30
ENDBRANCH  25  26
ENDBRANCH   1  25
TORSDOF 15
ENDMDL
MODEL 3
REMARK VINA RESULT:     -12.7      5.545     10.337
REMARK SMILES Cc1cc2c(c(C)c1Cl)C=C(C(=O)NCCCCNC(=O)c1ccc(-c3c4nc(c(-c5cccc(S(=O)(=O)[O-])c5F)c5ccc([nH]5)c(-c5cccc(S(=O)(=O)[O-])c5F)c5nc(c(-c6cccc(S(=O)(=O)[O-])c6F)c6ccc3[nH]6)C=C5)C=C4)cc1)[C@H](C(F)(F)F)O2
REMARK SMILES IDX 17 1 16 2 15 3 14 4 12 5 13 6 11 8 1 9 2 10 3 11 8 12 4 13
REMARK SMILES IDX 6 14 9 15 5 16 90 17 7 18 10 19 85 20 86 21 87 22 88 23
REMARK SMILES IDX 89 24 18 25 19 26 20 27 21 29 22 30 23 31 84 32 24 33 83 34
REMARK SMILES IDX 25 35 26 36 27 37 77 38 28 39 82 40 76 41 78 42 29 43 81 44
REMARK SMILES IDX 75 45 74 46 30 48 62 49 42 50 61 51 43 52 46 53 60 54 79 55
REMARK SMILES IDX 44 56 45 57 59 59 80 60 47 61 31 62 32 63 40 64 33 65 35 66
REMARK SMILES IDX 41 67 34 68 36 69 37 70 38 71 39 72 63 73 64 74 72 75 65 76
REMARK SMILES IDX 67 77 73 78 66 79 68 80 69 81 70 82 71 83 48 84 49 85 57 86
REMARK SMILES IDX 50 87 52 88 58 89 51 90 53 91 54 92 55 93 56 94
REMARK H PARENT 14 7 19 28 78 47 46 58
REMARK Flexibility Score: inf
ROOT
ATOM      1  C   UNL A   1      37.633  20.923  24.983  1.00  0.00     0.023 C 
ENDROOT
BRANCH   1   2
ATOM      2  C   UNL A   1      36.968  22.179  24.414  1.00  0.00     0.023 C 
BRANCH   2   3
ATOM      3  C   UNL A   1      36.455  23.157  25.471  1.00  0.00     0.116 C 
BRANCH   3   4
ATOM      4  N   UNL A   1      35.659  22.486  26.480  1.00  0.00    -0.352 N 
ATOM      5  C   UNL A   1      34.344  22.379  26.778  1.00  0.00     0.251 C 
ATOM      6  O   UNL A   1      34.073  21.596  27.694  1.00  0.00    -0.270 OA
ATOM      7  H   UNL A   1      36.219  21.978  27.110  1.00  0.00     0.163 HD
BRANCH   5   8
ATOM      8  C   UNL A   1      33.239  23.120  26.102  1.00  0.00     0.067 C 
ATOM      9  C   UNL A   1      29.219  27.526  23.495  1.00  0.00     0.046 C 
ATOM     10  C   UNL A   1      30.300  26.780  24.230  1.00  0.00    -0.028 A 
ATOM     11  C   UNL A   1      30.207  25.387  24.328  1.00  0.00     0.052 A 
ATOM     12  C   UNL A   1      31.403  27.436  24.817  1.00  0.00     0.047 A 
ATOM     13  C   UNL A   1      31.198  24.660  24.978  1.00  0.00     0.128 A 
ATOM     14  C   UNL A   1      32.408  26.708  25.498  1.00  0.00    -0.021 A 
ATOM     15  Cl  UNL A   1      31.495  29.168  24.690  1.00  0.00    -0.084 Cl
ATOM     16  C   UNL A   1      32.287  25.299  25.579  1.00  0.00     0.022 A 
ATOM     17  O   UNL A   1      31.018  23.303  25.017  1.00  0.00    -0.475 OA
ATOM     18  C   UNL A   1      33.601  27.388  26.128  1.00  0.00     0.047 C 
ATOM     19  C   UNL A   1      33.250  24.453  26.291  1.00  0.00     0.026 C 
ATOM     20  C   UNL A   1      32.232  22.512  25.169  1.00  0.00     0.314 C 
BRANCH  20  21
ATOM     21  C   UNL A   1      32.801  22.136  23.792  1.00  0.00     0.429 C 
ATOM     22  F   UNL A   1      33.392  20.921  23.783  1.00  0.00    -0.167 F 
ATOM     23  F   UNL A   1      31.802  22.097  22.872  1.00  0.00    -0.167 F 
ATOM     24  F   UNL A   1      33.718  23.024  23.344  1.00  0.00    -0.167 F 
ENDBRANCH  20  21
ENDBRANCH   5   8
ENDBRANCH   3   4
ENDBRANCH   2   3
ENDBRANCH   1   2
BRANCH   1  25
ATOM     25  C   UNL A   1      38.927  21.165  25.751  1.00  0.00     0.116 C 
BRANCH  25  26
ATOM     26  N   UNL A   1      39.806  20.004  25.802  1.00  0.00    -0.352 N 
ATOM     27  C   UNL A   1      41.143  19.979  26.121  1.00  0.00     0.251 C 
ATOM     28  H   UNL A   1      39.396  19.137  25.582  1.00  0.00     0.163 HD
ATOM     29  O   UNL A   1      41.788  18.937  26.062  1.00  0.00    -0.269 OA
BRANCH  27  30
ATOM     30  C   UNL A   1      41.793  21.251  26.488  1.00  0.00     0.039 A 
ATOM     31  C   UNL A   1      42.128  22.152  25.477  1.00  0.00     0.014 A 
ATOM     32  C   UNL A   1      41.950  21.589  27.835  1.00  0.00     0.014 A 
ATOM     33  C   UNL A   1      42.548  23.436  25.821  1.00  0.00     0.010 A 
ATOM     34  C   UNL A   1      42.304  22.889  28.174  1.00  0.00     0.010 A 
ATOM     35  C   UNL A   1      42.599  23.825  27.171  1.00  0.00    -0.014 A 
BRANCH  35  36
ATOM     36  C   UNL A   1      42.933  25.219  27.550  1.00  0.00     0.031 A 
ATOM     37  C   UNL A   1      44.338  25.723  27.393  1.00  0.00     0.074 A 
ATOM     38  C   UNL A   1      41.987  25.999  28.109  1.00  0.00     0.049 A 
ATOM     39  N   UNL A   1      44.824  26.902  27.682  1.00  0.00    -0.248 NA
ATOM     40  C   UNL A   1      45.336  24.775  26.869  1.00  0.00     0.031 C 
ATOM     41  C   UNL A   1      40.610  25.587  28.394  1.00  0.00     0.029 A 
ATOM     42  N   UNL A   1      42.039  27.299  28.547  1.00  0.00    -0.354 N 
ATOM     43  C   UNL A   1      46.181  26.829  27.400  1.00  0.00     0.074 A 
ATOM     44  C   UNL A   1      46.454  25.479  26.960  1.00  0.00     0.031 C 
ATOM     45  C   UNL A   1      39.944  26.620  28.934  1.00  0.00     0.029 A 
ATOM     46  C   UNL A   1      40.846  27.762  29.048  1.00  0.00     0.049 A 
ATOM     47  H   UNL A   1      42.856  27.847  28.506  1.00  0.00     0.167 HD
ATOM     48  C   UNL A   1      47.108  27.812  27.456  1.00  0.00     0.034 A 
ATOM     49  C   UNL A   1      40.513  28.978  29.526  1.00  0.00     0.034 A 
ATOM     50  C   UNL A   1      46.817  29.167  27.826  1.00  0.00     0.049 A 
ATOM     51  C   UNL A   1      41.548  30.069  29.524  1.00  0.00     0.074 A 
ATOM     52  C   UNL A   1      47.666  30.259  27.826  1.00  0.00     0.029 A 
ATOM     53  N   UNL A   1      45.579  29.619  28.256  1.00  0.00    -0.354 N 
ATOM     54  N   UNL A   1      42.788  30.026  29.101  1.00  0.00    -0.248 NA
ATOM     55  C   UNL A   1      41.135  31.386  30.035  1.00  0.00     0.031 C 
ATOM     56  C   UNL A   1      46.939  31.374  28.253  1.00  0.00     0.029 A 
ATOM     57  C   UNL A   1      45.638  30.975  28.520  1.00  0.00     0.049 A 
ATOM     58  H   UNL A   1      44.776  29.059  28.356  1.00  0.00     0.167 HD
ATOM     59  C   UNL A   1      43.295  31.309  29.266  1.00  0.00     0.074 A 
ATOM     60  C   UNL A   1      42.222  32.115  29.811  1.00  0.00     0.031 C 
ATOM     61  C   UNL A   1      44.542  31.773  29.006  1.00  0.00     0.034 A 
BRANCH  48  62
ATOM     62  C   UNL A   1      48.504  27.477  27.010  1.00  0.00     0.023 A 
ATOM     63  C   UNL A   1      49.402  26.921  27.944  1.00  0.00     0.012 A 
ATOM     64  C   UNL A   1      48.914  27.652  25.675  1.00  0.00     0.148 A 
ATOM     65  C   UNL A   1      50.696  26.570  27.565  1.00  0.00     0.002 A 
ATOM     66  C   UNL A   1      50.195  27.267  25.296  1.00  0.00     0.091 A 
ATOM     67  F   UNL A   1      48.055  28.207  24.808  1.00  0.00    -0.205 F 
ATOM     68  C   UNL A   1      51.088  26.733  26.240  1.00  0.00     0.022 A 
BRANCH  66  69
ATOM     69  S   UNL A   1      50.773  27.376  23.598  1.00  0.00     0.127 S 
ATOM     70  O   UNL A   1      50.903  28.823  23.424  1.00  0.00    -0.237 OA
ATOM     71  O   UNL A   1      52.045  26.653  23.655  1.00  0.00    -0.237 OA
ATOM     72  O   UNL A   1      49.749  26.735  22.786  1.00  0.00    -0.744 OA
ENDBRANCH  66  69
ENDBRANCH  48  62
BRANCH  49  73
ATOM     73  C   UNL A   1      39.102  29.254  29.922  1.00  0.00     0.023 A 
ATOM     74  C   UNL A   1      38.686  28.922  31.226  1.00  0.00     0.012 A 
ATOM     75  C   UNL A   1      38.196  29.893  29.055  1.00  0.00     0.148 A 
ATOM     76  C   UNL A   1      37.391  29.206  31.656  1.00  0.00     0.002 A 
ATOM     77  C   UNL A   1      36.919  30.218  29.506  1.00  0.00     0.091 A 
ATOM     78  F   UNL A   1      38.603  30.187  27.812  1.00  0.00    -0.205 F 
ATOM     79  C   UNL A   1      36.511  29.865  30.802  1.00  0.00     0.022 A 
BRANCH  77  80
ATOM     80  S   UNL A   1      35.769  31.180  28.515  1.00  0.00     0.127 S 
ATOM     81  O   UNL A   1      35.319  30.195  27.537  1.00  0.00    -0.237 OA
ATOM     82  O   UNL A   1      34.763  31.571  29.504  1.00  0.00    -0.237 OA
ATOM     83  O   UNL A   1      36.550  32.292  27.989  1.00  0.00    -0.744 OA
ENDBRANCH  77  80
ENDBRANCH  49  73
BRANCH  61  84
ATOM     84  C   UNL A   1      44.835  33.220  29.296  1.00  0.00     0.023 A 
ATOM     85  C   UNL A   1      45.404  33.567  30.537  1.00  0.00     0.012 A 
ATOM     86  C   UNL A   1      44.688  34.202  28.297  1.00  0.00     0.148 A 
ATOM     87  C   UNL A   1      45.819  34.874  30.782  1.00  0.00     0.002 A 
ATOM     88  C   UNL A   1      45.142  35.494  28.535  1.00  0.00     0.091 A 
ATOM     89  F   UNL A   1      44.130  33.849  27.131  1.00  0.00    -0.205 F 
ATOM     90  C   UNL A   1      45.701  35.833  29.777  1.00  0.00     0.022 A 
BRANCH  88  91
ATOM     91  S   UNL A   1      45.124  36.770  27.268  1.00  0.00     0.127 S 
ATOM     92  O   UNL A   1      46.032  36.210  26.269  1.00  0.00    -0.237 OA
ATOM     93  O   UNL A   1      43.716  36.791  26.869  1.00  0.00    -0.237 OA
ATOM     94  O   UNL A   1      45.585  37.988  27.920  1.00  0.00    -0.744 OA
ENDBRANCH  88  91
ENDBRANCH  61  84
ENDBRANCH  35  36
ENDBRANCH  27  30
ENDBRANCH  25  26
ENDBRANCH   1  25
TORSDOF 15
ENDMDL
