MODEL 1
REMARK VINA RESULT:     -11.8      0.000      0.000
REMARK SMILES C[C@H]1C[C@H]([N@@H+]2CCOC[C@@H]2C(=O)NCCCCNC(=O)c2ccc(-c3c4nc(c(-c5cccc(S(=O)(=O)[O-])c5F)c5ccc([nH]5)c(-c5cccc(S(=O)(=O)[O-])c5F)c5nc(c(-c6cccc(S(=O)(=O)[O-])c6F)c6ccc3[nH]6)C=C5)C=C4)cc2)CS1
REMARK SMILES IDX 16 1 15 2 14 3 13 4 11 5 12 6 10 8 5 9 6 10 7 12 9 13 8 14
REMARK SMILES IDX 4 15 1 16 2 17 3 18 85 19 84 20 17 21 18 22 19 23 20 25
REMARK SMILES IDX 21 26 22 27 83 28 23 29 82 30 24 31 25 32 26 33 76 34 27 35
REMARK SMILES IDX 81 36 75 37 77 38 28 39 80 40 74 41 73 42 29 44 61 45 41 46
REMARK SMILES IDX 60 47 42 48 45 49 59 50 78 51 43 52 44 53 58 55 79 56 46 57
REMARK SMILES IDX 30 58 31 59 39 60 32 61 34 62 40 63 33 64 35 65 36 66 37 67
REMARK SMILES IDX 38 68 62 69 63 70 71 71 64 72 66 73 72 74 65 75 67 76 68 77
REMARK SMILES IDX 69 78 70 79 47 80 48 81 56 82 49 83 51 84 57 85 50 86 52 87
REMARK SMILES IDX 53 88 54 89 55 90
REMARK H PARENT 13 7 5 11 18 24 77 43 45 54
REMARK Flexibility Score: inf
ROOT
ATOM      1  C   UNL A   1      32.279  29.152  25.058  1.00  0.00     0.023 C 
ENDROOT
BRANCH   1   2
ATOM      2  C   UNL A   1      33.093  28.928  23.782  1.00  0.00     0.023 C 
BRANCH   2   3
ATOM      3  C   UNL A   1      32.271  28.510  22.564  1.00  0.00     0.116 C 
BRANCH   3   4
ATOM      4  N   UNL A   1      32.920  27.491  21.757  1.00  0.00    -0.351 N 
ATOM      5  C   UNL A   1      33.024  26.143  22.004  1.00  0.00     0.280 C 
ATOM      6  O   UNL A   1      33.511  25.420  21.134  1.00  0.00    -0.268 OA
ATOM      7  H   UNL A   1      33.340  27.807  20.925  1.00  0.00     0.163 HD
BRANCH   5   8
ATOM      8  C   UNL A   1      32.456  25.589  23.308  1.00  0.00     0.300 C 
ATOM      9  N   UNL A   1      33.459  25.309  24.380  1.00  0.00    -0.318 N 
ATOM     10  C   UNL A   1      32.684  25.080  25.623  1.00  0.00     0.292 C 
ATOM     11  H   UNL A   1      34.058  26.133  24.410  1.00  0.00     0.349 HD
ATOM     12  C   UNL A   1      31.458  24.140  25.507  1.00  0.00     0.221 C 
ATOM     13  C   UNL A   1      31.437  24.464  23.131  1.00  0.00     0.235 C 
ATOM     14  O   UNL A   1      30.654  24.344  24.336  1.00  0.00    -0.369 OA
BRANCH   9  15
ATOM     15  C   UNL A   1      34.560  24.331  24.167  1.00  0.00     0.195 C 
ATOM     16  C   UNL A   1      37.141  22.095  25.013  1.00  0.00     0.019 C 
ATOM     17  C   UNL A   1      35.818  22.595  25.573  1.00  0.00     0.049 C 
ATOM     18  C   UNL A   1      35.578  24.083  25.307  1.00  0.00     0.080 C 
ATOM     19  S   UNL A   1      34.435  21.738  24.805  1.00  0.00    -0.152 SA
ATOM     20  C   UNL A   1      34.228  22.974  23.516  1.00  0.00     0.134 C 
ENDBRANCH   9  15
ENDBRANCH   5   8
ENDBRANCH   3   4
ENDBRANCH   2   3
ENDBRANCH   1   2
BRANCH   1  21
ATOM     21  C   UNL A   1      33.094  29.561  26.283  1.00  0.00     0.116 C 
BRANCH  21  22
ATOM     22  N   UNL A   1      32.941  30.968  26.619  1.00  0.00    -0.352 N 
ATOM     23  C   UNL A   1      33.708  31.764  27.432  1.00  0.00     0.251 C 
ATOM     24  H   UNL A   1      32.172  31.418  26.200  1.00  0.00     0.163 HD
ATOM     25  O   UNL A   1      33.333  32.906  27.682  1.00  0.00    -0.269 OA
BRANCH  23  26
ATOM     26  C   UNL A   1      34.962  31.248  28.026  1.00  0.00     0.039 A 
ATOM     27  C   UNL A   1      36.071  32.097  28.074  1.00  0.00     0.014 A 
ATOM     28  C   UNL A   1      35.061  29.940  28.510  1.00  0.00     0.014 A 
ATOM     29  C   UNL A   1      37.262  31.650  28.648  1.00  0.00     0.010 A 
ATOM     30  C   UNL A   1      36.228  29.520  29.146  1.00  0.00     0.010 A 
ATOM     31  C   UNL A   1      37.344  30.365  29.211  1.00  0.00    -0.014 A 
BRANCH  31  32
ATOM     32  C   UNL A   1      38.588  29.914  29.882  1.00  0.00     0.031 A 
ATOM     33  C   UNL A   1      38.953  30.418  31.250  1.00  0.00     0.074 A 
ATOM     34  C   UNL A   1      39.420  29.080  29.228  1.00  0.00     0.049 A 
ATOM     35  N   UNL A   1      39.960  30.074  32.012  1.00  0.00    -0.248 NA
ATOM     36  C   UNL A   1      38.093  31.462  31.831  1.00  0.00     0.031 C 
ATOM     37  C   UNL A   1      39.229  28.601  27.859  1.00  0.00     0.029 A 
ATOM     38  N   UNL A   1      40.595  28.493  29.625  1.00  0.00    -0.354 N 
ATOM     39  C   UNL A   1      39.871  30.871  33.146  1.00  0.00     0.074 A 
ATOM     40  C   UNL A   1      38.737  31.749  32.953  1.00  0.00     0.031 C 
ATOM     41  C   UNL A   1      40.232  27.768  27.540  1.00  0.00     0.029 A 
ATOM     42  C   UNL A   1      41.143  27.664  28.676  1.00  0.00     0.049 A 
ATOM     43  H   UNL A   1      41.007  28.651  30.506  1.00  0.00     0.167 HD
ATOM     44  C   UNL A   1      40.638  30.850  34.263  1.00  0.00     0.034 A 
ATOM     45  C   UNL A   1      42.241  26.885  28.725  1.00  0.00     0.034 A 
ATOM     46  C   UNL A   1      41.740  29.947  34.464  1.00  0.00     0.049 A 
ATOM     47  C   UNL A   1      43.036  26.824  30.000  1.00  0.00     0.074 A 
ATOM     48  C   UNL A   1      42.524  29.781  35.591  1.00  0.00     0.029 A 
ATOM     49  N   UNL A   1      42.216  29.060  33.511  1.00  0.00    -0.354 N 
ATOM     50  N   UNL A   1      42.828  27.450  31.132  1.00  0.00    -0.248 NA
ATOM     51  C   UNL A   1      44.188  25.911  30.019  1.00  0.00     0.031 C 
ATOM     52  C   UNL A   1      43.484  28.800  35.314  1.00  0.00     0.029 A 
ATOM     53  C   UNL A   1      43.287  28.345  34.021  1.00  0.00     0.049 A 
ATOM     54  H   UNL A   1      41.848  28.953  32.604  1.00  0.00     0.167 HD
ATOM     55  C   UNL A   1      43.797  26.982  32.012  1.00  0.00     0.074 A 
ATOM     56  C   UNL A   1      44.580  26.004  31.283  1.00  0.00     0.031 C 
ATOM     57  C   UNL A   1      44.026  27.338  33.300  1.00  0.00     0.034 A 
BRANCH  44  58
ATOM     58  C   UNL A   1      40.263  31.795  35.376  1.00  0.00     0.023 A 
ATOM     59  C   UNL A   1      41.012  32.978  35.560  1.00  0.00     0.012 A 
ATOM     60  C   UNL A   1      39.167  31.538  36.221  1.00  0.00     0.148 A 
ATOM     61  C   UNL A   1      40.704  33.864  36.590  1.00  0.00     0.002 A 
ATOM     62  C   UNL A   1      38.839  32.449  37.220  1.00  0.00     0.091 A 
ATOM     63  F   UNL A   1      38.480  30.399  36.054  1.00  0.00    -0.205 F 
ATOM     64  C   UNL A   1      39.613  33.604  37.414  1.00  0.00     0.022 A 
BRANCH  62  65
ATOM     65  S   UNL A   1      37.403  32.233  38.278  1.00  0.00     0.127 S 
ATOM     66  O   UNL A   1      37.891  32.760  39.552  1.00  0.00    -0.237 OA
ATOM     67  O   UNL A   1      36.398  33.069  37.619  1.00  0.00    -0.237 OA
ATOM     68  O   UNL A   1      37.108  30.807  38.253  1.00  0.00    -0.744 OA
ENDBRANCH  62  65
ENDBRANCH  44  58
BRANCH  45  69
ATOM     69  C   UNL A   1      42.566  26.004  27.568  1.00  0.00     0.023 A 
ATOM     70  C   UNL A   1      43.464  26.468  26.587  1.00  0.00     0.012 A 
ATOM     71  C   UNL A   1      42.050  24.699  27.465  1.00  0.00     0.148 A 
ATOM     72  C   UNL A   1      43.826  25.656  25.513  1.00  0.00     0.002 A 
ATOM     73  C   UNL A   1      42.455  23.877  26.420  1.00  0.00     0.091 A 
ATOM     74  F   UNL A   1      41.192  24.279  28.406  1.00  0.00    -0.205 F 
ATOM     75  C   UNL A   1      43.332  24.358  25.435  1.00  0.00     0.022 A 
BRANCH  73  76
ATOM     76  S   UNL A   1      41.977  22.148  26.307  1.00  0.00     0.127 S 
ATOM     77  O   UNL A   1      42.700  21.716  25.113  1.00  0.00    -0.237 OA
ATOM     78  O   UNL A   1      42.491  21.610  27.567  1.00  0.00    -0.237 OA
ATOM     79  O   UNL A   1      40.525  22.147  26.200  1.00  0.00    -0.744 OA
ENDBRANCH  73  76
ENDBRANCH  45  69
BRANCH  57  80
ATOM     80  C   UNL A   1      45.154  26.647  34.022  1.00  0.00     0.023 A 
ATOM     81  C   UNL A   1      46.463  27.159  33.924  1.00  0.00     0.012 A 
ATOM     82  C   UNL A   1      44.909  25.530  34.842  1.00  0.00     0.148 A 
ATOM     83  C   UNL A   1      47.516  26.548  34.602  1.00  0.00     0.002 A 
ATOM     84  C   UNL A   1      45.956  24.953  35.553  1.00  0.00     0.091 A 
ATOM     85  F   UNL A   1      43.662  25.041  34.906  1.00  0.00    -0.205 F 
ATOM     86  C   UNL A   1      47.262  25.453  35.425  1.00  0.00     0.022 A 
BRANCH  84  87
ATOM     87  S   UNL A   1      45.693  23.600  36.706  1.00  0.00     0.127 S 
ATOM     88  O   UNL A   1      44.831  24.224  37.708  1.00  0.00    -0.237 OA
ATOM     89  O   UNL A   1      45.029  22.598  35.871  1.00  0.00    -0.237 OA
ATOM     90  O   UNL A   1      47.020  23.212  37.165  1.00  0.00    -0.744 OA
ENDBRANCH  84  87
ENDBRANCH  57  80
ENDBRANCH  31  32
ENDBRANCH  23  26
ENDBRANCH  21  22
ENDBRANCH   1  21
TORSDOF 15
ENDMDL
MODEL 2
REMARK VINA RESULT:     -11.7      5.177      9.936
REMARK SMILES C[C@H]1C[C@H]([N@@H+]2CCOC[C@@H]2C(=O)NCCCCNC(=O)c2ccc(-c3c4nc(c(-c5cccc(S(=O)(=O)[O-])c5F)c5ccc([nH]5)c(-c5cccc(S(=O)(=O)[O-])c5F)c5nc(c(-c6cccc(S(=O)(=O)[O-])c6F)c6ccc3[nH]6)C=C5)C=C4)cc2)CS1
REMARK SMILES IDX 16 1 15 2 14 3 13 4 11 5 12 6 10 8 5 9 6 10 7 12 9 13 8 14
REMARK SMILES IDX 4 15 1 16 2 17 3 18 85 19 84 20 17 21 18 22 19 23 20 25
REMARK SMILES IDX 21 26 22 27 83 28 23 29 82 30 24 31 25 32 26 33 76 34 27 35
REMARK SMILES IDX 81 36 75 37 77 38 28 39 80 40 74 41 73 42 29 44 61 45 41 46
REMARK SMILES IDX 60 47 42 48 45 49 59 50 78 51 43 52 44 53 58 55 79 56 46 57
REMARK SMILES IDX 30 58 31 59 39 60 32 61 34 62 40 63 33 64 35 65 36 66 37 67
REMARK SMILES IDX 38 68 62 69 63 70 71 71 64 72 66 73 72 74 65 75 67 76 68 77
REMARK SMILES IDX 69 78 70 79 47 80 48 81 56 82 49 83 51 84 57 85 50 86 52 87
REMARK SMILES IDX 53 88 54 89 55 90
REMARK H PARENT 13 7 5 11 18 24 77 43 45 54
REMARK Flexibility Score: inf
ROOT
ATOM      1  C   UNL A   1      35.549  23.873  24.774  1.00  0.00     0.023 C 
ENDROOT
BRANCH   1   2
ATOM      2  C   UNL A   1      34.663  22.698  24.352  1.00  0.00     0.023 C 
BRANCH   2   3
ATOM      3  C   UNL A   1      33.163  22.975  24.412  1.00  0.00     0.116 C 
BRANCH   3   4
ATOM      4  N   UNL A   1      32.664  23.143  25.767  1.00  0.00    -0.351 N 
ATOM      5  C   UNL A   1      31.831  24.120  26.256  1.00  0.00     0.280 C 
ATOM      6  O   UNL A   1      31.423  24.021  27.414  1.00  0.00    -0.268 OA
ATOM      7  H   UNL A   1      32.964  22.469  26.419  1.00  0.00     0.163 HD
BRANCH   5   8
ATOM      8  C   UNL A   1      31.381  25.238  25.320  1.00  0.00     0.300 C 
ATOM      9  N   UNL A   1      32.403  26.290  25.033  1.00  0.00    -0.318 N 
ATOM     10  C   UNL A   1      31.876  27.082  23.897  1.00  0.00     0.292 C 
ATOM     11  H   UNL A   1      33.261  25.780  24.822  1.00  0.00     0.349 HD
ATOM     12  C   UNL A   1      30.391  27.514  23.989  1.00  0.00     0.221 C 
ATOM     13  C   UNL A   1      30.000  25.814  25.634  1.00  0.00     0.235 C 
ATOM     14  O   UNL A   1      29.498  26.497  24.467  1.00  0.00    -0.369 OA
BRANCH   9  15
ATOM     15  C   UNL A   1      32.985  27.115  26.126  1.00  0.00     0.195 C 
ATOM     16  C   UNL A   1      34.643  29.830  27.630  1.00  0.00     0.019 C 
ATOM     17  C   UNL A   1      33.752  29.543  26.430  1.00  0.00     0.049 C 
ATOM     18  C   UNL A   1      34.043  28.190  25.776  1.00  0.00     0.080 C 
ATOM     19  S   UNL A   1      32.023  29.479  26.922  1.00  0.00    -0.152 SA
ATOM     20  C   UNL A   1      32.040  27.702  27.193  1.00  0.00     0.134 C 
ENDBRANCH   9  15
ENDBRANCH   5   8
ENDBRANCH   3   4
ENDBRANCH   2   3
ENDBRANCH   1   2
BRANCH   1  21
ATOM     21  C   UNL A   1      36.283  23.688  26.100  1.00  0.00     0.116 C 
BRANCH  21  22
ATOM     22  N   UNL A   1      37.352  22.704  26.021  1.00  0.00    -0.352 N 
ATOM     23  C   UNL A   1      38.691  22.841  26.285  1.00  0.00     0.251 C 
ATOM     24  H   UNL A   1      37.072  21.804  25.736  1.00  0.00     0.163 HD
ATOM     25  O   UNL A   1      39.451  21.909  26.036  1.00  0.00    -0.269 OA
BRANCH  23  26
ATOM     26  C   UNL A   1      39.225  24.106  26.839  1.00  0.00     0.039 A 
ATOM     27  C   UNL A   1      39.874  24.988  25.970  1.00  0.00     0.014 A 
ATOM     28  C   UNL A   1      39.113  24.418  28.196  1.00  0.00     0.014 A 
ATOM     29  C   UNL A   1      40.370  26.200  26.455  1.00  0.00     0.010 A 
ATOM     30  C   UNL A   1      39.544  25.658  28.664  1.00  0.00     0.010 A 
ATOM     31  C   UNL A   1      40.187  26.556  27.802  1.00  0.00    -0.014 A 
BRANCH  31  32
ATOM     32  C   UNL A   1      40.653  27.873  28.301  1.00  0.00     0.031 A 
ATOM     33  C   UNL A   1      42.112  28.232  28.286  1.00  0.00     0.074 A 
ATOM     34  C   UNL A   1      39.754  28.733  28.819  1.00  0.00     0.049 A 
ATOM     35  N   UNL A   1      42.685  29.362  28.614  1.00  0.00    -0.248 NA
ATOM     36  C   UNL A   1      43.057  27.181  27.876  1.00  0.00     0.031 C 
ATOM     37  C   UNL A   1      38.325  28.462  28.982  1.00  0.00     0.029 A 
ATOM     38  N   UNL A   1      39.909  30.006  29.307  1.00  0.00    -0.354 N 
ATOM     39  C   UNL A   1      44.051  29.153  28.474  1.00  0.00     0.074 A 
ATOM     40  C   UNL A   1      44.225  27.773  28.075  1.00  0.00     0.031 C 
ATOM     41  C   UNL A   1      37.729  29.546  29.502  1.00  0.00     0.029 A 
ATOM     42  C   UNL A   1      38.732  30.584  29.720  1.00  0.00     0.049 A 
ATOM     43  H   UNL A   1      40.781  30.462  29.358  1.00  0.00     0.167 HD
ATOM     44  C   UNL A   1      45.067  30.036  28.626  1.00  0.00     0.034 A 
ATOM     45  C   UNL A   1      38.485  31.820  30.195  1.00  0.00     0.034 A 
ATOM     46  C   UNL A   1      44.883  31.418  28.984  1.00  0.00     0.049 A 
ATOM     47  C   UNL A   1      39.617  32.806  30.287  1.00  0.00     0.074 A 
ATOM     48  C   UNL A   1      45.834  32.419  29.076  1.00  0.00     0.029 A 
ATOM     49  N   UNL A   1      43.665  31.992  29.315  1.00  0.00    -0.354 N 
ATOM     50  N   UNL A   1      40.878  32.645  29.973  1.00  0.00    -0.248 NA
ATOM     51  C   UNL A   1      39.280  34.159  30.752  1.00  0.00     0.031 C 
ATOM     52  C   UNL A   1      45.190  33.597  29.476  1.00  0.00     0.029 A 
ATOM     53  C   UNL A   1      43.837  33.333  29.616  1.00  0.00     0.049 A 
ATOM     54  H   UNL A   1      42.803  31.516  29.333  1.00  0.00     0.167 HD
ATOM     55  C   UNL A   1      41.482  33.882  30.165  1.00  0.00     0.074 A 
ATOM     56  C   UNL A   1      40.439  34.787  30.605  1.00  0.00     0.031 C 
ATOM     57  C   UNL A   1      42.781  34.234  30.004  1.00  0.00     0.034 A 
BRANCH  44  58
ATOM     58  C   UNL A   1      46.462  29.542  28.339  1.00  0.00     0.023 A 
ATOM     59  C   UNL A   1      46.976  29.647  27.029  1.00  0.00     0.012 A 
ATOM     60  C   UNL A   1      47.274  29.003  29.355  1.00  0.00     0.148 A 
ATOM     61  C   UNL A   1      48.255  29.184  26.726  1.00  0.00     0.002 A 
ATOM     62  C   UNL A   1      48.566  28.583  29.054  1.00  0.00     0.091 A 
ATOM     63  F   UNL A   1      46.765  28.885  30.590  1.00  0.00    -0.205 F 
ATOM     64  C   UNL A   1      49.053  28.660  27.739  1.00  0.00     0.022 A 
BRANCH  62  65
ATOM     65  S   UNL A   1      49.690  27.968  30.313  1.00  0.00     0.127 S 
ATOM     66  O   UNL A   1      50.906  27.732  29.536  1.00  0.00    -0.237 OA
ATOM     67  O   UNL A   1      49.771  29.097  31.241  1.00  0.00    -0.237 OA
ATOM     68  O   UNL A   1      49.050  26.782  30.865  1.00  0.00    -0.744 OA
ENDBRANCH  62  65
ENDBRANCH  44  58
BRANCH  45  69
ATOM     69  C   UNL A   1      37.081  32.224  30.490  1.00  0.00     0.023 A 
ATOM     70  C   UNL A   1      36.593  32.083  31.803  1.00  0.00     0.012 A 
ATOM     71  C   UNL A   1      36.256  32.800  29.506  1.00  0.00     0.148 A 
ATOM     72  C   UNL A   1      35.299  32.491  32.128  1.00  0.00     0.002 A 
ATOM     73  C   UNL A   1      34.987  33.251  29.849  1.00  0.00     0.091 A 
ATOM     74  F   UNL A   1      36.739  32.917  28.261  1.00  0.00    -0.205 F 
ATOM     75  C   UNL A   1      34.500  33.085  31.155  1.00  0.00     0.022 A 
BRANCH  73  76
ATOM     76  S   UNL A   1      33.935  34.146  28.699  1.00  0.00     0.127 S 
ATOM     77  O   UNL A   1      32.850  34.591  29.571  1.00  0.00    -0.237 OA
ATOM     78  O   UNL A   1      34.829  35.208  28.237  1.00  0.00    -0.237 OA
ATOM     79  O   UNL A   1      33.564  33.183  27.672  1.00  0.00    -0.744 OA
ENDBRANCH  73  76
ENDBRANCH  45  69
BRANCH  57  80
ATOM     80  C   UNL A   1      43.151  35.669  30.279  1.00  0.00     0.023 A 
ATOM     81  C   UNL A   1      43.696  36.023  31.529  1.00  0.00     0.012 A 
ATOM     82  C   UNL A   1      43.017  36.652  29.280  1.00  0.00     0.148 A 
ATOM     83  C   UNL A   1      44.066  37.340  31.794  1.00  0.00     0.002 A 
ATOM     84  C   UNL A   1      43.431  37.955  29.536  1.00  0.00     0.091 A 
ATOM     85  F   UNL A   1      42.476  36.304  28.104  1.00  0.00    -0.205 F 
ATOM     86  C   UNL A   1      43.945  38.304  30.795  1.00  0.00     0.022 A 
BRANCH  84  87
ATOM     87  S   UNL A   1      43.395  39.231  28.270  1.00  0.00     0.127 S 
ATOM     88  O   UNL A   1      43.901  38.509  27.104  1.00  0.00    -0.237 OA
ATOM     89  O   UNL A   1      41.973  39.571  28.205  1.00  0.00    -0.237 OA
ATOM     90  O   UNL A   1      44.245  40.303  28.769  1.00  0.00    -0.744 OA
ENDBRANCH  84  87
ENDBRANCH  57  80
ENDBRANCH  31  32
ENDBRANCH  23  26
ENDBRANCH  21  22
ENDBRANCH   1  21
TORSDOF 15
ENDMDL
MODEL 3
REMARK VINA RESULT:     -11.7      5.170     10.337
REMARK SMILES C[C@H]1C[C@H]([N@@H+]2CCOC[C@@H]2C(=O)NCCCCNC(=O)c2ccc(-c3c4nc(c(-c5cccc(S(=O)(=O)[O-])c5F)c5ccc([nH]5)c(-c5cccc(S(=O)(=O)[O-])c5F)c5nc(c(-c6cccc(S(=O)(=O)[O-])c6F)c6ccc3[nH]6)C=C5)C=C4)cc2)CS1
REMARK SMILES IDX 16 1 15 2 14 3 13 4 11 5 12 6 10 8 5 9 6 10 7 12 9 13 8 14
REMARK SMILES IDX 4 15 1 16 2 17 3 18 85 19 84 20 17 21 18 22 19 23 20 25
REMARK SMILES IDX 21 26 22 27 83 28 23 29 82 30 24 31 25 32 26 33 76 34 27 35
REMARK SMILES IDX 81 36 75 37 77 38 28 39 80 40 74 41 73 42 29 44 61 45 41 46
REMARK SMILES IDX 60 47 42 48 45 49 59 50 78 51 43 52 44 53 58 55 79 56 46 57
REMARK SMILES IDX 30 58 31 59 39 60 32 61 34 62 40 63 33 64 35 65 36 66 37 67
REMARK SMILES IDX 38 68 62 69 63 70 71 71 64 72 66 73 72 74 65 75 67 76 68 77
REMARK SMILES IDX 69 78 70 79 47 80 48 81 56 82 49 83 51 84 57 85 50 86 52 87
REMARK SMILES IDX 53 88 54 89 55 90
REMARK H PARENT 13 7 5 11 18 24 77 43 45 54
REMARK Flexibility Score: inf
ROOT
ATOM      1  C   UNL A   1      35.658  21.852  25.170  1.00  0.00     0.023 C 
ENDROOT
BRANCH   1   2
ATOM      2  C   UNL A   1      34.939  21.666  26.508  1.00  0.00     0.023 C 
BRANCH   2   3
ATOM      3  C   UNL A   1      33.520  21.112  26.400  1.00  0.00     0.116 C 
BRANCH   3   4
ATOM      4  N   UNL A   1      32.540  21.904  27.124  1.00  0.00    -0.351 N 
ATOM      5  C   UNL A   1      31.918  23.064  26.728  1.00  0.00     0.280 C 
ATOM      6  O   UNL A   1      31.022  23.524  27.436  1.00  0.00    -0.268 OA
ATOM      7  H   UNL A   1      32.289  21.565  28.013  1.00  0.00     0.163 HD
BRANCH   5   8
ATOM      8  C   UNL A   1      32.309  23.687  25.391  1.00  0.00     0.300 C 
ATOM      9  N   UNL A   1      33.123  24.937  25.474  1.00  0.00    -0.318 N 
ATOM     10  C   UNL A   1      33.635  25.190  24.106  1.00  0.00     0.292 C 
ATOM     11  H   UNL A   1      33.851  24.737  26.160  1.00  0.00     0.349 HD
ATOM     12  C   UNL A   1      32.609  25.064  22.952  1.00  0.00     0.221 C 
ATOM     13  C   UNL A   1      31.168  23.781  24.376  1.00  0.00     0.235 C 
ATOM     14  O   UNL A   1      31.725  23.938  23.055  1.00  0.00    -0.369 OA
BRANCH   9  15
ATOM     15  C   UNL A   1      32.602  26.151  26.158  1.00  0.00     0.195 C 
ATOM     16  C   UNL A   1      32.373  29.550  27.037  1.00  0.00     0.019 C 
ATOM     17  C   UNL A   1      32.773  28.690  25.847  1.00  0.00     0.049 C 
ATOM     18  C   UNL A   1      33.502  27.407  26.251  1.00  0.00     0.080 C 
ATOM     19  S   UNL A   1      31.320  28.152  24.933  1.00  0.00    -0.152 SA
ATOM     20  C   UNL A   1      31.164  26.613  25.849  1.00  0.00     0.134 C 
ENDBRANCH   9  15
ENDBRANCH   5   8
ENDBRANCH   3   4
ENDBRANCH   2   3
ENDBRANCH   1   2
BRANCH   1  21
ATOM     21  C   UNL A   1      37.086  22.383  25.269  1.00  0.00     0.116 C 
BRANCH  21  22
ATOM     22  N   UNL A   1      38.049  21.351  25.624  1.00  0.00    -0.352 N 
ATOM     23  C   UNL A   1      39.287  21.469  26.200  1.00  0.00     0.251 C 
ATOM     24  H   UNL A   1      37.769  20.430  25.420  1.00  0.00     0.163 HD
ATOM     25  O   UNL A   1      39.999  20.474  26.305  1.00  0.00    -0.269 OA
BRANCH  23  26
ATOM     26  C   UNL A   1      39.778  22.785  26.669  1.00  0.00     0.039 A 
ATOM     27  C   UNL A   1      40.691  22.813  27.727  1.00  0.00     0.014 A 
ATOM     28  C   UNL A   1      39.334  23.980  26.098  1.00  0.00     0.014 A 
ATOM     29  C   UNL A   1      41.191  24.036  28.180  1.00  0.00     0.010 A 
ATOM     30  C   UNL A   1      39.888  25.194  26.502  1.00  0.00     0.010 A 
ATOM     31  C   UNL A   1      40.812  25.236  27.554  1.00  0.00    -0.014 A 
BRANCH  31  32
ATOM     32  C   UNL A   1      41.395  26.528  27.990  1.00  0.00     0.031 A 
ATOM     33  C   UNL A   1      42.828  26.870  27.687  1.00  0.00     0.074 A 
ATOM     34  C   UNL A   1      40.638  27.381  28.708  1.00  0.00     0.049 A 
ATOM     35  N   UNL A   1      43.477  27.980  27.926  1.00  0.00    -0.248 NA
ATOM     36  C   UNL A   1      43.647  25.821  27.058  1.00  0.00     0.031 C 
ATOM     37  C   UNL A   1      39.268  27.122  29.152  1.00  0.00     0.029 A 
ATOM     38  N   UNL A   1      40.915  28.633  29.194  1.00  0.00    -0.354 N 
ATOM     39  C   UNL A   1      44.781  27.759  27.502  1.00  0.00     0.074 A 
ATOM     40  C   UNL A   1      44.843  26.392  27.033  1.00  0.00     0.031 C 
ATOM     41  C   UNL A   1      38.812  28.194  29.818  1.00  0.00     0.029 A 
ATOM     42  C   UNL A   1      39.859  29.211  29.858  1.00  0.00     0.049 A 
ATOM     43  H   UNL A   1      41.787  29.076  29.080  1.00  0.00     0.167 HD
ATOM     44  C   UNL A   1      45.823  28.624  27.471  1.00  0.00     0.034 A 
ATOM     45  C   UNL A   1      39.738  30.433  30.413  1.00  0.00     0.034 A 
ATOM     46  C   UNL A   1      45.744  29.994  27.903  1.00  0.00     0.049 A 
ATOM     47  C   UNL A   1      40.883  31.400  30.302  1.00  0.00     0.074 A 
ATOM     48  C   UNL A   1      46.712  30.979  27.831  1.00  0.00     0.029 A 
ATOM     49  N   UNL A   1      44.630  30.571  28.495  1.00  0.00    -0.354 N 
ATOM     50  N   UNL A   1      42.050  31.235  29.731  1.00  0.00    -0.248 NA
ATOM     51  C   UNL A   1      40.675  32.740  30.870  1.00  0.00     0.031 C 
ATOM     52  C   UNL A   1      46.187  32.150  28.392  1.00  0.00     0.029 A 
ATOM     53  C   UNL A   1      44.887  31.898  28.798  1.00  0.00     0.049 A 
ATOM     54  H   UNL A   1      43.782  30.106  28.675  1.00  0.00     0.167 HD
ATOM     55  C   UNL A   1      42.704  32.457  29.835  1.00  0.00     0.074 A 
ATOM     56  C   UNL A   1      41.791  33.359  30.509  1.00  0.00     0.031 C 
ATOM     57  C   UNL A   1      43.950  32.798  29.423  1.00  0.00     0.034 A 
BRANCH  44  58
ATOM     58  C   UNL A   1      47.121  28.123  26.889  1.00  0.00     0.023 A 
ATOM     59  C   UNL A   1      48.172  27.757  27.757  1.00  0.00     0.012 A 
ATOM     60  C   UNL A   1      47.298  27.985  25.499  1.00  0.00     0.148 A 
ATOM     61  C   UNL A   1      49.390  27.307  27.251  1.00  0.00     0.002 A 
ATOM     62  C   UNL A   1      48.502  27.494  25.004  1.00  0.00     0.091 A 
ATOM     63  F   UNL A   1      46.302  28.360  24.684  1.00  0.00    -0.205 F 
ATOM     64  C   UNL A   1      49.552  27.167  25.877  1.00  0.00     0.022 A 
BRANCH  62  65
ATOM     65  S   UNL A   1      48.770  27.208  23.250  1.00  0.00     0.127 S 
ATOM     66  O   UNL A   1      50.230  27.189  23.172  1.00  0.00    -0.237 OA
ATOM     67  O   UNL A   1      48.133  25.906  23.043  1.00  0.00    -0.237 OA
ATOM     68  O   UNL A   1      48.112  28.312  22.567  1.00  0.00    -0.744 OA
ENDBRANCH  62  65
ENDBRANCH  44  58
BRANCH  45  69
ATOM     69  C   UNL A   1      38.432  30.843  31.002  1.00  0.00     0.023 A 
ATOM     70  C   UNL A   1      38.216  30.653  32.381  1.00  0.00     0.012 A 
ATOM     71  C   UNL A   1      37.438  31.473  30.230  1.00  0.00     0.148 A 
ATOM     72  C   UNL A   1      37.024  31.064  32.977  1.00  0.00     0.002 A 
ATOM     73  C   UNL A   1      36.275  31.927  30.840  1.00  0.00     0.091 A 
ATOM     74  F   UNL A   1      37.662  31.638  28.919  1.00  0.00    -0.205 F 
ATOM     75  C   UNL A   1      36.059  31.711  32.210  1.00  0.00     0.022 A 
BRANCH  73  76
ATOM     76  S   UNL A   1      35.033  32.886  29.964  1.00  0.00     0.127 S 
ATOM     77  O   UNL A   1      34.117  33.245  31.044  1.00  0.00    -0.237 OA
ATOM     78  O   UNL A   1      35.827  33.995  29.436  1.00  0.00    -0.237 OA
ATOM     79  O   UNL A   1      34.492  31.996  28.948  1.00  0.00    -0.744 OA
ENDBRANCH  73  76
ENDBRANCH  45  69
BRANCH  57  80
ATOM     80  C   UNL A   1      44.396  34.218  29.661  1.00  0.00     0.023 A 
ATOM     81  C   UNL A   1      45.002  34.563  30.885  1.00  0.00     0.012 A 
ATOM     82  C   UNL A   1      44.271  35.193  28.653  1.00  0.00     0.148 A 
ATOM     83  C   UNL A   1      45.442  35.865  31.116  1.00  0.00     0.002 A 
ATOM     84  C   UNL A   1      44.754  36.478  28.873  1.00  0.00     0.091 A 
ATOM     85  F   UNL A   1      43.671  34.853  27.503  1.00  0.00    -0.205 F 
ATOM     86  C   UNL A   1      45.330  36.820  30.107  1.00  0.00     0.022 A 
BRANCH  84  87
ATOM     87  S   UNL A   1      44.730  37.736  27.590  1.00  0.00     0.127 S 
ATOM     88  O   UNL A   1      45.704  37.210  26.636  1.00  0.00    -0.237 OA
ATOM     89  O   UNL A   1      43.342  37.692  27.129  1.00  0.00    -0.237 OA
ATOM     90  O   UNL A   1      45.101  38.979  28.252  1.00  0.00    -0.744 OA
ENDBRANCH  84  87
ENDBRANCH  57  80
ENDBRANCH  31  32
ENDBRANCH  23  26
ENDBRANCH  21  22
ENDBRANCH   1  21
TORSDOF 15
ENDMDL
