MODEL 1
REMARK VINA RESULT:     -13.5      0.000      0.000
REMARK SMILES Cc1ccc(-c2cnnc(-n3nc(C)c4c3NC(=O)C[C@@H]4c3ccc(C(=O)NCCCCNC(=O)c4ccc(-c5c6nc(c(-c7cccc(S(=O)(=O)[O-])c7F)c7ccc([nH]7)c(-c7cccc(S(=O)(=O)[O-])c7F)c7nc(c(-c8cccc(S(=O)(=O)[O-])c8F)c8ccc5[nH]8)C=C7)C=C6)cc4)cc3)n2)cc1
REMARK SMILES IDX 30 1 29 2 28 3 26 4 27 5 25 7 22 8 23 9 100 10 24 11 99 12
REMARK SMILES IDX 21 13 11 14 12 15 16 16 13 17 15 18 17 19 14 20 18 21 20 23
REMARK SMILES IDX 19 24 10 25 6 26 7 27 101 28 8 29 9 30 5 31 1 32 2 33 3 34
REMARK SMILES IDX 103 35 4 36 102 37 31 38 32 39 33 40 34 41 35 43 36 44 37 45
REMARK SMILES IDX 98 46 38 47 97 48 39 49 40 50 41 51 91 52 42 53 96 54 90 55
REMARK SMILES IDX 92 56 43 57 95 58 89 59 88 60 44 62 76 63 56 64 75 65 57 66
REMARK SMILES IDX 60 67 74 68 93 69 58 70 59 71 73 73 94 74 61 75 45 76 46 77
REMARK SMILES IDX 54 78 47 79 49 80 55 81 48 82 50 83 51 84 52 85 53 86 77 87
REMARK SMILES IDX 78 88 86 89 79 90 81 91 87 92 80 93 82 94 83 95 84 96 85 97
REMARK SMILES IDX 62 98 63 99 71 100 64 101 66 102 72 103 65 104 67 105 68 106
REMARK SMILES IDX 69 107 70 108
REMARK H PARENT 28 6 17 22 33 42 92 61 60 72
REMARK Flexibility Score: inf
ROOT
ATOM      1  C   UNL A   1      32.226  31.385  26.120  1.00  0.00     0.023 C 
ENDROOT
BRANCH   1   2
ATOM      2  C   UNL A   1      30.696  31.210  26.144  1.00  0.00     0.116 C 
BRANCH   2   3
ATOM      3  N   UNL A   1      30.026  31.742  24.962  1.00  0.00    -0.352 N 
ATOM      4  C   UNL A   1      29.643  31.161  23.774  1.00  0.00     0.251 C 
ATOM      5  O   UNL A   1      28.936  31.794  22.991  1.00  0.00    -0.269 OA
ATOM      6  H   UNL A   1      29.805  32.699  25.027  1.00  0.00     0.163 HD
BRANCH   4   7
ATOM      7  C   UNL A   1      30.019  29.772  23.423  1.00  0.00     0.039 A 
ATOM      8  C   UNL A   1      30.812  27.093  23.104  1.00  0.00    -0.040 A 
ATOM      9  C   UNL A   1      29.481  27.413  23.427  1.00  0.00     0.005 A 
ATOM     10  C   UNL A   1      31.663  28.139  22.740  1.00  0.00     0.005 A 
ATOM     11  C   UNL A   1      29.085  28.746  23.580  1.00  0.00     0.014 A 
ATOM     12  C   UNL A   1      31.271  29.459  22.910  1.00  0.00     0.014 A 
BRANCH   8  13
ATOM     13  C   UNL A   1      31.261  25.652  23.207  1.00  0.00     0.064 C 
ATOM     14  N   UNL A   1      34.490  24.886  24.655  1.00  0.00    -0.180 N 
ATOM     15  N   UNL A   1      34.080  25.672  25.685  1.00  0.00    -0.168 NA
ATOM     16  C   UNL A   1      33.726  25.190  23.541  1.00  0.00     0.143 A 
ATOM     17  C   UNL A   1      32.814  25.978  25.380  1.00  0.00     0.066 A 
ATOM     18  C   UNL A   1      32.495  25.562  24.053  1.00  0.00     0.026 A 
ATOM     19  N   UNL A   1      33.964  25.247  22.177  1.00  0.00    -0.310 N 
ATOM     20  C   UNL A   1      32.053  26.799  26.357  1.00  0.00     0.069 C 
ATOM     21  C   UNL A   1      32.840  25.454  21.311  1.00  0.00     0.226 C 
ATOM     22  H   UNL A   1      34.874  25.147  21.815  1.00  0.00     0.171 HD
ATOM     23  C   UNL A   1      31.503  25.014  21.839  1.00  0.00     0.113 C 
ATOM     24  O   UNL A   1      33.066  25.865  20.176  1.00  0.00    -0.275 OA
BRANCH  14  25
ATOM     25  C   UNL A   1      35.194  23.670  24.919  1.00  0.00     0.272 A 
ATOM     26  C   UNL A   1      35.338  21.427  25.313  1.00  0.00     0.095 A 
ATOM     27  C   UNL A   1      36.625  21.605  25.795  1.00  0.00     0.164 A 
ATOM     28  N   UNL A   1      34.561  22.475  24.913  1.00  0.00    -0.208 NA
ATOM     29  N   UNL A   1      37.191  22.814  25.819  1.00  0.00    -0.153 NA
ATOM     30  N   UNL A   1      36.478  23.849  25.331  1.00  0.00    -0.109 NA
BRANCH  26  31
ATOM     31  C   UNL A   1      34.814  20.073  25.103  1.00  0.00     0.002 A 
ATOM     32  C   UNL A   1      33.174  16.147  24.290  1.00  0.00     0.044 C 
ATOM     33  C   UNL A   1      33.733  17.515  24.545  1.00  0.00    -0.051 A 
ATOM     34  C   UNL A   1      35.111  17.738  24.455  1.00  0.00     0.004 A 
ATOM     35  C   UNL A   1      32.896  18.578  24.894  1.00  0.00     0.004 A 
ATOM     36  C   UNL A   1      35.644  19.002  24.729  1.00  0.00     0.011 A 
ATOM     37  C   UNL A   1      33.431  19.838  25.173  1.00  0.00     0.011 A 
ENDBRANCH  26  31
ENDBRANCH  14  25
ENDBRANCH   8  13
ENDBRANCH   4   7
ENDBRANCH   2   3
ENDBRANCH   1   2
BRANCH   1  38
ATOM     38  C   UNL A   1      33.078  30.108  26.161  1.00  0.00     0.023 C 
BRANCH  38  39
ATOM     39  C   UNL A   1      34.024  30.016  27.338  1.00  0.00     0.116 C 
BRANCH  39  40
ATOM     40  N   UNL A   1      35.035  31.068  27.287  1.00  0.00    -0.352 N 
ATOM     41  C   UNL A   1      36.173  31.202  28.060  1.00  0.00     0.251 C 
ATOM     42  H   UNL A   1      34.887  31.773  26.617  1.00  0.00     0.163 HD
ATOM     43  O   UNL A   1      36.473  32.322  28.455  1.00  0.00    -0.269 OA
BRANCH  41  44
ATOM     44  C   UNL A   1      37.041  30.029  28.289  1.00  0.00     0.039 A 
ATOM     45  C   UNL A   1      37.009  29.306  29.486  1.00  0.00     0.014 A 
ATOM     46  C   UNL A   1      38.072  29.803  27.390  1.00  0.00     0.014 A 
ATOM     47  C   UNL A   1      38.132  28.557  29.833  1.00  0.00     0.010 A 
ATOM     48  C   UNL A   1      38.969  28.814  27.571  1.00  0.00     0.010 A 
ATOM     49  C   UNL A   1      39.139  28.430  28.884  1.00  0.00    -0.014 A 
BRANCH  49  50
ATOM     50  C   UNL A   1      40.507  28.022  29.095  1.00  0.00     0.031 A 
ATOM     51  C   UNL A   1      40.813  26.618  28.844  1.00  0.00     0.074 A 
ATOM     52  C   UNL A   1      41.406  29.040  29.088  1.00  0.00     0.049 A 
ATOM     53  N   UNL A   1      41.905  26.042  29.181  1.00  0.00    -0.248 NA
ATOM     54  C   UNL A   1      39.850  25.732  28.195  1.00  0.00     0.031 C 
ATOM     55  C   UNL A   1      42.794  29.029  28.647  1.00  0.00     0.029 A 
ATOM     56  N   UNL A   1      41.227  30.390  29.411  1.00  0.00    -0.354 N 
ATOM     57  C   UNL A   1      41.931  24.844  28.497  1.00  0.00     0.074 A 
ATOM     58  C   UNL A   1      40.572  24.618  28.078  1.00  0.00     0.031 C 
ATOM     59  C   UNL A   1      43.383  30.180  29.034  1.00  0.00     0.029 A 
ATOM     60  C   UNL A   1      42.439  30.875  29.897  1.00  0.00     0.049 A 
ATOM     61  H   UNL A   1      40.394  30.905  29.311  1.00  0.00     0.167 HD
ATOM     62  C   UNL A   1      43.145  24.320  28.170  1.00  0.00     0.034 A 
ATOM     63  C   UNL A   1      42.641  31.124  31.232  1.00  0.00     0.034 A 
ATOM     64  C   UNL A   1      44.217  25.194  28.703  1.00  0.00     0.049 A 
ATOM     65  C   UNL A   1      43.609  30.116  31.847  1.00  0.00     0.074 A 
ATOM     66  C   UNL A   1      44.980  26.190  28.110  1.00  0.00     0.029 A 
ATOM     67  N   UNL A   1      44.336  25.388  30.080  1.00  0.00    -0.354 N 
ATOM     68  N   UNL A   1      43.992  29.021  31.247  1.00  0.00    -0.248 NA
ATOM     69  C   UNL A   1      44.235  30.266  33.158  1.00  0.00     0.031 C 
ATOM     70  C   UNL A   1      45.456  27.052  29.140  1.00  0.00     0.029 A 
ATOM     71  C   UNL A   1      45.014  26.570  30.362  1.00  0.00     0.049 A 
ATOM     72  H   UNL A   1      43.986  24.770  30.762  1.00  0.00     0.167 HD
ATOM     73  C   UNL A   1      44.791  28.281  32.066  1.00  0.00     0.074 A 
ATOM     74  C   UNL A   1      44.972  29.142  33.227  1.00  0.00     0.031 C 
ATOM     75  C   UNL A   1      45.201  27.013  31.746  1.00  0.00     0.034 A 
BRANCH  62  76
ATOM     76  C   UNL A   1      43.386  23.265  27.095  1.00  0.00     0.023 A 
ATOM     77  C   UNL A   1      44.080  23.687  25.939  1.00  0.00     0.012 A 
ATOM     78  C   UNL A   1      42.963  21.911  27.088  1.00  0.00     0.148 A 
ATOM     79  C   UNL A   1      44.273  22.859  24.826  1.00  0.00     0.002 A 
ATOM     80  C   UNL A   1      43.118  21.092  25.964  1.00  0.00     0.091 A 
ATOM     81  F   UNL A   1      42.465  21.356  28.191  1.00  0.00    -0.205 F 
ATOM     82  C   UNL A   1      43.771  21.567  24.827  1.00  0.00     0.022 A 
BRANCH  80  83
ATOM     83  S   UNL A   1      42.473  19.408  25.883  1.00  0.00     0.127 S 
ATOM     84  O   UNL A   1      41.030  19.635  25.785  1.00  0.00    -0.237 OA
ATOM     85  O   UNL A   1      43.092  18.896  24.661  1.00  0.00    -0.237 OA
ATOM     86  O   UNL A   1      42.890  18.746  27.114  1.00  0.00    -0.744 OA
ENDBRANCH  80  83
ENDBRANCH  62  76
BRANCH  63  87
ATOM     87  C   UNL A   1      41.421  31.681  31.905  1.00  0.00     0.023 A 
ATOM     88  C   UNL A   1      40.886  32.870  31.348  1.00  0.00     0.012 A 
ATOM     89  C   UNL A   1      40.579  30.857  32.671  1.00  0.00     0.148 A 
ATOM     90  C   UNL A   1      39.510  33.099  31.349  1.00  0.00     0.002 A 
ATOM     91  C   UNL A   1      39.206  31.097  32.673  1.00  0.00     0.091 A 
ATOM     92  F   UNL A   1      41.115  29.820  33.327  1.00  0.00    -0.205 F 
ATOM     93  C   UNL A   1      38.663  32.180  31.960  1.00  0.00     0.022 A 
BRANCH  91  94
ATOM     94  S   UNL A   1      38.071  29.957  33.478  1.00  0.00     0.127 S 
ATOM     95  O   UNL A   1      36.800  30.325  32.860  1.00  0.00    -0.237 OA
ATOM     96  O   UNL A   1      38.584  28.649  33.076  1.00  0.00    -0.237 OA
ATOM     97  O   UNL A   1      38.208  30.240  34.899  1.00  0.00    -0.744 OA
ENDBRANCH  91  94
ENDBRANCH  63  87
BRANCH  75  98
ATOM     98  C   UNL A   1      45.856  26.077  32.737  1.00  0.00     0.023 A 
ATOM     99  C   UNL A   1      47.238  26.124  33.002  1.00  0.00     0.012 A 
ATOM    100  C   UNL A   1      45.078  25.208  33.541  1.00  0.00     0.148 A 
ATOM    101  C   UNL A   1      47.841  25.270  33.928  1.00  0.00     0.002 A 
ATOM    102  C   UNL A   1      45.665  24.459  34.554  1.00  0.00     0.091 A 
ATOM    103  F   UNL A   1      43.763  25.081  33.312  1.00  0.00    -0.205 F 
ATOM    104  C   UNL A   1      47.052  24.448  34.717  1.00  0.00     0.022 A 
BRANCH 102 105
ATOM    105  S   UNL A   1      44.668  23.608  35.782  1.00  0.00     0.127 S 
ATOM    106  O   UNL A   1      44.109  22.506  35.004  1.00  0.00    -0.237 OA
ATOM    107  O   UNL A   1      45.672  23.212  36.772  1.00  0.00    -0.237 OA
ATOM    108  O   UNL A   1      43.715  24.599  36.265  1.00  0.00    -0.744 OA
ENDBRANCH 102 105
ENDBRANCH  75  98
ENDBRANCH  49  50
ENDBRANCH  41  44
ENDBRANCH  39  40
ENDBRANCH  38  39
ENDBRANCH   1  38
TORSDOF 17
ENDMDL
MODEL 2
REMARK VINA RESULT:     -13.3      2.856      4.579
REMARK SMILES Cc1ccc(-c2cnnc(-n3nc(C)c4c3NC(=O)C[C@@H]4c3ccc(C(=O)NCCCCNC(=O)c4ccc(-c5c6nc(c(-c7cccc(S(=O)(=O)[O-])c7F)c7ccc([nH]7)c(-c7cccc(S(=O)(=O)[O-])c7F)c7nc(c(-c8cccc(S(=O)(=O)[O-])c8F)c8ccc5[nH]8)C=C7)C=C6)cc4)cc3)n2)cc1
REMARK SMILES IDX 30 1 29 2 28 3 26 4 27 5 25 7 22 8 23 9 100 10 24 11 99 12
REMARK SMILES IDX 21 13 11 14 12 15 16 16 13 17 15 18 17 19 14 20 18 21 20 23
REMARK SMILES IDX 19 24 10 25 6 26 7 27 101 28 8 29 9 30 5 31 1 32 2 33 3 34
REMARK SMILES IDX 103 35 4 36 102 37 31 38 32 39 33 40 34 41 35 43 36 44 37 45
REMARK SMILES IDX 98 46 38 47 97 48 39 49 40 50 41 51 91 52 42 53 96 54 90 55
REMARK SMILES IDX 92 56 43 57 95 58 89 59 88 60 44 62 76 63 56 64 75 65 57 66
REMARK SMILES IDX 60 67 74 68 93 69 58 70 59 71 73 73 94 74 61 75 45 76 46 77
REMARK SMILES IDX 54 78 47 79 49 80 55 81 48 82 50 83 51 84 52 85 53 86 77 87
REMARK SMILES IDX 78 88 86 89 79 90 81 91 87 92 80 93 82 94 83 95 84 96 85 97
REMARK SMILES IDX 62 98 63 99 71 100 64 101 66 102 72 103 65 104 67 105 68 106
REMARK SMILES IDX 69 107 70 108
REMARK H PARENT 28 6 17 22 33 42 92 61 60 72
REMARK Flexibility Score: inf
ROOT
ATOM      1  C   UNL A   1      32.340  30.035  25.895  1.00  0.00     0.023 C 
ENDROOT
BRANCH   1   2
ATOM      2  C   UNL A   1      32.375  29.497  24.452  1.00  0.00     0.116 C 
BRANCH   2   3
ATOM      3  N   UNL A   1      31.055  29.349  23.849  1.00  0.00    -0.352 N 
ATOM      4  C   UNL A   1      30.214  28.267  23.713  1.00  0.00     0.251 C 
ATOM      5  O   UNL A   1      29.067  28.440  23.305  1.00  0.00    -0.269 OA
ATOM      6  H   UNL A   1      30.697  30.182  23.465  1.00  0.00     0.163 HD
BRANCH   4   7
ATOM      7  C   UNL A   1      30.633  26.897  24.088  1.00  0.00     0.039 A 
ATOM      8  C   UNL A   1      31.727  24.446  24.927  1.00  0.00    -0.040 A 
ATOM      9  C   UNL A   1      30.950  25.221  25.806  1.00  0.00     0.005 A 
ATOM     10  C   UNL A   1      31.758  24.821  23.582  1.00  0.00     0.005 A 
ATOM     11  C   UNL A   1      30.400  26.438  25.387  1.00  0.00     0.014 A 
ATOM     12  C   UNL A   1      31.227  26.036  23.176  1.00  0.00     0.014 A 
BRANCH   8  13
ATOM     13  C   UNL A   1      32.517  23.283  25.486  1.00  0.00     0.064 C 
ATOM     14  N   UNL A   1      36.062  23.033  24.795  1.00  0.00    -0.180 N 
ATOM     15  N   UNL A   1      36.115  24.319  25.230  1.00  0.00    -0.168 NA
ATOM     16  C   UNL A   1      34.756  22.745  24.437  1.00  0.00     0.143 A 
ATOM     17  C   UNL A   1      34.873  24.574  25.653  1.00  0.00     0.066 A 
ATOM     18  C   UNL A   1      33.983  23.519  25.286  1.00  0.00     0.026 A 
ATOM     19  N   UNL A   1      34.158  21.968  23.459  1.00  0.00    -0.310 N 
ATOM     20  C   UNL A   1      34.612  25.909  26.252  1.00  0.00     0.069 C 
ATOM     21  C   UNL A   1      32.735  21.798  23.517  1.00  0.00     0.226 C 
ATOM     22  H   UNL A   1      34.692  21.546  22.747  1.00  0.00     0.171 HD
ATOM     23  C   UNL A   1      32.103  21.945  24.873  1.00  0.00     0.113 C 
ATOM     24  O   UNL A   1      32.163  21.440  22.491  1.00  0.00    -0.275 OA
BRANCH  14  25
ATOM     25  C   UNL A   1      37.082  22.107  25.173  1.00  0.00     0.272 A 
ATOM     26  C   UNL A   1      39.193  21.532  25.827  1.00  0.00     0.095 A 
ATOM     27  C   UNL A   1      38.937  20.220  25.462  1.00  0.00     0.164 A 
ATOM     28  N   UNL A   1      38.281  22.530  25.635  1.00  0.00    -0.208 NA
ATOM     29  N   UNL A   1      37.749  19.860  24.971  1.00  0.00    -0.153 NA
ATOM     30  N   UNL A   1      36.798  20.811  24.870  1.00  0.00    -0.109 NA
BRANCH  26  31
ATOM     31  C   UNL A   1      40.424  21.866  26.552  1.00  0.00     0.002 A 
ATOM     32  C   UNL A   1      44.103  23.005  28.532  1.00  0.00     0.044 C 
ATOM     33  C   UNL A   1      42.833  22.633  27.827  1.00  0.00    -0.051 A 
ATOM     34  C   UNL A   1      41.596  22.982  28.379  1.00  0.00     0.004 A 
ATOM     35  C   UNL A   1      42.862  21.917  26.628  1.00  0.00     0.004 A 
ATOM     36  C   UNL A   1      40.406  22.605  27.748  1.00  0.00     0.011 A 
ATOM     37  C   UNL A   1      41.673  21.536  26.002  1.00  0.00     0.011 A 
ENDBRANCH  26  31
ENDBRANCH  14  25
ENDBRANCH   8  13
ENDBRANCH   4   7
ENDBRANCH   2   3
ENDBRANCH   1   2
BRANCH   1  38
ATOM     38  C   UNL A   1      33.249  29.345  26.922  1.00  0.00     0.023 C 
BRANCH  38  39
ATOM     39  C   UNL A   1      34.459  30.152  27.339  1.00  0.00     0.116 C 
BRANCH  39  40
ATOM     40  N   UNL A   1      34.187  31.586  27.272  1.00  0.00    -0.352 N 
ATOM     41  C   UNL A   1      34.385  32.543  28.249  1.00  0.00     0.251 C 
ATOM     42  H   UNL A   1      33.812  31.911  26.422  1.00  0.00     0.163 HD
ATOM     43  O   UNL A   1      33.528  33.407  28.391  1.00  0.00    -0.269 OA
BRANCH  41  44
ATOM     44  C   UNL A   1      35.655  32.563  29.002  1.00  0.00     0.039 A 
ATOM     45  C   UNL A   1      36.772  33.276  28.553  1.00  0.00     0.014 A 
ATOM     46  C   UNL A   1      35.804  31.658  30.041  1.00  0.00     0.014 A 
ATOM     47  C   UNL A   1      38.030  32.884  29.009  1.00  0.00     0.010 A 
ATOM     48  C   UNL A   1      36.960  31.541  30.723  1.00  0.00     0.010 A 
ATOM     49  C   UNL A   1      38.080  31.931  30.018  1.00  0.00    -0.014 A 
BRANCH  49  50
ATOM     50  C   UNL A   1      39.207  31.122  30.415  1.00  0.00     0.031 A 
ATOM     51  C   UNL A   1      39.384  29.859  29.707  1.00  0.00     0.074 A 
ATOM     52  C   UNL A   1      40.181  31.799  31.078  1.00  0.00     0.049 A 
ATOM     53  N   UNL A   1      40.187  28.931  30.067  1.00  0.00    -0.248 NA
ATOM     54  C   UNL A   1      38.607  29.541  28.511  1.00  0.00     0.031 C 
ATOM     55  C   UNL A   1      41.618  31.564  31.077  1.00  0.00     0.029 A 
ATOM     56  N   UNL A   1      40.088  32.954  31.862  1.00  0.00    -0.354 N 
ATOM     57  C   UNL A   1      40.291  28.076  28.990  1.00  0.00     0.074 A 
ATOM     58  C   UNL A   1      39.159  28.382  28.154  1.00  0.00     0.031 C 
ATOM     59  C   UNL A   1      42.181  32.310  32.050  1.00  0.00     0.029 A 
ATOM     60  C   UNL A   1      41.096  32.899  32.821  1.00  0.00     0.049 A 
ATOM     61  H   UNL A   1      39.429  33.678  31.754  1.00  0.00     0.167 HD
ATOM     62  C   UNL A   1      41.455  27.387  28.830  1.00  0.00     0.034 A 
ATOM     63  C   UNL A   1      40.834  32.616  34.139  1.00  0.00     0.034 A 
ATOM     64  C   UNL A   1      42.372  27.704  29.950  1.00  0.00     0.049 A 
ATOM     65  C   UNL A   1      41.361  31.238  34.529  1.00  0.00     0.074 A 
ATOM     66  C   UNL A   1      43.429  28.596  30.057  1.00  0.00     0.029 A 
ATOM     67  N   UNL A   1      42.010  27.380  31.259  1.00  0.00    -0.354 N 
ATOM     68  N   UNL A   1      41.778  30.351  33.666  1.00  0.00    -0.248 NA
ATOM     69  C   UNL A   1      41.484  30.759  35.904  1.00  0.00     0.031 C 
ATOM     70  C   UNL A   1      43.615  28.895  31.438  1.00  0.00     0.029 A 
ATOM     71  C   UNL A   1      42.698  28.166  32.178  1.00  0.00     0.049 A 
ATOM     72  H   UNL A   1      41.354  26.686  31.499  1.00  0.00     0.167 HD
ATOM     73  C   UNL A   1      42.115  29.191  34.296  1.00  0.00     0.074 A 
ATOM     74  C   UNL A   1      41.981  29.524  35.709  1.00  0.00     0.031 C 
ATOM     75  C   UNL A   1      42.430  28.046  33.613  1.00  0.00     0.034 A 
BRANCH  62  76
ATOM     76  C   UNL A   1      41.919  26.735  27.530  1.00  0.00     0.023 A 
ATOM     77  C   UNL A   1      40.909  26.219  26.687  1.00  0.00     0.012 A 
ATOM     78  C   UNL A   1      43.248  26.543  27.075  1.00  0.00     0.148 A 
ATOM     79  C   UNL A   1      41.193  25.497  25.521  1.00  0.00     0.002 A 
ATOM     80  C   UNL A   1      43.537  25.788  25.933  1.00  0.00     0.091 A 
ATOM     81  F   UNL A   1      44.264  27.142  27.691  1.00  0.00    -0.205 F 
ATOM     82  C   UNL A   1      42.508  25.260  25.154  1.00  0.00     0.022 A 
BRANCH  80  83
ATOM     83  S   UNL A   1      45.224  25.418  25.404  1.00  0.00     0.127 S 
ATOM     84  O   UNL A   1      45.026  24.256  24.536  1.00  0.00    -0.237 OA
ATOM     85  O   UNL A   1      45.605  26.644  24.703  1.00  0.00    -0.237 OA
ATOM     86  O   UNL A   1      45.984  25.135  26.616  1.00  0.00    -0.744 OA
ENDBRANCH  80  83
ENDBRANCH  62  76
BRANCH  63  87
ATOM     87  C   UNL A   1      39.543  33.220  34.611  1.00  0.00     0.023 A 
ATOM     88  C   UNL A   1      38.480  33.237  33.674  1.00  0.00     0.012 A 
ATOM     89  C   UNL A   1      39.237  33.289  35.980  1.00  0.00     0.148 A 
ATOM     90  C   UNL A   1      37.159  33.080  34.094  1.00  0.00     0.002 A 
ATOM     91  C   UNL A   1      37.913  33.139  36.392  1.00  0.00     0.091 A 
ATOM     92  F   UNL A   1      40.238  33.432  36.859  1.00  0.00    -0.205 F 
ATOM     93  C   UNL A   1      36.882  32.970  35.453  1.00  0.00     0.022 A 
BRANCH  91  94
ATOM     94  S   UNL A   1      37.498  33.025  38.139  1.00  0.00     0.127 S 
ATOM     95  O   UNL A   1      38.153  31.775  38.514  1.00  0.00    -0.237 OA
ATOM     96  O   UNL A   1      38.115  34.225  38.700  1.00  0.00    -0.237 OA
ATOM     97  O   UNL A   1      36.043  33.031  38.174  1.00  0.00    -0.744 OA
ENDBRANCH  91  94
ENDBRANCH  63  87
BRANCH  75  98
ATOM     98  C   UNL A   1      42.544  26.690  34.272  1.00  0.00     0.023 A 
ATOM     99  C   UNL A   1      41.530  26.181  35.107  1.00  0.00     0.012 A 
ATOM    100  C   UNL A   1      43.617  25.818  33.963  1.00  0.00     0.148 A 
ATOM    101  C   UNL A   1      41.629  24.923  35.705  1.00  0.00     0.002 A 
ATOM    102  C   UNL A   1      43.642  24.518  34.452  1.00  0.00     0.091 A 
ATOM    103  F   UNL A   1      44.638  26.254  33.211  1.00  0.00    -0.205 F 
ATOM    104  C   UNL A   1      42.677  24.083  35.363  1.00  0.00     0.022 A 
BRANCH 102 105
ATOM    105  S   UNL A   1      44.807  23.305  33.820  1.00  0.00     0.127 S 
ATOM    106  O   UNL A   1      44.390  22.095  34.523  1.00  0.00    -0.237 OA
ATOM    107  O   UNL A   1      44.513  23.313  32.385  1.00  0.00    -0.237 OA
ATOM    108  O   UNL A   1      46.127  23.820  34.160  1.00  0.00    -0.744 OA
ENDBRANCH 102 105
ENDBRANCH  75  98
ENDBRANCH  49  50
ENDBRANCH  41  44
ENDBRANCH  39  40
ENDBRANCH  38  39
ENDBRANCH   1  38
TORSDOF 17
ENDMDL
MODEL 3
REMARK VINA RESULT:     -12.6      2.913      4.052
REMARK SMILES Cc1ccc(-c2cnnc(-n3nc(C)c4c3NC(=O)C[C@@H]4c3ccc(C(=O)NCCCCNC(=O)c4ccc(-c5c6nc(c(-c7cccc(S(=O)(=O)[O-])c7F)c7ccc([nH]7)c(-c7cccc(S(=O)(=O)[O-])c7F)c7nc(c(-c8cccc(S(=O)(=O)[O-])c8F)c8ccc5[nH]8)C=C7)C=C6)cc4)cc3)n2)cc1
REMARK SMILES IDX 30 1 29 2 28 3 26 4 27 5 25 7 22 8 23 9 100 10 24 11 99 12
REMARK SMILES IDX 21 13 11 14 12 15 16 16 13 17 15 18 17 19 14 20 18 21 20 23
REMARK SMILES IDX 19 24 10 25 6 26 7 27 101 28 8 29 9 30 5 31 1 32 2 33 3 34
REMARK SMILES IDX 103 35 4 36 102 37 31 38 32 39 33 40 34 41 35 43 36 44 37 45
REMARK SMILES IDX 98 46 38 47 97 48 39 49 40 50 41 51 91 52 42 53 96 54 90 55
REMARK SMILES IDX 92 56 43 57 95 58 89 59 88 60 44 62 76 63 56 64 75 65 57 66
REMARK SMILES IDX 60 67 74 68 93 69 58 70 59 71 73 73 94 74 61 75 45 76 46 77
REMARK SMILES IDX 54 78 47 79 49 80 55 81 48 82 50 83 51 84 52 85 53 86 77 87
REMARK SMILES IDX 78 88 86 89 79 90 81 91 87 92 80 93 82 94 83 95 84 96 85 97
REMARK SMILES IDX 62 98 63 99 71 100 64 101 66 102 72 103 65 104 67 105 68 106
REMARK SMILES IDX 69 107 70 108
REMARK H PARENT 28 6 17 22 33 42 92 61 60 72
REMARK Flexibility Score: inf
ROOT
ATOM      1  C   UNL A   1      31.695  30.316  26.212  1.00  0.00     0.023 C 
ENDROOT
BRANCH   1   2
ATOM      2  C   UNL A   1      31.824  29.917  24.730  1.00  0.00     0.116 C 
BRANCH   2   3
ATOM      3  N   UNL A   1      30.555  29.922  24.009  1.00  0.00    -0.352 N 
ATOM      4  C   UNL A   1      29.807  28.914  23.441  1.00  0.00     0.251 C 
ATOM      5  O   UNL A   1      28.676  29.160  23.027  1.00  0.00    -0.269 OA
ATOM      6  H   UNL A   1      30.157  30.817  23.910  1.00  0.00     0.163 HD
BRANCH   4   7
ATOM      7  C   UNL A   1      30.307  27.523  23.351  1.00  0.00     0.039 A 
ATOM      8  C   UNL A   1      31.425  24.946  23.492  1.00  0.00    -0.040 A 
ATOM      9  C   UNL A   1      30.185  25.223  24.095  1.00  0.00     0.005 A 
ATOM     10  C   UNL A   1      31.971  25.918  22.650  1.00  0.00     0.005 A 
ATOM     11  C   UNL A   1      29.626  26.503  24.021  1.00  0.00     0.014 A 
ATOM     12  C   UNL A   1      31.422  27.191  22.594  1.00  0.00     0.014 A 
BRANCH   8  13
ATOM     13  C   UNL A   1      32.117  23.640  23.814  1.00  0.00     0.064 C 
ATOM     14  N   UNL A   1      35.613  23.656  24.757  1.00  0.00    -0.180 N 
ATOM     15  N   UNL A   1      35.242  24.608  25.653  1.00  0.00    -0.168 NA
ATOM     16  C   UNL A   1      34.646  23.586  23.768  1.00  0.00     0.143 A 
ATOM     17  C   UNL A   1      33.912  24.671  25.535  1.00  0.00     0.066 A 
ATOM     18  C   UNL A   1      33.465  23.911  24.411  1.00  0.00     0.026 A 
ATOM     19  N   UNL A   1      34.657  23.343  22.404  1.00  0.00    -0.310 N 
ATOM     20  C   UNL A   1      33.186  25.599  26.439  1.00  0.00     0.069 C 
ATOM     21  C   UNL A   1      33.395  23.194  21.741  1.00  0.00     0.226 C 
ATOM     22  H   UNL A   1      35.504  23.275  21.907  1.00  0.00     0.171 HD
ATOM     23  C   UNL A   1      32.247  22.729  22.594  1.00  0.00     0.113 C 
ATOM     24  O   UNL A   1      33.371  23.345  20.523  1.00  0.00    -0.275 OA
BRANCH  14  25
ATOM     25  C   UNL A   1      36.541  22.638  25.137  1.00  0.00     0.272 A 
ATOM     26  C   UNL A   1      38.557  21.875  25.889  1.00  0.00     0.095 A 
ATOM     27  C   UNL A   1      38.243  20.611  25.416  1.00  0.00     0.164 A 
ATOM     28  N   UNL A   1      37.728  22.945  25.706  1.00  0.00    -0.208 NA
ATOM     29  N   UNL A   1      37.072  20.368  24.822  1.00  0.00    -0.153 NA
ATOM     30  N   UNL A   1      36.195  21.388  24.725  1.00  0.00    -0.109 NA
BRANCH  26  31
ATOM     31  C   UNL A   1      39.752  22.074  26.716  1.00  0.00     0.002 A 
ATOM     32  C   UNL A   1      43.396  22.698  28.971  1.00  0.00     0.044 C 
ATOM     33  C   UNL A   1      42.149  22.490  28.166  1.00  0.00    -0.051 A 
ATOM     34  C   UNL A   1      41.126  23.444  28.197  1.00  0.00     0.004 A 
ATOM     35  C   UNL A   1      41.977  21.338  27.393  1.00  0.00     0.004 A 
ATOM     36  C   UNL A   1      39.943  23.240  27.479  1.00  0.00     0.011 A 
ATOM     37  C   UNL A   1      40.793  21.133  26.682  1.00  0.00     0.011 A 
ENDBRANCH  26  31
ENDBRANCH  14  25
ENDBRANCH   8  13
ENDBRANCH   4   7
ENDBRANCH   2   3
ENDBRANCH   1   2
BRANCH   1  38
ATOM     38  C   UNL A   1      32.378  29.407  27.243  1.00  0.00     0.023 C 
BRANCH  38  39
ATOM     39  C   UNL A   1      33.862  29.205  27.026  1.00  0.00     0.116 C 
BRANCH  39  40
ATOM     40  N   UNL A   1      34.560  30.484  26.930  1.00  0.00    -0.352 N 
ATOM     41  C   UNL A   1      35.578  30.968  27.730  1.00  0.00     0.251 C 
ATOM     42  H   UNL A   1      34.267  31.079  26.202  1.00  0.00     0.163 HD
ATOM     43  O   UNL A   1      35.549  32.151  28.048  1.00  0.00    -0.269 OA
BRANCH  41  44
ATOM     44  C   UNL A   1      36.711  30.088  28.080  1.00  0.00     0.039 A 
ATOM     45  C   UNL A   1      36.743  29.359  29.273  1.00  0.00     0.014 A 
ATOM     46  C   UNL A   1      37.865  30.187  27.318  1.00  0.00     0.014 A 
ATOM     47  C   UNL A   1      37.983  28.956  29.766  1.00  0.00     0.010 A 
ATOM     48  C   UNL A   1      38.979  29.492  27.620  1.00  0.00     0.010 A 
ATOM     49  C   UNL A   1      39.091  29.144  28.950  1.00  0.00    -0.014 A 
BRANCH  49  50
ATOM     50  C   UNL A   1      40.482  29.140  29.333  1.00  0.00     0.031 A 
ATOM     51  C   UNL A   1      41.302  28.060  28.794  1.00  0.00     0.074 A 
ATOM     52  C   UNL A   1      40.946  30.334  29.783  1.00  0.00     0.049 A 
ATOM     53  N   UNL A   1      42.486  27.779  29.193  1.00  0.00    -0.248 NA
ATOM     54  C   UNL A   1      40.803  27.173  27.746  1.00  0.00     0.031 C 
ATOM     55  C   UNL A   1      42.282  30.900  29.661  1.00  0.00     0.029 A 
ATOM     56  N   UNL A   1      40.256  31.382  30.402  1.00  0.00    -0.354 N 
ATOM     57  C   UNL A   1      43.018  26.934  28.241  1.00  0.00     0.074 A 
ATOM     58  C   UNL A   1      41.888  26.440  27.499  1.00  0.00     0.031 C 
ATOM     59  C   UNL A   1      42.368  31.990  30.452  1.00  0.00     0.029 A 
ATOM     60  C   UNL A   1      41.149  32.040  31.245  1.00  0.00     0.049 A 
ATOM     61  H   UNL A   1      39.309  31.614  30.266  1.00  0.00     0.167 HD
ATOM     62  C   UNL A   1      44.367  26.950  28.055  1.00  0.00     0.034 A 
ATOM     63  C   UNL A   1      41.101  31.900  32.610  1.00  0.00     0.034 A 
ATOM     64  C   UNL A   1      44.984  27.897  29.013  1.00  0.00     0.049 A 
ATOM     65  C   UNL A   1      42.295  31.105  33.131  1.00  0.00     0.074 A 
ATOM     66  C   UNL A   1      45.394  29.216  28.878  1.00  0.00     0.029 A 
ATOM     67  N   UNL A   1      44.875  27.668  30.386  1.00  0.00    -0.354 N 
ATOM     68  N   UNL A   1      43.112  30.437  32.362  1.00  0.00    -0.248 NA
ATOM     69  C   UNL A   1      42.679  31.016  34.538  1.00  0.00     0.031 C 
ATOM     70  C   UNL A   1      45.410  29.807  30.175  1.00  0.00     0.029 A 
ATOM     71  C   UNL A   1      45.043  28.848  31.105  1.00  0.00     0.049 A 
ATOM     72  H   UNL A   1      44.702  26.788  30.791  1.00  0.00     0.167 HD
ATOM     73  C   UNL A   1      44.032  29.764  33.109  1.00  0.00     0.074 A 
ATOM     74  C   UNL A   1      43.761  30.219  34.466  1.00  0.00     0.031 C 
ATOM     75  C   UNL A   1      44.905  28.860  32.564  1.00  0.00     0.034 A 
BRANCH  62  76
ATOM     76  C   UNL A   1      45.089  26.425  26.818  1.00  0.00     0.023 A 
ATOM     77  C   UNL A   1      44.975  25.040  26.559  1.00  0.00     0.012 A 
ATOM     78  C   UNL A   1      45.902  27.147  25.907  1.00  0.00     0.148 A 
ATOM     79  C   UNL A   1      45.674  24.402  25.527  1.00  0.00     0.002 A 
ATOM     80  C   UNL A   1      46.634  26.509  24.900  1.00  0.00     0.091 A 
ATOM     81  F   UNL A   1      45.935  28.478  25.943  1.00  0.00    -0.205 F 
ATOM     82  C   UNL A   1      46.524  25.132  24.710  1.00  0.00     0.022 A 
BRANCH  80  83
ATOM     83  S   UNL A   1      47.776  27.388  23.811  1.00  0.00     0.127 S 
ATOM     84  O   UNL A   1      48.331  26.299  23.006  1.00  0.00    -0.237 OA
ATOM     85  O   UNL A   1      46.881  28.287  23.084  1.00  0.00    -0.237 OA
ATOM     86  O   UNL A   1      48.748  28.045  24.677  1.00  0.00    -0.744 OA
ENDBRANCH  80  83
ENDBRANCH  62  76
BRANCH  63  87
ATOM     87  C   UNL A   1      39.696  31.801  33.129  1.00  0.00     0.023 A 
ATOM     88  C   UNL A   1      39.107  30.512  33.102  1.00  0.00     0.012 A 
ATOM     89  C   UNL A   1      39.190  32.755  34.028  1.00  0.00     0.148 A 
ATOM     90  C   UNL A   1      38.217  30.115  34.101  1.00  0.00     0.002 A 
ATOM     91  C   UNL A   1      38.295  32.353  35.018  1.00  0.00     0.091 A 
ATOM     92  F   UNL A   1      39.635  34.016  33.948  1.00  0.00    -0.205 F 
ATOM     93  C   UNL A   1      37.858  31.020  35.095  1.00  0.00     0.022 A 
BRANCH  91  94
ATOM     94  S   UNL A   1      37.772  33.494  36.307  1.00  0.00     0.127 S 
ATOM     95  O   UNL A   1      36.399  33.784  35.903  1.00  0.00    -0.237 OA
ATOM     96  O   UNL A   1      37.889  32.688  37.522  1.00  0.00    -0.237 OA
ATOM     97  O   UNL A   1      38.718  34.597  36.231  1.00  0.00    -0.744 OA
ENDBRANCH  91  94
ENDBRANCH  63  87
BRANCH  75  98
ATOM     98  C   UNL A   1      45.744  27.912  33.391  1.00  0.00     0.023 A 
ATOM     99  C   UNL A   1      47.064  28.224  33.769  1.00  0.00     0.012 A 
ATOM    100  C   UNL A   1      45.182  26.731  33.936  1.00  0.00     0.148 A 
ATOM    101  C   UNL A   1      47.834  27.354  34.545  1.00  0.00     0.002 A 
ATOM    102  C   UNL A   1      45.907  25.939  34.817  1.00  0.00     0.091 A 
ATOM    103  F   UNL A   1      43.946  26.352  33.582  1.00  0.00    -0.205 F 
ATOM    104  C   UNL A   1      47.249  26.219  35.085  1.00  0.00     0.022 A 
BRANCH 102 105
ATOM    105  S   UNL A   1      45.118  24.631  35.763  1.00  0.00     0.127 S 
ATOM    106  O   UNL A   1      45.011  23.566  34.770  1.00  0.00    -0.237 OA
ATOM    107  O   UNL A   1      46.098  24.384  36.824  1.00  0.00    -0.237 OA
ATOM    108  O   UNL A   1      43.860  25.197  36.234  1.00  0.00    -0.744 OA
ENDBRANCH 102 105
ENDBRANCH  75  98
ENDBRANCH  49  50
ENDBRANCH  41  44
ENDBRANCH  39  40
ENDBRANCH  38  39
ENDBRANCH   1  38
TORSDOF 17
ENDMDL
