MODEL 1
REMARK VINA RESULT:     -10.9      0.000      0.000
REMARK SMILES O=C(NCCCCNC(=O)[C@@H]1CCCN(C(=O)CCCc2ccc(Br)s2)C1)c1ccc(-c2c3nc(c(-c4cccc(S(=O)(=O)[O-])c4F)c4ccc([nH]4)c(-c4cccc(S(=O)(=O)[O-])c4F)c4nc(c(-c5cccc(S(=O)(=O)[O-])c5F)c5ccc2[nH]5)C=C4)C=C3)cc1
REMARK SMILES IDX 6 1 5 2 4 3 3 4 1 5 2 6 28 8 29 9 90 10 30 11 89 12 31 13
REMARK SMILES IDX 32 14 33 15 83 16 34 17 88 18 82 19 84 20 35 21 87 22 81 23
REMARK SMILES IDX 80 24 36 26 68 27 48 28 67 29 49 30 52 31 66 32 85 33 50 34
REMARK SMILES IDX 51 35 65 37 86 38 53 39 37 40 38 41 46 42 39 43 41 44 47 45
REMARK SMILES IDX 40 46 42 47 43 48 44 49 45 50 69 51 70 52 78 53 71 54 73 55
REMARK SMILES IDX 79 56 72 57 74 58 75 59 76 60 77 61 54 62 55 63 63 64 56 65
REMARK SMILES IDX 58 66 64 67 57 68 59 69 60 70 61 71 62 72 7 73 8 74 9 75
REMARK SMILES IDX 10 77 11 78 12 79 27 80 13 81 15 82 14 83 16 84 17 85 18 86
REMARK SMILES IDX 19 87 20 88 21 89 22 90 26 91 23 92 24 93 25 94
REMARK H PARENT 3 7 84 25 52 36 8 76
REMARK Flexibility Score: inf
ROOT
ATOM      1  C   UNL A   1      31.445  31.180  26.107  1.00  0.00     0.023 C 
ENDROOT
BRANCH   1   2
ATOM      2  C   UNL A   1      31.391  32.504  26.862  1.00  0.00     0.023 C 
BRANCH   2   3
ATOM      3  C   UNL A   1      32.745  33.097  27.248  1.00  0.00     0.116 C 
BRANCH   3   4
ATOM      4  N   UNL A   1      32.638  34.384  27.924  1.00  0.00    -0.352 N 
ATOM      5  O   UNL A   1      33.036  35.937  29.511  1.00  0.00    -0.269 OA
ATOM      6  C   UNL A   1      33.359  34.883  28.988  1.00  0.00     0.251 C 
ATOM      7  H   UNL A   1      31.947  34.989  27.567  1.00  0.00     0.163 HD
BRANCH   6   8
ATOM      8  C   UNL A   1      34.501  34.100  29.505  1.00  0.00     0.039 A 
ATOM      9  C   UNL A   1      34.282  33.056  30.404  1.00  0.00     0.014 A 
ATOM     10  C   UNL A   1      35.800  34.451  29.130  1.00  0.00     0.014 A 
ATOM     11  C   UNL A   1      35.359  32.498  31.077  1.00  0.00     0.010 A 
ATOM     12  C   UNL A   1      36.886  33.812  29.735  1.00  0.00     0.010 A 
ATOM     13  C   UNL A   1      36.674  32.865  30.749  1.00  0.00    -0.014 A 
BRANCH  13  14
ATOM     14  C   UNL A   1      37.806  32.201  31.444  1.00  0.00     0.031 A 
ATOM     15  C   UNL A   1      38.578  31.082  30.797  1.00  0.00     0.074 A 
ATOM     16  C   UNL A   1      38.140  32.630  32.676  1.00  0.00     0.049 A 
ATOM     17  N   UNL A   1      39.596  30.408  31.269  1.00  0.00    -0.248 NA
ATOM     18  C   UNL A   1      38.152  30.654  29.455  1.00  0.00     0.031 C 
ATOM     19  C   UNL A   1      37.439  33.682  33.416  1.00  0.00     0.029 A 
ATOM     20  N   UNL A   1      39.145  32.244  33.522  1.00  0.00    -0.354 N 
ATOM     21  C   UNL A   1      39.905  29.452  30.309  1.00  0.00     0.074 A 
ATOM     22  C   UNL A   1      38.963  29.629  29.224  1.00  0.00     0.031 C 
ATOM     23  C   UNL A   1      38.051  33.879  34.592  1.00  0.00     0.029 A 
ATOM     24  C   UNL A   1      39.148  32.927  34.715  1.00  0.00     0.049 A 
ATOM     25  H   UNL A   1      39.803  31.546  33.299  1.00  0.00     0.167 HD
ATOM     26  C   UNL A   1      40.892  28.524  30.325  1.00  0.00     0.034 A 
ATOM     27  C   UNL A   1      39.931  32.792  35.802  1.00  0.00     0.034 A 
ATOM     28  C   UNL A   1      41.853  28.385  31.390  1.00  0.00     0.049 A 
ATOM     29  C   UNL A   1      41.031  31.774  35.779  1.00  0.00     0.074 A 
ATOM     30  C   UNL A   1      42.931  27.520  31.468  1.00  0.00     0.029 A 
ATOM     31  N   UNL A   1      41.850  29.126  32.562  1.00  0.00    -0.354 N 
ATOM     32  N   UNL A   1      41.380  30.962  34.810  1.00  0.00    -0.248 NA
ATOM     33  C   UNL A   1      41.861  31.669  36.985  1.00  0.00     0.031 C 
ATOM     34  C   UNL A   1      43.567  27.723  32.697  1.00  0.00     0.029 A 
ATOM     35  C   UNL A   1      42.899  28.731  33.375  1.00  0.00     0.049 A 
ATOM     36  H   UNL A   1      41.198  29.829  32.784  1.00  0.00     0.167 HD
ATOM     37  C   UNL A   1      42.484  30.263  35.281  1.00  0.00     0.074 A 
ATOM     38  C   UNL A   1      42.763  30.771  36.609  1.00  0.00     0.031 C 
ATOM     39  C   UNL A   1      43.191  29.277  34.676  1.00  0.00     0.034 A 
BRANCH  26  40
ATOM     40  C   UNL A   1      41.017  27.603  29.138  1.00  0.00     0.023 A 
ATOM     41  C   UNL A   1      40.245  26.425  29.085  1.00  0.00     0.012 A 
ATOM     42  C   UNL A   1      41.838  27.939  28.041  1.00  0.00     0.148 A 
ATOM     43  C   UNL A   1      40.306  25.583  27.973  1.00  0.00     0.002 A 
ATOM     44  C   UNL A   1      41.865  27.115  26.921  1.00  0.00     0.091 A 
ATOM     45  F   UNL A   1      42.583  29.051  28.117  1.00  0.00    -0.205 F 
ATOM     46  C   UNL A   1      41.106  25.934  26.889  1.00  0.00     0.022 A 
BRANCH  44  47
ATOM     47  S   UNL A   1      42.805  27.518  25.444  1.00  0.00     0.127 S 
ATOM     48  O   UNL A   1      42.587  26.329  24.622  1.00  0.00    -0.237 OA
ATOM     49  O   UNL A   1      42.128  28.723  24.963  1.00  0.00    -0.237 OA
ATOM     50  O   UNL A   1      44.175  27.731  25.888  1.00  0.00    -0.744 OA
ENDBRANCH  44  47
ENDBRANCH  26  40
BRANCH  27  51
ATOM     51  C   UNL A   1      39.714  33.680  36.977  1.00  0.00     0.023 A 
ATOM     52  C   UNL A   1      40.110  35.029  36.910  1.00  0.00     0.012 A 
ATOM     53  C   UNL A   1      39.058  33.211  38.133  1.00  0.00     0.148 A 
ATOM     54  C   UNL A   1      39.876  35.891  37.982  1.00  0.00     0.002 A 
ATOM     55  C   UNL A   1      38.773  34.090  39.171  1.00  0.00     0.091 A 
ATOM     56  F   UNL A   1      38.703  31.920  38.184  1.00  0.00    -0.205 F 
ATOM     57  C   UNL A   1      39.196  35.426  39.105  1.00  0.00     0.022 A 
BRANCH  55  58
ATOM     58  S   UNL A   1      37.772  33.607  40.582  1.00  0.00     0.127 S 
ATOM     59  O   UNL A   1      36.580  33.067  39.932  1.00  0.00    -0.237 OA
ATOM     60  O   UNL A   1      38.624  32.611  41.233  1.00  0.00    -0.237 OA
ATOM     61  O   UNL A   1      37.578  34.825  41.358  1.00  0.00    -0.744 OA
ENDBRANCH  55  58
ENDBRANCH  27  51
BRANCH  39  62
ATOM     62  C   UNL A   1      44.349  28.692  35.439  1.00  0.00     0.023 A 
ATOM     63  C   UNL A   1      45.646  29.203  35.236  1.00  0.00     0.012 A 
ATOM     64  C   UNL A   1      44.144  27.679  36.395  1.00  0.00     0.148 A 
ATOM     65  C   UNL A   1      46.728  28.693  35.951  1.00  0.00     0.002 A 
ATOM     66  C   UNL A   1      45.221  27.207  37.138  1.00  0.00     0.091 A 
ATOM     67  F   UNL A   1      42.906  27.192  36.558  1.00  0.00    -0.205 F 
ATOM     68  C   UNL A   1      46.514  27.704  36.909  1.00  0.00     0.022 A 
BRANCH  66  69
ATOM     69  S   UNL A   1      45.023  26.002  38.455  1.00  0.00     0.127 S 
ATOM     70  O   UNL A   1      44.103  26.693  39.356  1.00  0.00    -0.237 OA
ATOM     71  O   UNL A   1      44.442  24.860  37.747  1.00  0.00    -0.237 OA
ATOM     72  O   UNL A   1      46.359  25.765  38.983  1.00  0.00    -0.744 OA
ENDBRANCH  66  69
ENDBRANCH  39  62
ENDBRANCH  13  14
ENDBRANCH   6   8
ENDBRANCH   3   4
ENDBRANCH   2   3
ENDBRANCH   1   2
BRANCH   1  73
ATOM     73  C   UNL A   1      32.497  30.202  26.607  1.00  0.00     0.116 C 
BRANCH  73  74
ATOM     74  N   UNL A   1      31.959  28.971  27.163  1.00  0.00    -0.356 N 
ATOM     75  C   UNL A   1      31.496  27.874  26.470  1.00  0.00     0.224 C 
ATOM     76  H   UNL A   1      31.919  28.916  28.145  1.00  0.00     0.163 HD
ATOM     77  O   UNL A   1      31.036  26.915  27.085  1.00  0.00    -0.275 OA
BRANCH  75  78
ATOM     78  C   UNL A   1      31.537  27.934  24.945  1.00  0.00     0.098 C 
ATOM     79  C   UNL A   1      30.189  27.609  24.257  1.00  0.00     0.017 C 
ATOM     80  C   UNL A   1      32.718  27.111  24.420  1.00  0.00     0.132 C 
ATOM     81  C   UNL A   1      30.024  26.169  23.758  1.00  0.00     0.022 C 
ATOM     82  N   UNL A   1      32.351  25.747  24.101  1.00  0.00    -0.342 N 
ATOM     83  C   UNL A   1      31.307  25.662  23.113  1.00  0.00     0.119 C 
BRANCH  82  84
ATOM     84  C   UNL A   1      32.653  24.728  24.995  1.00  0.00     0.222 C 
ATOM     85  O   UNL A   1      31.857  23.821  25.244  1.00  0.00    -0.275 OA
BRANCH  84  86
ATOM     86  C   UNL A   1      33.932  24.866  25.808  1.00  0.00     0.100 C 
BRANCH  86  87
ATOM     87  C   UNL A   1      34.731  23.609  26.167  1.00  0.00     0.015 C 
BRANCH  87  88
ATOM     88  C   UNL A   1      35.474  22.829  25.067  1.00  0.00     0.047 C 
BRANCH  88  89
ATOM     89  C   UNL A   1      35.081  21.394  24.806  1.00  0.00     0.006 A 
ATOM     90  C   UNL A   1      35.917  20.288  24.888  1.00  0.00     0.016 A 
ATOM     91  S   UNL A   1      33.494  20.907  24.362  1.00  0.00    -0.133 S 
ATOM     92  C   UNL A   1      35.199  19.056  24.843  1.00  0.00     0.028 A 
ATOM     93  C   UNL A   1      33.861  19.278  24.645  1.00  0.00     0.070 A 
ATOM     94  Br  UNL A   1      32.573  17.919  24.673  1.00  0.00    -0.039 Br
ENDBRANCH  88  89
ENDBRANCH  87  88
ENDBRANCH  86  87
ENDBRANCH  84  86
ENDBRANCH  82  84
ENDBRANCH  75  78
ENDBRANCH  73  74
ENDBRANCH   1  73
TORSDOF 19
ENDMDL
MODEL 2
REMARK VINA RESULT:     -10.8      1.080      7.848
REMARK SMILES O=C(NCCCCNC(=O)[C@@H]1CCCN(C(=O)CCCc2ccc(Br)s2)C1)c1ccc(-c2c3nc(c(-c4cccc(S(=O)(=O)[O-])c4F)c4ccc([nH]4)c(-c4cccc(S(=O)(=O)[O-])c4F)c4nc(c(-c5cccc(S(=O)(=O)[O-])c5F)c5ccc2[nH]5)C=C4)C=C3)cc1
REMARK SMILES IDX 6 1 5 2 4 3 3 4 1 5 2 6 28 8 29 9 90 10 30 11 89 12 31 13
REMARK SMILES IDX 32 14 33 15 83 16 34 17 88 18 82 19 84 20 35 21 87 22 81 23
REMARK SMILES IDX 80 24 36 26 68 27 48 28 67 29 49 30 52 31 66 32 85 33 50 34
REMARK SMILES IDX 51 35 65 37 86 38 53 39 37 40 38 41 46 42 39 43 41 44 47 45
REMARK SMILES IDX 40 46 42 47 43 48 44 49 45 50 69 51 70 52 78 53 71 54 73 55
REMARK SMILES IDX 79 56 72 57 74 58 75 59 76 60 77 61 54 62 55 63 63 64 56 65
REMARK SMILES IDX 58 66 64 67 57 68 59 69 60 70 61 71 62 72 7 73 8 74 9 75
REMARK SMILES IDX 10 77 11 78 12 79 27 80 13 81 15 82 14 83 16 84 17 85 18 86
REMARK SMILES IDX 19 87 20 88 21 89 22 90 26 91 23 92 24 93 25 94
REMARK H PARENT 3 7 84 25 52 36 8 76
REMARK Flexibility Score: inf
ROOT
ATOM      1  C   UNL A   1      31.120  31.672  26.050  1.00  0.00     0.023 C 
ENDROOT
BRANCH   1   2
ATOM      2  C   UNL A   1      32.125  31.464  27.179  1.00  0.00     0.023 C 
BRANCH   2   3
ATOM      3  C   UNL A   1      33.256  32.488  27.247  1.00  0.00     0.116 C 
BRANCH   3   4
ATOM      4  N   UNL A   1      32.809  33.814  27.661  1.00  0.00    -0.352 N 
ATOM      5  O   UNL A   1      32.629  35.624  28.994  1.00  0.00    -0.269 OA
ATOM      6  C   UNL A   1      33.217  34.589  28.725  1.00  0.00     0.251 C 
ATOM      7  H   UNL A   1      32.111  34.215  27.093  1.00  0.00     0.163 HD
BRANCH   6   8
ATOM      8  C   UNL A   1      34.350  34.125  29.552  1.00  0.00     0.039 A 
ATOM      9  C   UNL A   1      35.653  34.496  29.220  1.00  0.00     0.014 A 
ATOM     10  C   UNL A   1      34.110  33.268  30.628  1.00  0.00     0.014 A 
ATOM     11  C   UNL A   1      36.722  33.859  29.835  1.00  0.00     0.010 A 
ATOM     12  C   UNL A   1      35.190  32.708  31.315  1.00  0.00     0.010 A 
ATOM     13  C   UNL A   1      36.505  32.960  30.892  1.00  0.00    -0.014 A 
BRANCH  13  14
ATOM     14  C   UNL A   1      37.673  32.345  31.571  1.00  0.00     0.031 A 
ATOM     15  C   UNL A   1      38.133  32.814  32.925  1.00  0.00     0.074 A 
ATOM     16  C   UNL A   1      38.317  31.339  30.947  1.00  0.00     0.049 A 
ATOM     17  N   UNL A   1      39.129  32.372  33.651  1.00  0.00    -0.248 NA
ATOM     18  C   UNL A   1      37.392  33.925  33.543  1.00  0.00     0.031 C 
ATOM     19  C   UNL A   1      37.984  30.826  29.616  1.00  0.00     0.029 A 
ATOM     20  N   UNL A   1      39.379  30.568  31.342  1.00  0.00    -0.354 N 
ATOM     21  C   UNL A   1      39.163  33.174  34.786  1.00  0.00     0.074 A 
ATOM     22  C   UNL A   1      38.089  34.135  34.653  1.00  0.00     0.031 C 
ATOM     23  C   UNL A   1      38.802  29.809  29.316  1.00  0.00     0.029 A 
ATOM     24  C   UNL A   1      39.756  29.636  30.404  1.00  0.00     0.049 A 
ATOM     25  H   UNL A   1      39.828  30.670  32.212  1.00  0.00     0.167 HD
ATOM     26  C   UNL A   1      40.003  33.104  35.847  1.00  0.00     0.034 A 
ATOM     27  C   UNL A   1      40.771  28.753  30.405  1.00  0.00     0.034 A 
ATOM     28  C   UNL A   1      41.042  32.115  35.991  1.00  0.00     0.049 A 
ATOM     29  C   UNL A   1      41.669  28.682  31.605  1.00  0.00     0.074 A 
ATOM     30  C   UNL A   1      41.902  31.921  37.058  1.00  0.00     0.029 A 
ATOM     31  N   UNL A   1      41.364  31.160  35.039  1.00  0.00    -0.354 N 
ATOM     32  N   UNL A   1      41.607  29.370  32.719  1.00  0.00    -0.248 NA
ATOM     33  C   UNL A   1      42.757  27.698  31.560  1.00  0.00     0.031 C 
ATOM     34  C   UNL A   1      42.758  30.860  36.742  1.00  0.00     0.029 A 
ATOM     35  C   UNL A   1      42.417  30.380  35.488  1.00  0.00     0.049 A 
ATOM     36  H   UNL A   1      40.912  31.052  34.172  1.00  0.00     0.167 HD
ATOM     37  C   UNL A   1      42.636  28.888  33.518  1.00  0.00     0.074 A 
ATOM     38  C   UNL A   1      43.284  27.830  32.770  1.00  0.00     0.031 C 
ATOM     39  C   UNL A   1      43.021  29.299  34.751  1.00  0.00     0.034 A 
BRANCH  26  40
ATOM     40  C   UNL A   1      39.818  34.099  36.964  1.00  0.00     0.023 A 
ATOM     41  C   UNL A   1      40.152  35.452  36.755  1.00  0.00     0.012 A 
ATOM     42  C   UNL A   1      39.242  33.713  38.192  1.00  0.00     0.148 A 
ATOM     43  C   UNL A   1      39.941  36.401  37.757  1.00  0.00     0.002 A 
ATOM     44  C   UNL A   1      38.999  34.670  39.172  1.00  0.00     0.091 A 
ATOM     45  F   UNL A   1      38.950  32.418  38.383  1.00  0.00    -0.205 F 
ATOM     46  C   UNL A   1      39.356  36.012  38.960  1.00  0.00     0.022 A 
BRANCH  44  47
ATOM     47  S   UNL A   1      38.182  34.282  40.724  1.00  0.00     0.127 S 
ATOM     48  O   UNL A   1      37.032  33.503  40.264  1.00  0.00    -0.237 OA
ATOM     49  O   UNL A   1      39.201  33.502  41.427  1.00  0.00    -0.237 OA
ATOM     50  O   UNL A   1      37.866  35.561  41.341  1.00  0.00    -0.744 OA
ENDBRANCH  44  47
ENDBRANCH  26  40
BRANCH  27  51
ATOM     51  C   UNL A   1      40.953  27.843  29.240  1.00  0.00     0.023 A 
ATOM     52  C   UNL A   1      40.229  26.637  29.182  1.00  0.00     0.012 A 
ATOM     53  C   UNL A   1      41.786  28.200  28.161  1.00  0.00     0.148 A 
ATOM     54  C   UNL A   1      40.349  25.792  28.079  1.00  0.00     0.002 A 
ATOM     55  C   UNL A   1      41.853  27.382  27.039  1.00  0.00     0.091 A 
ATOM     56  F   UNL A   1      42.479  29.344  28.242  1.00  0.00    -0.205 F 
ATOM     57  C   UNL A   1      41.148  26.170  27.002  1.00  0.00     0.022 A 
BRANCH  55  58
ATOM     58  S   UNL A   1      42.739  27.870  25.555  1.00  0.00     0.127 S 
ATOM     59  O   UNL A   1      42.619  26.672  24.727  1.00  0.00    -0.237 OA
ATOM     60  O   UNL A   1      41.955  29.017  25.095  1.00  0.00    -0.237 OA
ATOM     61  O   UNL A   1      44.085  28.207  25.997  1.00  0.00    -0.744 OA
ENDBRANCH  55  58
ENDBRANCH  27  51
BRANCH  39  62
ATOM     62  C   UNL A   1      44.190  28.588  35.380  1.00  0.00     0.023 A 
ATOM     63  C   UNL A   1      45.502  28.962  35.031  1.00  0.00     0.012 A 
ATOM     64  C   UNL A   1      43.987  27.593  36.356  1.00  0.00     0.148 A 
ATOM     65  C   UNL A   1      46.597  28.334  35.621  1.00  0.00     0.002 A 
ATOM     66  C   UNL A   1      45.085  27.004  36.974  1.00  0.00     0.091 A 
ATOM     67  F   UNL A   1      42.731  27.237  36.657  1.00  0.00    -0.205 F 
ATOM     68  C   UNL A   1      46.389  27.364  36.600  1.00  0.00     0.022 A 
BRANCH  66  69
ATOM     69  S   UNL A   1      44.910  25.813  38.307  1.00  0.00     0.127 S 
ATOM     70  O   UNL A   1      46.280  25.721  38.807  1.00  0.00    -0.237 OA
ATOM     71  O   UNL A   1      43.975  26.489  39.208  1.00  0.00    -0.237 OA
ATOM     72  O   UNL A   1      44.383  24.601  37.693  1.00  0.00    -0.744 OA
ENDBRANCH  66  69
ENDBRANCH  39  62
ENDBRANCH  13  14
ENDBRANCH   6   8
ENDBRANCH   3   4
ENDBRANCH   2   3
ENDBRANCH   1   2
BRANCH   1  73
ATOM     73  C   UNL A   1      31.004  30.510  25.077  1.00  0.00     0.116 C 
BRANCH  73  74
ATOM     74  N   UNL A   1      32.223  29.735  24.917  1.00  0.00    -0.356 N 
ATOM     75  C   UNL A   1      32.337  28.443  24.454  1.00  0.00     0.224 C 
ATOM     76  H   UNL A   1      33.063  30.184  25.169  1.00  0.00     0.163 HD
ATOM     77  O   UNL A   1      33.442  27.907  24.408  1.00  0.00    -0.275 OA
BRANCH  75  78
ATOM     78  C   UNL A   1      31.052  27.717  24.063  1.00  0.00     0.098 C 
ATOM     79  C   UNL A   1      30.607  26.622  25.062  1.00  0.00     0.017 C 
ATOM     80  C   UNL A   1      31.143  27.235  22.612  1.00  0.00     0.132 C 
ATOM     81  C   UNL A   1      31.007  25.187  24.701  1.00  0.00     0.022 C 
ATOM     82  N   UNL A   1      31.638  25.879  22.504  1.00  0.00    -0.342 N 
ATOM     83  C   UNL A   1      30.825  24.925  23.213  1.00  0.00     0.119 C 
BRANCH  82  84
ATOM     84  C   UNL A   1      32.966  25.658  22.161  1.00  0.00     0.222 C 
ATOM     85  O   UNL A   1      33.508  26.255  21.229  1.00  0.00    -0.275 OA
BRANCH  84  86
ATOM     86  C   UNL A   1      33.686  24.511  22.854  1.00  0.00     0.100 C 
BRANCH  86  87
ATOM     87  C   UNL A   1      34.801  24.823  23.858  1.00  0.00     0.015 C 
BRANCH  87  88
ATOM     88  C   UNL A   1      34.604  24.503  25.351  1.00  0.00     0.047 C 
BRANCH  88  89
ATOM     89  C   UNL A   1      34.307  23.077  25.752  1.00  0.00     0.006 A 
ATOM     90  C   UNL A   1      33.926  22.644  27.015  1.00  0.00     0.016 A 
ATOM     91  S   UNL A   1      34.396  21.746  24.669  1.00  0.00    -0.133 S 
ATOM     92  C   UNL A   1      33.467  21.293  27.014  1.00  0.00     0.028 A 
ATOM     93  C   UNL A   1      33.599  20.734  25.770  1.00  0.00     0.070 A 
ATOM     94  Br  UNL A   1      32.971  19.025  25.334  1.00  0.00    -0.039 Br
ENDBRANCH  88  89
ENDBRANCH  87  88
ENDBRANCH  86  87
ENDBRANCH  84  86
ENDBRANCH  82  84
ENDBRANCH  75  78
ENDBRANCH  73  74
ENDBRANCH   1  73
TORSDOF 19
ENDMDL
MODEL 3
REMARK VINA RESULT:     -10.8      6.127     10.156
REMARK SMILES O=C(NCCCCNC(=O)[C@@H]1CCCN(C(=O)CCCc2ccc(Br)s2)C1)c1ccc(-c2c3nc(c(-c4cccc(S(=O)(=O)[O-])c4F)c4ccc([nH]4)c(-c4cccc(S(=O)(=O)[O-])c4F)c4nc(c(-c5cccc(S(=O)(=O)[O-])c5F)c5ccc2[nH]5)C=C4)C=C3)cc1
REMARK SMILES IDX 6 1 5 2 4 3 3 4 1 5 2 6 28 8 29 9 90 10 30 11 89 12 31 13
REMARK SMILES IDX 32 14 33 15 83 16 34 17 88 18 82 19 84 20 35 21 87 22 81 23
REMARK SMILES IDX 80 24 36 26 68 27 48 28 67 29 49 30 52 31 66 32 85 33 50 34
REMARK SMILES IDX 51 35 65 37 86 38 53 39 37 40 38 41 46 42 39 43 41 44 47 45
REMARK SMILES IDX 40 46 42 47 43 48 44 49 45 50 69 51 70 52 78 53 71 54 73 55
REMARK SMILES IDX 79 56 72 57 74 58 75 59 76 60 77 61 54 62 55 63 63 64 56 65
REMARK SMILES IDX 58 66 64 67 57 68 59 69 60 70 61 71 62 72 7 73 8 74 9 75
REMARK SMILES IDX 10 77 11 78 12 79 27 80 13 81 15 82 14 83 16 84 17 85 18 86
REMARK SMILES IDX 19 87 20 88 21 89 22 90 26 91 23 92 24 93 25 94
REMARK H PARENT 3 7 84 25 52 36 8 76
REMARK Flexibility Score: inf
ROOT
ATOM      1  C   UNL A   1      39.961  22.266  26.914  1.00  0.00     0.023 C 
ENDROOT
BRANCH   1   2
ATOM      2  C   UNL A   1      40.218  20.778  26.692  1.00  0.00     0.023 C 
BRANCH   2   3
ATOM      3  C   UNL A   1      41.570  20.265  27.182  1.00  0.00     0.116 C 
BRANCH   3   4
ATOM      4  N   UNL A   1      42.387  19.689  26.119  1.00  0.00    -0.352 N 
ATOM      5  O   UNL A   1      43.863  19.665  24.414  1.00  0.00    -0.269 OA
ATOM      6  C   UNL A   1      43.378  20.269  25.357  1.00  0.00     0.251 C 
ATOM      7  H   UNL A   1      42.202  18.743  25.916  1.00  0.00     0.163 HD
BRANCH   6   8
ATOM      8  C   UNL A   1      43.813  21.644  25.679  1.00  0.00     0.039 A 
ATOM      9  C   UNL A   1      44.430  21.911  26.902  1.00  0.00     0.014 A 
ATOM     10  C   UNL A   1      43.548  22.677  24.779  1.00  0.00     0.014 A 
ATOM     11  C   UNL A   1      44.602  23.227  27.306  1.00  0.00     0.010 A 
ATOM     12  C   UNL A   1      43.821  23.997  25.148  1.00  0.00     0.010 A 
ATOM     13  C   UNL A   1      44.303  24.287  26.434  1.00  0.00    -0.014 A 
BRANCH  13  14
ATOM     14  C   UNL A   1      44.560  25.682  26.874  1.00  0.00     0.031 A 
ATOM     15  C   UNL A   1      45.923  26.307  26.751  1.00  0.00     0.074 A 
ATOM     16  C   UNL A   1      43.533  26.389  27.385  1.00  0.00     0.049 A 
ATOM     17  N   UNL A   1      46.304  27.515  27.082  1.00  0.00    -0.248 NA
ATOM     18  C   UNL A   1      47.002  25.474  26.197  1.00  0.00     0.031 C 
ATOM     19  C   UNL A   1      42.177  25.873  27.587  1.00  0.00     0.029 A 
ATOM     20  N   UNL A   1      43.463  27.685  27.824  1.00  0.00    -0.354 N 
ATOM     21  C   UNL A   1      47.667  27.575  26.819  1.00  0.00     0.074 A 
ATOM     22  C   UNL A   1      48.052  26.279  26.304  1.00  0.00     0.031 C 
ATOM     23  C   UNL A   1      41.402  26.848  28.082  1.00  0.00     0.029 A 
ATOM     24  C   UNL A   1      42.218  28.037  28.290  1.00  0.00     0.049 A 
ATOM     25  H   UNL A   1      44.228  28.304  27.809  1.00  0.00     0.167 HD
ATOM     26  C   UNL A   1      48.515  28.620  26.979  1.00  0.00     0.034 A 
ATOM     27  C   UNL A   1      41.782  29.183  28.844  1.00  0.00     0.034 A 
ATOM     28  C   UNL A   1      48.114  29.920  27.451  1.00  0.00     0.049 A 
ATOM     29  C   UNL A   1      42.738  30.330  28.984  1.00  0.00     0.074 A 
ATOM     30  C   UNL A   1      48.886  31.062  27.585  1.00  0.00     0.029 A 
ATOM     31  N   UNL A   1      46.835  30.252  27.871  1.00  0.00    -0.354 N 
ATOM     32  N   UNL A   1      43.995  30.402  28.618  1.00  0.00    -0.248 NA
ATOM     33  C   UNL A   1      42.212  31.560  29.589  1.00  0.00     0.031 C 
ATOM     34  C   UNL A   1      48.077  32.078  28.105  1.00  0.00     0.029 A 
ATOM     35  C   UNL A   1      46.796  31.576  28.274  1.00  0.00     0.049 A 
ATOM     36  H   UNL A   1      46.066  29.636  27.880  1.00  0.00     0.167 HD
ATOM     37  C   UNL A   1      44.406  31.692  28.928  1.00  0.00     0.074 A 
ATOM     38  C   UNL A   1      43.255  32.374  29.484  1.00  0.00     0.031 C 
ATOM     39  C   UNL A   1      45.631  32.254  28.783  1.00  0.00     0.034 A 
BRANCH  26  40
ATOM     40  C   UNL A   1      49.962  28.421  26.605  1.00  0.00     0.023 A 
ATOM     41  C   UNL A   1      50.377  28.649  25.277  1.00  0.00     0.012 A 
ATOM     42  C   UNL A   1      50.925  28.085  27.579  1.00  0.00     0.148 A 
ATOM     43  C   UNL A   1      51.720  28.521  24.919  1.00  0.00     0.002 A 
ATOM     44  C   UNL A   1      52.266  27.997  27.223  1.00  0.00     0.091 A 
ATOM     45  F   UNL A   1      50.511  27.851  28.833  1.00  0.00    -0.205 F 
ATOM     46  C   UNL A   1      52.664  28.206  25.892  1.00  0.00     0.022 A 
BRANCH  44  47
ATOM     47  S   UNL A   1      53.567  27.671  28.419  1.00  0.00     0.127 S 
ATOM     48  O   UNL A   1      53.224  26.321  28.867  1.00  0.00    -0.237 OA
ATOM     49  O   UNL A   1      54.774  27.750  27.596  1.00  0.00    -0.237 OA
ATOM     50  O   UNL A   1      53.453  28.715  29.427  1.00  0.00    -0.744 OA
ENDBRANCH  44  47
ENDBRANCH  26  40
BRANCH  27  51
ATOM     51  C   UNL A   1      40.358  29.299  29.265  1.00  0.00     0.023 A 
ATOM     52  C   UNL A   1      39.362  29.506  28.292  1.00  0.00     0.012 A 
ATOM     53  C   UNL A   1      39.982  29.137  30.613  1.00  0.00     0.148 A 
ATOM     54  C   UNL A   1      38.018  29.572  28.658  1.00  0.00     0.002 A 
ATOM     55  C   UNL A   1      38.636  29.142  30.961  1.00  0.00     0.091 A 
ATOM     56  F   UNL A   1      40.946  28.956  31.526  1.00  0.00    -0.205 F 
ATOM     57  C   UNL A   1      37.653  29.376  29.988  1.00  0.00     0.022 A 
BRANCH  55  58
ATOM     58  S   UNL A   1      38.079  28.748  32.623  1.00  0.00     0.127 S 
ATOM     59  O   UNL A   1      36.705  29.245  32.602  1.00  0.00    -0.237 OA
ATOM     60  O   UNL A   1      38.207  27.291  32.649  1.00  0.00    -0.237 OA
ATOM     61  O   UNL A   1      38.995  29.444  33.516  1.00  0.00    -0.744 OA
ENDBRANCH  55  58
ENDBRANCH  27  51
BRANCH  39  62
ATOM     62  C   UNL A   1      45.787  33.687  29.217  1.00  0.00     0.023 A 
ATOM     63  C   UNL A   1      46.177  33.975  30.540  1.00  0.00     0.012 A 
ATOM     64  C   UNL A   1      45.604  34.742  28.302  1.00  0.00     0.148 A 
ATOM     65  C   UNL A   1      46.351  35.294  30.954  1.00  0.00     0.002 A 
ATOM     66  C   UNL A   1      45.825  36.052  28.710  1.00  0.00     0.091 A 
ATOM     67  F   UNL A   1      45.212  34.446  27.054  1.00  0.00    -0.205 F 
ATOM     68  C   UNL A   1      46.188  36.332  30.038  1.00  0.00     0.022 A 
BRANCH  66  69
ATOM     69  S   UNL A   1      45.726  37.440  27.575  1.00  0.00     0.127 S 
ATOM     70  O   UNL A   1      44.311  37.426  27.210  1.00  0.00    -0.237 OA
ATOM     71  O   UNL A   1      46.126  38.565  28.421  1.00  0.00    -0.237 OA
ATOM     72  O   UNL A   1      46.656  37.140  26.494  1.00  0.00    -0.744 OA
ENDBRANCH  66  69
ENDBRANCH  39  62
ENDBRANCH  13  14
ENDBRANCH   6   8
ENDBRANCH   3   4
ENDBRANCH   2   3
ENDBRANCH   1   2
BRANCH   1  73
ATOM     73  C   UNL A   1      38.747  22.820  26.186  1.00  0.00     0.116 C 
BRANCH  73  74
ATOM     74  N   UNL A   1      37.787  21.812  25.764  1.00  0.00    -0.356 N 
ATOM     75  C   UNL A   1      36.415  21.925  25.739  1.00  0.00     0.224 C 
ATOM     76  H   UNL A   1      38.160  20.952  25.463  1.00  0.00     0.163 HD
ATOM     77  O   UNL A   1      35.731  20.967  25.386  1.00  0.00    -0.275 OA
BRANCH  75  78
ATOM     78  C   UNL A   1      35.806  23.245  26.208  1.00  0.00     0.098 C 
ATOM     79  C   UNL A   1      34.502  23.091  27.028  1.00  0.00     0.017 C 
ATOM     80  C   UNL A   1      35.690  24.217  25.030  1.00  0.00     0.132 C 
ATOM     81  C   UNL A   1      33.197  23.274  26.244  1.00  0.00     0.022 C 
ATOM     82  N   UNL A   1      34.400  24.150  24.376  1.00  0.00    -0.342 N 
ATOM     83  C   UNL A   1      33.303  24.435  25.265  1.00  0.00     0.119 C 
BRANCH  82  84
ATOM     84  C   UNL A   1      34.268  23.441  23.188  1.00  0.00     0.222 C 
ATOM     85  O   UNL A   1      35.241  23.145  22.493  1.00  0.00    -0.275 OA
BRANCH  84  86
ATOM     86  C   UNL A   1      32.858  23.200  22.670  1.00  0.00     0.100 C 
BRANCH  86  87
ATOM     87  C   UNL A   1      32.293  21.776  22.668  1.00  0.00     0.015 C 
BRANCH  87  88
ATOM     88  C   UNL A   1      32.177  20.992  23.988  1.00  0.00     0.047 C 
BRANCH  88  89
ATOM     89  C   UNL A   1      32.491  19.515  23.983  1.00  0.00     0.006 A 
ATOM     90  C   UNL A   1      32.443  18.671  22.882  1.00  0.00     0.016 A 
ATOM     91  S   UNL A   1      32.975  18.640  25.381  1.00  0.00    -0.133 S 
ATOM     92  C   UNL A   1      33.042  17.402  23.139  1.00  0.00     0.028 A 
ATOM     93  C   UNL A   1      33.444  17.308  24.446  1.00  0.00     0.070 A 
ATOM     94  Br  UNL A   1      34.404  15.853  25.130  1.00  0.00    -0.039 Br
ENDBRANCH  88  89
ENDBRANCH  87  88
ENDBRANCH  86  87
ENDBRANCH  84  86
ENDBRANCH  82  84
ENDBRANCH  75  78
ENDBRANCH  73  74
ENDBRANCH   1  73
TORSDOF 19
ENDMDL
