MODEL 1
REMARK VINA RESULT:     -12.0      0.000      0.000
REMARK SMILES CC(=O)N[C@H]1[C@@H](O[C@H](C)C(=O)NCCCCNC(=O)c2ccc(-c3c4nc(c(-c5cccc(S(=O)(=O)[O-])c5F)c5ccc([nH]5)c(-c5cccc(S(=O)(=O)[O-])c5F)c5nc(c(-c6cccc(S(=O)(=O)[O-])c6F)c6ccc3[nH]6)C=C5)C=C4)cc2)[C@H]2OC(C)(C)OC[C@@H]2O[C@H]1Sc1ccc(Cl)cc1
REMARK SMILES IDX 14 1 13 2 12 3 10 4 11 5 8 7 9 8 7 9 6 10 5 11 92 12 83 13
REMARK SMILES IDX 91 14 84 15 90 16 85 17 89 18 86 19 87 20 88 21 4 22 1 23
REMARK SMILES IDX 2 24 3 25 93 27 94 28 95 29 100 30 96 31 99 32 97 33 98 34
REMARK SMILES IDX 15 35 16 36 17 37 18 38 19 40 20 41 21 42 82 43 22 44 81 45
REMARK SMILES IDX 23 46 24 47 25 48 75 49 26 50 80 51 74 52 76 53 27 54 79 55
REMARK SMILES IDX 73 56 72 57 28 59 60 60 40 61 59 62 41 63 44 64 58 65 77 66
REMARK SMILES IDX 42 67 43 68 57 70 78 71 45 72 29 73 30 74 38 75 31 76 33 77
REMARK SMILES IDX 39 78 32 79 34 80 35 81 36 82 37 83 61 84 62 85 70 86 63 87
REMARK SMILES IDX 65 88 71 89 64 90 66 91 67 92 68 93 69 94 46 95 47 96 55 97
REMARK SMILES IDX 48 98 50 99 56 100 49 101 51 102 52 103 53 104 54 105
REMARK H PARENT 12 6 4 26 17 39 76 58 44 69
REMARK Flexibility Score: inf
ROOT
ATOM      1  C   UNL A   1      35.217  21.141  25.396  1.00  0.00     0.023 C 
ENDROOT
BRANCH   1   2
ATOM      2  C   UNL A   1      34.364  21.807  24.313  1.00  0.00     0.116 C 
BRANCH   2   3
ATOM      3  N   UNL A   1      34.970  22.907  23.604  1.00  0.00    -0.354 N 
ATOM      4  C   UNL A   1      34.336  23.987  23.051  1.00  0.00     0.248 C 
ATOM      5  O   UNL A   1      35.036  24.947  22.706  1.00  0.00    -0.272 OA
ATOM      6  H   UNL A   1      35.949  22.877  23.507  1.00  0.00     0.163 HD
BRANCH   4   7
ATOM      7  C   UNL A   1      32.781  24.058  22.785  1.00  0.00     0.204 C 
ATOM      8  C   UNL A   1      32.304  22.601  22.714  1.00  0.00     0.049 C 
BRANCH   7   9
ATOM      9  O   UNL A   1      31.815  24.795  23.542  1.00  0.00    -0.360 OA
BRANCH   9  10
ATOM     10  C   UNL A   1      32.109  25.091  24.924  1.00  0.00     0.177 C 
ATOM     11  C   UNL A   1      30.863  24.760  25.767  1.00  0.00     0.153 C 
ATOM     12  C   UNL A   1      29.747  25.825  25.462  1.00  0.00     0.206 C 
ATOM     13  C   UNL A   1      32.489  26.605  25.274  1.00  0.00     0.184 C 
ATOM     14  O   UNL A   1      30.196  27.056  26.079  1.00  0.00    -0.356 OA
ATOM     15  O   UNL A   1      33.505  27.162  24.432  1.00  0.00    -0.342 OA
ATOM     16  C   UNL A   1      31.286  27.568  25.347  1.00  0.00     0.177 C 
ATOM     17  C   UNL A   1      33.830  28.541  24.719  1.00  0.00     0.163 C 
ATOM     18  C   UNL A   1      31.760  28.909  25.860  1.00  0.00     0.198 C 
ATOM     19  C   UNL A   1      34.515  29.076  23.457  1.00  0.00     0.075 C 
ATOM     20  C   UNL A   1      34.785  28.681  25.905  1.00  0.00     0.075 C 
ATOM     21  O   UNL A   1      32.703  29.402  24.914  1.00  0.00    -0.348 OA
BRANCH  11  22
ATOM     22  N   UNL A   1      30.626  23.312  25.821  1.00  0.00    -0.347 N 
ATOM     23  C   UNL A   1      32.361  22.439  27.356  1.00  0.00     0.114 C 
ATOM     24  C   UNL A   1      31.340  22.258  26.287  1.00  0.00     0.217 C 
ATOM     25  O   UNL A   1      31.103  21.148  25.812  1.00  0.00    -0.275 OA
ATOM     26  H   UNL A   1      29.759  23.049  25.436  1.00  0.00     0.163 HD
ENDBRANCH  11  22
BRANCH  12  27
ATOM     27  S   UNL A   1      28.774  26.212  23.857  1.00  0.00    -0.092 SA
BRANCH  27  28
ATOM     28  C   UNL A   1      28.876  27.857  23.114  1.00  0.00     0.010 A 
ATOM     29  C   UNL A   1      29.935  28.529  22.497  1.00  0.00     0.016 A 
ATOM     30  C   UNL A   1      27.683  28.603  23.218  1.00  0.00     0.016 A 
ATOM     31  C   UNL A   1      29.824  29.829  21.973  1.00  0.00     0.021 A 
ATOM     32  C   UNL A   1      27.547  29.899  22.686  1.00  0.00     0.021 A 
ATOM     33  C   UNL A   1      28.624  30.506  22.059  1.00  0.00     0.041 A 
ATOM     34  Cl  UNL A   1      28.477  32.081  21.387  1.00  0.00    -0.084 Cl
ENDBRANCH  27  28
ENDBRANCH  12  27
ENDBRANCH   9  10
ENDBRANCH   7   9
ENDBRANCH   4   7
ENDBRANCH   2   3
ENDBRANCH   1   2
BRANCH   1  35
ATOM     35  C   UNL A   1      36.584  20.607  24.939  1.00  0.00     0.023 C 
BRANCH  35  36
ATOM     36  C   UNL A   1      37.834  21.339  25.440  1.00  0.00     0.116 C 
BRANCH  36  37
ATOM     37  N   UNL A   1      38.960  20.483  25.779  1.00  0.00    -0.352 N 
ATOM     38  C   UNL A   1      40.124  20.798  26.447  1.00  0.00     0.251 C 
ATOM     39  H   UNL A   1      38.880  19.545  25.490  1.00  0.00     0.163 HD
ATOM     40  O   UNL A   1      40.976  19.935  26.643  1.00  0.00    -0.269 OA
BRANCH  38  41
ATOM     41  C   UNL A   1      40.371  22.191  26.882  1.00  0.00     0.039 A 
ATOM     42  C   UNL A   1      41.154  22.411  28.018  1.00  0.00     0.014 A 
ATOM     43  C   UNL A   1      39.871  23.273  26.153  1.00  0.00     0.014 A 
ATOM     44  C   UNL A   1      41.522  23.714  28.366  1.00  0.00     0.010 A 
ATOM     45  C   UNL A   1      40.288  24.566  26.467  1.00  0.00     0.010 A 
ATOM     46  C   UNL A   1      41.133  24.800  27.565  1.00  0.00    -0.014 A 
BRANCH  46  47
ATOM     47  C   UNL A   1      41.629  26.179  27.830  1.00  0.00     0.031 A 
ATOM     48  C   UNL A   1      43.047  26.555  27.498  1.00  0.00     0.074 A 
ATOM     49  C   UNL A   1      40.834  27.064  28.466  1.00  0.00     0.049 A 
ATOM     50  N   UNL A   1      43.686  27.668  27.747  1.00  0.00    -0.248 NA
ATOM     51  C   UNL A   1      43.863  25.535  26.818  1.00  0.00     0.031 C 
ATOM     52  C   UNL A   1      39.460  26.806  28.906  1.00  0.00     0.029 A 
ATOM     53  N   UNL A   1      41.076  28.351  28.884  1.00  0.00    -0.354 N 
ATOM     54  C   UNL A   1      44.985  27.473  27.293  1.00  0.00     0.074 A 
ATOM     55  C   UNL A   1      45.050  26.122  26.777  1.00  0.00     0.031 C 
ATOM     56  C   UNL A   1      38.985  27.896  29.530  1.00  0.00     0.029 A 
ATOM     57  C   UNL A   1      40.024  28.920  29.565  1.00  0.00     0.049 A 
ATOM     58  H   UNL A   1      41.924  28.822  28.710  1.00  0.00     0.167 HD
ATOM     59  C   UNL A   1      46.022  28.344  27.280  1.00  0.00     0.034 A 
ATOM     60  C   UNL A   1      39.911  30.125  30.160  1.00  0.00     0.034 A 
ATOM     61  C   UNL A   1      45.944  29.702  27.747  1.00  0.00     0.049 A 
ATOM     62  C   UNL A   1      41.067  31.087  30.096  1.00  0.00     0.074 A 
ATOM     63  C   UNL A   1      46.919  30.683  27.706  1.00  0.00     0.029 A 
ATOM     64  N   UNL A   1      44.830  30.273  28.341  1.00  0.00    -0.354 N 
ATOM     65  N   UNL A   1      42.240  30.932  29.531  1.00  0.00    -0.248 NA
ATOM     66  C   UNL A   1      40.872  32.405  30.720  1.00  0.00     0.031 C 
ATOM     67  C   UNL A   1      46.398  31.845  28.286  1.00  0.00     0.029 A 
ATOM     68  C   UNL A   1      45.092  31.592  28.670  1.00  0.00     0.049 A 
ATOM     69  H   UNL A   1      43.977  29.808  28.505  1.00  0.00     0.167 HD
ATOM     70  C   UNL A   1      42.904  32.143  29.692  1.00  0.00     0.074 A 
ATOM     71  C   UNL A   1      41.998  33.028  30.394  1.00  0.00     0.031 C 
ATOM     72  C   UNL A   1      44.156  32.486  29.303  1.00  0.00     0.034 A 
BRANCH  59  73
ATOM     73  C   UNL A   1      47.322  27.874  26.680  1.00  0.00     0.023 A 
ATOM     74  C   UNL A   1      48.349  27.417  27.531  1.00  0.00     0.012 A 
ATOM     75  C   UNL A   1      47.507  27.827  25.285  1.00  0.00     0.148 A 
ATOM     76  C   UNL A   1      49.554  26.953  27.005  1.00  0.00     0.002 A 
ATOM     77  C   UNL A   1      48.695  27.322  24.767  1.00  0.00     0.091 A 
ATOM     78  F   UNL A   1      46.527  28.284  24.493  1.00  0.00    -0.205 F 
ATOM     79  C   UNL A   1      49.722  26.896  25.624  1.00  0.00     0.022 A 
BRANCH  77  80
ATOM     80  S   UNL A   1      48.979  27.137  23.002  1.00  0.00     0.127 S 
ATOM     81  O   UNL A   1      48.400  28.373  22.479  1.00  0.00    -0.237 OA
ATOM     82  O   UNL A   1      50.439  27.070  22.930  1.00  0.00    -0.237 OA
ATOM     83  O   UNL A   1      48.297  25.911  22.612  1.00  0.00    -0.744 OA
ENDBRANCH  77  80
ENDBRANCH  59  73
BRANCH  60  84
ATOM     84  C   UNL A   1      38.628  30.523  30.807  1.00  0.00     0.023 A 
ATOM     85  C   UNL A   1      38.421  30.221  32.168  1.00  0.00     0.012 A 
ATOM     86  C   UNL A   1      37.623  31.206  30.096  1.00  0.00     0.148 A 
ATOM     87  C   UNL A   1      37.225  30.560  32.800  1.00  0.00     0.002 A 
ATOM     88  C   UNL A   1      36.453  31.588  30.747  1.00  0.00     0.091 A 
ATOM     89  F   UNL A   1      37.831  31.473  28.800  1.00  0.00    -0.205 F 
ATOM     90  C   UNL A   1      36.245  31.250  32.092  1.00  0.00     0.022 A 
BRANCH  88  91
ATOM     91  S   UNL A   1      35.195  32.592  29.949  1.00  0.00     0.127 S 
ATOM     92  O   UNL A   1      35.973  33.739  29.491  1.00  0.00    -0.237 OA
ATOM     93  O   UNL A   1      34.725  31.701  28.887  1.00  0.00    -0.237 OA
ATOM     94  O   UNL A   1      34.203  32.864  30.981  1.00  0.00    -0.744 OA
ENDBRANCH  88  91
ENDBRANCH  60  84
BRANCH  72  95
ATOM     95  C   UNL A   1      44.617  33.895  29.574  1.00  0.00     0.023 A 
ATOM     96  C   UNL A   1      45.237  34.208  30.800  1.00  0.00     0.012 A 
ATOM     97  C   UNL A   1      44.516  34.884  28.576  1.00  0.00     0.148 A 
ATOM     98  C   UNL A   1      45.725  35.492  31.038  1.00  0.00     0.002 A 
ATOM     99  C   UNL A   1      45.046  36.148  28.803  1.00  0.00     0.091 A 
ATOM    100  F   UNL A   1      43.904  34.572  27.425  1.00  0.00    -0.205 F 
ATOM    101  C   UNL A   1      45.642  36.457  30.037  1.00  0.00     0.022 A 
BRANCH  99 102
ATOM    102  S   UNL A   1      45.070  37.424  27.537  1.00  0.00     0.127 S 
ATOM    103  O   UNL A   1      45.886  36.798  26.498  1.00  0.00    -0.237 OA
ATOM    104  O   UNL A   1      43.652  37.556  27.202  1.00  0.00    -0.237 OA
ATOM    105  O   UNL A   1      45.653  38.601  28.167  1.00  0.00    -0.744 OA
ENDBRANCH  99 102
ENDBRANCH  72  95
ENDBRANCH  46  47
ENDBRANCH  38  41
ENDBRANCH  36  37
ENDBRANCH  35  36
ENDBRANCH   1  35
TORSDOF 19
ENDMDL
MODEL 2
REMARK VINA RESULT:     -11.8      5.509     10.514
REMARK SMILES CC(=O)N[C@H]1[C@@H](O[C@H](C)C(=O)NCCCCNC(=O)c2ccc(-c3c4nc(c(-c5cccc(S(=O)(=O)[O-])c5F)c5ccc([nH]5)c(-c5cccc(S(=O)(=O)[O-])c5F)c5nc(c(-c6cccc(S(=O)(=O)[O-])c6F)c6ccc3[nH]6)C=C5)C=C4)cc2)[C@H]2OC(C)(C)OC[C@@H]2O[C@H]1Sc1ccc(Cl)cc1
REMARK SMILES IDX 14 1 13 2 12 3 10 4 11 5 8 7 9 8 7 9 6 10 5 11 92 12 83 13
REMARK SMILES IDX 91 14 84 15 90 16 85 17 89 18 86 19 87 20 88 21 4 22 1 23
REMARK SMILES IDX 2 24 3 25 93 27 94 28 95 29 100 30 96 31 99 32 97 33 98 34
REMARK SMILES IDX 15 35 16 36 17 37 18 38 19 40 20 41 21 42 82 43 22 44 81 45
REMARK SMILES IDX 23 46 24 47 25 48 75 49 26 50 80 51 74 52 76 53 27 54 79 55
REMARK SMILES IDX 73 56 72 57 28 59 60 60 40 61 59 62 41 63 44 64 58 65 77 66
REMARK SMILES IDX 42 67 43 68 57 70 78 71 45 72 29 73 30 74 38 75 31 76 33 77
REMARK SMILES IDX 39 78 32 79 34 80 35 81 36 82 37 83 61 84 62 85 70 86 63 87
REMARK SMILES IDX 65 88 71 89 64 90 66 91 67 92 68 93 69 94 46 95 47 96 55 97
REMARK SMILES IDX 48 98 50 99 56 100 49 101 51 102 52 103 53 104 54 105
REMARK H PARENT 12 6 4 26 17 39 76 58 44 69
REMARK Flexibility Score: inf
ROOT
ATOM      1  C   UNL A   1      33.146  27.767  24.212  1.00  0.00     0.023 C 
ENDROOT
BRANCH   1   2
ATOM      2  C   UNL A   1      32.184  27.395  23.082  1.00  0.00     0.116 C 
BRANCH   2   3
ATOM      3  N   UNL A   1      32.709  26.537  22.048  1.00  0.00    -0.354 N 
ATOM      4  C   UNL A   1      32.648  25.171  21.994  1.00  0.00     0.248 C 
ATOM      5  O   UNL A   1      32.927  24.627  20.917  1.00  0.00    -0.272 OA
ATOM      6  H   UNL A   1      33.163  26.985  21.298  1.00  0.00     0.163 HD
BRANCH   4   7
ATOM      7  C   UNL A   1      32.291  24.253  23.228  1.00  0.00     0.204 C 
ATOM      8  C   UNL A   1      30.823  23.850  23.037  1.00  0.00     0.049 C 
BRANCH   7   9
ATOM      9  O   UNL A   1      33.007  23.094  23.669  1.00  0.00    -0.360 OA
BRANCH   9  10
ATOM     10  C   UNL A   1      32.452  22.318  24.752  1.00  0.00     0.177 C 
ATOM     11  C   UNL A   1      33.001  22.873  26.079  1.00  0.00     0.153 C 
ATOM     12  C   UNL A   1      34.525  22.500  26.192  1.00  0.00     0.206 C 
ATOM     13  C   UNL A   1      32.778  20.751  24.760  1.00  0.00     0.184 C 
ATOM     14  O   UNL A   1      34.567  21.074  26.436  1.00  0.00    -0.356 OA
ATOM     15  O   UNL A   1      32.524  20.095  23.513  1.00  0.00    -0.342 OA
ATOM     16  C   UNL A   1      34.194  20.394  25.260  1.00  0.00     0.177 C 
ATOM     17  C   UNL A   1      32.850  18.687  23.501  1.00  0.00     0.163 C 
ATOM     18  C   UNL A   1      34.305  18.891  25.389  1.00  0.00     0.198 C 
ATOM     19  C   UNL A   1      32.992  18.306  22.024  1.00  0.00     0.075 C 
ATOM     20  C   UNL A   1      31.754  17.829  24.136  1.00  0.00     0.075 C 
ATOM     21  O   UNL A   1      34.113  18.350  24.087  1.00  0.00    -0.348 OA
BRANCH  11  22
ATOM     22  N   UNL A   1      32.456  24.206  26.365  1.00  0.00    -0.347 N 
ATOM     23  C   UNL A   1      30.067  23.820  26.885  1.00  0.00     0.114 C 
ATOM     24  C   UNL A   1      31.201  24.702  26.494  1.00  0.00     0.217 C 
ATOM     25  O   UNL A   1      31.035  25.905  26.296  1.00  0.00    -0.275 OA
ATOM     26  H   UNL A   1      33.154  24.889  26.491  1.00  0.00     0.163 HD
ENDBRANCH  11  22
BRANCH  12  27
ATOM     27  S   UNL A   1      36.037  23.031  25.142  1.00  0.00    -0.092 SA
BRANCH  27  28
ATOM     28  C   UNL A   1      37.710  22.653  25.712  1.00  0.00     0.010 A 
ATOM     29  C   UNL A   1      38.645  23.423  26.410  1.00  0.00     0.016 A 
ATOM     30  C   UNL A   1      38.158  21.366  25.347  1.00  0.00     0.016 A 
ATOM     31  C   UNL A   1      39.919  22.951  26.770  1.00  0.00     0.021 A 
ATOM     32  C   UNL A   1      39.423  20.869  25.712  1.00  0.00     0.021 A 
ATOM     33  C   UNL A   1      40.301  21.668  26.429  1.00  0.00     0.041 A 
ATOM     34  Cl  UNL A   1      41.844  21.078  26.899  1.00  0.00    -0.084 Cl
ENDBRANCH  27  28
ENDBRANCH  12  27
ENDBRANCH   9  10
ENDBRANCH   7   9
ENDBRANCH   4   7
ENDBRANCH   2   3
ENDBRANCH   1   2
BRANCH   1  35
ATOM     35  C   UNL A   1      33.073  29.222  24.703  1.00  0.00     0.023 C 
BRANCH  35  36
ATOM     36  C   UNL A   1      33.460  29.497  26.161  1.00  0.00     0.116 C 
BRANCH  36  37
ATOM     37  N   UNL A   1      33.170  30.841  26.637  1.00  0.00    -0.352 N 
ATOM     38  C   UNL A   1      33.898  31.638  27.495  1.00  0.00     0.251 C 
ATOM     39  H   UNL A   1      32.335  31.238  26.299  1.00  0.00     0.163 HD
ATOM     40  O   UNL A   1      33.492  32.758  27.790  1.00  0.00    -0.269 OA
BRANCH  38  41
ATOM     41  C   UNL A   1      35.145  31.120  28.102  1.00  0.00     0.039 A 
ATOM     42  C   UNL A   1      36.260  31.961  28.165  1.00  0.00     0.014 A 
ATOM     43  C   UNL A   1      35.203  29.834  28.645  1.00  0.00     0.014 A 
ATOM     44  C   UNL A   1      37.401  31.549  28.860  1.00  0.00     0.010 A 
ATOM     45  C   UNL A   1      36.319  29.450  29.388  1.00  0.00     0.010 A 
ATOM     46  C   UNL A   1      37.423  30.310  29.520  1.00  0.00    -0.014 A 
BRANCH  46  47
ATOM     47  C   UNL A   1      38.566  29.910  30.386  1.00  0.00     0.031 A 
ATOM     48  C   UNL A   1      38.746  30.531  31.745  1.00  0.00     0.074 A 
ATOM     49  C   UNL A   1      39.501  29.064  29.909  1.00  0.00     0.049 A 
ATOM     50  N   UNL A   1      39.729  30.386  32.594  1.00  0.00    -0.248 NA
ATOM     51  C   UNL A   1      37.694  31.457  32.196  1.00  0.00     0.031 C 
ATOM     52  C   UNL A   1      39.484  28.442  28.582  1.00  0.00     0.029 A 
ATOM     53  N   UNL A   1      40.668  28.603  30.471  1.00  0.00    -0.354 N 
ATOM     54  C   UNL A   1      39.438  31.228  33.662  1.00  0.00     0.074 A 
ATOM     55  C   UNL A   1      38.198  31.902  33.338  1.00  0.00     0.031 C 
ATOM     56  C   UNL A   1      40.584  27.687  28.434  1.00  0.00     0.029 A 
ATOM     57  C   UNL A   1      41.402  27.791  29.638  1.00  0.00     0.049 A 
ATOM     58  H   UNL A   1      40.951  28.833  31.386  1.00  0.00     0.167 HD
ATOM     59  C   UNL A   1      40.123  31.405  34.817  1.00  0.00     0.034 A 
ATOM     60  C   UNL A   1      42.603  27.204  29.817  1.00  0.00     0.034 A 
ATOM     61  C   UNL A   1      41.328  30.700  35.160  1.00  0.00     0.049 A 
ATOM     62  C   UNL A   1      43.323  27.388  31.126  1.00  0.00     0.074 A 
ATOM     63  C   UNL A   1      42.052  30.756  36.338  1.00  0.00     0.029 A 
ATOM     64  N   UNL A   1      41.989  29.809  34.328  1.00  0.00    -0.354 N 
ATOM     65  N   UNL A   1      42.956  28.076  32.180  1.00  0.00    -0.248 NA
ATOM     66  C   UNL A   1      44.606  26.686  31.285  1.00  0.00     0.031 C 
ATOM     67  C   UNL A   1      43.158  29.908  36.214  1.00  0.00     0.029 A 
ATOM     68  C   UNL A   1      43.111  29.309  34.966  1.00  0.00     0.049 A 
ATOM     69  H   UNL A   1      41.702  29.569  33.418  1.00  0.00     0.167 HD
ATOM     70  C   UNL A   1      43.937  27.854  33.141  1.00  0.00     0.074 A 
ATOM     71  C   UNL A   1      44.907  26.956  32.549  1.00  0.00     0.031 C 
ATOM     72  C   UNL A   1      44.030  28.359  34.395  1.00  0.00     0.034 A 
BRANCH  59  73
ATOM     73  C   UNL A   1      39.547  32.360  35.830  1.00  0.00     0.023 A 
ATOM     74  C   UNL A   1      38.572  31.899  36.737  1.00  0.00     0.012 A 
ATOM     75  C   UNL A   1      40.010  33.687  35.928  1.00  0.00     0.148 A 
ATOM     76  C   UNL A   1      38.038  32.752  37.703  1.00  0.00     0.002 A 
ATOM     77  C   UNL A   1      39.505  34.519  36.921  1.00  0.00     0.091 A 
ATOM     78  F   UNL A   1      40.924  34.113  35.045  1.00  0.00    -0.205 F 
ATOM     79  C   UNL A   1      38.512  34.057  37.801  1.00  0.00     0.022 A 
BRANCH  77  80
ATOM     80  S   UNL A   1      40.104  36.193  37.179  1.00  0.00     0.127 S 
ATOM     81  O   UNL A   1      39.785  36.821  35.897  1.00  0.00    -0.237 OA
ATOM     82  O   UNL A   1      39.281  36.646  38.301  1.00  0.00    -0.237 OA
ATOM     83  O   UNL A   1      41.523  36.070  37.479  1.00  0.00    -0.744 OA
ENDBRANCH  77  80
ENDBRANCH  59  73
BRANCH  60  84
ATOM     84  C   UNL A   1      43.172  26.323  28.756  1.00  0.00     0.023 A 
ATOM     85  C   UNL A   1      42.777  24.971  28.700  1.00  0.00     0.012 A 
ATOM     86  C   UNL A   1      44.082  26.811  27.799  1.00  0.00     0.148 A 
ATOM     87  C   UNL A   1      43.304  24.113  27.736  1.00  0.00     0.002 A 
ATOM     88  C   UNL A   1      44.564  25.963  26.807  1.00  0.00     0.091 A 
ATOM     89  F   UNL A   1      44.457  28.095  27.876  1.00  0.00    -0.205 F 
ATOM     90  C   UNL A   1      44.190  24.610  26.784  1.00  0.00     0.022 A 
BRANCH  88  91
ATOM     91  S   UNL A   1      45.607  26.548  25.467  1.00  0.00     0.127 S 
ATOM     92  O   UNL A   1      44.747  27.541  24.830  1.00  0.00    -0.237 OA
ATOM     93  O   UNL A   1      46.752  27.098  26.192  1.00  0.00    -0.237 OA
ATOM     94  O   UNL A   1      45.916  25.367  24.671  1.00  0.00    -0.744 OA
ENDBRANCH  88  91
ENDBRANCH  60  84
BRANCH  72  95
ATOM     95  C   UNL A   1      45.193  27.919  35.247  1.00  0.00     0.023 A 
ATOM     96  C   UNL A   1      46.389  28.662  35.241  1.00  0.00     0.012 A 
ATOM     97  C   UNL A   1      45.063  26.820  36.119  1.00  0.00     0.148 A 
ATOM     98  C   UNL A   1      47.450  28.302  36.073  1.00  0.00     0.002 A 
ATOM     99  C   UNL A   1      46.106  26.496  36.979  1.00  0.00     0.091 A 
ATOM    100  F   UNL A   1      43.923  26.114  36.095  1.00  0.00    -0.205 F 
ATOM    101  C   UNL A   1      47.303  27.229  36.949  1.00  0.00     0.022 A 
BRANCH  99 102
ATOM    102  S   UNL A   1      45.971  25.192  38.207  1.00  0.00     0.127 S 
ATOM    103  O   UNL A   1      44.971  25.743  39.120  1.00  0.00    -0.237 OA
ATOM    104  O   UNL A   1      45.507  24.057  37.407  1.00  0.00    -0.237 OA
ATOM    105  O   UNL A   1      47.307  25.029  38.766  1.00  0.00    -0.744 OA
ENDBRANCH  99 102
ENDBRANCH  72  95
ENDBRANCH  46  47
ENDBRANCH  38  41
ENDBRANCH  36  37
ENDBRANCH  35  36
ENDBRANCH   1  35
TORSDOF 19
ENDMDL
MODEL 3
REMARK VINA RESULT:     -11.4      2.318      8.003
REMARK SMILES CC(=O)N[C@H]1[C@@H](O[C@H](C)C(=O)NCCCCNC(=O)c2ccc(-c3c4nc(c(-c5cccc(S(=O)(=O)[O-])c5F)c5ccc([nH]5)c(-c5cccc(S(=O)(=O)[O-])c5F)c5nc(c(-c6cccc(S(=O)(=O)[O-])c6F)c6ccc3[nH]6)C=C5)C=C4)cc2)[C@H]2OC(C)(C)OC[C@@H]2O[C@H]1Sc1ccc(Cl)cc1
REMARK SMILES IDX 14 1 13 2 12 3 10 4 11 5 8 7 9 8 7 9 6 10 5 11 92 12 83 13
REMARK SMILES IDX 91 14 84 15 90 16 85 17 89 18 86 19 87 20 88 21 4 22 1 23
REMARK SMILES IDX 2 24 3 25 93 27 94 28 95 29 100 30 96 31 99 32 97 33 98 34
REMARK SMILES IDX 15 35 16 36 17 37 18 38 19 40 20 41 21 42 82 43 22 44 81 45
REMARK SMILES IDX 23 46 24 47 25 48 75 49 26 50 80 51 74 52 76 53 27 54 79 55
REMARK SMILES IDX 73 56 72 57 28 59 60 60 40 61 59 62 41 63 44 64 58 65 77 66
REMARK SMILES IDX 42 67 43 68 57 70 78 71 45 72 29 73 30 74 38 75 31 76 33 77
REMARK SMILES IDX 39 78 32 79 34 80 35 81 36 82 37 83 61 84 62 85 70 86 63 87
REMARK SMILES IDX 65 88 71 89 64 90 66 91 67 92 68 93 69 94 46 95 47 96 55 97
REMARK SMILES IDX 48 98 50 99 56 100 49 101 51 102 52 103 53 104 54 105
REMARK H PARENT 12 6 4 26 17 39 76 58 44 69
REMARK Flexibility Score: inf
ROOT
ATOM      1  C   UNL A   1      35.276  24.565  25.743  1.00  0.00     0.023 C 
ENDROOT
BRANCH   1   2
ATOM      2  C   UNL A   1      34.699  25.585  24.758  1.00  0.00     0.116 C 
BRANCH   2   3
ATOM      3  N   UNL A   1      34.597  26.945  25.228  1.00  0.00    -0.354 N 
ATOM      4  C   UNL A   1      33.813  27.413  26.249  1.00  0.00     0.248 C 
ATOM      5  O   UNL A   1      34.043  28.553  26.671  1.00  0.00    -0.272 OA
ATOM      6  H   UNL A   1      35.152  27.611  24.762  1.00  0.00     0.163 HD
BRANCH   4   7
ATOM      7  C   UNL A   1      32.612  26.606  26.882  1.00  0.00     0.204 C 
ATOM      8  C   UNL A   1      31.596  27.661  27.339  1.00  0.00     0.049 C 
BRANCH   7   9
ATOM      9  O   UNL A   1      31.883  25.536  26.271  1.00  0.00    -0.360 OA
BRANCH   9  10
ATOM     10  C   UNL A   1      30.677  25.855  25.546  1.00  0.00     0.177 C 
ATOM     11  C   UNL A   1      29.900  24.549  25.296  1.00  0.00     0.153 C 
ATOM     12  C   UNL A   1      30.677  23.694  24.228  1.00  0.00     0.206 C 
ATOM     13  C   UNL A   1      30.856  26.543  24.113  1.00  0.00     0.184 C 
ATOM     14  O   UNL A   1      30.500  24.382  22.966  1.00  0.00    -0.356 OA
ATOM     15  O   UNL A   1      31.736  27.673  24.113  1.00  0.00    -0.342 OA
ATOM     16  C   UNL A   1      31.254  25.573  22.980  1.00  0.00     0.177 C 
ATOM     17  C   UNL A   1      31.931  28.280  22.816  1.00  0.00     0.163 C 
ATOM     18  C   UNL A   1      31.210  26.312  21.662  1.00  0.00     0.198 C 
ATOM     19  C   UNL A   1      33.225  29.092  22.928  1.00  0.00     0.075 C 
ATOM     20  C   UNL A   1      30.785  29.216  22.431  1.00  0.00     0.075 C 
ATOM     21  O   UNL A   1      32.170  27.360  21.745  1.00  0.00    -0.348 OA
BRANCH  11  22
ATOM     22  N   UNL A   1      29.356  24.005  26.546  1.00  0.00    -0.347 N 
ATOM     23  C   UNL A   1      31.121  22.498  27.406  1.00  0.00     0.114 C 
ATOM     24  C   UNL A   1      29.714  22.984  27.363  1.00  0.00     0.217 C 
ATOM     25  O   UNL A   1      28.845  22.488  28.078  1.00  0.00    -0.275 OA
ATOM     26  H   UNL A   1      28.557  24.487  26.861  1.00  0.00     0.163 HD
ENDBRANCH  11  22
BRANCH  12  27
ATOM     27  S   UNL A   1      32.402  22.863  24.286  1.00  0.00    -0.092 SA
BRANCH  27  28
ATOM     28  C   UNL A   1      32.562  21.091  23.964  1.00  0.00     0.010 A 
ATOM     29  C   UNL A   1      32.163  20.310  22.876  1.00  0.00     0.016 A 
ATOM     30  C   UNL A   1      33.156  20.372  25.022  1.00  0.00     0.016 A 
ATOM     31  C   UNL A   1      32.373  18.922  22.803  1.00  0.00     0.021 A 
ATOM     32  C   UNL A   1      33.390  18.986  24.962  1.00  0.00     0.021 A 
ATOM     33  C   UNL A   1      32.998  18.265  23.844  1.00  0.00     0.041 A 
ATOM     34  Cl  UNL A   1      33.288  16.574  23.742  1.00  0.00    -0.084 Cl
ENDBRANCH  27  28
ENDBRANCH  12  27
ENDBRANCH   9  10
ENDBRANCH   7   9
ENDBRANCH   4   7
ENDBRANCH   2   3
ENDBRANCH   1   2
BRANCH   1  35
ATOM     35  C   UNL A   1      35.655  23.199  25.149  1.00  0.00     0.023 C 
BRANCH  35  36
ATOM     36  C   UNL A   1      36.092  22.100  26.124  1.00  0.00     0.116 C 
BRANCH  36  37
ATOM     37  N   UNL A   1      37.141  21.218  25.636  1.00  0.00    -0.352 N 
ATOM     38  C   UNL A   1      38.509  21.346  25.747  1.00  0.00     0.251 C 
ATOM     39  H   UNL A   1      36.830  20.415  25.157  1.00  0.00     0.163 HD
ATOM     40  O   UNL A   1      39.250  20.493  25.265  1.00  0.00    -0.269 OA
BRANCH  38  41
ATOM     41  C   UNL A   1      39.087  22.540  26.403  1.00  0.00     0.039 A 
ATOM     42  C   UNL A   1      40.107  22.363  27.342  1.00  0.00     0.014 A 
ATOM     43  C   UNL A   1      38.658  23.826  26.066  1.00  0.00     0.014 A 
ATOM     44  C   UNL A   1      40.768  23.478  27.867  1.00  0.00     0.010 A 
ATOM     45  C   UNL A   1      39.358  24.933  26.546  1.00  0.00     0.010 A 
ATOM     46  C   UNL A   1      40.432  24.772  27.437  1.00  0.00    -0.014 A 
BRANCH  46  47
ATOM     47  C   UNL A   1      41.214  25.962  27.870  1.00  0.00     0.031 A 
ATOM     48  C   UNL A   1      40.555  27.058  28.663  1.00  0.00     0.074 A 
ATOM     49  C   UNL A   1      42.491  26.107  27.462  1.00  0.00     0.049 A 
ATOM     50  N   UNL A   1      41.044  28.211  29.040  1.00  0.00    -0.248 NA
ATOM     51  C   UNL A   1      39.155  26.840  29.063  1.00  0.00     0.031 C 
ATOM     52  C   UNL A   1      43.229  25.151  26.631  1.00  0.00     0.029 A 
ATOM     53  N   UNL A   1      43.388  27.130  27.660  1.00  0.00    -0.354 N 
ATOM     54  C   UNL A   1      40.005  28.873  29.685  1.00  0.00     0.074 A 
ATOM     55  C   UNL A   1      38.851  28.001  29.624  1.00  0.00     0.031 C 
ATOM     56  C   UNL A   1      44.460  25.632  26.393  1.00  0.00     0.029 A 
ATOM     57  C   UNL A   1      44.593  26.942  27.023  1.00  0.00     0.049 A 
ATOM     58  H   UNL A   1      43.186  27.922  28.209  1.00  0.00     0.167 HD
ATOM     59  C   UNL A   1      40.016  30.081  30.298  1.00  0.00     0.034 A 
ATOM     60  C   UNL A   1      45.679  27.737  26.945  1.00  0.00     0.034 A 
ATOM     61  C   UNL A   1      41.175  30.925  30.402  1.00  0.00     0.049 A 
ATOM     62  C   UNL A   1      45.676  29.058  27.667  1.00  0.00     0.074 A 
ATOM     63  C   UNL A   1      41.304  32.131  31.067  1.00  0.00     0.029 A 
ATOM     64  N   UNL A   1      42.407  30.654  29.827  1.00  0.00    -0.354 N 
ATOM     65  N   UNL A   1      44.729  29.599  28.395  1.00  0.00    -0.248 NA
ATOM     66  C   UNL A   1      46.904  29.863  27.589  1.00  0.00     0.031 C 
ATOM     67  C   UNL A   1      42.611  32.597  30.884  1.00  0.00     0.029 A 
ATOM     68  C   UNL A   1      43.301  31.669  30.122  1.00  0.00     0.049 A 
ATOM     69  H   UNL A   1      42.615  29.857  29.288  1.00  0.00     0.167 HD
ATOM     70  C   UNL A   1      45.261  30.782  28.896  1.00  0.00     0.074 A 
ATOM     71  C   UNL A   1      46.619  30.873  28.401  1.00  0.00     0.031 C 
ATOM     72  C   UNL A   1      44.673  31.713  29.685  1.00  0.00     0.034 A 
BRANCH  59  73
ATOM     73  C   UNL A   1      38.744  30.538  30.963  1.00  0.00     0.023 A 
ATOM     74  C   UNL A   1      38.585  30.351  32.351  1.00  0.00     0.012 A 
ATOM     75  C   UNL A   1      37.738  31.203  30.235  1.00  0.00     0.148 A 
ATOM     76  C   UNL A   1      37.430  30.785  33.000  1.00  0.00     0.002 A 
ATOM     77  C   UNL A   1      36.609  31.673  30.897  1.00  0.00     0.091 A 
ATOM     78  F   UNL A   1      37.898  31.355  28.913  1.00  0.00    -0.205 F 
ATOM     79  C   UNL A   1      36.448  31.455  32.275  1.00  0.00     0.022 A 
BRANCH  77  80
ATOM     80  S   UNL A   1      35.322  32.613  30.067  1.00  0.00     0.127 S 
ATOM     81  O   UNL A   1      34.837  31.645  29.084  1.00  0.00    -0.237 OA
ATOM     82  O   UNL A   1      34.389  32.891  31.160  1.00  0.00    -0.237 OA
ATOM     83  O   UNL A   1      35.977  33.791  29.517  1.00  0.00    -0.744 OA
ENDBRANCH  77  80
ENDBRANCH  59  73
BRANCH  60  84
ATOM     84  C   UNL A   1      46.894  27.276  26.213  1.00  0.00     0.023 A 
ATOM     85  C   UNL A   1      47.799  26.410  26.859  1.00  0.00     0.012 A 
ATOM     86  C   UNL A   1      47.154  27.672  24.887  1.00  0.00     0.148 A 
ATOM     87  C   UNL A   1      48.956  25.976  26.213  1.00  0.00     0.002 A 
ATOM     88  C   UNL A   1      48.282  27.193  24.230  1.00  0.00     0.091 A 
ATOM     89  F   UNL A   1      46.290  28.507  24.293  1.00  0.00    -0.205 F 
ATOM     90  C   UNL A   1      49.193  26.360  24.897  1.00  0.00     0.022 A 
BRANCH  88  91
ATOM     91  S   UNL A   1      48.600  27.532  22.495  1.00  0.00     0.127 S 
ATOM     92  O   UNL A   1      48.693  26.185  21.939  1.00  0.00    -0.237 OA
ATOM     93  O   UNL A   1      47.401  28.277  22.107  1.00  0.00    -0.237 OA
ATOM     94  O   UNL A   1      49.825  28.319  22.470  1.00  0.00    -0.744 OA
ENDBRANCH  88  91
ENDBRANCH  60  84
BRANCH  72  95
ATOM     95  C   UNL A   1      45.501  32.896  30.115  1.00  0.00     0.023 A 
ATOM     96  C   UNL A   1      46.277  32.821  31.288  1.00  0.00     0.012 A 
ATOM     97  C   UNL A   1      45.576  34.048  29.307  1.00  0.00     0.148 A 
ATOM     98  C   UNL A   1      47.097  33.886  31.664  1.00  0.00     0.002 A 
ATOM     99  C   UNL A   1      46.430  35.085  29.662  1.00  0.00     0.091 A 
ATOM    100  F   UNL A   1      44.814  34.108  28.205  1.00  0.00    -0.205 F 
ATOM    101  C   UNL A   1      47.183  35.010  30.846  1.00  0.00     0.022 A 
BRANCH  99 102
ATOM    102  S   UNL A   1      46.679  36.528  28.621  1.00  0.00     0.127 S 
ATOM    103  O   UNL A   1      47.372  37.438  29.531  1.00  0.00    -0.237 OA
ATOM    104  O   UNL A   1      47.509  35.993  27.542  1.00  0.00    -0.237 OA
ATOM    105  O   UNL A   1      45.348  36.953  28.204  1.00  0.00    -0.744 OA
ENDBRANCH  99 102
ENDBRANCH  72  95
ENDBRANCH  46  47
ENDBRANCH  38  41
ENDBRANCH  36  37
ENDBRANCH  35  36
ENDBRANCH   1  35
TORSDOF 19
ENDMDL
