MODEL 1
REMARK VINA RESULT:     -12.4      0.000      0.000
REMARK SMILES O=C(NCCCCNC(=O)[C@@H](c1ccsc1)[NH+]1CCC(Oc2cccnc2)CC1)c1ccc(-c2c3nc(c(-c4cccc(S(=O)(=O)[O-])c4F)c4ccc([nH]4)c(-c4cccc(S(=O)(=O)[O-])c4F)c4nc(c(-c5cccc(S(=O)(=O)[O-])c5F)c5ccc2[nH]5)C=C4)C=C3)cc1
REMARK SMILES IDX 5 1 4 2 3 3 1 4 2 5 30 7 31 8 92 9 32 10 91 11 33 12 34 13
REMARK SMILES IDX 35 14 85 15 36 16 90 17 84 18 86 19 37 20 89 21 83 22 82 23
REMARK SMILES IDX 38 25 70 26 50 27 69 28 51 29 54 30 68 31 87 32 52 33 53 34
REMARK SMILES IDX 67 36 88 37 55 38 39 39 40 40 48 41 41 42 43 43 49 44 42 45
REMARK SMILES IDX 44 46 45 47 46 48 47 49 71 50 72 51 80 52 73 53 75 54 81 55
REMARK SMILES IDX 74 56 76 57 77 58 78 59 79 60 56 61 57 62 65 63 58 64 60 65
REMARK SMILES IDX 66 66 59 67 61 68 62 69 63 70 64 71 6 72 7 73 8 74 9 75
REMARK SMILES IDX 10 77 11 78 12 79 13 80 16 81 14 82 15 83 17 84 18 85 29 86
REMARK SMILES IDX 19 88 28 89 20 90 21 91 22 92 23 93 27 94 24 95 26 96 25 97
REMARK H PARENT 3 6 86 24 54 35 8 76 17 87
REMARK Flexibility Score: inf
ROOT
ATOM      1  C   UNL A   1      31.708  29.378  26.632  1.00  0.00     0.023 C 
ENDROOT
BRANCH   1   2
ATOM      2  C   UNL A   1      32.677  30.428  26.101  1.00  0.00     0.116 C 
BRANCH   2   3
ATOM      3  N   UNL A   1      32.401  31.772  26.590  1.00  0.00    -0.352 N 
ATOM      4  O   UNL A   1      32.747  33.617  27.854  1.00  0.00    -0.269 OA
ATOM      5  C   UNL A   1      33.161  32.536  27.447  1.00  0.00     0.251 C 
ATOM      6  H   UNL A   1      31.568  32.186  26.267  1.00  0.00     0.163 HD
BRANCH   5   7
ATOM      7  C   UNL A   1      34.463  32.002  27.894  1.00  0.00     0.039 A 
ATOM      8  C   UNL A   1      34.560  30.671  28.306  1.00  0.00     0.014 A 
ATOM      9  C   UNL A   1      35.559  32.861  27.997  1.00  0.00     0.014 A 
ATOM     10  C   UNL A   1      35.695  30.250  28.985  1.00  0.00     0.010 A 
ATOM     11  C   UNL A   1      36.734  32.405  28.597  1.00  0.00     0.010 A 
ATOM     12  C   UNL A   1      36.795  31.112  29.143  1.00  0.00    -0.014 A 
BRANCH  12  13
ATOM     13  C   UNL A   1      38.000  30.621  29.858  1.00  0.00     0.031 A 
ATOM     14  C   UNL A   1      38.258  30.978  31.297  1.00  0.00     0.074 A 
ATOM     15  C   UNL A   1      38.856  29.817  29.196  1.00  0.00     0.049 A 
ATOM     16  N   UNL A   1      39.237  30.591  32.075  1.00  0.00    -0.248 NA
ATOM     17  C   UNL A   1      37.307  31.893  31.949  1.00  0.00     0.031 C 
ATOM     18  C   UNL A   1      38.728  29.434  27.788  1.00  0.00     0.029 A 
ATOM     19  N   UNL A   1      39.988  29.168  29.616  1.00  0.00    -0.354 N 
ATOM     20  C   UNL A   1      39.054  31.254  33.283  1.00  0.00     0.074 A 
ATOM     21  C   UNL A   1      37.866  32.068  33.139  1.00  0.00     0.031 C 
ATOM     22  C   UNL A   1      39.711  28.580  27.474  1.00  0.00     0.029 A 
ATOM     23  C   UNL A   1      40.570  28.396  28.638  1.00  0.00     0.049 A 
ATOM     24  H   UNL A   1      40.349  29.247  30.529  1.00  0.00     0.167 HD
ATOM     25  C   UNL A   1      39.800  31.182  34.412  1.00  0.00     0.034 A 
ATOM     26  C   UNL A   1      41.674  27.627  28.671  1.00  0.00     0.034 A 
ATOM     27  C   UNL A   1      40.944  30.323  34.569  1.00  0.00     0.049 A 
ATOM     28  C   UNL A   1      42.445  27.519  29.955  1.00  0.00     0.074 A 
ATOM     29  C   UNL A   1      41.724  30.124  35.696  1.00  0.00     0.029 A 
ATOM     30  N   UNL A   1      41.475  29.519  33.571  1.00  0.00    -0.354 N 
ATOM     31  N   UNL A   1      42.185  28.062  31.119  1.00  0.00    -0.248 NA
ATOM     32  C   UNL A   1      43.647  26.675  29.936  1.00  0.00     0.031 C 
ATOM     33  C   UNL A   1      42.730  29.206  35.377  1.00  0.00     0.029 A 
ATOM     34  C   UNL A   1      42.572  28.825  34.054  1.00  0.00     0.049 A 
ATOM     35  H   UNL A   1      41.124  29.452  32.655  1.00  0.00     0.167 HD
ATOM     36  C   UNL A   1      43.174  27.605  31.980  1.00  0.00     0.074 A 
ATOM     37  C   UNL A   1      44.024  26.721  31.206  1.00  0.00     0.031 C 
ATOM     38  C   UNL A   1      43.372  27.904  33.286  1.00  0.00     0.034 A 
BRANCH  25  39
ATOM     39  C   UNL A   1      39.382  32.026  35.589  1.00  0.00     0.023 A 
ATOM     40  C   UNL A   1      39.727  33.392  35.624  1.00  0.00     0.012 A 
ATOM     41  C   UNL A   1      38.595  31.486  36.625  1.00  0.00     0.148 A 
ATOM     42  C   UNL A   1      39.318  34.200  36.685  1.00  0.00     0.002 A 
ATOM     43  C   UNL A   1      38.159  32.307  37.661  1.00  0.00     0.091 A 
ATOM     44  F   UNL A   1      38.297  30.179  36.590  1.00  0.00    -0.205 F 
ATOM     45  C   UNL A   1      38.527  33.662  37.697  1.00  0.00     0.022 A 
BRANCH  43  46
ATOM     46  S   UNL A   1      37.075  31.711  38.964  1.00  0.00     0.127 S 
ATOM     47  O   UNL A   1      35.944  32.629  38.852  1.00  0.00    -0.237 OA
ATOM     48  O   UNL A   1      36.791  30.340  38.535  1.00  0.00    -0.237 OA
ATOM     49  O   UNL A   1      37.850  31.805  40.193  1.00  0.00    -0.744 OA
ENDBRANCH  43  46
ENDBRANCH  25  39
BRANCH  26  50
ATOM     50  C   UNL A   1      42.057  26.842  27.466  1.00  0.00     0.023 A 
ATOM     51  C   UNL A   1      42.769  27.476  26.429  1.00  0.00     0.012 A 
ATOM     52  C   UNL A   1      41.789  25.462  27.373  1.00  0.00     0.148 A 
ATOM     53  C   UNL A   1      43.193  26.754  25.314  1.00  0.00     0.002 A 
ATOM     54  C   UNL A   1      42.267  24.737  26.288  1.00  0.00     0.091 A 
ATOM     55  F   UNL A   1      41.094  24.881  28.360  1.00  0.00    -0.205 F 
ATOM     56  C   UNL A   1      42.956  25.383  25.250  1.00  0.00     0.022 A 
BRANCH  54  57
ATOM     57  S   UNL A   1      42.138  22.946  26.208  1.00  0.00     0.127 S 
ATOM     58  O   UNL A   1      42.771  22.658  24.924  1.00  0.00    -0.237 OA
ATOM     59  O   UNL A   1      42.907  22.532  27.383  1.00  0.00    -0.237 OA
ATOM     60  O   UNL A   1      40.713  22.657  26.298  1.00  0.00    -0.744 OA
ENDBRANCH  54  57
ENDBRANCH  26  50
BRANCH  38  61
ATOM     61  C   UNL A   1      44.539  27.251  33.975  1.00  0.00     0.023 A 
ATOM     62  C   UNL A   1      45.806  27.864  33.931  1.00  0.00     0.012 A 
ATOM     63  C   UNL A   1      44.369  26.062  34.711  1.00  0.00     0.148 A 
ATOM     64  C   UNL A   1      46.895  27.288  34.584  1.00  0.00     0.002 A 
ATOM     65  C   UNL A   1      45.449  25.517  35.394  1.00  0.00     0.091 A 
ATOM     66  F   UNL A   1      43.161  25.479  34.718  1.00  0.00    -0.205 F 
ATOM     67  C   UNL A   1      46.715  26.121  35.324  1.00  0.00     0.022 A 
BRANCH  65  68
ATOM     68  S   UNL A   1      45.273  24.067  36.439  1.00  0.00     0.127 S 
ATOM     69  O   UNL A   1      46.661  23.784  36.797  1.00  0.00    -0.237 OA
ATOM     70  O   UNL A   1      44.450  24.568  37.542  1.00  0.00    -0.237 OA
ATOM     71  O   UNL A   1      44.614  23.064  35.611  1.00  0.00    -0.744 OA
ENDBRANCH  65  68
ENDBRANCH  38  61
ENDBRANCH  12  13
ENDBRANCH   5   7
ENDBRANCH   2   3
ENDBRANCH   1   2
BRANCH   1  72
ATOM     72  C   UNL A   1      32.366  28.200  27.346  1.00  0.00     0.023 C 
BRANCH  72  73
ATOM     73  C   UNL A   1      32.212  26.868  26.619  1.00  0.00     0.116 C 
BRANCH  73  74
ATOM     74  N   UNL A   1      30.907  26.282  26.852  1.00  0.00    -0.351 N 
ATOM     75  C   UNL A   1      30.175  25.432  26.073  1.00  0.00     0.283 C 
ATOM     76  H   UNL A   1      30.484  26.535  27.704  1.00  0.00     0.163 HD
ATOM     77  O   UNL A   1      29.097  25.037  26.539  1.00  0.00    -0.268 OA
BRANCH  75  78
ATOM     78  C   UNL A   1      30.627  24.958  24.660  1.00  0.00     0.306 C 
BRANCH  78  79
ATOM     79  C   UNL A   1      30.953  26.178  23.803  1.00  0.00     0.030 A 
ATOM     80  C   UNL A   1      32.219  26.510  23.203  1.00  0.00     0.022 A 
ATOM     81  C   UNL A   1      30.027  27.166  23.506  1.00  0.00     0.075 A 
ATOM     82  C   UNL A   1      32.223  27.740  22.584  1.00  0.00     0.065 A 
ATOM     83  S   UNL A   1      30.682  28.469  22.615  1.00  0.00    -0.152 S 
ENDBRANCH  78  79
BRANCH  78  84
ATOM     84  N   UNL A   1      31.735  23.953  24.656  1.00  0.00    -0.321 N 
ATOM     85  C   UNL A   1      31.773  23.159  25.902  1.00  0.00     0.267 C 
ATOM     86  C   UNL A   1      31.591  23.029  23.510  1.00  0.00     0.267 C 
ATOM     87  H   UNL A   1      32.607  24.478  24.581  1.00  0.00     0.349 HD
ATOM     88  C   UNL A   1      33.029  22.291  25.913  1.00  0.00     0.107 C 
ATOM     89  C   UNL A   1      32.787  22.081  23.406  1.00  0.00     0.107 C 
ATOM     90  C   UNL A   1      33.032  21.336  24.724  1.00  0.00     0.184 C 
BRANCH  90  91
ATOM     91  O   UNL A   1      34.163  20.442  24.743  1.00  0.00    -0.488 OA
BRANCH  91  92
ATOM     92  C   UNL A   1      33.872  19.111  24.796  1.00  0.00     0.138 A 
ATOM     93  C   UNL A   1      32.615  18.645  25.157  1.00  0.00     0.050 A 
ATOM     94  C   UNL A   1      34.823  18.185  24.390  1.00  0.00     0.157 A 
ATOM     95  C   UNL A   1      32.379  17.273  25.177  1.00  0.00     0.024 A 
ATOM     96  N   UNL A   1      34.626  16.844  24.396  1.00  0.00    -0.261 NA
ATOM     97  C   UNL A   1      33.407  16.422  24.798  1.00  0.00     0.111 A 
ENDBRANCH  91  92
ENDBRANCH  90  91
ENDBRANCH  78  84
ENDBRANCH  75  78
ENDBRANCH  73  74
ENDBRANCH  72  73
ENDBRANCH   1  72
TORSDOF 18
ENDMDL
MODEL 2
REMARK VINA RESULT:     -12.4      1.961      4.509
REMARK SMILES O=C(NCCCCNC(=O)[C@@H](c1ccsc1)[NH+]1CCC(Oc2cccnc2)CC1)c1ccc(-c2c3nc(c(-c4cccc(S(=O)(=O)[O-])c4F)c4ccc([nH]4)c(-c4cccc(S(=O)(=O)[O-])c4F)c4nc(c(-c5cccc(S(=O)(=O)[O-])c5F)c5ccc2[nH]5)C=C4)C=C3)cc1
REMARK SMILES IDX 5 1 4 2 3 3 1 4 2 5 30 7 31 8 92 9 32 10 91 11 33 12 34 13
REMARK SMILES IDX 35 14 85 15 36 16 90 17 84 18 86 19 37 20 89 21 83 22 82 23
REMARK SMILES IDX 38 25 70 26 50 27 69 28 51 29 54 30 68 31 87 32 52 33 53 34
REMARK SMILES IDX 67 36 88 37 55 38 39 39 40 40 48 41 41 42 43 43 49 44 42 45
REMARK SMILES IDX 44 46 45 47 46 48 47 49 71 50 72 51 80 52 73 53 75 54 81 55
REMARK SMILES IDX 74 56 76 57 77 58 78 59 79 60 56 61 57 62 65 63 58 64 60 65
REMARK SMILES IDX 66 66 59 67 61 68 62 69 63 70 64 71 6 72 7 73 8 74 9 75
REMARK SMILES IDX 10 77 11 78 12 79 13 80 16 81 14 82 15 83 17 84 18 85 29 86
REMARK SMILES IDX 19 88 28 89 20 90 21 91 22 92 23 93 27 94 24 95 26 96 25 97
REMARK H PARENT 3 6 86 24 54 35 8 76 17 87
REMARK Flexibility Score: inf
ROOT
ATOM      1  C   UNL A   1      31.946  29.921  27.246  1.00  0.00     0.023 C 
ENDROOT
BRANCH   1   2
ATOM      2  C   UNL A   1      32.896  30.882  26.540  1.00  0.00     0.116 C 
BRANCH   2   3
ATOM      3  N   UNL A   1      32.777  32.259  27.002  1.00  0.00    -0.352 N 
ATOM      4  O   UNL A   1      33.363  34.091  28.194  1.00  0.00    -0.269 OA
ATOM      5  C   UNL A   1      33.649  32.964  27.801  1.00  0.00     0.251 C 
ATOM      6  H   UNL A   1      31.975  32.746  26.704  1.00  0.00     0.163 HD
BRANCH   5   7
ATOM      7  C   UNL A   1      34.912  32.315  28.204  1.00  0.00     0.039 A 
ATOM      8  C   UNL A   1      34.885  31.033  28.757  1.00  0.00     0.014 A 
ATOM      9  C   UNL A   1      36.108  33.031  28.122  1.00  0.00     0.014 A 
ATOM     10  C   UNL A   1      36.018  30.540  29.389  1.00  0.00     0.010 A 
ATOM     11  C   UNL A   1      37.269  32.490  28.679  1.00  0.00     0.010 A 
ATOM     12  C   UNL A   1      37.223  31.264  29.363  1.00  0.00    -0.014 A 
BRANCH  12  13
ATOM     13  C   UNL A   1      38.421  30.697  30.033  1.00  0.00     0.031 A 
ATOM     14  C   UNL A   1      38.775  31.067  31.448  1.00  0.00     0.074 A 
ATOM     15  C   UNL A   1      39.179  29.814  29.354  1.00  0.00     0.049 A 
ATOM     16  N   UNL A   1      39.757  30.622  32.191  1.00  0.00    -0.248 NA
ATOM     17  C   UNL A   1      37.929  32.068  32.119  1.00  0.00     0.031 C 
ATOM     18  C   UNL A   1      38.954  29.409  27.965  1.00  0.00     0.029 A 
ATOM     19  N   UNL A   1      40.277  29.088  29.738  1.00  0.00    -0.354 N 
ATOM     20  C   UNL A   1      39.685  31.326  33.387  1.00  0.00     0.074 A 
ATOM     21  C   UNL A   1      38.557  32.226  33.277  1.00  0.00     0.031 C 
ATOM     22  C   UNL A   1      39.852  28.474  27.629  1.00  0.00     0.029 A 
ATOM     23  C   UNL A   1      40.749  28.251  28.756  1.00  0.00     0.049 A 
ATOM     24  H   UNL A   1      40.686  29.160  30.631  1.00  0.00     0.167 HD
ATOM     25  C   UNL A   1      40.477  31.222  34.482  1.00  0.00     0.034 A 
ATOM     26  C   UNL A   1      41.792  27.399  28.758  1.00  0.00     0.034 A 
ATOM     27  C   UNL A   1      41.558  30.281  34.608  1.00  0.00     0.049 A 
ATOM     28  C   UNL A   1      42.614  27.261  30.006  1.00  0.00     0.074 A 
ATOM     29  C   UNL A   1      42.374  30.047  35.703  1.00  0.00     0.029 A 
ATOM     30  N   UNL A   1      41.976  29.414  33.609  1.00  0.00    -0.354 N 
ATOM     31  N   UNL A   1      42.453  27.850  31.166  1.00  0.00    -0.248 NA
ATOM     32  C   UNL A   1      43.744  26.326  29.955  1.00  0.00     0.031 C 
ATOM     33  C   UNL A   1      43.290  29.047  35.362  1.00  0.00     0.029 A 
ATOM     34  C   UNL A   1      43.039  28.648  34.059  1.00  0.00     0.049 A 
ATOM     35  H   UNL A   1      41.577  29.354  32.712  1.00  0.00     0.167 HD
ATOM     36  C   UNL A   1      43.444  27.337  31.993  1.00  0.00     0.074 A 
ATOM     37  C   UNL A   1      44.185  26.371  31.204  1.00  0.00     0.031 C 
ATOM     38  C   UNL A   1      43.728  27.650  33.280  1.00  0.00     0.034 A 
BRANCH  25  39
ATOM     39  C   UNL A   1      40.183  32.123  35.654  1.00  0.00     0.023 A 
ATOM     40  C   UNL A   1      40.930  33.305  35.829  1.00  0.00     0.012 A 
ATOM     41  C   UNL A   1      39.127  31.836  36.542  1.00  0.00     0.148 A 
ATOM     42  C   UNL A   1      40.649  34.173  36.884  1.00  0.00     0.002 A 
ATOM     43  C   UNL A   1      38.830  32.725  37.570  1.00  0.00     0.091 A 
ATOM     44  F   UNL A   1      38.443  30.694  36.378  1.00  0.00    -0.205 F 
ATOM     45  C   UNL A   1      39.594  33.889  37.748  1.00  0.00     0.022 A 
BRANCH  43  46
ATOM     46  S   UNL A   1      37.440  32.472  38.682  1.00  0.00     0.127 S 
ATOM     47  O   UNL A   1      37.794  33.343  39.801  1.00  0.00    -0.237 OA
ATOM     48  O   UNL A   1      36.307  32.940  37.881  1.00  0.00    -0.237 OA
ATOM     49  O   UNL A   1      37.422  31.045  38.969  1.00  0.00    -0.744 OA
ENDBRANCH  43  46
ENDBRANCH  25  39
BRANCH  26  50
ATOM     50  C   UNL A   1      42.054  26.559  27.557  1.00  0.00     0.023 A 
ATOM     51  C   UNL A   1      42.771  27.107  26.476  1.00  0.00     0.012 A 
ATOM     52  C   UNL A   1      41.667  25.205  27.510  1.00  0.00     0.148 A 
ATOM     53  C   UNL A   1      43.084  26.328  25.364  1.00  0.00     0.002 A 
ATOM     54  C   UNL A   1      42.035  24.419  26.425  1.00  0.00     0.091 A 
ATOM     55  F   UNL A   1      40.969  24.707  28.540  1.00  0.00    -0.205 F 
ATOM     56  C   UNL A   1      42.730  24.981  25.344  1.00  0.00     0.022 A 
BRANCH  54  57
ATOM     57  S   UNL A   1      41.752  22.644  26.395  1.00  0.00     0.127 S 
ATOM     58  O   UNL A   1      42.414  22.257  25.152  1.00  0.00    -0.237 OA
ATOM     59  O   UNL A   1      42.427  22.206  27.618  1.00  0.00    -0.237 OA
ATOM     60  O   UNL A   1      40.304  22.483  26.425  1.00  0.00    -0.744 OA
ENDBRANCH  54  57
ENDBRANCH  26  50
BRANCH  38  61
ATOM     61  C   UNL A   1      44.873  26.924  33.931  1.00  0.00     0.023 A 
ATOM     62  C   UNL A   1      46.154  27.510  33.940  1.00  0.00     0.012 A 
ATOM     63  C   UNL A   1      44.670  25.691  34.580  1.00  0.00     0.148 A 
ATOM     64  C   UNL A   1      47.223  26.865  34.560  1.00  0.00     0.002 A 
ATOM     65  C   UNL A   1      45.730  25.075  35.233  1.00  0.00     0.091 A 
ATOM     66  F   UNL A   1      43.449  25.137  34.537  1.00  0.00    -0.205 F 
ATOM     67  C   UNL A   1      47.010  25.653  35.216  1.00  0.00     0.022 A 
BRANCH  65  68
ATOM     68  S   UNL A   1      45.512  23.560  36.173  1.00  0.00     0.127 S 
ATOM     69  O   UNL A   1      46.848  22.972  36.110  1.00  0.00    -0.237 OA
ATOM     70  O   UNL A   1      45.127  24.058  37.494  1.00  0.00    -0.237 OA
ATOM     71  O   UNL A   1      44.461  22.820  35.485  1.00  0.00    -0.744 OA
ENDBRANCH  65  68
ENDBRANCH  38  61
ENDBRANCH  12  13
ENDBRANCH   5   7
ENDBRANCH   2   3
ENDBRANCH   1   2
BRANCH   1  72
ATOM     72  C   UNL A   1      31.704  28.604  26.512  1.00  0.00     0.023 C 
BRANCH  72  73
ATOM     73  C   UNL A   1      32.685  27.497  26.885  1.00  0.00     0.116 C 
BRANCH  73  74
ATOM     74  N   UNL A   1      32.003  26.241  27.125  1.00  0.00    -0.351 N 
ATOM     75  C   UNL A   1      31.704  25.225  26.262  1.00  0.00     0.283 C 
ATOM     76  H   UNL A   1      31.712  26.097  28.054  1.00  0.00     0.163 HD
ATOM     77  O   UNL A   1      31.153  24.226  26.745  1.00  0.00    -0.268 OA
BRANCH  75  78
ATOM     78  C   UNL A   1      32.015  25.275  24.736  1.00  0.00     0.306 C 
BRANCH  78  79
ATOM     79  C   UNL A   1      32.285  23.861  24.232  1.00  0.00     0.030 A 
ATOM     80  C   UNL A   1      31.495  23.102  23.298  1.00  0.00     0.022 A 
ATOM     81  C   UNL A   1      33.364  23.098  24.653  1.00  0.00     0.075 A 
ATOM     82  C   UNL A   1      31.939  21.809  23.133  1.00  0.00     0.065 A 
ATOM     83  S   UNL A   1      33.372  21.514  24.010  1.00  0.00    -0.152 S 
ENDBRANCH  78  79
BRANCH  78  84
ATOM     84  N   UNL A   1      30.992  25.985  23.907  1.00  0.00    -0.321 N 
ATOM     85  C   UNL A   1      29.755  26.265  24.666  1.00  0.00     0.267 C 
ATOM     86  C   UNL A   1      31.535  27.263  23.398  1.00  0.00     0.267 C 
ATOM     87  H   UNL A   1      30.761  25.363  23.132  1.00  0.00     0.349 HD
ATOM     88  C   UNL A   1      28.691  26.815  23.719  1.00  0.00     0.107 C 
ATOM     89  C   UNL A   1      30.556  27.939  22.436  1.00  0.00     0.107 C 
ATOM     90  C   UNL A   1      29.170  28.109  23.068  1.00  0.00     0.184 C 
BRANCH  90  91
ATOM     91  O   UNL A   1      28.161  28.705  22.228  1.00  0.00    -0.488 OA
BRANCH  91  92
ATOM     92  C   UNL A   1      28.148  30.066  22.183  1.00  0.00     0.138 A 
ATOM     93  C   UNL A   1      28.335  30.843  23.319  1.00  0.00     0.050 A 
ATOM     94  C   UNL A   1      28.038  30.712  20.959  1.00  0.00     0.157 A 
ATOM     95  C   UNL A   1      28.326  32.231  23.201  1.00  0.00     0.024 A 
ATOM     96  N   UNL A   1      28.026  32.058  20.810  1.00  0.00    -0.261 NA
ATOM     97  C   UNL A   1      28.163  32.785  21.940  1.00  0.00     0.111 A 
ENDBRANCH  91  92
ENDBRANCH  90  91
ENDBRANCH  78  84
ENDBRANCH  75  78
ENDBRANCH  73  74
ENDBRANCH  72  73
ENDBRANCH   1  72
TORSDOF 18
ENDMDL
MODEL 3
REMARK VINA RESULT:     -12.1      5.090     10.045
REMARK SMILES O=C(NCCCCNC(=O)[C@@H](c1ccsc1)[NH+]1CCC(Oc2cccnc2)CC1)c1ccc(-c2c3nc(c(-c4cccc(S(=O)(=O)[O-])c4F)c4ccc([nH]4)c(-c4cccc(S(=O)(=O)[O-])c4F)c4nc(c(-c5cccc(S(=O)(=O)[O-])c5F)c5ccc2[nH]5)C=C4)C=C3)cc1
REMARK SMILES IDX 5 1 4 2 3 3 1 4 2 5 30 7 31 8 92 9 32 10 91 11 33 12 34 13
REMARK SMILES IDX 35 14 85 15 36 16 90 17 84 18 86 19 37 20 89 21 83 22 82 23
REMARK SMILES IDX 38 25 70 26 50 27 69 28 51 29 54 30 68 31 87 32 52 33 53 34
REMARK SMILES IDX 67 36 88 37 55 38 39 39 40 40 48 41 41 42 43 43 49 44 42 45
REMARK SMILES IDX 44 46 45 47 46 48 47 49 71 50 72 51 80 52 73 53 75 54 81 55
REMARK SMILES IDX 74 56 76 57 77 58 78 59 79 60 56 61 57 62 65 63 58 64 60 65
REMARK SMILES IDX 66 66 59 67 61 68 62 69 63 70 64 71 6 72 7 73 8 74 9 75
REMARK SMILES IDX 10 77 11 78 12 79 13 80 16 81 14 82 15 83 17 84 18 85 29 86
REMARK SMILES IDX 19 88 28 89 20 90 21 91 22 92 23 93 27 94 24 95 26 96 25 97
REMARK H PARENT 3 6 86 24 54 35 8 76 17 87
REMARK Flexibility Score: inf
ROOT
ATOM      1  C   UNL A   1      36.713  21.277  24.600  1.00  0.00     0.023 C 
ENDROOT
BRANCH   1   2
ATOM      2  C   UNL A   1      37.647  21.555  25.772  1.00  0.00     0.116 C 
BRANCH   2   3
ATOM      3  N   UNL A   1      38.751  20.610  25.871  1.00  0.00    -0.352 N 
ATOM      4  O   UNL A   1      40.886  19.968  26.261  1.00  0.00    -0.269 OA
ATOM      5  C   UNL A   1      40.028  20.842  26.333  1.00  0.00     0.251 C 
ATOM      6  H   UNL A   1      38.562  19.691  25.572  1.00  0.00     0.163 HD
BRANCH   5   7
ATOM      7  C   UNL A   1      40.344  22.177  26.878  1.00  0.00     0.039 A 
ATOM      8  C   UNL A   1      39.877  23.319  26.224  1.00  0.00     0.014 A 
ATOM      9  C   UNL A   1      41.192  22.285  27.982  1.00  0.00     0.014 A 
ATOM     10  C   UNL A   1      40.399  24.559  26.563  1.00  0.00     0.010 A 
ATOM     11  C   UNL A   1      41.644  23.546  28.378  1.00  0.00     0.010 A 
ATOM     12  C   UNL A   1      41.293  24.688  27.640  1.00  0.00    -0.014 A 
BRANCH  12  13
ATOM     13  C   UNL A   1      41.818  26.034  27.987  1.00  0.00     0.031 A 
ATOM     14  C   UNL A   1      43.199  26.467  27.574  1.00  0.00     0.074 A 
ATOM     15  C   UNL A   1      41.016  26.882  28.661  1.00  0.00     0.049 A 
ATOM     16  N   UNL A   1      43.784  27.623  27.756  1.00  0.00    -0.248 NA
ATOM     17  C   UNL A   1      44.038  25.478  26.876  1.00  0.00     0.031 C 
ATOM     18  C   UNL A   1      39.672  26.558  29.146  1.00  0.00     0.029 A 
ATOM     19  N   UNL A   1      41.203  28.185  29.042  1.00  0.00    -0.354 N 
ATOM     20  C   UNL A   1      45.072  27.487  27.251  1.00  0.00     0.074 A 
ATOM     21  C   UNL A   1      45.184  26.134  26.748  1.00  0.00     0.031 C 
ATOM     22  C   UNL A   1      39.137  27.646  29.716  1.00  0.00     0.029 A 
ATOM     23  C   UNL A   1      40.115  28.727  29.687  1.00  0.00     0.049 A 
ATOM     24  H   UNL A   1      42.034  28.684  28.871  1.00  0.00     0.167 HD
ATOM     25  C   UNL A   1      46.065  28.407  27.198  1.00  0.00     0.034 A 
ATOM     26  C   UNL A   1      39.926  29.956  30.201  1.00  0.00     0.034 A 
ATOM     27  C   UNL A   1      45.927  29.769  27.644  1.00  0.00     0.049 A 
ATOM     28  C   UNL A   1      41.022  30.973  30.074  1.00  0.00     0.074 A 
ATOM     29  C   UNL A   1      46.849  30.798  27.568  1.00  0.00     0.029 A 
ATOM     30  N   UNL A   1      44.793  30.294  28.247  1.00  0.00    -0.354 N 
ATOM     31  N   UNL A   1      42.188  30.857  29.485  1.00  0.00    -0.248 NA
ATOM     32  C   UNL A   1      40.769  32.296  30.659  1.00  0.00     0.031 C 
ATOM     33  C   UNL A   1      46.277  31.943  28.133  1.00  0.00     0.029 A 
ATOM     34  C   UNL A   1      44.994  31.631  28.551  1.00  0.00     0.049 A 
ATOM     35  H   UNL A   1      43.968  29.792  28.432  1.00  0.00     0.167 HD
ATOM     36  C   UNL A   1      42.798  32.099  29.604  1.00  0.00     0.074 A 
ATOM     37  C   UNL A   1      41.860  32.959  30.301  1.00  0.00     0.031 C 
ATOM     38  C   UNL A   1      44.029  32.488  29.192  1.00  0.00     0.034 A 
BRANCH  25  39
ATOM     39  C   UNL A   1      47.385  27.989  26.603  1.00  0.00     0.023 A 
ATOM     40  C   UNL A   1      48.450  27.629  27.453  1.00  0.00     0.012 A 
ATOM     41  C   UNL A   1      47.552  27.888  25.208  1.00  0.00     0.148 A 
ATOM     42  C   UNL A   1      49.668  27.201  26.924  1.00  0.00     0.002 A 
ATOM     43  C   UNL A   1      48.756  27.425  24.688  1.00  0.00     0.091 A 
ATOM     44  F   UNL A   1      46.538  28.259  24.412  1.00  0.00    -0.205 F 
ATOM     45  C   UNL A   1      49.818  27.090  25.544  1.00  0.00     0.022 A 
BRANCH  43  46
ATOM     46  S   UNL A   1      49.008  27.181  22.925  1.00  0.00     0.127 S 
ATOM     47  O   UNL A   1      48.265  25.946  22.689  1.00  0.00    -0.237 OA
ATOM     48  O   UNL A   1      48.394  28.380  22.351  1.00  0.00    -0.237 OA
ATOM     49  O   UNL A   1      50.450  27.100  22.742  1.00  0.00    -0.744 OA
ENDBRANCH  43  46
ENDBRANCH  25  39
BRANCH  26  50
ATOM     50  C   UNL A   1      38.611  30.302  30.808  1.00  0.00     0.023 A 
ATOM     51  C   UNL A   1      38.372  29.984  32.159  1.00  0.00     0.012 A 
ATOM     52  C   UNL A   1      37.630  31.006  30.083  1.00  0.00     0.148 A 
ATOM     53  C   UNL A   1      37.174  30.348  32.773  1.00  0.00     0.002 A 
ATOM     54  C   UNL A   1      36.464  31.418  30.718  1.00  0.00     0.091 A 
ATOM     55  F   UNL A   1      37.868  31.283  28.794  1.00  0.00    -0.205 F 
ATOM     56  C   UNL A   1      36.227  31.077  32.058  1.00  0.00     0.022 A 
BRANCH  54  57
ATOM     57  S   UNL A   1      35.269  32.491  29.912  1.00  0.00     0.127 S 
ATOM     58  O   UNL A   1      36.103  33.620  29.511  1.00  0.00    -0.237 OA
ATOM     59  O   UNL A   1      34.796  31.650  28.810  1.00  0.00    -0.237 OA
ATOM     60  O   UNL A   1      34.257  32.770  30.922  1.00  0.00    -0.744 OA
ENDBRANCH  54  57
ENDBRANCH  26  50
BRANCH  38  61
ATOM     61  C   UNL A   1      44.428  33.913  29.458  1.00  0.00     0.023 A 
ATOM     62  C   UNL A   1      45.054  34.246  30.676  1.00  0.00     0.012 A 
ATOM     63  C   UNL A   1      44.235  34.910  28.483  1.00  0.00     0.148 A 
ATOM     64  C   UNL A   1      45.454  35.556  30.931  1.00  0.00     0.002 A 
ATOM     65  C   UNL A   1      44.675  36.205  28.728  1.00  0.00     0.091 A 
ATOM     66  F   UNL A   1      43.612  34.580  27.342  1.00  0.00    -0.205 F 
ATOM     67  C   UNL A   1      45.275  36.534  29.954  1.00  0.00     0.022 A 
BRANCH  65  68
ATOM     68  S   UNL A   1      44.559  37.496  27.483  1.00  0.00     0.127 S 
ATOM     69  O   UNL A   1      44.764  38.702  28.281  1.00  0.00    -0.237 OA
ATOM     70  O   UNL A   1      45.664  37.167  26.581  1.00  0.00    -0.237 OA
ATOM     71  O   UNL A   1      43.238  37.347  26.887  1.00  0.00    -0.744 OA
ENDBRANCH  65  68
ENDBRANCH  38  61
ENDBRANCH  12  13
ENDBRANCH   5   7
ENDBRANCH   2   3
ENDBRANCH   1   2
BRANCH   1  72
ATOM     72  C   UNL A   1      36.617  22.403  23.574  1.00  0.00     0.023 C 
BRANCH  72  73
ATOM     73  C   UNL A   1      35.971  23.677  24.109  1.00  0.00     0.116 C 
BRANCH  73  74
ATOM     74  N   UNL A   1      35.230  24.372  23.075  1.00  0.00    -0.351 N 
ATOM     75  C   UNL A   1      33.927  24.782  23.054  1.00  0.00     0.283 C 
ATOM     76  H   UNL A   1      35.746  24.583  22.264  1.00  0.00     0.163 HD
ATOM     77  O   UNL A   1      33.556  25.409  22.052  1.00  0.00    -0.268 OA
BRANCH  75  78
ATOM     78  C   UNL A   1      32.917  24.493  24.205  1.00  0.00     0.306 C 
BRANCH  78  79
ATOM     79  C   UNL A   1      31.764  25.488  24.121  1.00  0.00     0.030 A 
ATOM     80  C   UNL A   1      30.389  25.206  23.803  1.00  0.00     0.022 A 
ATOM     81  C   UNL A   1      31.920  26.850  24.332  1.00  0.00     0.075 A 
ATOM     82  C   UNL A   1      29.611  26.337  23.694  1.00  0.00     0.065 A 
ATOM     83  S   UNL A   1      30.488  27.748  24.077  1.00  0.00    -0.152 S 
ENDBRANCH  78  79
BRANCH  78  84
ATOM     84  N   UNL A   1      32.438  23.078  24.283  1.00  0.00    -0.321 N 
ATOM     85  C   UNL A   1      32.794  22.301  23.078  1.00  0.00     0.267 C 
ATOM     86  C   UNL A   1      33.010  22.403  25.468  1.00  0.00     0.267 C 
ATOM     87  H   UNL A   1      31.421  23.117  24.353  1.00  0.00     0.349 HD
ATOM     88  C   UNL A   1      32.119  20.932  23.137  1.00  0.00     0.107 C 
ATOM     89  C   UNL A   1      32.427  21.000  25.645  1.00  0.00     0.107 C 
ATOM     90  C   UNL A   1      32.579  20.161  24.371  1.00  0.00     0.184 C 
BRANCH  90  91
ATOM     91  O   UNL A   1      32.025  18.831  24.422  1.00  0.00    -0.488 OA
BRANCH  91  92
ATOM     92  C   UNL A   1      32.912  17.823  24.659  1.00  0.00     0.138 A 
ATOM     93  C   UNL A   1      34.265  17.949  24.374  1.00  0.00     0.050 A 
ATOM     94  C   UNL A   1      32.481  16.665  25.292  1.00  0.00     0.157 A 
ATOM     95  C   UNL A   1      35.121  16.887  24.656  1.00  0.00     0.024 A 
ATOM     96  N   UNL A   1      33.286  15.615  25.580  1.00  0.00    -0.261 NA
ATOM     97  C   UNL A   1      34.588  15.751  25.246  1.00  0.00     0.111 A 
ENDBRANCH  91  92
ENDBRANCH  90  91
ENDBRANCH  78  84
ENDBRANCH  75  78
ENDBRANCH  73  74
ENDBRANCH  72  73
ENDBRANCH   1  72
TORSDOF 18
ENDMDL
