MODEL 1
REMARK VINA RESULT:     -11.8      0.000      0.000
REMARK SMILES NC(=O)[C@@H]1CCCCN1C(=O)N[C@H]1C=C[C@@H](C(=O)NCCCCNC(=O)c2ccc(-c3c4nc(c(-c5cccc(S(=O)(=O)[O-])c5F)c5ccc([nH]5)c(-c5cccc(S(=O)(=O)[O-])c5F)c5nc(c(-c6cccc(S(=O)(=O)[O-])c6F)c6ccc3[nH]6)C=C5)C=C4)cc2)C1
REMARK SMILES IDX 21 1 20 2 19 3 17 4 18 5 16 7 13 8 14 9 90 10 15 11 12 12
REMARK SMILES IDX 10 13 11 14 9 16 4 17 5 18 6 19 8 20 7 21 2 22 1 23 3 26
REMARK SMILES IDX 22 27 23 28 24 29 25 30 26 32 27 33 28 34 89 35 29 36 88 37
REMARK SMILES IDX 30 38 31 39 32 40 82 41 33 42 87 43 81 44 83 45 34 46 86 47
REMARK SMILES IDX 80 48 79 49 35 51 67 52 47 53 66 54 48 55 51 56 65 57 84 58
REMARK SMILES IDX 49 59 50 60 64 62 85 63 52 64 36 65 37 66 45 67 38 68 40 69
REMARK SMILES IDX 46 70 39 71 41 72 42 73 43 74 44 75 68 76 69 77 77 78 70 79
REMARK SMILES IDX 72 80 78 81 71 82 73 83 74 84 75 85 76 86 53 87 54 88 62 89
REMARK SMILES IDX 55 90 57 91 63 92 56 93 58 94 59 95 60 96 61 97
REMARK H PARENT 19 6 12 15 1 24 1 25 24 31 83 50 51 61
REMARK Flexibility Score: inf
ROOT
ATOM      1  C   UNL A   1      32.256  30.080  26.922  1.00  0.00     0.023 C 
ENDROOT
BRANCH   1   2
ATOM      2  C   UNL A   1      32.379  29.410  25.556  1.00  0.00     0.116 C 
BRANCH   2   3
ATOM      3  N   UNL A   1      31.316  28.463  25.283  1.00  0.00    -0.356 N 
ATOM      4  C   UNL A   1      31.280  27.398  24.435  1.00  0.00     0.227 C 
ATOM      5  O   UNL A   1      30.287  26.664  24.476  1.00  0.00    -0.274 OA
ATOM      6  H   UNL A   1      30.487  28.613  25.794  1.00  0.00     0.163 HD
BRANCH   4   7
ATOM      7  C   UNL A   1      32.373  27.132  23.393  1.00  0.00     0.103 C 
ATOM      8  C   UNL A   1      33.440  25.065  22.538  1.00  0.00     0.107 C 
ATOM      9  C   UNL A   1      32.557  25.735  21.520  1.00  0.00    -0.006 C 
ATOM     10  C   UNL A   1      33.239  25.935  23.779  1.00  0.00     0.047 C 
ATOM     11  C   UNL A   1      31.954  26.834  21.991  1.00  0.00    -0.016 C 
BRANCH   8  12
ATOM     12  N   UNL A   1      32.984  23.692  22.679  1.00  0.00    -0.332 N 
ATOM     13  C   UNL A   1      33.323  22.576  23.345  1.00  0.00     0.318 C 
ATOM     14  O   UNL A   1      32.597  21.614  23.082  1.00  0.00    -0.249 OA
ATOM     15  H   UNL A   1      32.190  23.533  22.119  1.00  0.00     0.165 HD
BRANCH  13  16
ATOM     16  N   UNL A   1      34.358  22.485  24.227  1.00  0.00    -0.313 N 
ATOM     17  C   UNL A   1      34.117  22.691  25.683  1.00  0.00     0.176 C 
ATOM     18  C   UNL A   1      34.910  23.921  26.160  1.00  0.00     0.035 C 
ATOM     19  C   UNL A   1      36.401  23.755  25.870  1.00  0.00     0.004 C 
ATOM     20  C   UNL A   1      35.769  22.248  23.937  1.00  0.00     0.122 C 
ATOM     21  C   UNL A   1      36.640  23.421  24.401  1.00  0.00     0.022 C 
BRANCH  17  22
ATOM     22  C   UNL A   1      32.685  22.785  26.266  1.00  0.00     0.240 C 
ATOM     23  N   UNL A   1      31.956  21.628  26.211  1.00  0.00    -0.368 N 
ATOM     24  H   UNL A   1      31.036  21.607  26.561  1.00  0.00     0.159 HD
ATOM     25  H   UNL A   1      32.351  20.814  25.820  1.00  0.00     0.159 HD
ATOM     26  O   UNL A   1      32.204  23.798  26.767  1.00  0.00    -0.273 OA
ENDBRANCH  17  22
ENDBRANCH  13  16
ENDBRANCH   8  12
ENDBRANCH   4   7
ENDBRANCH   2   3
ENDBRANCH   1   2
BRANCH   1  27
ATOM     27  C   UNL A   1      31.917  31.569  26.896  1.00  0.00     0.023 C 
BRANCH  27  28
ATOM     28  C   UNL A   1      33.055  32.512  27.270  1.00  0.00     0.116 C 
BRANCH  28  29
ATOM     29  N   UNL A   1      32.618  33.859  27.611  1.00  0.00    -0.352 N 
ATOM     30  C   UNL A   1      33.122  34.706  28.571  1.00  0.00     0.251 C 
ATOM     31  H   UNL A   1      31.863  34.209  27.084  1.00  0.00     0.163 HD
ATOM     32  O   UNL A   1      32.605  35.796  28.773  1.00  0.00    -0.269 OA
BRANCH  30  33
ATOM     33  C   UNL A   1      34.272  34.263  29.389  1.00  0.00     0.039 A 
ATOM     34  C   UNL A   1      34.027  33.512  30.541  1.00  0.00     0.014 A 
ATOM     35  C   UNL A   1      35.583  34.544  28.994  1.00  0.00     0.014 A 
ATOM     36  C   UNL A   1      35.099  32.981  31.260  1.00  0.00     0.010 A 
ATOM     37  C   UNL A   1      36.646  33.954  29.670  1.00  0.00     0.010 A 
ATOM     38  C   UNL A   1      36.416  33.166  30.809  1.00  0.00    -0.014 A 
BRANCH  38  39
ATOM     39  C   UNL A   1      37.567  32.534  31.501  1.00  0.00     0.031 A 
ATOM     40  C   UNL A   1      38.294  31.381  30.865  1.00  0.00     0.074 A 
ATOM     41  C   UNL A   1      37.897  32.934  32.745  1.00  0.00     0.049 A 
ATOM     42  N   UNL A   1      39.279  30.665  31.339  1.00  0.00    -0.248 NA
ATOM     43  C   UNL A   1      37.831  30.960  29.533  1.00  0.00     0.031 C 
ATOM     44  C   UNL A   1      37.217  33.987  33.504  1.00  0.00     0.029 A 
ATOM     45  N   UNL A   1      38.871  32.486  33.602  1.00  0.00    -0.354 N 
ATOM     46  C   UNL A   1      39.532  29.689  30.382  1.00  0.00     0.074 A 
ATOM     47  C   UNL A   1      38.569  29.880  29.320  1.00  0.00     0.031 C 
ATOM     48  C   UNL A   1      37.803  34.111  34.706  1.00  0.00     0.029 A 
ATOM     49  C   UNL A   1      38.879  33.131  34.816  1.00  0.00     0.049 A 
ATOM     50  H   UNL A   1      39.505  31.770  33.369  1.00  0.00     0.167 HD
ATOM     51  C   UNL A   1      40.500  28.741  30.371  1.00  0.00     0.034 A 
ATOM     52  C   UNL A   1      39.666  32.955  35.896  1.00  0.00     0.034 A 
ATOM     53  C   UNL A   1      41.484  28.584  31.407  1.00  0.00     0.049 A 
ATOM     54  C   UNL A   1      40.759  31.922  35.843  1.00  0.00     0.074 A 
ATOM     55  C   UNL A   1      42.559  27.714  31.448  1.00  0.00     0.029 A 
ATOM     56  N   UNL A   1      41.511  29.311  32.588  1.00  0.00    -0.354 N 
ATOM     57  N   UNL A   1      41.085  31.115  34.863  1.00  0.00    -0.248 NA
ATOM     58  C   UNL A   1      41.613  31.799  37.033  1.00  0.00     0.031 C 
ATOM     59  C   UNL A   1      43.229  27.906  32.663  1.00  0.00     0.029 A 
ATOM     60  C   UNL A   1      42.581  28.907  33.369  1.00  0.00     0.049 A 
ATOM     61  H   UNL A   1      40.866  30.012  32.833  1.00  0.00     0.167 HD
ATOM     62  C   UNL A   1      42.203  30.414  35.301  1.00  0.00     0.074 A 
ATOM     63  C   UNL A   1      42.508  30.906  36.630  1.00  0.00     0.031 C 
ATOM     64  C   UNL A   1      42.904  29.442  34.668  1.00  0.00     0.034 A 
BRANCH  51  65
ATOM     65  C   UNL A   1      40.572  27.842  29.164  1.00  0.00     0.023 A 
ATOM     66  C   UNL A   1      39.714  26.725  29.081  1.00  0.00     0.012 A 
ATOM     67  C   UNL A   1      41.458  28.109  28.103  1.00  0.00     0.148 A 
ATOM     68  C   UNL A   1      39.768  25.863  27.987  1.00  0.00     0.002 A 
ATOM     69  C   UNL A   1      41.474  27.271  26.992  1.00  0.00     0.091 A 
ATOM     70  F   UNL A   1      42.283  29.161  28.205  1.00  0.00    -0.205 F 
ATOM     71  C   UNL A   1      40.641  26.142  26.940  1.00  0.00     0.022 A 
BRANCH  69  72
ATOM     72  S   UNL A   1      42.509  27.592  25.559  1.00  0.00     0.127 S 
ATOM     73  O   UNL A   1      43.841  27.640  26.162  1.00  0.00    -0.237 OA
ATOM     74  O   UNL A   1      42.260  26.416  24.725  1.00  0.00    -0.237 OA
ATOM     75  O   UNL A   1      42.025  28.844  24.994  1.00  0.00    -0.744 OA
ENDBRANCH  69  72
ENDBRANCH  51  65
BRANCH  52  76
ATOM     76  C   UNL A   1      39.507  33.845  37.081  1.00  0.00     0.023 A 
ATOM     77  C   UNL A   1      39.933  35.185  36.990  1.00  0.00     0.012 A 
ATOM     78  C   UNL A   1      38.902  33.395  38.270  1.00  0.00     0.148 A 
ATOM     79  C   UNL A   1      39.783  36.055  38.070  1.00  0.00     0.002 A 
ATOM     80  C   UNL A   1      38.710  34.280  39.325  1.00  0.00     0.091 A 
ATOM     81  F   UNL A   1      38.513  32.115  38.339  1.00  0.00    -0.205 F 
ATOM     82  C   UNL A   1      39.163  35.606  39.232  1.00  0.00     0.022 A 
BRANCH  80  83
ATOM     83  S   UNL A   1      37.815  33.829  40.817  1.00  0.00     0.127 S 
ATOM     84  O   UNL A   1      37.512  35.138  41.392  1.00  0.00    -0.237 OA
ATOM     85  O   UNL A   1      36.660  33.115  40.270  1.00  0.00    -0.237 OA
ATOM     86  O   UNL A   1      38.727  32.997  41.588  1.00  0.00    -0.744 OA
ENDBRANCH  80  83
ENDBRANCH  52  76
BRANCH  64  87
ATOM     87  C   UNL A   1      44.091  28.855  35.386  1.00  0.00     0.023 A 
ATOM     88  C   UNL A   1      45.373  29.404  35.179  1.00  0.00     0.012 A 
ATOM     89  C   UNL A   1      43.926  27.816  36.322  1.00  0.00     0.148 A 
ATOM     90  C   UNL A   1      46.476  28.907  35.872  1.00  0.00     0.002 A 
ATOM     91  C   UNL A   1      45.023  27.356  37.042  1.00  0.00     0.091 A 
ATOM     92  F   UNL A   1      42.702  27.294  36.490  1.00  0.00    -0.205 F 
ATOM     93  C   UNL A   1      46.299  27.893  36.810  1.00  0.00     0.022 A 
BRANCH  91  94
ATOM     94  S   UNL A   1      44.873  26.121  38.338  1.00  0.00     0.127 S 
ATOM     95  O   UNL A   1      44.392  24.961  37.590  1.00  0.00    -0.237 OA
ATOM     96  O   UNL A   1      46.249  26.007  38.822  1.00  0.00    -0.237 OA
ATOM     97  O   UNL A   1      43.937  26.672  39.309  1.00  0.00    -0.744 OA
ENDBRANCH  91  94
ENDBRANCH  64  87
ENDBRANCH  38  39
ENDBRANCH  30  33
ENDBRANCH  28  29
ENDBRANCH  27  28
ENDBRANCH   1  27
TORSDOF 17
ENDMDL
MODEL 2
REMARK VINA RESULT:     -11.8      3.543      8.749
REMARK SMILES NC(=O)[C@@H]1CCCCN1C(=O)N[C@H]1C=C[C@@H](C(=O)NCCCCNC(=O)c2ccc(-c3c4nc(c(-c5cccc(S(=O)(=O)[O-])c5F)c5ccc([nH]5)c(-c5cccc(S(=O)(=O)[O-])c5F)c5nc(c(-c6cccc(S(=O)(=O)[O-])c6F)c6ccc3[nH]6)C=C5)C=C4)cc2)C1
REMARK SMILES IDX 21 1 20 2 19 3 17 4 18 5 16 7 13 8 14 9 90 10 15 11 12 12
REMARK SMILES IDX 10 13 11 14 9 16 4 17 5 18 6 19 8 20 7 21 2 22 1 23 3 26
REMARK SMILES IDX 22 27 23 28 24 29 25 30 26 32 27 33 28 34 89 35 29 36 88 37
REMARK SMILES IDX 30 38 31 39 32 40 82 41 33 42 87 43 81 44 83 45 34 46 86 47
REMARK SMILES IDX 80 48 79 49 35 51 67 52 47 53 66 54 48 55 51 56 65 57 84 58
REMARK SMILES IDX 49 59 50 60 64 62 85 63 52 64 36 65 37 66 45 67 38 68 40 69
REMARK SMILES IDX 46 70 39 71 41 72 42 73 43 74 44 75 68 76 69 77 77 78 70 79
REMARK SMILES IDX 72 80 78 81 71 82 73 83 74 84 75 85 76 86 53 87 54 88 62 89
REMARK SMILES IDX 55 90 57 91 63 92 56 93 58 94 59 95 60 96 61 97
REMARK H PARENT 19 6 12 15 1 24 1 25 24 31 83 50 51 61
REMARK Flexibility Score: inf
ROOT
ATOM      1  C   UNL A   1      31.455  28.805  25.927  1.00  0.00     0.023 C 
ENDROOT
BRANCH   1   2
ATOM      2  C   UNL A   1      32.170  29.031  24.598  1.00  0.00     0.116 C 
BRANCH   2   3
ATOM      3  N   UNL A   1      31.338  29.673  23.599  1.00  0.00    -0.356 N 
ATOM      4  C   UNL A   1      30.386  29.151  22.777  1.00  0.00     0.227 C 
ATOM      5  O   UNL A   1      29.722  29.939  22.094  1.00  0.00    -0.274 OA
ATOM      6  H   UNL A   1      31.483  30.642  23.501  1.00  0.00     0.163 HD
BRANCH   4   7
ATOM      7  C   UNL A   1      30.171  27.642  22.612  1.00  0.00     0.103 C 
ATOM      8  C   UNL A   1      31.447  25.651  23.355  1.00  0.00     0.107 C 
ATOM      9  C   UNL A   1      30.136  25.813  24.077  1.00  0.00    -0.006 C 
ATOM     10  C   UNL A   1      31.497  26.897  22.470  1.00  0.00     0.047 C 
ATOM     11  C   UNL A   1      29.461  26.906  23.700  1.00  0.00    -0.016 C 
BRANCH   8  12
ATOM     12  N   UNL A   1      32.494  25.577  24.359  1.00  0.00    -0.332 N 
ATOM     13  C   UNL A   1      33.225  24.644  24.992  1.00  0.00     0.318 C 
ATOM     14  O   UNL A   1      34.001  25.119  25.826  1.00  0.00    -0.249 OA
ATOM     15  H   UNL A   1      32.742  26.478  24.668  1.00  0.00     0.165 HD
BRANCH  13  16
ATOM     16  N   UNL A   1      33.139  23.304  24.760  1.00  0.00    -0.313 N 
ATOM     17  C   UNL A   1      32.208  22.466  25.566  1.00  0.00     0.176 C 
ATOM     18  C   UNL A   1      33.020  21.431  26.366  1.00  0.00     0.035 C 
ATOM     19  C   UNL A   1      33.870  20.566  25.436  1.00  0.00     0.004 C 
ATOM     20  C   UNL A   1      33.906  22.505  23.809  1.00  0.00     0.122 C 
ATOM     21  C   UNL A   1      34.733  21.429  24.522  1.00  0.00     0.022 C 
BRANCH  17  22
ATOM     22  C   UNL A   1      31.161  23.096  26.517  1.00  0.00     0.240 C 
ATOM     23  N   UNL A   1      29.959  22.442  26.577  1.00  0.00    -0.368 N 
ATOM     24  H   UNL A   1      29.242  22.781  27.159  1.00  0.00     0.159 HD
ATOM     25  H   UNL A   1      29.812  21.631  26.037  1.00  0.00     0.159 HD
ATOM     26  O   UNL A   1      31.356  24.098  27.200  1.00  0.00    -0.273 OA
ENDBRANCH  17  22
ENDBRANCH  13  16
ENDBRANCH   8  12
ENDBRANCH   4   7
ENDBRANCH   2   3
ENDBRANCH   1   2
BRANCH   1  27
ATOM     27  C   UNL A   1      32.329  28.272  27.061  1.00  0.00     0.023 C 
BRANCH  27  28
ATOM     28  C   UNL A   1      33.720  28.887  27.167  1.00  0.00     0.116 C 
BRANCH  28  29
ATOM     29  N   UNL A   1      33.720  30.274  27.611  1.00  0.00    -0.352 N 
ATOM     30  C   UNL A   1      34.718  30.964  28.261  1.00  0.00     0.251 C 
ATOM     31  H   UNL A   1      32.899  30.783  27.422  1.00  0.00     0.163 HD
ATOM     32  O   UNL A   1      34.542  32.121  28.619  1.00  0.00    -0.269 OA
BRANCH  30  33
ATOM     33  C   UNL A   1      35.992  30.277  28.561  1.00  0.00     0.039 A 
ATOM     34  C   UNL A   1      37.064  30.435  27.679  1.00  0.00     0.014 A 
ATOM     35  C   UNL A   1      36.143  29.525  29.728  1.00  0.00     0.014 A 
ATOM     36  C   UNL A   1      38.310  29.896  28.003  1.00  0.00     0.010 A 
ATOM     37  C   UNL A   1      37.402  29.052  30.084  1.00  0.00     0.010 A 
ATOM     38  C   UNL A   1      38.499  29.233  29.227  1.00  0.00    -0.014 A 
BRANCH  38  39
ATOM     39  C   UNL A   1      39.835  28.734  29.638  1.00  0.00     0.031 A 
ATOM     40  C   UNL A   1      40.603  29.432  30.725  1.00  0.00     0.074 A 
ATOM     41  C   UNL A   1      40.398  27.710  28.967  1.00  0.00     0.049 A 
ATOM     42  N   UNL A   1      41.802  29.182  31.180  1.00  0.00    -0.248 NA
ATOM     43  C   UNL A   1      39.946  30.584  31.366  1.00  0.00     0.031 C 
ATOM     44  C   UNL A   1      39.789  26.999  27.839  1.00  0.00     0.029 A 
ATOM     45  N   UNL A   1      41.620  27.103  29.118  1.00  0.00    -0.354 N 
ATOM     46  C   UNL A   1      42.059  30.161  32.132  1.00  0.00     0.074 A 
ATOM     47  C   UNL A   1      40.906  31.035  32.160  1.00  0.00     0.031 C 
ATOM     48  C   UNL A   1      40.636  26.049  27.410  1.00  0.00     0.029 A 
ATOM     49  C   UNL A   1      41.855  26.097  28.210  1.00  0.00     0.049 A 
ATOM     50  H   UNL A   1      42.269  27.364  29.812  1.00  0.00     0.167 HD
ATOM     51  C   UNL A   1      43.141  30.303  32.936  1.00  0.00     0.034 A 
ATOM     52  C   UNL A   1      42.930  25.302  28.043  1.00  0.00     0.034 A 
ATOM     53  C   UNL A   1      44.264  29.405  32.937  1.00  0.00     0.049 A 
ATOM     54  C   UNL A   1      44.102  25.453  28.974  1.00  0.00     0.074 A 
ATOM     55  C   UNL A   1      45.367  29.409  33.772  1.00  0.00     0.029 A 
ATOM     56  N   UNL A   1      44.431  28.346  32.058  1.00  0.00    -0.354 N 
ATOM     57  N   UNL A   1      44.260  26.284  29.976  1.00  0.00    -0.248 NA
ATOM     58  C   UNL A   1      45.232  24.534  28.772  1.00  0.00     0.031 C 
ATOM     59  C   UNL A   1      46.209  28.358  33.386  1.00  0.00     0.029 A 
ATOM     60  C   UNL A   1      45.622  27.691  32.324  1.00  0.00     0.049 A 
ATOM     61  H   UNL A   1      43.795  28.096  31.349  1.00  0.00     0.167 HD
ATOM     62  C   UNL A   1      45.486  25.966  30.547  1.00  0.00     0.074 A 
ATOM     63  C   UNL A   1      46.023  24.854  29.789  1.00  0.00     0.031 C 
ATOM     64  C   UNL A   1      46.118  26.551  31.595  1.00  0.00     0.034 A 
BRANCH  51  65
ATOM     65  C   UNL A   1      43.124  31.440  33.924  1.00  0.00     0.023 A 
ATOM     66  C   UNL A   1      43.753  32.657  33.588  1.00  0.00     0.012 A 
ATOM     67  C   UNL A   1      42.468  31.324  35.165  1.00  0.00     0.148 A 
ATOM     68  C   UNL A   1      43.770  33.723  34.486  1.00  0.00     0.002 A 
ATOM     69  C   UNL A   1      42.450  32.407  36.037  1.00  0.00     0.091 A 
ATOM     70  F   UNL A   1      41.895  30.153  35.480  1.00  0.00    -0.205 F 
ATOM     71  C   UNL A   1      43.112  33.600  35.705  1.00  0.00     0.022 A 
BRANCH  69  72
ATOM     72  S   UNL A   1      41.562  32.370  37.599  1.00  0.00     0.127 S 
ATOM     73  O   UNL A   1      42.386  31.453  38.386  1.00  0.00    -0.237 OA
ATOM     74  O   UNL A   1      41.627  33.767  38.028  1.00  0.00    -0.237 OA
ATOM     75  O   UNL A   1      40.221  31.899  37.280  1.00  0.00    -0.744 OA
ENDBRANCH  69  72
ENDBRANCH  51  65
BRANCH  52  76
ATOM     76  C   UNL A   1      42.903  24.229  27.009  1.00  0.00     0.023 A 
ATOM     77  C   UNL A   1      43.590  24.433  25.797  1.00  0.00     0.012 A 
ATOM     78  C   UNL A   1      42.249  23.002  27.231  1.00  0.00     0.148 A 
ATOM     79  C   UNL A   1      43.607  23.445  24.812  1.00  0.00     0.002 A 
ATOM     80  C   UNL A   1      42.310  22.002  26.267  1.00  0.00     0.091 A 
ATOM     81  F   UNL A   1      41.593  22.833  28.387  1.00  0.00    -0.205 F 
ATOM     82  C   UNL A   1      42.977  22.227  25.051  1.00  0.00     0.022 A 
BRANCH  80  83
ATOM     83  S   UNL A   1      41.633  20.359  26.531  1.00  0.00     0.127 S 
ATOM     84  O   UNL A   1      40.197  20.627  26.556  1.00  0.00    -0.237 OA
ATOM     85  O   UNL A   1      42.105  19.644  25.345  1.00  0.00    -0.237 OA
ATOM     86  O   UNL A   1      42.209  19.893  27.784  1.00  0.00    -0.744 OA
ENDBRANCH  80  83
ENDBRANCH  52  76
BRANCH  64  87
ATOM     87  C   UNL A   1      47.452  25.988  32.009  1.00  0.00     0.023 A 
ATOM     88  C   UNL A   1      48.626  26.431  31.365  1.00  0.00     0.012 A 
ATOM     89  C   UNL A   1      47.552  25.083  33.083  1.00  0.00     0.148 A 
ATOM     90  C   UNL A   1      49.875  25.959  31.766  1.00  0.00     0.002 A 
ATOM     91  C   UNL A   1      48.804  24.651  33.507  1.00  0.00     0.091 A 
ATOM     92  F   UNL A   1      46.423  24.658  33.669  1.00  0.00    -0.205 F 
ATOM     93  C   UNL A   1      49.964  25.080  32.843  1.00  0.00     0.022 A 
BRANCH  91  94
ATOM     94  S   UNL A   1      49.020  23.595  34.944  1.00  0.00     0.127 S 
ATOM     95  O   UNL A   1      48.668  24.500  36.036  1.00  0.00    -0.237 OA
ATOM     96  O   UNL A   1      48.049  22.528  34.697  1.00  0.00    -0.237 OA
ATOM     97  O   UNL A   1      50.411  23.160  34.914  1.00  0.00    -0.744 OA
ENDBRANCH  91  94
ENDBRANCH  64  87
ENDBRANCH  38  39
ENDBRANCH  30  33
ENDBRANCH  28  29
ENDBRANCH  27  28
ENDBRANCH   1  27
TORSDOF 17
ENDMDL
MODEL 3
REMARK VINA RESULT:     -11.7      5.723     11.775
REMARK SMILES NC(=O)[C@@H]1CCCCN1C(=O)N[C@H]1C=C[C@@H](C(=O)NCCCCNC(=O)c2ccc(-c3c4nc(c(-c5cccc(S(=O)(=O)[O-])c5F)c5ccc([nH]5)c(-c5cccc(S(=O)(=O)[O-])c5F)c5nc(c(-c6cccc(S(=O)(=O)[O-])c6F)c6ccc3[nH]6)C=C5)C=C4)cc2)C1
REMARK SMILES IDX 21 1 20 2 19 3 17 4 18 5 16 7 13 8 14 9 90 10 15 11 12 12
REMARK SMILES IDX 10 13 11 14 9 16 4 17 5 18 6 19 8 20 7 21 2 22 1 23 3 26
REMARK SMILES IDX 22 27 23 28 24 29 25 30 26 32 27 33 28 34 89 35 29 36 88 37
REMARK SMILES IDX 30 38 31 39 32 40 82 41 33 42 87 43 81 44 83 45 34 46 86 47
REMARK SMILES IDX 80 48 79 49 35 51 67 52 47 53 66 54 48 55 51 56 65 57 84 58
REMARK SMILES IDX 49 59 50 60 64 62 85 63 52 64 36 65 37 66 45 67 38 68 40 69
REMARK SMILES IDX 46 70 39 71 41 72 42 73 43 74 44 75 68 76 69 77 77 78 70 79
REMARK SMILES IDX 72 80 78 81 71 82 73 83 74 84 75 85 76 86 53 87 54 88 62 89
REMARK SMILES IDX 55 90 57 91 63 92 56 93 58 94 59 95 60 96 61 97
REMARK H PARENT 19 6 12 15 1 24 1 25 24 31 83 50 51 61
REMARK Flexibility Score: inf
ROOT
ATOM      1  C   UNL A   1      36.633  21.473  25.352  1.00  0.00     0.023 C 
ENDROOT
BRANCH   1   2
ATOM      2  C   UNL A   1      35.300  21.156  24.681  1.00  0.00     0.116 C 
BRANCH   2   3
ATOM      3  N   UNL A   1      34.621  20.015  25.262  1.00  0.00    -0.356 N 
ATOM      4  C   UNL A   1      33.306  19.661  25.231  1.00  0.00     0.227 C 
ATOM      5  O   UNL A   1      32.995  18.563  25.704  1.00  0.00    -0.274 OA
ATOM      6  H   UNL A   1      35.204  19.395  25.758  1.00  0.00     0.163 HD
BRANCH   4   7
ATOM      7  C   UNL A   1      32.208  20.598  24.713  1.00  0.00     0.103 C 
ATOM      8  C   UNL A   1      31.996  23.064  24.590  1.00  0.00     0.107 C 
ATOM      9  C   UNL A   1      32.158  22.420  23.240  1.00  0.00    -0.006 C 
ATOM     10  C   UNL A   1      32.121  21.876  25.544  1.00  0.00     0.047 C 
ATOM     11  C   UNL A   1      32.306  21.091  23.307  1.00  0.00    -0.016 C 
BRANCH   8  12
ATOM     12  N   UNL A   1      33.040  24.065  24.726  1.00  0.00    -0.332 N 
ATOM     13  C   UNL A   1      33.181  25.399  24.643  1.00  0.00     0.318 C 
ATOM     14  O   UNL A   1      34.342  25.776  24.821  1.00  0.00    -0.249 OA
ATOM     15  H   UNL A   1      33.901  23.640  24.944  1.00  0.00     0.165 HD
BRANCH  13  16
ATOM     16  N   UNL A   1      32.165  26.270  24.388  1.00  0.00    -0.313 N 
ATOM     17  C   UNL A   1      31.948  26.779  23.004  1.00  0.00     0.176 C 
ATOM     18  C   UNL A   1      32.149  28.305  22.988  1.00  0.00     0.035 C 
ATOM     19  C   UNL A   1      31.206  28.990  23.976  1.00  0.00     0.004 C 
ATOM     20  C   UNL A   1      31.222  26.856  25.336  1.00  0.00     0.122 C 
ATOM     21  C   UNL A   1      31.338  28.384  25.369  1.00  0.00     0.022 C 
BRANCH  17  22
ATOM     22  C   UNL A   1      32.701  26.182  21.789  1.00  0.00     0.240 C 
ATOM     23  N   UNL A   1      32.006  25.239  21.080  1.00  0.00    -0.368 N 
ATOM     24  H   UNL A   1      32.417  24.812  20.294  1.00  0.00     0.159 HD
ATOM     25  H   UNL A   1      31.095  24.987  21.356  1.00  0.00     0.159 HD
ATOM     26  O   UNL A   1      33.831  26.511  21.442  1.00  0.00    -0.273 OA
ENDBRANCH  17  22
ENDBRANCH  13  16
ENDBRANCH   8  12
ENDBRANCH   4   7
ENDBRANCH   2   3
ENDBRANCH   1   2
BRANCH   1  27
ATOM     27  C   UNL A   1      37.766  20.490  25.062  1.00  0.00     0.023 C 
BRANCH  27  28
ATOM     28  C   UNL A   1      39.066  20.738  25.818  1.00  0.00     0.116 C 
BRANCH  28  29
ATOM     29  N   UNL A   1      39.943  19.578  25.881  1.00  0.00    -0.352 N 
ATOM     30  C   UNL A   1      41.296  19.540  26.130  1.00  0.00     0.251 C 
ATOM     31  H   UNL A   1      39.511  18.707  25.725  1.00  0.00     0.163 HD
ATOM     32  O   UNL A   1      41.906  18.480  26.094  1.00  0.00    -0.269 OA
BRANCH  30  33
ATOM     33  C   UNL A   1      42.015  20.804  26.397  1.00  0.00     0.039 A 
ATOM     34  C   UNL A   1      42.263  21.674  25.332  1.00  0.00     0.014 A 
ATOM     35  C   UNL A   1      42.394  21.153  27.696  1.00  0.00     0.014 A 
ATOM     36  C   UNL A   1      42.830  22.925  25.579  1.00  0.00     0.010 A 
ATOM     37  C   UNL A   1      42.891  22.427  27.950  1.00  0.00     0.010 A 
ATOM     38  C   UNL A   1      43.114  23.326  26.895  1.00  0.00    -0.014 A 
BRANCH  38  39
ATOM     39  C   UNL A   1      43.628  24.686  27.194  1.00  0.00     0.031 A 
ATOM     40  C   UNL A   1      42.698  25.754  27.702  1.00  0.00     0.074 A 
ATOM     41  C   UNL A   1      44.912  24.988  26.918  1.00  0.00     0.049 A 
ATOM     42  N   UNL A   1      42.948  27.010  27.963  1.00  0.00    -0.248 NA
ATOM     43  C   UNL A   1      41.295  25.363  27.916  1.00  0.00     0.031 C 
ATOM     44  C   UNL A   1      45.895  24.063  26.348  1.00  0.00     0.029 A 
ATOM     45  N   UNL A   1      45.607  26.164  27.057  1.00  0.00    -0.354 N 
ATOM     46  C   UNL A   1      41.732  27.568  28.337  1.00  0.00     0.074 A 
ATOM     47  C   UNL A   1      40.737  26.523  28.231  1.00  0.00     0.031 C 
ATOM     48  C   UNL A   1      47.066  24.704  26.196  1.00  0.00     0.029 A 
ATOM     49  C   UNL A   1      46.912  26.089  26.632  1.00  0.00     0.049 A 
ATOM     50  H   UNL A   1      45.207  26.985  27.426  1.00  0.00     0.167 HD
ATOM     51  C   UNL A   1      41.470  28.827  28.765  1.00  0.00     0.034 A 
ATOM     52  C   UNL A   1      47.878  27.028  26.599  1.00  0.00     0.034 A 
ATOM     53  C   UNL A   1      42.470  29.849  28.915  1.00  0.00     0.049 A 
ATOM     54  C   UNL A   1      47.573  28.408  27.116  1.00  0.00     0.074 A 
ATOM     55  C   UNL A   1      42.324  31.128  29.424  1.00  0.00     0.029 A 
ATOM     56  N   UNL A   1      43.801  29.712  28.551  1.00  0.00    -0.354 N 
ATOM     57  N   UNL A   1      46.454  28.873  27.618  1.00  0.00    -0.248 NA
ATOM     58  C   UNL A   1      48.673  29.383  27.094  1.00  0.00     0.031 C 
ATOM     59  C   UNL A   1      43.567  31.769  29.354  1.00  0.00     0.029 A 
ATOM     60  C   UNL A   1      44.489  30.884  28.818  1.00  0.00     0.049 A 
ATOM     61  H   UNL A   1      44.199  28.901  28.161  1.00  0.00     0.167 HD
ATOM     62  C   UNL A   1      46.724  30.180  28.005  1.00  0.00     0.074 A 
ATOM     63  C   UNL A   1      48.117  30.428  27.695  1.00  0.00     0.031 C 
ATOM     64  C   UNL A   1      45.889  31.098  28.553  1.00  0.00     0.034 A 
BRANCH  51  65
ATOM     65  C   UNL A   1      40.051  29.141  29.161  1.00  0.00     0.023 A 
ATOM     66  C   UNL A   1      39.108  29.461  28.161  1.00  0.00     0.012 A 
ATOM     67  C   UNL A   1      39.637  29.095  30.506  1.00  0.00     0.148 A 
ATOM     68  C   UNL A   1      37.792  29.773  28.495  1.00  0.00     0.002 A 
ATOM     69  C   UNL A   1      38.311  29.363  30.828  1.00  0.00     0.091 A 
ATOM     70  F   UNL A   1      40.549  28.813  31.449  1.00  0.00    -0.205 F 
ATOM     71  C   UNL A   1      37.392  29.716  29.826  1.00  0.00     0.022 A 
BRANCH  69  72
ATOM     72  S   UNL A   1      37.684  29.239  32.508  1.00  0.00     0.127 S 
ATOM     73  O   UNL A   1      38.575  30.150  33.224  1.00  0.00    -0.237 OA
ATOM     74  O   UNL A   1      36.309  29.720  32.363  1.00  0.00    -0.237 OA
ATOM     75  O   UNL A   1      37.795  27.832  32.868  1.00  0.00    -0.744 OA
ENDBRANCH  69  72
ENDBRANCH  51  65
BRANCH  52  76
ATOM     76  C   UNL A   1      49.250  26.664  26.144  1.00  0.00     0.023 A 
ATOM     77  C   UNL A   1      50.031  25.813  26.950  1.00  0.00     0.012 A 
ATOM     78  C   UNL A   1      49.766  27.111  24.914  1.00  0.00     0.148 A 
ATOM     79  C   UNL A   1      51.313  25.432  26.550  1.00  0.00     0.002 A 
ATOM     80  C   UNL A   1      51.024  26.689  24.498  1.00  0.00     0.091 A 
ATOM     81  F   UNL A   1      49.010  27.928  24.167  1.00  0.00    -0.205 F 
ATOM     82  C   UNL A   1      51.804  25.861  25.321  1.00  0.00     0.022 A 
BRANCH  80  83
ATOM     83  S   UNL A   1      51.693  27.090  22.879  1.00  0.00     0.127 S 
ATOM     84  O   UNL A   1      51.892  28.534  22.986  1.00  0.00    -0.237 OA
ATOM     85  O   UNL A   1      52.924  26.299  22.858  1.00  0.00    -0.237 OA
ATOM     86  O   UNL A   1      50.686  26.662  21.919  1.00  0.00    -0.744 OA
ENDBRANCH  80  83
ENDBRANCH  52  76
BRANCH  64  87
ATOM     87  C   UNL A   1      46.460  32.453  28.882  1.00  0.00     0.023 A 
ATOM     88  C   UNL A   1      47.057  32.672  30.140  1.00  0.00     0.012 A 
ATOM     89  C   UNL A   1      46.475  33.482  27.920  1.00  0.00     0.148 A 
ATOM     90  C   UNL A   1      47.635  33.903  30.445  1.00  0.00     0.002 A 
ATOM     91  C   UNL A   1      47.093  34.692  28.216  1.00  0.00     0.091 A 
ATOM     92  F   UNL A   1      45.884  33.261  26.737  1.00  0.00    -0.205 F 
ATOM     93  C   UNL A   1      47.663  34.908  29.480  1.00  0.00     0.022 A 
BRANCH  91  94
ATOM     94  S   UNL A   1      47.260  36.007  27.003  1.00  0.00     0.127 S 
ATOM     95  O   UNL A   1      45.866  36.380  26.773  1.00  0.00    -0.237 OA
ATOM     96  O   UNL A   1      48.046  37.005  27.730  1.00  0.00    -0.237 OA
ATOM     97  O   UNL A   1      47.947  35.414  25.863  1.00  0.00    -0.744 OA
ENDBRANCH  91  94
ENDBRANCH  64  87
ENDBRANCH  38  39
ENDBRANCH  30  33
ENDBRANCH  28  29
ENDBRANCH  27  28
ENDBRANCH   1  27
TORSDOF 17
ENDMDL
