MODEL 1
REMARK VINA RESULT:     -13.5      0.000      0.000
REMARK SMILES Cc1ccc(C(=O)NCCCCNC(=O)c2ccc(-c3c4nc(c(-c5cccc(S(=O)(=O)[O-])c5F)c5ccc([nH]5)c(-c5cccc(S(=O)(=O)[O-])c5F)c5nc(c(-c6cccc(S(=O)(=O)[O-])c6F)c6ccc3[nH]6)C=C5)C=C4)cc2)c2c1N[C@H](c1ccccc1F)[C@H]1CC=C[C@@H]21
REMARK SMILES IDX 11 1 10 2 9 3 8 4 6 5 7 6 5 8 1 9 2 10 3 11 80 12 4 13 79 14
REMARK SMILES IDX 81 15 94 16 82 17 90 19 93 20 91 21 92 22 83 23 84 24 88 25
REMARK SMILES IDX 85 26 87 27 89 28 86 29 12 30 13 31 14 32 15 34 16 35 17 36
REMARK SMILES IDX 78 37 18 38 77 39 19 40 20 41 21 42 71 43 22 44 76 45 70 46
REMARK SMILES IDX 72 47 23 48 75 49 69 50 68 51 24 53 56 54 36 55 55 56 37 57
REMARK SMILES IDX 40 58 54 59 73 60 38 61 39 62 53 64 74 65 41 66 25 67 26 68
REMARK SMILES IDX 34 69 27 70 29 71 35 72 28 73 30 74 31 75 32 76 33 77 57 78
REMARK SMILES IDX 58 79 66 80 59 81 61 82 67 83 60 84 62 85 63 86 64 87 65 88
REMARK SMILES IDX 42 89 43 90 51 91 44 92 46 93 52 94 45 95 47 96 48 97 49 98
REMARK SMILES IDX 50 99
REMARK H PARENT 8 7 81 18 13 33 72 52 40 63
REMARK Flexibility Score: inf
ROOT
ATOM      1  C   UNL A   1      36.324  21.477  25.431  1.00  0.00     0.023 C 
ENDROOT
BRANCH   1   2
ATOM      2  C   UNL A   1      35.585  22.620  26.135  1.00  0.00     0.023 C 
BRANCH   2   3
ATOM      3  C   UNL A   1      35.750  23.988  25.462  1.00  0.00     0.116 C 
BRANCH   3   4
ATOM      4  N   UNL A   1      35.298  23.922  24.089  1.00  0.00    -0.352 N 
ATOM      5  C   UNL A   1      34.065  23.939  23.486  1.00  0.00     0.251 C 
ATOM      6  O   UNL A   1      34.084  23.659  22.289  1.00  0.00    -0.269 OA
ATOM      7  H   UNL A   1      36.038  23.848  23.446  1.00  0.00     0.163 HD
BRANCH   5   8
ATOM      8  C   UNL A   1      32.770  24.285  24.185  1.00  0.00     0.045 A 
ATOM      9  C   UNL A   1      29.103  25.171  26.330  1.00  0.00     0.046 C 
ATOM     10  C   UNL A   1      30.353  24.892  25.539  1.00  0.00    -0.028 A 
ATOM     11  C   UNL A   1      30.938  23.635  25.658  1.00  0.00     0.006 A 
ATOM     12  C   UNL A   1      30.914  25.839  24.657  1.00  0.00     0.042 A 
ATOM     13  C   UNL A   1      32.106  23.333  24.965  1.00  0.00     0.014 A 
ATOM     14  C   UNL A   1      32.145  25.557  24.007  1.00  0.00    -0.005 A 
ATOM     15  N   UNL A   1      30.252  27.038  24.447  1.00  0.00    -0.377 N 
ATOM     16  C   UNL A   1      32.720  26.602  23.069  1.00  0.00     0.050 C 
ATOM     17  C   UNL A   1      30.920  28.200  23.887  1.00  0.00     0.117 C 
ATOM     18  H   UNL A   1      29.300  27.105  24.686  1.00  0.00     0.161 HD
ATOM     19  C   UNL A   1      31.787  27.774  22.696  1.00  0.00     0.031 C 
ATOM     20  C   UNL A   1      33.940  27.332  23.569  1.00  0.00    -0.023 C 
ATOM     21  C   UNL A   1      32.764  28.893  22.283  1.00  0.00     0.034 C 
ATOM     22  C   UNL A   1      33.971  28.591  23.115  1.00  0.00    -0.030 C 
BRANCH  17  23
ATOM     23  C   UNL A   1      29.860  29.269  23.634  1.00  0.00     0.010 A 
ATOM     24  C   UNL A   1      28.788  28.953  22.773  1.00  0.00     0.009 A 
ATOM     25  C   UNL A   1      29.885  30.559  24.179  1.00  0.00     0.128 A 
ATOM     26  C   UNL A   1      27.790  29.887  22.482  1.00  0.00     0.001 A 
ATOM     27  C   UNL A   1      28.888  31.492  23.896  1.00  0.00     0.039 A 
ATOM     28  F   UNL A   1      30.861  30.950  25.007  1.00  0.00    -0.207 F 
ATOM     29  C   UNL A   1      27.839  31.159  23.046  1.00  0.00     0.003 A 
ENDBRANCH  17  23
ENDBRANCH   5   8
ENDBRANCH   3   4
ENDBRANCH   2   3
ENDBRANCH   1   2
BRANCH   1  30
ATOM     30  C   UNL A   1      37.802  21.737  25.167  1.00  0.00     0.116 C 
BRANCH  30  31
ATOM     31  N   UNL A   1      38.658  20.683  25.690  1.00  0.00    -0.352 N 
ATOM     32  C   UNL A   1      39.808  20.820  26.430  1.00  0.00     0.251 C 
ATOM     33  H   UNL A   1      38.379  19.759  25.491  1.00  0.00     0.163 HD
ATOM     34  O   UNL A   1      40.490  19.851  26.719  1.00  0.00    -0.269 OA
BRANCH  32  35
ATOM     35  C   UNL A   1      40.212  22.179  26.837  1.00  0.00     0.039 A 
ATOM     36  C   UNL A   1      41.143  22.322  27.868  1.00  0.00     0.014 A 
ATOM     37  C   UNL A   1      39.710  23.292  26.157  1.00  0.00     0.014 A 
ATOM     38  C   UNL A   1      41.611  23.594  28.191  1.00  0.00     0.010 A 
ATOM     39  C   UNL A   1      40.208  24.555  26.456  1.00  0.00     0.010 A 
ATOM     40  C   UNL A   1      41.158  24.714  27.476  1.00  0.00    -0.014 A 
BRANCH  40  41
ATOM     41  C   UNL A   1      41.653  26.069  27.798  1.00  0.00     0.031 A 
ATOM     42  C   UNL A   1      43.041  26.468  27.392  1.00  0.00     0.074 A 
ATOM     43  C   UNL A   1      40.876  26.913  28.503  1.00  0.00     0.049 A 
ATOM     44  N   UNL A   1      43.665  27.596  27.599  1.00  0.00    -0.248 NA
ATOM     45  C   UNL A   1      43.839  25.461  26.671  1.00  0.00     0.031 C 
ATOM     46  C   UNL A   1      39.534  26.610  29.001  1.00  0.00     0.029 A 
ATOM     47  N   UNL A   1      41.114  28.192  28.937  1.00  0.00    -0.354 N 
ATOM     48  C   UNL A   1      44.931  27.430  27.056  1.00  0.00     0.074 A 
ATOM     49  C   UNL A   1      45.001  26.084  26.532  1.00  0.00     0.031 C 
ATOM     50  C   UNL A   1      39.063  27.678  29.668  1.00  0.00     0.029 A 
ATOM     51  C   UNL A   1      40.072  28.732  29.653  1.00  0.00     0.049 A 
ATOM     52  H   UNL A   1      41.950  28.677  28.753  1.00  0.00     0.167 HD
ATOM     53  C   UNL A   1      45.935  28.332  26.970  1.00  0.00     0.034 A 
ATOM     54  C   UNL A   1      39.945  29.947  30.223  1.00  0.00     0.034 A 
ATOM     55  C   UNL A   1      45.845  29.684  27.444  1.00  0.00     0.049 A 
ATOM     56  C   UNL A   1      41.063  30.942  30.084  1.00  0.00     0.074 A 
ATOM     57  C   UNL A   1      46.781  30.696  27.336  1.00  0.00     0.029 A 
ATOM     58  N   UNL A   1      44.752  30.214  28.110  1.00  0.00    -0.354 N 
ATOM     59  N   UNL A   1      42.205  30.811  29.455  1.00  0.00    -0.248 NA
ATOM     60  C   UNL A   1      40.867  32.259  30.707  1.00  0.00     0.031 C 
ATOM     61  C   UNL A   1      46.252  31.842  27.934  1.00  0.00     0.029 A 
ATOM     62  C   UNL A   1      44.987  31.541  28.418  1.00  0.00     0.049 A 
ATOM     63  H   UNL A   1      43.929  29.720  28.331  1.00  0.00     0.167 HD
ATOM     64  C   UNL A   1      42.854  32.034  29.583  1.00  0.00     0.074 A 
ATOM     65  C   UNL A   1      41.972  32.898  30.341  1.00  0.00     0.031 C 
ATOM     66  C   UNL A   1      44.075  32.400  29.126  1.00  0.00     0.034 A 
BRANCH  53  67
ATOM     67  C   UNL A   1      47.189  27.910  26.263  1.00  0.00     0.023 A 
ATOM     68  C   UNL A   1      48.243  27.360  27.021  1.00  0.00     0.012 A 
ATOM     69  C   UNL A   1      47.306  27.994  24.864  1.00  0.00     0.148 A 
ATOM     70  C   UNL A   1      49.405  26.912  26.396  1.00  0.00     0.002 A 
ATOM     71  C   UNL A   1      48.458  27.522  24.246  1.00  0.00     0.091 A 
ATOM     72  F   UNL A   1      46.297  28.539  24.169  1.00  0.00    -0.205 F 
ATOM     73  C   UNL A   1      49.508  26.985  25.010  1.00  0.00     0.022 A 
BRANCH  71  74
ATOM     74  S   UNL A   1      48.680  27.528  22.463  1.00  0.00     0.127 S 
ATOM     75  O   UNL A   1      49.975  28.197  22.331  1.00  0.00    -0.237 OA
ATOM     76  O   UNL A   1      48.697  26.100  22.151  1.00  0.00    -0.237 OA
ATOM     77  O   UNL A   1      47.547  28.261  21.918  1.00  0.00    -0.744 OA
ENDBRANCH  71  74
ENDBRANCH  53  67
BRANCH  54  78
ATOM     78  C   UNL A   1      38.667  30.313  30.889  1.00  0.00     0.023 A 
ATOM     79  C   UNL A   1      38.487  29.981  32.245  1.00  0.00     0.012 A 
ATOM     80  C   UNL A   1      37.664  31.036  30.214  1.00  0.00     0.148 A 
ATOM     81  C   UNL A   1      37.324  30.353  32.918  1.00  0.00     0.002 A 
ATOM     82  C   UNL A   1      36.522  31.431  30.900  1.00  0.00     0.091 A 
ATOM     83  F   UNL A   1      37.861  31.338  28.923  1.00  0.00    -0.205 F 
ATOM     84  C   UNL A   1      36.346  31.084  32.249  1.00  0.00     0.022 A 
BRANCH  82  85
ATOM     85  S   UNL A   1      35.244  32.453  30.158  1.00  0.00     0.127 S 
ATOM     86  O   UNL A   1      34.292  32.587  31.258  1.00  0.00    -0.237 OA
ATOM     87  O   UNL A   1      35.988  33.671  29.834  1.00  0.00    -0.237 OA
ATOM     88  O   UNL A   1      34.764  31.709  29.002  1.00  0.00    -0.744 OA
ENDBRANCH  82  85
ENDBRANCH  54  78
BRANCH  66  89
ATOM     89  C   UNL A   1      44.550  33.796  29.417  1.00  0.00     0.023 A 
ATOM     90  C   UNL A   1      45.406  34.012  30.512  1.00  0.00     0.012 A 
ATOM     91  C   UNL A   1      44.266  34.852  28.530  1.00  0.00     0.148 A 
ATOM     92  C   UNL A   1      45.978  35.267  30.722  1.00  0.00     0.002 A 
ATOM     93  C   UNL A   1      44.863  36.091  28.728  1.00  0.00     0.091 A 
ATOM     94  F   UNL A   1      43.438  34.618  27.502  1.00  0.00    -0.205 F 
ATOM     95  C   UNL A   1      45.716  36.301  29.824  1.00  0.00     0.022 A 
BRANCH  93  96
ATOM     96  S   UNL A   1      44.653  37.460  27.585  1.00  0.00     0.127 S 
ATOM     97  O   UNL A   1      44.773  38.613  28.476  1.00  0.00    -0.237 OA
ATOM     98  O   UNL A   1      45.779  37.276  26.670  1.00  0.00    -0.237 OA
ATOM     99  O   UNL A   1      43.342  37.281  26.976  1.00  0.00    -0.744 OA
ENDBRANCH  93  96
ENDBRANCH  66  89
ENDBRANCH  40  41
ENDBRANCH  32  35
ENDBRANCH  30  31
ENDBRANCH   1  30
TORSDOF 15
ENDMDL
MODEL 2
REMARK VINA RESULT:     -12.9      5.289     10.692
REMARK SMILES Cc1ccc(C(=O)NCCCCNC(=O)c2ccc(-c3c4nc(c(-c5cccc(S(=O)(=O)[O-])c5F)c5ccc([nH]5)c(-c5cccc(S(=O)(=O)[O-])c5F)c5nc(c(-c6cccc(S(=O)(=O)[O-])c6F)c6ccc3[nH]6)C=C5)C=C4)cc2)c2c1N[C@H](c1ccccc1F)[C@H]1CC=C[C@@H]21
REMARK SMILES IDX 11 1 10 2 9 3 8 4 6 5 7 6 5 8 1 9 2 10 3 11 80 12 4 13 79 14
REMARK SMILES IDX 81 15 94 16 82 17 90 19 93 20 91 21 92 22 83 23 84 24 88 25
REMARK SMILES IDX 85 26 87 27 89 28 86 29 12 30 13 31 14 32 15 34 16 35 17 36
REMARK SMILES IDX 78 37 18 38 77 39 19 40 20 41 21 42 71 43 22 44 76 45 70 46
REMARK SMILES IDX 72 47 23 48 75 49 69 50 68 51 24 53 56 54 36 55 55 56 37 57
REMARK SMILES IDX 40 58 54 59 73 60 38 61 39 62 53 64 74 65 41 66 25 67 26 68
REMARK SMILES IDX 34 69 27 70 29 71 35 72 28 73 30 74 31 75 32 76 33 77 57 78
REMARK SMILES IDX 58 79 66 80 59 81 61 82 67 83 60 84 62 85 63 86 64 87 65 88
REMARK SMILES IDX 42 89 43 90 51 91 44 92 46 93 52 94 45 95 47 96 48 97 49 98
REMARK SMILES IDX 50 99
REMARK H PARENT 8 7 81 18 13 33 72 52 40 63
REMARK Flexibility Score: inf
ROOT
ATOM      1  C   UNL A   1      32.835  30.295  25.863  1.00  0.00     0.023 C 
ENDROOT
BRANCH   1   2
ATOM      2  C   UNL A   1      31.927  29.065  25.745  1.00  0.00     0.023 C 
BRANCH   2   3
ATOM      3  C   UNL A   1      32.435  27.830  26.498  1.00  0.00     0.116 C 
BRANCH   3   4
ATOM      4  N   UNL A   1      31.339  26.924  26.761  1.00  0.00    -0.352 N 
ATOM      5  C   UNL A   1      30.754  25.901  26.058  1.00  0.00     0.251 C 
ATOM      6  O   UNL A   1      29.701  25.492  26.543  1.00  0.00    -0.269 OA
ATOM      7  H   UNL A   1      30.921  27.074  27.638  1.00  0.00     0.163 HD
BRANCH   5   8
ATOM      8  C   UNL A   1      31.324  25.283  24.802  1.00  0.00     0.045 A 
ATOM      9  C   UNL A   1      33.005  23.677  21.136  1.00  0.00     0.046 C 
ATOM     10  C   UNL A   1      32.402  24.180  22.421  1.00  0.00    -0.028 A 
ATOM     11  C   UNL A   1      31.760  25.415  22.406  1.00  0.00     0.006 A 
ATOM     12  C   UNL A   1      32.426  23.425  23.612  1.00  0.00     0.042 A 
ATOM     13  C   UNL A   1      31.206  25.936  23.571  1.00  0.00     0.014 A 
ATOM     14  C   UNL A   1      31.925  23.987  24.816  1.00  0.00    -0.005 A 
ATOM     15  N   UNL A   1      32.951  22.143  23.585  1.00  0.00    -0.377 N 
ATOM     16  C   UNL A   1      31.972  23.146  26.078  1.00  0.00     0.050 C 
ATOM     17  C   UNL A   1      33.371  21.456  24.793  1.00  0.00     0.117 C 
ATOM     18  H   UNL A   1      33.043  21.684  22.719  1.00  0.00     0.161 HD
ATOM     19  C   UNL A   1      32.320  21.654  25.893  1.00  0.00     0.031 C 
ATOM     20  C   UNL A   1      32.987  23.568  27.109  1.00  0.00    -0.023 C 
ATOM     21  C   UNL A   1      32.866  21.238  27.273  1.00  0.00     0.034 C 
ATOM     22  C   UNL A   1      33.462  22.513  27.782  1.00  0.00    -0.030 C 
BRANCH  17  23
ATOM     23  C   UNL A   1      33.724  20.020  24.414  1.00  0.00     0.010 A 
ATOM     24  C   UNL A   1      32.762  19.259  23.716  1.00  0.00     0.009 A 
ATOM     25  C   UNL A   1      34.934  19.389  24.729  1.00  0.00     0.128 A 
ATOM     26  C   UNL A   1      33.010  17.933  23.351  1.00  0.00     0.001 A 
ATOM     27  C   UNL A   1      35.188  18.067  24.361  1.00  0.00     0.039 A 
ATOM     28  F   UNL A   1      35.907  20.029  25.387  1.00  0.00    -0.207 F 
ATOM     29  C   UNL A   1      34.226  17.337  23.671  1.00  0.00     0.003 A 
ENDBRANCH  17  23
ENDBRANCH   5   8
ENDBRANCH   3   4
ENDBRANCH   2   3
ENDBRANCH   1   2
BRANCH   1  30
ATOM     30  C   UNL A   1      32.946  30.876  27.267  1.00  0.00     0.116 C 
BRANCH  30  31
ATOM     31  N   UNL A   1      32.867  32.328  27.278  1.00  0.00    -0.352 N 
ATOM     32  C   UNL A   1      33.712  33.214  27.903  1.00  0.00     0.251 C 
ATOM     33  H   UNL A   1      32.117  32.726  26.778  1.00  0.00     0.163 HD
ATOM     34  O   UNL A   1      33.472  34.409  27.919  1.00  0.00    -0.269 OA
BRANCH  32  35
ATOM     35  C   UNL A   1      34.905  32.672  28.582  1.00  0.00     0.039 A 
ATOM     36  C   UNL A   1      34.731  31.923  29.746  1.00  0.00     0.014 A 
ATOM     37  C   UNL A   1      36.173  32.862  28.027  1.00  0.00     0.014 A 
ATOM     38  C   UNL A   1      35.838  31.318  30.339  1.00  0.00     0.010 A 
ATOM     39  C   UNL A   1      37.270  32.226  28.598  1.00  0.00     0.010 A 
ATOM     40  C   UNL A   1      37.109  31.453  29.758  1.00  0.00    -0.014 A 
BRANCH  40  41
ATOM     41  C   UNL A   1      38.292  30.809  30.367  1.00  0.00     0.031 A 
ATOM     42  C   UNL A   1      38.723  31.204  31.749  1.00  0.00     0.074 A 
ATOM     43  C   UNL A   1      39.006  29.917  29.656  1.00  0.00     0.049 A 
ATOM     44  N   UNL A   1      39.740  30.774  32.446  1.00  0.00    -0.248 NA
ATOM     45  C   UNL A   1      37.913  32.229  32.432  1.00  0.00     0.031 C 
ATOM     46  C   UNL A   1      38.713  29.501  28.283  1.00  0.00     0.029 A 
ATOM     47  N   UNL A   1      40.134  29.211  29.986  1.00  0.00    -0.354 N 
ATOM     48  C   UNL A   1      39.707  31.487  33.636  1.00  0.00     0.074 A 
ATOM     49  C   UNL A   1      38.586  32.397  33.561  1.00  0.00     0.031 C 
ATOM     50  C   UNL A   1      39.636  28.607  27.890  1.00  0.00     0.029 A 
ATOM     51  C   UNL A   1      40.588  28.396  28.976  1.00  0.00     0.049 A 
ATOM     52  H   UNL A   1      40.577  29.280  30.862  1.00  0.00     0.167 HD
ATOM     53  C   UNL A   1      40.518  31.367  34.712  1.00  0.00     0.034 A 
ATOM     54  C   UNL A   1      41.648  27.564  28.938  1.00  0.00     0.034 A 
ATOM     55  C   UNL A   1      41.598  30.425  34.805  1.00  0.00     0.049 A 
ATOM     56  C   UNL A   1      42.514  27.425  30.159  1.00  0.00     0.074 A 
ATOM     57  C   UNL A   1      42.430  30.176  35.880  1.00  0.00     0.029 A 
ATOM     58  N   UNL A   1      41.990  29.574  33.785  1.00  0.00    -0.354 N 
ATOM     59  N   UNL A   1      42.392  28.013  31.324  1.00  0.00    -0.248 NA
ATOM     60  C   UNL A   1      43.646  26.491  30.073  1.00  0.00     0.031 C 
ATOM     61  C   UNL A   1      43.325  29.169  35.513  1.00  0.00     0.029 A 
ATOM     62  C   UNL A   1      43.051  28.795  34.205  1.00  0.00     0.049 A 
ATOM     63  H   UNL A   1      41.575  29.530  32.893  1.00  0.00     0.167 HD
ATOM     64  C   UNL A   1      43.412  27.504  32.118  1.00  0.00     0.074 A 
ATOM     65  C   UNL A   1      44.139  26.550  31.305  1.00  0.00     0.031 C 
ATOM     66  C   UNL A   1      43.727  27.812  33.399  1.00  0.00     0.034 A 
BRANCH  53  67
ATOM     67  C   UNL A   1      40.215  32.219  35.909  1.00  0.00     0.023 A 
ATOM     68  C   UNL A   1      40.986  33.379  36.128  1.00  0.00     0.012 A 
ATOM     69  C   UNL A   1      39.145  31.919  36.771  1.00  0.00     0.148 A 
ATOM     70  C   UNL A   1      40.705  34.222  37.202  1.00  0.00     0.002 A 
ATOM     71  C   UNL A   1      38.856  32.779  37.825  1.00  0.00     0.091 A 
ATOM     72  F   UNL A   1      38.440  30.800  36.550  1.00  0.00    -0.205 F 
ATOM     73  C   UNL A   1      39.636  33.926  38.043  1.00  0.00     0.022 A 
BRANCH  71  74
ATOM     74  S   UNL A   1      37.475  32.517  38.944  1.00  0.00     0.127 S 
ATOM     75  O   UNL A   1      37.757  33.500  39.991  1.00  0.00    -0.237 OA
ATOM     76  O   UNL A   1      36.328  32.839  38.097  1.00  0.00    -0.237 OA
ATOM     77  O   UNL A   1      37.555  31.126  39.365  1.00  0.00    -0.744 OA
ENDBRANCH  71  74
ENDBRANCH  53  67
BRANCH  54  78
ATOM     78  C   UNL A   1      41.880  26.728  27.730  1.00  0.00     0.023 A 
ATOM     79  C   UNL A   1      42.503  27.310  26.611  1.00  0.00     0.012 A 
ATOM     80  C   UNL A   1      41.550  25.360  27.706  1.00  0.00     0.148 A 
ATOM     81  C   UNL A   1      42.785  26.546  25.478  1.00  0.00     0.002 A 
ATOM     82  C   UNL A   1      41.863  24.597  26.587  1.00  0.00     0.091 A 
ATOM     83  F   UNL A   1      40.956  24.832  28.786  1.00  0.00    -0.205 F 
ATOM     84  C   UNL A   1      42.472  25.189  25.470  1.00  0.00     0.022 A 
BRANCH  82  85
ATOM     85  S   UNL A   1      41.586  22.823  26.509  1.00  0.00     0.127 S 
ATOM     86  O   UNL A   1      40.127  22.749  26.515  1.00  0.00    -0.237 OA
ATOM     87  O   UNL A   1      42.216  22.480  25.233  1.00  0.00    -0.237 OA
ATOM     88  O   UNL A   1      42.246  22.267  27.682  1.00  0.00    -0.744 OA
ENDBRANCH  82  85
ENDBRANCH  54  78
BRANCH  66  89
ATOM     89  C   UNL A   1      44.902  27.115  34.026  1.00  0.00     0.023 A 
ATOM     90  C   UNL A   1      46.184  27.677  33.885  1.00  0.00     0.012 A 
ATOM     91  C   UNL A   1      44.714  25.999  34.864  1.00  0.00     0.148 A 
ATOM     92  C   UNL A   1      47.270  27.136  34.572  1.00  0.00     0.002 A 
ATOM     93  C   UNL A   1      45.794  25.485  35.570  1.00  0.00     0.091 A 
ATOM     94  F   UNL A   1      43.483  25.480  34.970  1.00  0.00    -0.205 F 
ATOM     95  C   UNL A   1      47.072  26.050  35.423  1.00  0.00     0.022 A 
BRANCH  93  96
ATOM     96  S   UNL A   1      45.628  24.141  36.750  1.00  0.00     0.127 S 
ATOM     97  O   UNL A   1      45.100  23.069  35.907  1.00  0.00    -0.237 OA
ATOM     98  O   UNL A   1      47.008  23.945  37.193  1.00  0.00    -0.237 OA
ATOM     99  O   UNL A   1      44.721  24.621  37.784  1.00  0.00    -0.744 OA
ENDBRANCH  93  96
ENDBRANCH  66  89
ENDBRANCH  40  41
ENDBRANCH  32  35
ENDBRANCH  30  31
ENDBRANCH   1  30
TORSDOF 15
ENDMDL
MODEL 3
REMARK VINA RESULT:     -12.9      5.072      9.852
REMARK SMILES Cc1ccc(C(=O)NCCCCNC(=O)c2ccc(-c3c4nc(c(-c5cccc(S(=O)(=O)[O-])c5F)c5ccc([nH]5)c(-c5cccc(S(=O)(=O)[O-])c5F)c5nc(c(-c6cccc(S(=O)(=O)[O-])c6F)c6ccc3[nH]6)C=C5)C=C4)cc2)c2c1N[C@H](c1ccccc1F)[C@H]1CC=C[C@@H]21
REMARK SMILES IDX 11 1 10 2 9 3 8 4 6 5 7 6 5 8 1 9 2 10 3 11 80 12 4 13 79 14
REMARK SMILES IDX 81 15 94 16 82 17 90 19 93 20 91 21 92 22 83 23 84 24 88 25
REMARK SMILES IDX 85 26 87 27 89 28 86 29 12 30 13 31 14 32 15 34 16 35 17 36
REMARK SMILES IDX 78 37 18 38 77 39 19 40 20 41 21 42 71 43 22 44 76 45 70 46
REMARK SMILES IDX 72 47 23 48 75 49 69 50 68 51 24 53 56 54 36 55 55 56 37 57
REMARK SMILES IDX 40 58 54 59 73 60 38 61 39 62 53 64 74 65 41 66 25 67 26 68
REMARK SMILES IDX 34 69 27 70 29 71 35 72 28 73 30 74 31 75 32 76 33 77 57 78
REMARK SMILES IDX 58 79 66 80 59 81 61 82 67 83 60 84 62 85 63 86 64 87 65 88
REMARK SMILES IDX 42 89 43 90 51 91 44 92 46 93 52 94 45 95 47 96 48 97 49 98
REMARK SMILES IDX 50 99
REMARK H PARENT 8 7 81 18 13 33 72 52 40 63
REMARK Flexibility Score: inf
ROOT
ATOM      1  C   UNL A   1      32.930  27.922  26.346  1.00  0.00     0.023 C 
ENDROOT
BRANCH   1   2
ATOM      2  C   UNL A   1      33.358  28.585  25.032  1.00  0.00     0.023 C 
BRANCH   2   3
ATOM      3  C   UNL A   1      32.195  29.097  24.174  1.00  0.00     0.116 C 
BRANCH   3   4
ATOM      4  N   UNL A   1      31.007  28.314  24.433  1.00  0.00    -0.352 N 
ATOM      5  C   UNL A   1      30.507  27.140  23.930  1.00  0.00     0.251 C 
ATOM      6  O   UNL A   1      29.350  26.897  24.269  1.00  0.00    -0.269 OA
ATOM      7  H   UNL A   1      30.430  28.712  25.123  1.00  0.00     0.163 HD
BRANCH   5   8
ATOM      8  C   UNL A   1      31.276  26.185  23.047  1.00  0.00     0.045 A 
ATOM      9  C   UNL A   1      33.580  23.584  20.445  1.00  0.00     0.046 C 
ATOM     10  C   UNL A   1      32.748  24.440  21.362  1.00  0.00    -0.028 A 
ATOM     11  C   UNL A   1      32.409  25.721  20.937  1.00  0.00     0.006 A 
ATOM     12  C   UNL A   1      32.267  23.970  22.602  1.00  0.00     0.042 A 
ATOM     13  C   UNL A   1      31.660  26.560  21.756  1.00  0.00     0.014 A 
ATOM     14  C   UNL A   1      31.565  24.850  23.468  1.00  0.00    -0.005 A 
ATOM     15  N   UNL A   1      32.499  22.651  22.957  1.00  0.00    -0.377 N 
ATOM     16  C   UNL A   1      31.067  24.309  24.795  1.00  0.00     0.050 C 
ATOM     17  C   UNL A   1      32.397  22.193  24.331  1.00  0.00     0.117 C 
ATOM     18  H   UNL A   1      32.741  22.004  22.256  1.00  0.00     0.161 HD
ATOM     19  C   UNL A   1      31.137  22.778  24.980  1.00  0.00     0.031 C 
ATOM     20  C   UNL A   1      31.802  24.796  26.018  1.00  0.00    -0.023 C 
ATOM     21  C   UNL A   1      31.158  22.601  26.511  1.00  0.00     0.034 C 
ATOM     22  C   UNL A   1      31.831  23.856  26.972  1.00  0.00    -0.030 C 
BRANCH  17  23
ATOM     23  C   UNL A   1      32.540  20.673  24.328  1.00  0.00     0.010 A 
ATOM     24  C   UNL A   1      32.174  19.972  23.159  1.00  0.00     0.009 A 
ATOM     25  C   UNL A   1      32.989  19.913  25.415  1.00  0.00     0.128 A 
ATOM     26  C   UNL A   1      32.263  18.579  23.089  1.00  0.00     0.001 A 
ATOM     27  C   UNL A   1      33.085  18.523  25.348  1.00  0.00     0.039 A 
ATOM     28  F   UNL A   1      33.359  20.489  26.566  1.00  0.00    -0.207 F 
ATOM     29  C   UNL A   1      32.722  17.853  24.185  1.00  0.00     0.003 A 
ENDBRANCH  17  23
ENDBRANCH   5   8
ENDBRANCH   3   4
ENDBRANCH   2   3
ENDBRANCH   1   2
BRANCH   1  30
ATOM     30  C   UNL A   1      33.563  28.515  27.598  1.00  0.00     0.116 C 
BRANCH  30  31
ATOM     31  N   UNL A   1      33.562  29.970  27.591  1.00  0.00    -0.352 N 
ATOM     32  C   UNL A   1      34.583  30.816  27.952  1.00  0.00     0.251 C 
ATOM     33  H   UNL A   1      32.729  30.401  27.290  1.00  0.00     0.163 HD
ATOM     34  O   UNL A   1      34.414  32.023  27.997  1.00  0.00    -0.269 OA
BRANCH  32  35
ATOM     35  C   UNL A   1      35.882  30.218  28.314  1.00  0.00     0.039 A 
ATOM     36  C   UNL A   1      36.916  30.243  27.377  1.00  0.00     0.014 A 
ATOM     37  C   UNL A   1      36.079  29.695  29.595  1.00  0.00     0.014 A 
ATOM     38  C   UNL A   1      38.178  29.776  27.744  1.00  0.00     0.010 A 
ATOM     39  C   UNL A   1      37.348  29.267  29.969  1.00  0.00     0.010 A 
ATOM     40  C   UNL A   1      38.403  29.302  29.045  1.00  0.00    -0.014 A 
BRANCH  40  41
ATOM     41  C   UNL A   1      39.737  28.815  29.454  1.00  0.00     0.031 A 
ATOM     42  C   UNL A   1      40.489  29.531  30.537  1.00  0.00     0.074 A 
ATOM     43  C   UNL A   1      40.292  27.770  28.811  1.00  0.00     0.049 A 
ATOM     44  N   UNL A   1      41.674  29.275  31.021  1.00  0.00    -0.248 NA
ATOM     45  C   UNL A   1      39.828  30.698  31.147  1.00  0.00     0.031 C 
ATOM     46  C   UNL A   1      39.677  27.035  27.704  1.00  0.00     0.029 A 
ATOM     47  N   UNL A   1      41.504  27.156  28.988  1.00  0.00    -0.354 N 
ATOM     48  C   UNL A   1      41.911  30.256  31.974  1.00  0.00     0.074 A 
ATOM     49  C   UNL A   1      40.760  31.130  31.985  1.00  0.00     0.031 C 
ATOM     50  C   UNL A   1      40.516  26.064  27.304  1.00  0.00     0.029 A 
ATOM     51  C   UNL A   1      41.727  26.115  28.117  1.00  0.00     0.049 A 
ATOM     52  H   UNL A   1      42.155  27.433  29.673  1.00  0.00     0.167 HD
ATOM     53  C   UNL A   1      42.979  30.394  32.792  1.00  0.00     0.034 A 
ATOM     54  C   UNL A   1      42.786  25.290  27.997  1.00  0.00     0.034 A 
ATOM     55  C   UNL A   1      44.097  29.494  32.816  1.00  0.00     0.049 A 
ATOM     56  C   UNL A   1      43.945  25.445  28.942  1.00  0.00     0.074 A 
ATOM     57  C   UNL A   1      45.192  29.507  33.660  1.00  0.00     0.029 A 
ATOM     58  N   UNL A   1      44.259  28.417  31.960  1.00  0.00    -0.354 N 
ATOM     59  N   UNL A   1      44.096  26.300  29.924  1.00  0.00    -0.248 NA
ATOM     60  C   UNL A   1      45.067  24.508  28.783  1.00  0.00     0.031 C 
ATOM     61  C   UNL A   1      46.017  28.432  33.317  1.00  0.00     0.029 A 
ATOM     62  C   UNL A   1      45.435  27.754  32.257  1.00  0.00     0.049 A 
ATOM     63  H   UNL A   1      43.630  28.160  31.247  1.00  0.00     0.167 HD
ATOM     64  C   UNL A   1      45.314  25.991  30.516  1.00  0.00     0.074 A 
ATOM     65  C   UNL A   1      45.858  24.861  29.790  1.00  0.00     0.031 C 
ATOM     66  C   UNL A   1      45.932  26.598  31.557  1.00  0.00     0.034 A 
BRANCH  53  67
ATOM     67  C   UNL A   1      42.948  31.515  33.789  1.00  0.00     0.023 A 
ATOM     68  C   UNL A   1      43.452  32.775  33.409  1.00  0.00     0.012 A 
ATOM     69  C   UNL A   1      42.375  31.349  35.063  1.00  0.00     0.148 A 
ATOM     70  C   UNL A   1      43.399  33.854  34.289  1.00  0.00     0.002 A 
ATOM     71  C   UNL A   1      42.302  32.436  35.926  1.00  0.00     0.091 A 
ATOM     72  F   UNL A   1      41.921  30.135  35.406  1.00  0.00    -0.205 F 
ATOM     73  C   UNL A   1      42.817  33.686  35.542  1.00  0.00     0.022 A 
BRANCH  71  74
ATOM     74  S   UNL A   1      41.536  32.343  37.548  1.00  0.00     0.127 S 
ATOM     75  O   UNL A   1      40.174  31.930  37.206  1.00  0.00    -0.237 OA
ATOM     76  O   UNL A   1      42.338  31.313  38.207  1.00  0.00    -0.237 OA
ATOM     77  O   UNL A   1      41.652  33.673  38.127  1.00  0.00    -0.744 OA
ENDBRANCH  71  74
ENDBRANCH  53  67
BRANCH  54  78
ATOM     78  C   UNL A   1      42.744  24.184  27.005  1.00  0.00     0.023 A 
ATOM     79  C   UNL A   1      43.404  24.350  25.773  1.00  0.00     0.012 A 
ATOM     80  C   UNL A   1      42.115  22.957  27.294  1.00  0.00     0.148 A 
ATOM     81  C   UNL A   1      43.431  23.316  24.838  1.00  0.00     0.002 A 
ATOM     82  C   UNL A   1      42.174  21.920  26.371  1.00  0.00     0.091 A 
ATOM     83  F   UNL A   1      41.494  22.827  28.475  1.00  0.00    -0.205 F 
ATOM     84  C   UNL A   1      42.824  22.100  25.139  1.00  0.00     0.022 A 
BRANCH  82  85
ATOM     85  S   UNL A   1      41.504  20.285  26.698  1.00  0.00     0.127 S 
ATOM     86  O   UNL A   1      40.085  20.576  26.883  1.00  0.00    -0.237 OA
ATOM     87  O   UNL A   1      41.833  19.576  25.461  1.00  0.00    -0.237 OA
ATOM     88  O   UNL A   1      42.203  19.801  27.881  1.00  0.00    -0.744 OA
ENDBRANCH  82  85
ENDBRANCH  54  78
BRANCH  66  89
ATOM     89  C   UNL A   1      47.267  26.065  31.996  1.00  0.00     0.023 A 
ATOM     90  C   UNL A   1      48.434  26.557  31.385  1.00  0.00     0.012 A 
ATOM     91  C   UNL A   1      47.367  25.196  33.100  1.00  0.00     0.148 A 
ATOM     92  C   UNL A   1      49.690  26.191  31.867  1.00  0.00     0.002 A 
ATOM     93  C   UNL A   1      48.621  24.860  33.594  1.00  0.00     0.091 A 
ATOM     94  F   UNL A   1      46.237  24.736  33.655  1.00  0.00    -0.205 F 
ATOM     95  C   UNL A   1      49.783  25.354  32.978  1.00  0.00     0.022 A 
BRANCH  93  96
ATOM     96  S   UNL A   1      48.844  23.855  35.066  1.00  0.00     0.127 S 
ATOM     97  O   UNL A   1      50.300  23.828  35.191  1.00  0.00    -0.237 OA
ATOM     98  O   UNL A   1      48.158  24.645  36.088  1.00  0.00    -0.237 OA
ATOM     99  O   UNL A   1      48.223  22.570  34.776  1.00  0.00    -0.744 OA
ENDBRANCH  93  96
ENDBRANCH  66  89
ENDBRANCH  40  41
ENDBRANCH  32  35
ENDBRANCH  30  31
ENDBRANCH   1  30
TORSDOF 15
ENDMDL
