MODEL 1
REMARK VINA RESULT:     -13.3      0.000      0.000
REMARK SMILES CSc1ccc(/C=C2\C(C)=C(CC(=O)NCCCCNC(=O)c3ccc(-c4c5nc(c(-c6cccc(S(=O)(=O)[O-])c6F)c6ccc([nH]6)c(-c6cccc(S(=O)(=O)[O-])c6F)c6nc(c(-c7cccc(S(=O)(=O)[O-])c7F)c7ccc4[nH]7)C=C6)C=C5)cc3)c3cc(F)ccc32)cc1
REMARK SMILES IDX 17 1 16 2 15 3 13 4 14 5 12 7 11 8 7 9 8 10 9 11 92 12 10 13
REMARK SMILES IDX 86 14 91 15 87 16 90 17 88 18 89 19 6 20 3 21 4 22 94 23
REMARK SMILES IDX 5 24 93 25 2 26 1 27 18 28 19 29 20 30 21 31 22 33 23 34
REMARK SMILES IDX 24 35 85 36 25 37 84 38 26 39 27 40 28 41 78 42 29 43 83 44
REMARK SMILES IDX 77 45 79 46 30 47 82 48 76 49 75 50 31 52 63 53 43 54 62 55
REMARK SMILES IDX 44 56 47 57 61 58 80 59 45 60 46 61 60 63 81 64 48 65 32 66
REMARK SMILES IDX 33 67 41 68 34 69 36 70 42 71 35 72 37 73 38 74 39 75 40 76
REMARK SMILES IDX 64 77 65 78 73 79 66 80 68 81 74 82 67 83 69 84 70 85 71 86
REMARK SMILES IDX 72 87 49 88 50 89 58 90 51 91 53 92 59 93 52 94 54 95 55 96
REMARK SMILES IDX 56 97 57 98
REMARK H PARENT 15 6 20 32 79 51 47 62
REMARK Flexibility Score: inf
ROOT
ATOM      1  C   UNL A   1      31.411  27.535  26.367  1.00  0.00     0.023 C 
ENDROOT
BRANCH   1   2
ATOM      2  C   UNL A   1      32.031  26.161  26.613  1.00  0.00     0.116 C 
BRANCH   2   3
ATOM      3  N   UNL A   1      31.034  25.112  26.600  1.00  0.00    -0.356 N 
ATOM      4  C   UNL A   1      31.248  23.762  26.586  1.00  0.00     0.224 C 
ATOM      5  O   UNL A   1      30.285  23.001  26.492  1.00  0.00    -0.275 OA
ATOM      6  H   UNL A   1      30.094  25.405  26.600  1.00  0.00     0.163 HD
BRANCH   4   7
ATOM      7  C   UNL A   1      32.667  23.233  26.698  1.00  0.00     0.136 C 
BRANCH   7   8
ATOM      8  C   UNL A   1      33.151  22.719  25.358  1.00  0.00    -0.027 C 
ATOM      9  C   UNL A   1      34.302  25.576  23.799  1.00  0.00     0.017 C 
ATOM     10  C   UNL A   1      34.217  24.293  24.179  1.00  0.00    -0.014 C 
ATOM     11  C   UNL A   1      33.016  23.437  24.205  1.00  0.00    -0.039 C 
ATOM     12  C   UNL A   1      35.290  23.409  24.680  1.00  0.00    -0.010 A 
ATOM     13  C   UNL A   1      32.942  22.647  22.878  1.00  0.00     0.045 C 
ATOM     14  C   UNL A   1      34.591  22.375  25.337  1.00  0.00    -0.011 A 
ATOM     15  C   UNL A   1      36.556  23.192  24.163  1.00  0.00     0.012 A 
ATOM     16  C   UNL A   1      35.113  21.102  25.479  1.00  0.00     0.048 A 
ATOM     17  C   UNL A   1      37.085  21.900  24.282  1.00  0.00     0.040 A 
ATOM     18  C   UNL A   1      36.363  20.876  24.920  1.00  0.00     0.123 A 
ATOM     19  F   UNL A   1      36.843  19.625  24.887  1.00  0.00    -0.207 F 
BRANCH   9  20
ATOM     20  C   UNL A   1      33.322  26.400  23.041  1.00  0.00    -0.025 A 
ATOM     21  C   UNL A   1      31.162  28.166  22.841  1.00  0.00     0.007 A 
ATOM     22  C   UNL A   1      32.456  28.653  22.723  1.00  0.00     0.015 A 
ATOM     23  C   UNL A   1      30.942  26.789  22.802  1.00  0.00     0.015 A 
ATOM     24  C   UNL A   1      33.525  27.762  22.789  1.00  0.00     0.009 A 
ATOM     25  C   UNL A   1      32.019  25.906  22.907  1.00  0.00     0.009 A 
BRANCH  21  26
ATOM     26  S   UNL A   1      29.860  29.266  23.358  1.00  0.00    -0.130 SA
ATOM     27  C   UNL A   1      29.679  30.144  21.769  1.00  0.00     0.091 C 
ENDBRANCH  21  26
ENDBRANCH   9  20
ENDBRANCH   7   8
ENDBRANCH   4   7
ENDBRANCH   2   3
ENDBRANCH   1   2
BRANCH   1  28
ATOM     28  C   UNL A   1      31.876  28.667  27.264  1.00  0.00     0.023 C 
BRANCH  28  29
ATOM     29  C   UNL A   1      32.956  29.530  26.657  1.00  0.00     0.116 C 
BRANCH  29  30
ATOM     30  N   UNL A   1      32.743  30.955  26.864  1.00  0.00    -0.352 N 
ATOM     31  C   UNL A   1      33.584  31.840  27.498  1.00  0.00     0.251 C 
ATOM     32  H   UNL A   1      31.902  31.328  26.511  1.00  0.00     0.163 HD
ATOM     33  O   UNL A   1      33.263  33.000  27.677  1.00  0.00    -0.269 OA
BRANCH  31  34
ATOM     34  C   UNL A   1      34.870  31.312  27.998  1.00  0.00     0.039 A 
ATOM     35  C   UNL A   1      35.960  32.177  28.084  1.00  0.00     0.014 A 
ATOM     36  C   UNL A   1      34.948  30.003  28.478  1.00  0.00     0.014 A 
ATOM     37  C   UNL A   1      37.128  31.734  28.701  1.00  0.00     0.010 A 
ATOM     38  C   UNL A   1      36.069  29.603  29.184  1.00  0.00     0.010 A 
ATOM     39  C   UNL A   1      37.180  30.452  29.275  1.00  0.00    -0.014 A 
BRANCH  39  40
ATOM     40  C   UNL A   1      38.412  29.953  29.927  1.00  0.00     0.031 A 
ATOM     41  C   UNL A   1      38.773  30.458  31.297  1.00  0.00     0.074 A 
ATOM     42  C   UNL A   1      39.233  29.118  29.263  1.00  0.00     0.049 A 
ATOM     43  N   UNL A   1      39.823  30.186  32.025  1.00  0.00    -0.248 NA
ATOM     44  C   UNL A   1      37.852  31.429  31.916  1.00  0.00     0.031 C 
ATOM     45  C   UNL A   1      39.030  28.637  27.894  1.00  0.00     0.029 A 
ATOM     46  N   UNL A   1      40.416  28.541  29.647  1.00  0.00    -0.354 N 
ATOM     47  C   UNL A   1      39.709  30.978  33.161  1.00  0.00     0.074 A 
ATOM     48  C   UNL A   1      38.518  31.781  33.004  1.00  0.00     0.031 C 
ATOM     49  C   UNL A   1      40.046  27.824  27.561  1.00  0.00     0.029 A 
ATOM     50  C   UNL A   1      40.979  27.741  28.680  1.00  0.00     0.049 A 
ATOM     51  H   UNL A   1      40.824  28.686  30.530  1.00  0.00     0.167 HD
ATOM     52  C   UNL A   1      40.498  31.004  34.259  1.00  0.00     0.034 A 
ATOM     53  C   UNL A   1      42.113  27.014  28.706  1.00  0.00     0.034 A 
ATOM     54  C   UNL A   1      41.641  30.153  34.434  1.00  0.00     0.049 A 
ATOM     55  C   UNL A   1      42.929  26.996  29.971  1.00  0.00     0.074 A 
ATOM     56  C   UNL A   1      42.466  30.033  35.538  1.00  0.00     0.029 A 
ATOM     57  N   UNL A   1      42.116  29.268  33.480  1.00  0.00    -0.354 N 
ATOM     58  N   UNL A   1      42.721  27.634  31.097  1.00  0.00    -0.248 NA
ATOM     59  C   UNL A   1      44.110  26.121  29.986  1.00  0.00     0.031 C 
ATOM     60  C   UNL A   1      43.443  29.074  35.247  1.00  0.00     0.029 A 
ATOM     61  C   UNL A   1      43.216  28.588  33.969  1.00  0.00     0.049 A 
ATOM     62  H   UNL A   1      41.726  29.140  32.584  1.00  0.00     0.167 HD
ATOM     63  C   UNL A   1      43.715  27.204  31.969  1.00  0.00     0.074 A 
ATOM     64  C   UNL A   1      44.514  26.238  31.243  1.00  0.00     0.031 C 
ATOM     65  C   UNL A   1      43.953  27.581  33.249  1.00  0.00     0.034 A 
BRANCH  52  66
ATOM     66  C   UNL A   1      40.102  31.932  35.377  1.00  0.00     0.023 A 
ATOM     67  C   UNL A   1      40.722  33.194  35.483  1.00  0.00     0.012 A 
ATOM     68  C   UNL A   1      39.108  31.572  36.306  1.00  0.00     0.148 A 
ATOM     69  C   UNL A   1      40.390  34.067  36.518  1.00  0.00     0.002 A 
ATOM     70  C   UNL A   1      38.747  32.468  37.307  1.00  0.00     0.091 A 
ATOM     71  F   UNL A   1      38.548  30.358  36.209  1.00  0.00    -0.205 F 
ATOM     72  C   UNL A   1      39.396  33.708  37.422  1.00  0.00     0.022 A 
BRANCH  70  73
ATOM     73  S   UNL A   1      37.422  32.131  38.472  1.00  0.00     0.127 S 
ATOM     74  O   UNL A   1      38.033  32.533  39.739  1.00  0.00    -0.237 OA
ATOM     75  O   UNL A   1      36.361  33.021  37.998  1.00  0.00    -0.237 OA
ATOM     76  O   UNL A   1      37.125  30.712  38.340  1.00  0.00    -0.744 OA
ENDBRANCH  70  73
ENDBRANCH  52  66
BRANCH  53  77
ATOM     77  C   UNL A   1      42.479  26.162  27.540  1.00  0.00     0.023 A 
ATOM     78  C   UNL A   1      43.296  26.700  26.527  1.00  0.00     0.012 A 
ATOM     79  C   UNL A   1      42.056  24.823  27.442  1.00  0.00     0.148 A 
ATOM     80  C   UNL A   1      43.657  25.933  25.419  1.00  0.00     0.002 A 
ATOM     81  C   UNL A   1      42.462  24.048  26.361  1.00  0.00     0.091 A 
ATOM     82  F   UNL A   1      41.273  24.331  28.413  1.00  0.00    -0.205 F 
ATOM     83  C   UNL A   1      43.248  24.605  25.340  1.00  0.00     0.022 A 
BRANCH  81  84
ATOM     84  S   UNL A   1      42.090  22.295  26.239  1.00  0.00     0.127 S 
ATOM     85  O   UNL A   1      40.634  22.305  26.129  1.00  0.00    -0.237 OA
ATOM     86  O   UNL A   1      42.798  21.918  25.015  1.00  0.00    -0.237 OA
ATOM     87  O   UNL A   1      42.631  21.694  27.451  1.00  0.00    -0.744 OA
ENDBRANCH  81  84
ENDBRANCH  53  77
BRANCH  65  88
ATOM     88  C   UNL A   1      45.094  26.914  33.971  1.00  0.00     0.023 A 
ATOM     89  C   UNL A   1      46.379  27.487  33.932  1.00  0.00     0.012 A 
ATOM     90  C   UNL A   1      44.871  25.763  34.751  1.00  0.00     0.148 A 
ATOM     91  C   UNL A   1      47.435  26.904  34.629  1.00  0.00     0.002 A 
ATOM     92  C   UNL A   1      45.917  25.215  35.483  1.00  0.00     0.091 A 
ATOM     93  F   UNL A   1      43.644  25.220  34.759  1.00  0.00    -0.205 F 
ATOM     94  C   UNL A   1      47.201  25.777  35.414  1.00  0.00     0.022 A 
BRANCH  92  95
ATOM     95  S   UNL A   1      45.675  23.825  36.595  1.00  0.00     0.127 S 
ATOM     96  O   UNL A   1      47.029  23.609  37.101  1.00  0.00    -0.237 OA
ATOM     97  O   UNL A   1      44.735  24.367  37.577  1.00  0.00    -0.237 OA
ATOM     98  O   UNL A   1      45.129  22.752  35.774  1.00  0.00    -0.744 OA
ENDBRANCH  92  95
ENDBRANCH  65  88
ENDBRANCH  39  40
ENDBRANCH  31  34
ENDBRANCH  29  30
ENDBRANCH  28  29
ENDBRANCH   1  28
TORSDOF 17
ENDMDL
MODEL 2
REMARK VINA RESULT:     -13.0      5.211     10.219
REMARK SMILES CSc1ccc(/C=C2\C(C)=C(CC(=O)NCCCCNC(=O)c3ccc(-c4c5nc(c(-c6cccc(S(=O)(=O)[O-])c6F)c6ccc([nH]6)c(-c6cccc(S(=O)(=O)[O-])c6F)c6nc(c(-c7cccc(S(=O)(=O)[O-])c7F)c7ccc4[nH]7)C=C6)C=C5)cc3)c3cc(F)ccc32)cc1
REMARK SMILES IDX 17 1 16 2 15 3 13 4 14 5 12 7 11 8 7 9 8 10 9 11 92 12 10 13
REMARK SMILES IDX 86 14 91 15 87 16 90 17 88 18 89 19 6 20 3 21 4 22 94 23
REMARK SMILES IDX 5 24 93 25 2 26 1 27 18 28 19 29 20 30 21 31 22 33 23 34
REMARK SMILES IDX 24 35 85 36 25 37 84 38 26 39 27 40 28 41 78 42 29 43 83 44
REMARK SMILES IDX 77 45 79 46 30 47 82 48 76 49 75 50 31 52 63 53 43 54 62 55
REMARK SMILES IDX 44 56 47 57 61 58 80 59 45 60 46 61 60 63 81 64 48 65 32 66
REMARK SMILES IDX 33 67 41 68 34 69 36 70 42 71 35 72 37 73 38 74 39 75 40 76
REMARK SMILES IDX 64 77 65 78 73 79 66 80 68 81 74 82 67 83 69 84 70 85 71 86
REMARK SMILES IDX 72 87 49 88 50 89 58 90 51 91 53 92 59 93 52 94 54 95 55 96
REMARK SMILES IDX 56 97 57 98
REMARK H PARENT 15 6 20 32 79 51 47 62
REMARK Flexibility Score: inf
ROOT
ATOM      1  C   UNL A   1      35.288  22.808  23.542  1.00  0.00     0.023 C 
ENDROOT
BRANCH   1   2
ATOM      2  C   UNL A   1      34.755  24.234  23.416  1.00  0.00     0.116 C 
BRANCH   2   3
ATOM      3  N   UNL A   1      33.761  24.345  22.370  1.00  0.00    -0.356 N 
ATOM      4  C   UNL A   1      32.977  25.427  22.080  1.00  0.00     0.224 C 
ATOM      5  O   UNL A   1      32.117  25.329  21.204  1.00  0.00    -0.275 OA
ATOM      6  H   UNL A   1      33.634  23.550  21.804  1.00  0.00     0.163 HD
BRANCH   4   7
ATOM      7  C   UNL A   1      33.194  26.726  22.835  1.00  0.00     0.136 C 
BRANCH   7   8
ATOM      8  C   UNL A   1      32.102  26.933  23.864  1.00  0.00    -0.027 C 
ATOM      9  C   UNL A   1      33.174  25.017  26.528  1.00  0.00     0.017 C 
ATOM     10  C   UNL A   1      32.619  26.027  25.843  1.00  0.00    -0.014 C 
ATOM     11  C   UNL A   1      31.688  25.938  24.702  1.00  0.00    -0.039 C 
ATOM     12  C   UNL A   1      32.800  27.480  26.038  1.00  0.00    -0.010 A 
ATOM     13  C   UNL A   1      30.239  26.015  25.237  1.00  0.00     0.045 C 
ATOM     14  C   UNL A   1      32.378  28.036  24.811  1.00  0.00    -0.011 A 
ATOM     15  C   UNL A   1      32.745  28.219  27.208  1.00  0.00     0.012 A 
ATOM     16  C   UNL A   1      31.873  29.320  24.715  1.00  0.00     0.048 A 
ATOM     17  C   UNL A   1      32.213  29.514  27.125  1.00  0.00     0.040 A 
ATOM     18  C   UNL A   1      31.777  30.041  25.896  1.00  0.00     0.123 A 
ATOM     19  F   UNL A   1      31.147  31.225  25.886  1.00  0.00    -0.207 F 
BRANCH   9  20
ATOM     20  C   UNL A   1      32.808  23.575  26.542  1.00  0.00    -0.025 A 
ATOM     21  C   UNL A   1      33.082  20.916  25.722  1.00  0.00     0.007 A 
ATOM     22  C   UNL A   1      33.650  21.322  26.921  1.00  0.00     0.015 A 
ATOM     23  C   UNL A   1      32.177  21.756  25.072  1.00  0.00     0.015 A 
ATOM     24  C   UNL A   1      33.479  22.640  27.340  1.00  0.00     0.009 A 
ATOM     25  C   UNL A   1      32.044  23.085  25.478  1.00  0.00     0.009 A 
BRANCH  21  26
ATOM     26  S   UNL A   1      33.750  19.496  24.879  1.00  0.00    -0.130 SA
ATOM     27  C   UNL A   1      32.518  19.447  23.535  1.00  0.00     0.091 C 
ENDBRANCH  21  26
ENDBRANCH   9  20
ENDBRANCH   7   8
ENDBRANCH   4   7
ENDBRANCH   2   3
ENDBRANCH   1   2
BRANCH   1  28
ATOM     28  C   UNL A   1      36.767  22.655  23.846  1.00  0.00     0.023 C 
BRANCH  28  29
ATOM     29  C   UNL A   1      37.074  22.410  25.304  1.00  0.00     0.116 C 
BRANCH  29  30
ATOM     30  N   UNL A   1      38.008  21.316  25.523  1.00  0.00    -0.352 N 
ATOM     31  C   UNL A   1      39.243  21.383  26.126  1.00  0.00     0.251 C 
ATOM     32  H   UNL A   1      37.725  20.428  25.204  1.00  0.00     0.163 HD
ATOM     33  O   UNL A   1      39.970  20.410  26.186  1.00  0.00    -0.269 OA
BRANCH  31  34
ATOM     34  C   UNL A   1      39.670  22.696  26.651  1.00  0.00     0.039 A 
ATOM     35  C   UNL A   1      40.647  22.734  27.645  1.00  0.00     0.014 A 
ATOM     36  C   UNL A   1      39.181  23.870  26.075  1.00  0.00     0.014 A 
ATOM     37  C   UNL A   1      41.170  23.966  28.033  1.00  0.00     0.010 A 
ATOM     38  C   UNL A   1      39.777  25.080  26.386  1.00  0.00     0.010 A 
ATOM     39  C   UNL A   1      40.755  25.143  27.388  1.00  0.00    -0.014 A 
BRANCH  39  40
ATOM     40  C   UNL A   1      41.287  26.465  27.788  1.00  0.00     0.031 A 
ATOM     41  C   UNL A   1      42.729  26.791  27.508  1.00  0.00     0.074 A 
ATOM     42  C   UNL A   1      40.505  27.329  28.463  1.00  0.00     0.049 A 
ATOM     43  N   UNL A   1      43.404  27.867  27.812  1.00  0.00    -0.248 NA
ATOM     44  C   UNL A   1      43.529  25.754  26.830  1.00  0.00     0.031 C 
ATOM     45  C   UNL A   1      39.120  27.081  28.871  1.00  0.00     0.029 A 
ATOM     46  N   UNL A   1      40.773  28.585  28.941  1.00  0.00    -0.354 N 
ATOM     47  C   UNL A   1      44.709  27.620  27.403  1.00  0.00     0.074 A 
ATOM     48  C   UNL A   1      44.745  26.275  26.878  1.00  0.00     0.031 C 
ATOM     49  C   UNL A   1      38.656  28.159  29.524  1.00  0.00     0.029 A 
ATOM     50  C   UNL A   1      39.712  29.164  29.597  1.00  0.00     0.049 A 
ATOM     51  H   UNL A   1      41.643  29.030  28.827  1.00  0.00     0.167 HD
ATOM     52  C   UNL A   1      45.774  28.454  27.418  1.00  0.00     0.034 A 
ATOM     53  C   UNL A   1      39.605  30.375  30.177  1.00  0.00     0.034 A 
ATOM     54  C   UNL A   1      45.712  29.812  27.879  1.00  0.00     0.049 A 
ATOM     55  C   UNL A   1      40.779  31.315  30.106  1.00  0.00     0.074 A 
ATOM     56  C   UNL A   1      46.705  30.774  27.865  1.00  0.00     0.029 A 
ATOM     57  N   UNL A   1      44.586  30.404  28.429  1.00  0.00    -0.354 N 
ATOM     58  N   UNL A   1      41.962  31.120  29.575  1.00  0.00    -0.248 NA
ATOM     59  C   UNL A   1      40.589  32.657  30.674  1.00  0.00     0.031 C 
ATOM     60  C   UNL A   1      46.177  31.949  28.412  1.00  0.00     0.029 A 
ATOM     61  C   UNL A   1      44.853  31.722  28.750  1.00  0.00     0.049 A 
ATOM     62  H   UNL A   1      43.722  29.953  28.570  1.00  0.00     0.167 HD
ATOM     63  C   UNL A   1      42.641  32.327  29.701  1.00  0.00     0.074 A 
ATOM     64  C   UNL A   1      41.729  33.250  30.345  1.00  0.00     0.031 C 
ATOM     65  C   UNL A   1      43.906  32.641  29.329  1.00  0.00     0.034 A 
BRANCH  52  66
ATOM     66  C   UNL A   1      47.071  27.935  26.854  1.00  0.00     0.023 A 
ATOM     67  C   UNL A   1      48.084  27.499  27.734  1.00  0.00     0.012 A 
ATOM     68  C   UNL A   1      47.282  27.854  25.465  1.00  0.00     0.148 A 
ATOM     69  C   UNL A   1      49.301  27.031  27.242  1.00  0.00     0.002 A 
ATOM     70  C   UNL A   1      48.481  27.340  24.981  1.00  0.00     0.091 A 
ATOM     71  F   UNL A   1      46.320  28.298  24.643  1.00  0.00    -0.205 F 
ATOM     72  C   UNL A   1      49.495  26.942  25.867  1.00  0.00     0.022 A 
BRANCH  70  73
ATOM     73  S   UNL A   1      48.794  27.110  23.228  1.00  0.00     0.127 S 
ATOM     74  O   UNL A   1      50.252  27.214  23.173  1.00  0.00    -0.237 OA
ATOM     75  O   UNL A   1      48.270  25.764  22.995  1.00  0.00    -0.237 OA
ATOM     76  O   UNL A   1      48.063  28.170  22.549  1.00  0.00    -0.744 OA
ENDBRANCH  70  73
ENDBRANCH  52  66
BRANCH  53  77
ATOM     77  C   UNL A   1      38.308  30.805  30.771  1.00  0.00     0.023 A 
ATOM     78  C   UNL A   1      38.049  30.526  32.127  1.00  0.00     0.012 A 
ATOM     79  C   UNL A   1      37.350  31.513  30.021  1.00  0.00     0.148 A 
ATOM     80  C   UNL A   1      36.845  30.911  32.717  1.00  0.00     0.002 A 
ATOM     81  C   UNL A   1      36.173  31.938  30.628  1.00  0.00     0.091 A 
ATOM     82  F   UNL A   1      37.612  31.763  28.730  1.00  0.00    -0.205 F 
ATOM     83  C   UNL A   1      35.912  31.625  31.971  1.00  0.00     0.022 A 
BRANCH  81  84
ATOM     84  S   UNL A   1      34.972  32.972  29.783  1.00  0.00     0.127 S 
ATOM     85  O   UNL A   1      34.396  32.035  28.822  1.00  0.00    -0.237 OA
ATOM     86  O   UNL A   1      34.080  33.359  30.877  1.00  0.00    -0.237 OA
ATOM     87  O   UNL A   1      35.735  34.076  29.215  1.00  0.00    -0.744 OA
ENDBRANCH  81  84
ENDBRANCH  53  77
BRANCH  65  88
ATOM     88  C   UNL A   1      44.370  34.054  29.561  1.00  0.00     0.023 A 
ATOM     89  C   UNL A   1      44.930  34.414  30.801  1.00  0.00     0.012 A 
ATOM     90  C   UNL A   1      44.320  35.002  28.521  1.00  0.00     0.148 A 
ATOM     91  C   UNL A   1      45.401  35.708  31.015  1.00  0.00     0.002 A 
ATOM     92  C   UNL A   1      44.836  36.275  28.725  1.00  0.00     0.091 A 
ATOM     93  F   UNL A   1      43.763  34.646  27.353  1.00  0.00    -0.205 F 
ATOM     94  C   UNL A   1      45.367  36.633  29.975  1.00  0.00     0.022 A 
BRANCH  92  95
ATOM     95  S   UNL A   1      44.919  37.493  27.407  1.00  0.00     0.127 S 
ATOM     96  O   UNL A   1      45.464  38.654  28.107  1.00  0.00    -0.237 OA
ATOM     97  O   UNL A   1      45.840  36.865  26.457  1.00  0.00    -0.237 OA
ATOM     98  O   UNL A   1      43.556  37.635  26.913  1.00  0.00    -0.744 OA
ENDBRANCH  92  95
ENDBRANCH  65  88
ENDBRANCH  39  40
ENDBRANCH  31  34
ENDBRANCH  29  30
ENDBRANCH  28  29
ENDBRANCH   1  28
TORSDOF 17
ENDMDL
MODEL 3
REMARK VINA RESULT:     -12.9      1.725      2.138
REMARK SMILES CSc1ccc(/C=C2\C(C)=C(CC(=O)NCCCCNC(=O)c3ccc(-c4c5nc(c(-c6cccc(S(=O)(=O)[O-])c6F)c6ccc([nH]6)c(-c6cccc(S(=O)(=O)[O-])c6F)c6nc(c(-c7cccc(S(=O)(=O)[O-])c7F)c7ccc4[nH]7)C=C6)C=C5)cc3)c3cc(F)ccc32)cc1
REMARK SMILES IDX 17 1 16 2 15 3 13 4 14 5 12 7 11 8 7 9 8 10 9 11 92 12 10 13
REMARK SMILES IDX 86 14 91 15 87 16 90 17 88 18 89 19 6 20 3 21 4 22 94 23
REMARK SMILES IDX 5 24 93 25 2 26 1 27 18 28 19 29 20 30 21 31 22 33 23 34
REMARK SMILES IDX 24 35 85 36 25 37 84 38 26 39 27 40 28 41 78 42 29 43 83 44
REMARK SMILES IDX 77 45 79 46 30 47 82 48 76 49 75 50 31 52 63 53 43 54 62 55
REMARK SMILES IDX 44 56 47 57 61 58 80 59 45 60 46 61 60 63 81 64 48 65 32 66
REMARK SMILES IDX 33 67 41 68 34 69 36 70 42 71 35 72 37 73 38 74 39 75 40 76
REMARK SMILES IDX 64 77 65 78 73 79 66 80 68 81 74 82 67 83 69 84 70 85 71 86
REMARK SMILES IDX 72 87 49 88 50 89 58 90 51 91 53 92 59 93 52 94 54 95 55 96
REMARK SMILES IDX 56 97 57 98
REMARK H PARENT 15 6 20 32 79 51 47 62
REMARK Flexibility Score: inf
ROOT
ATOM      1  C   UNL A   1      31.937  27.154  26.079  1.00  0.00     0.023 C 
ENDROOT
BRANCH   1   2
ATOM      2  C   UNL A   1      32.330  25.777  26.608  1.00  0.00     0.116 C 
BRANCH   2   3
ATOM      3  N   UNL A   1      31.232  24.838  26.530  1.00  0.00    -0.356 N 
ATOM      4  C   UNL A   1      31.305  23.473  26.506  1.00  0.00     0.224 C 
ATOM      5  O   UNL A   1      30.274  22.817  26.353  1.00  0.00    -0.275 OA
ATOM      6  H   UNL A   1      30.329  25.227  26.488  1.00  0.00     0.163 HD
BRANCH   4   7
ATOM      7  C   UNL A   1      32.654  22.797  26.681  1.00  0.00     0.136 C 
BRANCH   7   8
ATOM      8  C   UNL A   1      33.149  22.247  25.359  1.00  0.00    -0.027 C 
ATOM      9  C   UNL A   1      34.059  25.090  23.626  1.00  0.00     0.017 C 
ATOM     10  C   UNL A   1      34.076  23.827  24.075  1.00  0.00    -0.014 C 
ATOM     11  C   UNL A   1      32.940  22.890  24.174  1.00  0.00    -0.039 C 
ATOM     12  C   UNL A   1      35.220  23.051  24.598  1.00  0.00    -0.010 A 
ATOM     13  C   UNL A   1      32.900  22.025  22.892  1.00  0.00     0.045 C 
ATOM     14  C   UNL A   1      34.609  22.006  25.324  1.00  0.00    -0.011 A 
ATOM     15  C   UNL A   1      36.488  22.898  24.066  1.00  0.00     0.012 A 
ATOM     16  C   UNL A   1      35.226  20.784  25.522  1.00  0.00     0.048 A 
ATOM     17  C   UNL A   1      37.112  21.654  24.240  1.00  0.00     0.040 A 
ATOM     18  C   UNL A   1      36.478  20.618  24.948  1.00  0.00     0.123 A 
ATOM     19  F   UNL A   1      37.047  19.404  24.970  1.00  0.00    -0.207 F 
BRANCH   9  20
ATOM     20  C   UNL A   1      33.008  25.799  22.848  1.00  0.00    -0.025 A 
ATOM     21  C   UNL A   1      30.736  27.410  22.602  1.00  0.00     0.007 A 
ATOM     22  C   UNL A   1      31.992  27.968  22.411  1.00  0.00     0.015 A 
ATOM     23  C   UNL A   1      30.603  26.023  22.660  1.00  0.00     0.015 A 
ATOM     24  C   UNL A   1      33.117  27.152  22.501  1.00  0.00     0.009 A 
ATOM     25  C   UNL A   1      31.737  25.218  22.788  1.00  0.00     0.009 A 
BRANCH  21  26
ATOM     26  S   UNL A   1      29.381  28.460  23.087  1.00  0.00    -0.130 SA
ATOM     27  C   UNL A   1      30.392  29.774  23.850  1.00  0.00     0.091 C 
ENDBRANCH  21  26
ENDBRANCH   9  20
ENDBRANCH   7   8
ENDBRANCH   4   7
ENDBRANCH   2   3
ENDBRANCH   1   2
BRANCH   1  28
ATOM     28  C   UNL A   1      33.035  28.200  26.008  1.00  0.00     0.023 C 
BRANCH  28  29
ATOM     29  C   UNL A   1      33.522  28.674  27.356  1.00  0.00     0.116 C 
BRANCH  29  30
ATOM     30  N   UNL A   1      33.516  30.122  27.498  1.00  0.00    -0.352 N 
ATOM     31  C   UNL A   1      34.538  30.918  27.961  1.00  0.00     0.251 C 
ATOM     32  H   UNL A   1      32.688  30.584  27.232  1.00  0.00     0.163 HD
ATOM     33  O   UNL A   1      34.389  32.117  28.105  1.00  0.00    -0.269 OA
BRANCH  31  34
ATOM     34  C   UNL A   1      35.804  30.251  28.325  1.00  0.00     0.039 A 
ATOM     35  C   UNL A   1      36.859  30.275  27.414  1.00  0.00     0.014 A 
ATOM     36  C   UNL A   1      35.967  29.711  29.602  1.00  0.00     0.014 A 
ATOM     37  C   UNL A   1      38.105  29.790  27.807  1.00  0.00     0.010 A 
ATOM     38  C   UNL A   1      37.229  29.330  30.025  1.00  0.00     0.010 A 
ATOM     39  C   UNL A   1      38.302  29.337  29.122  1.00  0.00    -0.014 A 
BRANCH  39  40
ATOM     40  C   UNL A   1      39.612  28.808  29.564  1.00  0.00     0.031 A 
ATOM     41  C   UNL A   1      40.337  29.491  30.691  1.00  0.00     0.074 A 
ATOM     42  C   UNL A   1      40.176  27.776  28.908  1.00  0.00     0.049 A 
ATOM     43  N   UNL A   1      41.508  29.219  31.201  1.00  0.00    -0.248 NA
ATOM     44  C   UNL A   1      39.676  30.660  31.301  1.00  0.00     0.031 C 
ATOM     45  C   UNL A   1      39.606  27.097  27.741  1.00  0.00     0.029 A 
ATOM     46  N   UNL A   1      41.367  27.132  29.119  1.00  0.00    -0.354 N 
ATOM     47  C   UNL A   1      41.740  30.202  32.157  1.00  0.00     0.074 A 
ATOM     48  C   UNL A   1      40.615  31.107  32.119  1.00  0.00     0.031 C 
ATOM     49  C   UNL A   1      40.442  26.120  27.352  1.00  0.00     0.029 A 
ATOM     50  C   UNL A   1      41.610  26.115  28.226  1.00  0.00     0.049 A 
ATOM     51  H   UNL A   1      41.990  27.373  29.842  1.00  0.00     0.167 HD
ATOM     52  C   UNL A   1      42.774  30.316  33.021  1.00  0.00     0.034 A 
ATOM     53  C   UNL A   1      42.654  25.269  28.136  1.00  0.00     0.034 A 
ATOM     54  C   UNL A   1      43.853  29.373  33.096  1.00  0.00     0.049 A 
ATOM     55  C   UNL A   1      43.752  25.365  29.162  1.00  0.00     0.074 A 
ATOM     56  C   UNL A   1      44.911  29.342  33.986  1.00  0.00     0.029 A 
ATOM     57  N   UNL A   1      44.007  28.286  32.251  1.00  0.00    -0.354 N 
ATOM     58  N   UNL A   1      43.878  26.207  30.160  1.00  0.00    -0.248 NA
ATOM     59  C   UNL A   1      44.827  24.367  29.080  1.00  0.00     0.031 C 
ATOM     60  C   UNL A   1      45.707  28.235  33.675  1.00  0.00     0.029 A 
ATOM     61  C   UNL A   1      45.136  27.569  32.602  1.00  0.00     0.049 A 
ATOM     62  H   UNL A   1      43.401  28.057  31.509  1.00  0.00     0.167 HD
ATOM     63  C   UNL A   1      45.018  25.813  30.851  1.00  0.00     0.074 A 
ATOM     64  C   UNL A   1      45.535  24.646  30.166  1.00  0.00     0.031 C 
ATOM     65  C   UNL A   1      45.592  26.370  31.945  1.00  0.00     0.034 A 
BRANCH  52  66
ATOM     66  C   UNL A   1      42.739  31.463  33.997  1.00  0.00     0.023 A 
ATOM     67  C   UNL A   1      43.389  32.672  33.670  1.00  0.00     0.012 A 
ATOM     68  C   UNL A   1      42.050  31.361  35.220  1.00  0.00     0.148 A 
ATOM     69  C   UNL A   1      43.390  33.744  34.559  1.00  0.00     0.002 A 
ATOM     70  C   UNL A   1      42.015  32.452  36.082  1.00  0.00     0.091 A 
ATOM     71  F   UNL A   1      41.462  30.196  35.528  1.00  0.00    -0.205 F 
ATOM     72  C   UNL A   1      42.694  33.638  35.759  1.00  0.00     0.022 A 
BRANCH  70  73
ATOM     73  S   UNL A   1      41.079  32.440  37.614  1.00  0.00     0.127 S 
ATOM     74  O   UNL A   1      41.905  31.578  38.459  1.00  0.00    -0.237 OA
ATOM     75  O   UNL A   1      41.089  33.854  37.993  1.00  0.00    -0.237 OA
ATOM     76  O   UNL A   1      39.764  31.915  37.276  1.00  0.00    -0.744 OA
ENDBRANCH  70  73
ENDBRANCH  52  66
BRANCH  53  77
ATOM     77  C   UNL A   1      42.655  24.191  27.107  1.00  0.00     0.023 A 
ATOM     78  C   UNL A   1      43.420  24.360  25.937  1.00  0.00     0.012 A 
ATOM     79  C   UNL A   1      41.936  22.995  27.290  1.00  0.00     0.148 A 
ATOM     80  C   UNL A   1      43.442  23.374  24.951  1.00  0.00     0.002 A 
ATOM     81  C   UNL A   1      42.003  21.994  26.326  1.00  0.00     0.091 A 
ATOM     82  F   UNL A   1      41.207  22.855  28.407  1.00  0.00    -0.205 F 
ATOM     83  C   UNL A   1      42.742  22.188  25.149  1.00  0.00     0.022 A 
BRANCH  81  84
ATOM     84  S   UNL A   1      41.237  20.385  26.553  1.00  0.00     0.127 S 
ATOM     85  O   UNL A   1      39.822  20.702  26.389  1.00  0.00    -0.237 OA
ATOM     86  O   UNL A   1      41.827  19.611  25.460  1.00  0.00    -0.237 OA
ATOM     87  O   UNL A   1      41.640  19.944  27.883  1.00  0.00    -0.744 OA
ENDBRANCH  81  84
ENDBRANCH  53  77
BRANCH  65  88
ATOM     88  C   UNL A   1      46.818  25.701  32.506  1.00  0.00     0.023 A 
ATOM     89  C   UNL A   1      48.096  26.098  32.070  1.00  0.00     0.012 A 
ATOM     90  C   UNL A   1      46.702  24.733  33.523  1.00  0.00     0.148 A 
ATOM     91  C   UNL A   1      49.241  25.516  32.611  1.00  0.00     0.002 A 
ATOM     92  C   UNL A   1      47.848  24.192  34.092  1.00  0.00     0.091 A 
ATOM     93  F   UNL A   1      45.475  24.352  33.910  1.00  0.00    -0.205 F 
ATOM     94  C   UNL A   1      49.117  24.574  33.630  1.00  0.00     0.022 A 
BRANCH  92  95
ATOM     95  S   UNL A   1      47.776  23.048  35.475  1.00  0.00     0.127 S 
ATOM     96  O   UNL A   1      49.193  22.798  35.729  1.00  0.00    -0.237 OA
ATOM     97  O   UNL A   1      47.102  23.842  36.504  1.00  0.00    -0.237 OA
ATOM     98  O   UNL A   1      47.006  21.905  35.003  1.00  0.00    -0.744 OA
ENDBRANCH  92  95
ENDBRANCH  65  88
ENDBRANCH  39  40
ENDBRANCH  31  34
ENDBRANCH  29  30
ENDBRANCH  28  29
ENDBRANCH   1  28
TORSDOF 17
ENDMDL
