MODEL 1
REMARK VINA RESULT:     -11.6      0.000      0.000
REMARK SMILES C[C@]1(C(=O)NCc2ccc(C(=O)NCCCCNC(=O)c3ccc(-c4c5nc(c(-c6cccc(S(=O)(=O)[O-])c6F)c6ccc([nH]6)c(-c6cccc(S(=O)(=O)[O-])c6F)c6nc(c(-c7cccc(S(=O)(=O)[O-])c7F)c7ccc4[nH]7)C=C6)C=C5)cc3)o2)CCC[NH2+]C1
REMARK SMILES IDX 15 1 14 2 13 3 11 4 12 5 10 7 7 8 8 9 84 10 9 11 6 12 5 13
REMARK SMILES IDX 3 14 4 15 2 17 1 18 85 19 89 20 86 21 88 22 87 23 16 26
REMARK SMILES IDX 17 27 18 28 19 29 20 31 21 32 22 33 83 34 23 35 82 36 24 37
REMARK SMILES IDX 25 38 26 39 76 40 27 41 81 42 75 43 77 44 28 45 80 46 74 47
REMARK SMILES IDX 73 48 29 50 61 51 41 52 60 53 42 54 45 55 59 56 78 57 43 58
REMARK SMILES IDX 44 59 58 61 79 62 46 63 30 64 31 65 39 66 32 67 34 68 40 69
REMARK SMILES IDX 33 70 35 71 36 72 37 73 38 74 62 75 63 76 71 77 64 78 66 79
REMARK SMILES IDX 72 80 65 81 67 82 68 83 69 84 70 85 47 86 48 87 56 88 49 89
REMARK SMILES IDX 51 90 57 91 50 92 52 93 53 94 54 95 55 96
REMARK H PARENT 13 6 5 16 88 24 88 25 18 30 77 49 45 60
REMARK Flexibility Score: inf
ROOT
ATOM      1  C   UNL A   1      31.428  30.775  25.849  1.00  0.00     0.023 C 
ENDROOT
BRANCH   1   2
ATOM      2  C   UNL A   1      32.819  30.147  25.956  1.00  0.00     0.116 C 
BRANCH   2   3
ATOM      3  N   UNL A   1      33.341  29.771  24.659  1.00  0.00    -0.349 N 
ATOM      4  C   UNL A   1      33.241  28.608  23.927  1.00  0.00     0.286 C 
ATOM      5  O   UNL A   1      33.766  28.643  22.810  1.00  0.00    -0.266 OA
ATOM      6  H   UNL A   1      33.865  30.478  24.218  1.00  0.00     0.163 HD
BRANCH   4   7
ATOM      7  C   UNL A   1      32.560  27.422  24.428  1.00  0.00     0.191 A 
ATOM      8  C   UNL A   1      32.581  25.395  25.347  1.00  0.00     0.124 A 
ATOM      9  C   UNL A   1      31.261  25.695  25.095  1.00  0.00     0.048 A 
ATOM     10  O   UNL A   1      33.369  26.436  24.960  1.00  0.00    -0.454 OA
ATOM     11  C   UNL A   1      31.247  26.995  24.534  1.00  0.00     0.056 A 
BRANCH   8  12
ATOM     12  C   UNL A   1      33.253  24.218  25.955  1.00  0.00     0.191 C 
BRANCH  12  13
ATOM     13  N   UNL A   1      32.298  23.136  26.062  1.00  0.00    -0.348 N 
ATOM     14  C   UNL A   1      31.917  22.137  25.233  1.00  0.00     0.232 C 
ATOM     15  O   UNL A   1      30.962  21.468  25.657  1.00  0.00    -0.274 OA
ATOM     16  H   UNL A   1      31.822  23.126  26.923  1.00  0.00     0.163 HD
BRANCH  14  17
ATOM     17  C   UNL A   1      32.675  21.694  23.959  1.00  0.00     0.095 C 
ATOM     18  C   UNL A   1      32.402  22.777  22.898  1.00  0.00     0.028 C 
ATOM     19  C   UNL A   1      34.201  21.677  24.272  1.00  0.00     0.028 C 
ATOM     20  C   UNL A   1      32.346  20.305  23.383  1.00  0.00     0.277 C 
ATOM     21  C   UNL A   1      34.574  20.499  25.181  1.00  0.00     0.063 C 
ATOM     22  N   UNL A   1      32.636  19.231  24.329  1.00  0.00    -0.345 N 
ATOM     23  C   UNL A   1      34.062  19.168  24.631  1.00  0.00     0.260 C 
ATOM     24  H   UNL A   1      32.120  19.399  25.191  1.00  0.00     0.346 HD
ATOM     25  H   UNL A   1      32.354  18.345  23.909  1.00  0.00     0.346 HD
ENDBRANCH  14  17
ENDBRANCH  12  13
ENDBRANCH   8  12
ENDBRANCH   4   7
ENDBRANCH   2   3
ENDBRANCH   1   2
BRANCH   1  26
ATOM     26  C   UNL A   1      31.299  32.139  26.539  1.00  0.00     0.023 C 
BRANCH  26  27
ATOM     27  C   UNL A   1      32.594  32.712  27.117  1.00  0.00     0.116 C 
BRANCH  27  28
ATOM     28  N   UNL A   1      32.442  34.046  27.676  1.00  0.00    -0.352 N 
ATOM     29  C   UNL A   1      33.187  34.652  28.666  1.00  0.00     0.251 C 
ATOM     30  H   UNL A   1      31.712  34.588  27.299  1.00  0.00     0.163 HD
ATOM     31  O   UNL A   1      32.867  35.752  29.089  1.00  0.00    -0.269 OA
BRANCH  29  32
ATOM     32  C   UNL A   1      34.352  33.937  29.234  1.00  0.00     0.039 A 
ATOM     33  C   UNL A   1      35.635  34.324  28.840  1.00  0.00     0.014 A 
ATOM     34  C   UNL A   1      34.177  32.916  30.169  1.00  0.00     0.014 A 
ATOM     35  C   UNL A   1      36.749  33.732  29.441  1.00  0.00     0.010 A 
ATOM     36  C   UNL A   1      35.286  32.375  30.814  1.00  0.00     0.010 A 
ATOM     37  C   UNL A   1      36.582  32.778  30.458  1.00  0.00    -0.014 A 
BRANCH  37  38
ATOM     38  C   UNL A   1      37.748  32.202  31.177  1.00  0.00     0.031 A 
ATOM     39  C   UNL A   1      38.514  31.055  30.576  1.00  0.00     0.074 A 
ATOM     40  C   UNL A   1      38.052  32.643  32.413  1.00  0.00     0.049 A 
ATOM     41  N   UNL A   1      39.508  30.372  31.083  1.00  0.00    -0.248 NA
ATOM     42  C   UNL A   1      38.090  30.596  29.244  1.00  0.00     0.031 C 
ATOM     43  C   UNL A   1      37.332  33.692  33.139  1.00  0.00     0.029 A 
ATOM     44  N   UNL A   1      39.028  32.243  33.292  1.00  0.00    -0.354 N 
ATOM     45  C   UNL A   1      39.801  29.381  30.154  1.00  0.00     0.074 A 
ATOM     46  C   UNL A   1      38.860  29.532  29.066  1.00  0.00     0.031 C 
ATOM     47  C   UNL A   1      37.889  33.852  34.351  1.00  0.00     0.029 A 
ATOM     48  C   UNL A   1      38.989  32.902  34.499  1.00  0.00     0.049 A 
ATOM     49  H   UNL A   1      39.693  31.549  33.079  1.00  0.00     0.167 HD
ATOM     50  C   UNL A   1      40.786  28.452  30.187  1.00  0.00     0.034 A 
ATOM     51  C   UNL A   1      39.747  32.754  35.604  1.00  0.00     0.034 A 
ATOM     52  C   UNL A   1      41.752  28.339  31.245  1.00  0.00     0.049 A 
ATOM     53  C   UNL A   1      40.866  31.747  35.593  1.00  0.00     0.074 A 
ATOM     54  C   UNL A   1      42.844  27.494  31.327  1.00  0.00     0.029 A 
ATOM     55  N   UNL A   1      41.742  29.092  32.409  1.00  0.00    -0.354 N 
ATOM     56  N   UNL A   1      41.233  30.932  34.634  1.00  0.00    -0.248 NA
ATOM     57  C   UNL A   1      41.700  31.666  36.801  1.00  0.00     0.031 C 
ATOM     58  C   UNL A   1      43.486  27.725  32.547  1.00  0.00     0.029 A 
ATOM     59  C   UNL A   1      42.804  28.728  33.217  1.00  0.00     0.049 A 
ATOM     60  H   UNL A   1      41.076  29.784  32.628  1.00  0.00     0.167 HD
ATOM     61  C   UNL A   1      42.359  30.268  35.107  1.00  0.00     0.074 A 
ATOM     62  C   UNL A   1      42.626  30.793  36.431  1.00  0.00     0.031 C 
ATOM     63  C   UNL A   1      43.094  29.300  34.508  1.00  0.00     0.034 A 
BRANCH  50  64
ATOM     64  C   UNL A   1      40.904  27.518  29.011  1.00  0.00     0.023 A 
ATOM     65  C   UNL A   1      40.073  26.380  28.943  1.00  0.00     0.012 A 
ATOM     66  C   UNL A   1      41.789  27.791  27.950  1.00  0.00     0.148 A 
ATOM     67  C   UNL A   1      40.146  25.510  27.857  1.00  0.00     0.002 A 
ATOM     68  C   UNL A   1      41.824  26.941  26.849  1.00  0.00     0.091 A 
ATOM     69  F   UNL A   1      42.586  28.865  28.041  1.00  0.00    -0.205 F 
ATOM     70  C   UNL A   1      41.013  25.795  26.808  1.00  0.00     0.022 A 
BRANCH  68  71
ATOM     71  S   UNL A   1      42.850  27.264  25.410  1.00  0.00     0.127 S 
ATOM     72  O   UNL A   1      42.735  26.002  24.678  1.00  0.00    -0.237 OA
ATOM     73  O   UNL A   1      42.160  28.394  24.787  1.00  0.00    -0.237 OA
ATOM     74  O   UNL A   1      44.177  27.571  25.925  1.00  0.00    -0.744 OA
ENDBRANCH  68  71
ENDBRANCH  50  64
BRANCH  51  75
ATOM     75  C   UNL A   1      39.521  33.632  36.786  1.00  0.00     0.023 A 
ATOM     76  C   UNL A   1      39.904  34.987  36.722  1.00  0.00     0.012 A 
ATOM     77  C   UNL A   1      38.908  33.148  37.958  1.00  0.00     0.148 A 
ATOM     78  C   UNL A   1      39.712  35.835  37.813  1.00  0.00     0.002 A 
ATOM     79  C   UNL A   1      38.671  34.011  39.022  1.00  0.00     0.091 A 
ATOM     80  F   UNL A   1      38.562  31.854  38.006  1.00  0.00    -0.205 F 
ATOM     81  C   UNL A   1      39.087  35.350  38.959  1.00  0.00     0.022 A 
BRANCH  79  82
ATOM     82  S   UNL A   1      37.755  33.507  40.484  1.00  0.00     0.127 S 
ATOM     83  O   UNL A   1      37.684  34.755  41.238  1.00  0.00    -0.237 OA
ATOM     84  O   UNL A   1      36.485  33.061  39.907  1.00  0.00    -0.237 OA
ATOM     85  O   UNL A   1      38.543  32.442  41.089  1.00  0.00    -0.744 OA
ENDBRANCH  79  82
ENDBRANCH  51  75
BRANCH  63  86
ATOM     86  C   UNL A   1      44.285  28.762  35.256  1.00  0.00     0.023 A 
ATOM     87  C   UNL A   1      45.552  29.346  35.066  1.00  0.00     0.012 A 
ATOM     88  C   UNL A   1      44.133  27.732  36.205  1.00  0.00     0.148 A 
ATOM     89  C   UNL A   1      46.656  28.895  35.788  1.00  0.00     0.002 A 
ATOM     90  C   UNL A   1      45.228  27.318  36.955  1.00  0.00     0.091 A 
ATOM     91  F   UNL A   1      42.923  27.175  36.357  1.00  0.00    -0.205 F 
ATOM     92  C   UNL A   1      46.492  27.891  36.740  1.00  0.00     0.022 A 
BRANCH  90  93
ATOM     93  S   UNL A   1      45.089  26.102  38.269  1.00  0.00     0.127 S 
ATOM     94  O   UNL A   1      46.460  26.050  38.772  1.00  0.00    -0.237 OA
ATOM     95  O   UNL A   1      44.130  26.731  39.177  1.00  0.00    -0.237 OA
ATOM     96  O   UNL A   1      44.607  24.881  37.636  1.00  0.00    -0.744 OA
ENDBRANCH  90  93
ENDBRANCH  63  86
ENDBRANCH  37  38
ENDBRANCH  29  32
ENDBRANCH  27  28
ENDBRANCH  26  27
ENDBRANCH   1  26
TORSDOF 17
ENDMDL
MODEL 2
REMARK VINA RESULT:     -11.5      2.300      8.105
REMARK SMILES C[C@]1(C(=O)NCc2ccc(C(=O)NCCCCNC(=O)c3ccc(-c4c5nc(c(-c6cccc(S(=O)(=O)[O-])c6F)c6ccc([nH]6)c(-c6cccc(S(=O)(=O)[O-])c6F)c6nc(c(-c7cccc(S(=O)(=O)[O-])c7F)c7ccc4[nH]7)C=C6)C=C5)cc3)o2)CCC[NH2+]C1
REMARK SMILES IDX 15 1 14 2 13 3 11 4 12 5 10 7 7 8 8 9 84 10 9 11 6 12 5 13
REMARK SMILES IDX 3 14 4 15 2 17 1 18 85 19 89 20 86 21 88 22 87 23 16 26
REMARK SMILES IDX 17 27 18 28 19 29 20 31 21 32 22 33 83 34 23 35 82 36 24 37
REMARK SMILES IDX 25 38 26 39 76 40 27 41 81 42 75 43 77 44 28 45 80 46 74 47
REMARK SMILES IDX 73 48 29 50 61 51 41 52 60 53 42 54 45 55 59 56 78 57 43 58
REMARK SMILES IDX 44 59 58 61 79 62 46 63 30 64 31 65 39 66 32 67 34 68 40 69
REMARK SMILES IDX 33 70 35 71 36 72 37 73 38 74 62 75 63 76 71 77 64 78 66 79
REMARK SMILES IDX 72 80 65 81 67 82 68 83 69 84 70 85 47 86 48 87 56 88 49 89
REMARK SMILES IDX 51 90 57 91 50 92 52 93 53 94 54 95 55 96
REMARK H PARENT 13 6 5 16 88 24 88 25 18 30 77 49 45 60
REMARK Flexibility Score: inf
ROOT
ATOM      1  C   UNL A   1      32.667  29.309  24.448  1.00  0.00     0.023 C 
ENDROOT
BRANCH   1   2
ATOM      2  C   UNL A   1      33.544  28.056  24.486  1.00  0.00     0.116 C 
BRANCH   2   3
ATOM      3  N   UNL A   1      33.799  27.536  23.160  1.00  0.00    -0.349 N 
ATOM      4  C   UNL A   1      33.234  26.498  22.452  1.00  0.00     0.286 C 
ATOM      5  O   UNL A   1      33.653  26.358  21.299  1.00  0.00    -0.266 OA
ATOM      6  H   UNL A   1      34.509  28.013  22.672  1.00  0.00     0.163 HD
BRANCH   4   7
ATOM      7  C   UNL A   1      32.210  25.630  23.016  1.00  0.00     0.191 A 
ATOM      8  C   UNL A   1      31.583  23.778  24.080  1.00  0.00     0.124 A 
ATOM      9  C   UNL A   1      30.428  24.457  23.768  1.00  0.00     0.048 A 
ATOM     10  O   UNL A   1      32.662  24.484  23.642  1.00  0.00    -0.454 OA
ATOM     11  C   UNL A   1      30.829  25.648  23.113  1.00  0.00     0.056 A 
BRANCH   8  12
ATOM     12  C   UNL A   1      31.845  22.500  24.792  1.00  0.00     0.191 C 
BRANCH  12  13
ATOM     13  N   UNL A   1      32.754  22.752  25.889  1.00  0.00    -0.348 N 
ATOM     14  C   UNL A   1      33.997  22.314  26.196  1.00  0.00     0.232 C 
ATOM     15  O   UNL A   1      34.398  22.681  27.311  1.00  0.00    -0.274 OA
ATOM     16  H   UNL A   1      32.389  23.376  26.556  1.00  0.00     0.163 HD
BRANCH  14  17
ATOM     17  C   UNL A   1      34.955  21.586  25.222  1.00  0.00     0.095 C 
ATOM     18  C   UNL A   1      34.224  20.305  24.778  1.00  0.00     0.028 C 
ATOM     19  C   UNL A   1      35.173  22.493  23.974  1.00  0.00     0.028 C 
ATOM     20  C   UNL A   1      36.361  21.234  25.739  1.00  0.00     0.277 C 
ATOM     21  C   UNL A   1      36.059  23.701  24.306  1.00  0.00     0.063 C 
ATOM     22  N   UNL A   1      37.121  22.418  26.127  1.00  0.00    -0.345 N 
ATOM     23  C   UNL A   1      37.366  23.284  24.977  1.00  0.00     0.260 C 
ATOM     24  H   UNL A   1      36.595  22.937  26.828  1.00  0.00     0.346 HD
ATOM     25  H   UNL A   1      38.020  22.117  26.503  1.00  0.00     0.346 HD
ENDBRANCH  14  17
ENDBRANCH  12  13
ENDBRANCH   8  12
ENDBRANCH   4   7
ENDBRANCH   2   3
ENDBRANCH   1   2
BRANCH   1  26
ATOM     26  C   UNL A   1      31.882  29.567  25.741  1.00  0.00     0.023 C 
BRANCH  26  27
ATOM     27  C   UNL A   1      32.708  30.070  26.925  1.00  0.00     0.116 C 
BRANCH  27  28
ATOM     28  N   UNL A   1      32.754  31.520  27.030  1.00  0.00    -0.352 N 
ATOM     29  C   UNL A   1      33.742  32.311  27.578  1.00  0.00     0.251 C 
ATOM     30  H   UNL A   1      31.978  32.000  26.661  1.00  0.00     0.163 HD
ATOM     31  O   UNL A   1      33.582  33.518  27.670  1.00  0.00    -0.269 OA
BRANCH  29  32
ATOM     32  C   UNL A   1      34.977  31.674  28.086  1.00  0.00     0.039 A 
ATOM     33  C   UNL A   1      36.109  32.469  28.290  1.00  0.00     0.014 A 
ATOM     34  C   UNL A   1      35.007  30.312  28.389  1.00  0.00     0.014 A 
ATOM     35  C   UNL A   1      37.251  31.909  28.866  1.00  0.00     0.010 A 
ATOM     36  C   UNL A   1      36.122  29.772  29.024  1.00  0.00     0.010 A 
ATOM     37  C   UNL A   1      37.254  30.564  29.270  1.00  0.00    -0.014 A 
BRANCH  37  38
ATOM     38  C   UNL A   1      38.423  29.968  29.967  1.00  0.00     0.031 A 
ATOM     39  C   UNL A   1      38.808  30.447  31.341  1.00  0.00     0.074 A 
ATOM     40  C   UNL A   1      39.197  29.072  29.324  1.00  0.00     0.049 A 
ATOM     41  N   UNL A   1      39.834  30.104  32.075  1.00  0.00    -0.248 NA
ATOM     42  C   UNL A   1      37.942  31.465  31.958  1.00  0.00     0.031 C 
ATOM     43  C   UNL A   1      38.977  28.590  27.958  1.00  0.00     0.029 A 
ATOM     44  N   UNL A   1      40.342  28.428  29.722  1.00  0.00    -0.354 N 
ATOM     45  C   UNL A   1      39.762  30.890  33.220  1.00  0.00     0.074 A 
ATOM     46  C   UNL A   1      38.608  31.749  33.068  1.00  0.00     0.031 C 
ATOM     47  C   UNL A   1      39.955  27.729  27.632  1.00  0.00     0.029 A 
ATOM     48  C   UNL A   1      40.884  27.615  28.752  1.00  0.00     0.049 A 
ATOM     49  H   UNL A   1      40.739  28.538  30.616  1.00  0.00     0.167 HD
ATOM     50  C   UNL A   1      40.562  30.874  34.312  1.00  0.00     0.034 A 
ATOM     51  C   UNL A   1      42.006  26.869  28.762  1.00  0.00     0.034 A 
ATOM     52  C   UNL A   1      41.677  29.982  34.481  1.00  0.00     0.049 A 
ATOM     53  C   UNL A   1      42.849  26.832  30.008  1.00  0.00     0.074 A 
ATOM     54  C   UNL A   1      42.491  29.823  35.588  1.00  0.00     0.029 A 
ATOM     55  N   UNL A   1      42.137  29.100  33.516  1.00  0.00    -0.354 N 
ATOM     56  N   UNL A   1      42.668  27.459  31.145  1.00  0.00    -0.248 NA
ATOM     57  C   UNL A   1      44.030  25.957  29.987  1.00  0.00     0.031 C 
ATOM     58  C   UNL A   1      43.454  28.855  35.287  1.00  0.00     0.029 A 
ATOM     59  C   UNL A   1      43.227  28.397  33.999  1.00  0.00     0.049 A 
ATOM     60  H   UNL A   1      41.745  28.990  32.619  1.00  0.00     0.167 HD
ATOM     61  C   UNL A   1      43.689  27.027  31.986  1.00  0.00     0.074 A 
ATOM     62  C   UNL A   1      44.472  26.069  31.232  1.00  0.00     0.031 C 
ATOM     63  C   UNL A   1      43.963  27.403  33.259  1.00  0.00     0.034 A 
BRANCH  50  64
ATOM     64  C   UNL A   1      40.223  31.814  35.439  1.00  0.00     0.023 A 
ATOM     65  C   UNL A   1      40.990  32.983  35.621  1.00  0.00     0.012 A 
ATOM     66  C   UNL A   1      39.120  31.574  36.280  1.00  0.00     0.148 A 
ATOM     67  C   UNL A   1      40.687  33.881  36.643  1.00  0.00     0.002 A 
ATOM     68  C   UNL A   1      38.797  32.497  37.270  1.00  0.00     0.091 A 
ATOM     69  F   UNL A   1      38.415  30.448  36.107  1.00  0.00    -0.205 F 
ATOM     70  C   UNL A   1      39.586  33.643  37.460  1.00  0.00     0.022 A 
BRANCH  68  71
ATOM     71  S   UNL A   1      37.352  32.322  38.323  1.00  0.00     0.127 S 
ATOM     72  O   UNL A   1      37.171  30.871  38.335  1.00  0.00    -0.237 OA
ATOM     73  O   UNL A   1      37.823  32.887  39.588  1.00  0.00    -0.237 OA
ATOM     74  O   UNL A   1      36.290  33.080  37.677  1.00  0.00    -0.744 OA
ENDBRANCH  68  71
ENDBRANCH  50  64
BRANCH  51  75
ATOM     75  C   UNL A   1      42.357  26.036  27.577  1.00  0.00     0.023 A 
ATOM     76  C   UNL A   1      43.171  26.584  26.566  1.00  0.00     0.012 A 
ATOM     77  C   UNL A   1      41.916  24.704  27.457  1.00  0.00     0.148 A 
ATOM     78  C   UNL A   1      43.512  25.833  25.441  1.00  0.00     0.002 A 
ATOM     79  C   UNL A   1      42.304  23.943  26.359  1.00  0.00     0.091 A 
ATOM     80  F   UNL A   1      41.132  24.204  28.422  1.00  0.00    -0.205 F 
ATOM     81  C   UNL A   1      43.088  24.510  25.342  1.00  0.00     0.022 A 
BRANCH  79  82
ATOM     82  S   UNL A   1      41.914  22.195  26.214  1.00  0.00     0.127 S 
ATOM     83  O   UNL A   1      42.637  21.827  24.999  1.00  0.00    -0.237 OA
ATOM     84  O   UNL A   1      42.476  21.655  27.453  1.00  0.00    -0.237 OA
ATOM     85  O   UNL A   1      40.462  22.125  26.135  1.00  0.00    -0.744 OA
ENDBRANCH  79  82
ENDBRANCH  51  75
BRANCH  63  86
ATOM     86  C   UNL A   1      45.138  26.756  33.942  1.00  0.00     0.023 A 
ATOM     87  C   UNL A   1      46.405  27.366  33.881  1.00  0.00     0.012 A 
ATOM     88  C   UNL A   1      44.969  25.587  34.711  1.00  0.00     0.148 A 
ATOM     89  C   UNL A   1      47.494  26.808  34.550  1.00  0.00     0.002 A 
ATOM     90  C   UNL A   1      46.047  25.062  35.413  1.00  0.00     0.091 A 
ATOM     91  F   UNL A   1      43.759  25.010  34.740  1.00  0.00    -0.205 F 
ATOM     92  C   UNL A   1      47.312  25.664  35.325  1.00  0.00     0.022 A 
BRANCH  90  93
ATOM     93  S   UNL A   1      45.883  23.651  36.512  1.00  0.00     0.127 S 
ATOM     94  O   UNL A   1      47.254  23.486  36.992  1.00  0.00    -0.237 OA
ATOM     95  O   UNL A   1      44.941  24.146  37.517  1.00  0.00    -0.237 OA
ATOM     96  O   UNL A   1      45.371  22.561  35.692  1.00  0.00    -0.744 OA
ENDBRANCH  90  93
ENDBRANCH  63  86
ENDBRANCH  37  38
ENDBRANCH  29  32
ENDBRANCH  27  28
ENDBRANCH  26  27
ENDBRANCH   1  26
TORSDOF 17
ENDMDL
MODEL 3
REMARK VINA RESULT:     -11.5      3.378      8.665
REMARK SMILES C[C@]1(C(=O)NCc2ccc(C(=O)NCCCCNC(=O)c3ccc(-c4c5nc(c(-c6cccc(S(=O)(=O)[O-])c6F)c6ccc([nH]6)c(-c6cccc(S(=O)(=O)[O-])c6F)c6nc(c(-c7cccc(S(=O)(=O)[O-])c7F)c7ccc4[nH]7)C=C6)C=C5)cc3)o2)CCC[NH2+]C1
REMARK SMILES IDX 15 1 14 2 13 3 11 4 12 5 10 7 7 8 8 9 84 10 9 11 6 12 5 13
REMARK SMILES IDX 3 14 4 15 2 17 1 18 85 19 89 20 86 21 88 22 87 23 16 26
REMARK SMILES IDX 17 27 18 28 19 29 20 31 21 32 22 33 83 34 23 35 82 36 24 37
REMARK SMILES IDX 25 38 26 39 76 40 27 41 81 42 75 43 77 44 28 45 80 46 74 47
REMARK SMILES IDX 73 48 29 50 61 51 41 52 60 53 42 54 45 55 59 56 78 57 43 58
REMARK SMILES IDX 44 59 58 61 79 62 46 63 30 64 31 65 39 66 32 67 34 68 40 69
REMARK SMILES IDX 33 70 35 71 36 72 37 73 38 74 62 75 63 76 71 77 64 78 66 79
REMARK SMILES IDX 72 80 65 81 67 82 68 83 69 84 70 85 47 86 48 87 56 88 49 89
REMARK SMILES IDX 51 90 57 91 50 92 52 93 53 94 54 95 55 96
REMARK H PARENT 13 6 5 16 88 24 88 25 18 30 77 49 45 60
REMARK Flexibility Score: inf
ROOT
ATOM      1  C   UNL A   1      31.643  28.297  26.332  1.00  0.00     0.023 C 
ENDROOT
BRANCH   1   2
ATOM      2  C   UNL A   1      31.107  26.866  26.398  1.00  0.00     0.116 C 
BRANCH   2   3
ATOM      3  N   UNL A   1      30.967  26.283  25.081  1.00  0.00    -0.349 N 
ATOM      4  C   UNL A   1      31.640  25.259  24.450  1.00  0.00     0.286 C 
ATOM      5  O   UNL A   1      31.219  24.969  23.326  1.00  0.00    -0.266 OA
ATOM      6  H   UNL A   1      30.258  26.692  24.535  1.00  0.00     0.163 HD
BRANCH   4   7
ATOM      7  C   UNL A   1      32.762  24.563  25.063  1.00  0.00     0.191 A 
ATOM      8  C   UNL A   1      33.673  22.755  25.990  1.00  0.00     0.124 A 
ATOM      9  C   UNL A   1      34.639  23.735  26.016  1.00  0.00     0.048 A 
ATOM     10  O   UNL A   1      32.543  23.241  25.406  1.00  0.00    -0.454 OA
ATOM     11  C   UNL A   1      34.066  24.877  25.403  1.00  0.00     0.056 A 
BRANCH   8  12
ATOM     12  C   UNL A   1      33.657  21.338  26.436  1.00  0.00     0.191 C 
BRANCH  12  13
ATOM     13  N   UNL A   1      34.652  20.600  25.689  1.00  0.00    -0.348 N 
ATOM     14  C   UNL A   1      34.620  19.467  24.950  1.00  0.00     0.232 C 
ATOM     15  O   UNL A   1      35.735  19.090  24.559  1.00  0.00    -0.274 OA
ATOM     16  H   UNL A   1      35.545  21.010  25.728  1.00  0.00     0.163 HD
BRANCH  14  17
ATOM     17  C   UNL A   1      33.336  18.766  24.443  1.00  0.00     0.095 C 
ATOM     18  C   UNL A   1      32.540  19.835  23.670  1.00  0.00     0.028 C 
ATOM     19  C   UNL A   1      33.748  17.637  23.453  1.00  0.00     0.028 C 
ATOM     20  C   UNL A   1      32.429  18.099  25.493  1.00  0.00     0.277 C 
ATOM     21  C   UNL A   1      34.381  16.449  24.189  1.00  0.00     0.063 C 
ATOM     22  N   UNL A   1      33.118  17.039  26.224  1.00  0.00    -0.345 N 
ATOM     23  C   UNL A   1      33.500  15.949  25.333  1.00  0.00     0.260 C 
ATOM     24  H   UNL A   1      33.955  17.423  26.659  1.00  0.00     0.346 HD
ATOM     25  H   UNL A   1      32.483  16.670  26.933  1.00  0.00     0.346 HD
ENDBRANCH  14  17
ENDBRANCH  12  13
ENDBRANCH   8  12
ENDBRANCH   4   7
ENDBRANCH   2   3
ENDBRANCH   1   2
BRANCH   1  26
ATOM     26  C   UNL A   1      32.831  28.481  25.379  1.00  0.00     0.023 C 
BRANCH  26  27
ATOM     27  C   UNL A   1      34.094  29.073  26.005  1.00  0.00     0.116 C 
BRANCH  27  28
ATOM     28  N   UNL A   1      33.854  30.292  26.762  1.00  0.00    -0.352 N 
ATOM     29  C   UNL A   1      34.602  30.827  27.789  1.00  0.00     0.251 C 
ATOM     30  H   UNL A   1      33.051  30.801  26.508  1.00  0.00     0.163 HD
ATOM     31  O   UNL A   1      34.208  31.817  28.385  1.00  0.00    -0.269 OA
BRANCH  29  32
ATOM     32  C   UNL A   1      35.866  30.165  28.182  1.00  0.00     0.039 A 
ATOM     33  C   UNL A   1      36.984  30.306  27.355  1.00  0.00     0.014 A 
ATOM     34  C   UNL A   1      35.954  29.440  29.371  1.00  0.00     0.014 A 
ATOM     35  C   UNL A   1      38.212  29.776  27.759  1.00  0.00     0.010 A 
ATOM     36  C   UNL A   1      37.191  28.971  29.803  1.00  0.00     0.010 A 
ATOM     37  C   UNL A   1      38.333  29.136  29.004  1.00  0.00    -0.014 A 
BRANCH  37  38
ATOM     38  C   UNL A   1      39.645  28.646  29.497  1.00  0.00     0.031 A 
ATOM     39  C   UNL A   1      40.359  29.378  30.600  1.00  0.00     0.074 A 
ATOM     40  C   UNL A   1      40.241  27.604  28.883  1.00  0.00     0.049 A 
ATOM     41  N   UNL A   1      41.541  29.148  31.111  1.00  0.00    -0.248 NA
ATOM     42  C   UNL A   1      39.668  30.537  31.187  1.00  0.00     0.031 C 
ATOM     43  C   UNL A   1      39.688  26.863  27.746  1.00  0.00     0.029 A 
ATOM     44  N   UNL A   1      41.456  27.006  29.108  1.00  0.00    -0.354 N 
ATOM     45  C   UNL A   1      41.752  30.153  32.048  1.00  0.00     0.074 A 
ATOM     46  C   UNL A   1      40.589  31.013  32.012  1.00  0.00     0.031 C 
ATOM     47  C   UNL A   1      40.561  25.912  27.374  1.00  0.00     0.029 A 
ATOM     48  C   UNL A   1      41.744  25.990  28.226  1.00  0.00     0.049 A 
ATOM     49  H   UNL A   1      42.064  27.279  29.832  1.00  0.00     0.167 HD
ATOM     50  C   UNL A   1      42.803  30.327  32.885  1.00  0.00     0.034 A 
ATOM     51  C   UNL A   1      42.840  25.214  28.112  1.00  0.00     0.034 A 
ATOM     52  C   UNL A   1      43.932  29.441  32.954  1.00  0.00     0.049 A 
ATOM     53  C   UNL A   1      43.970  25.396  29.089  1.00  0.00     0.074 A 
ATOM     54  C   UNL A   1      45.001  29.476  33.832  1.00  0.00     0.029 A 
ATOM     55  N   UNL A   1      44.143  28.361  32.111  1.00  0.00    -0.354 N 
ATOM     56  N   UNL A   1      44.075  26.248  30.079  1.00  0.00    -0.248 NA
ATOM     57  C   UNL A   1      45.116  24.484  28.958  1.00  0.00     0.031 C 
ATOM     58  C   UNL A   1      45.866  28.426  33.509  1.00  0.00     0.029 A 
ATOM     59  C   UNL A   1      45.326  27.725  32.443  1.00  0.00     0.049 A 
ATOM     60  H   UNL A   1      43.539  28.087  31.383  1.00  0.00     0.167 HD
ATOM     61  C   UNL A   1      45.279  25.954  30.709  1.00  0.00     0.074 A 
ATOM     62  C   UNL A   1      45.856  24.830  30.002  1.00  0.00     0.031 C 
ATOM     63  C   UNL A   1      45.862  26.570  31.767  1.00  0.00     0.034 A 
BRANCH  50  64
ATOM     64  C   UNL A   1      42.749  31.490  33.840  1.00  0.00     0.023 A 
ATOM     65  C   UNL A   1      43.250  32.745  33.432  1.00  0.00     0.012 A 
ATOM     66  C   UNL A   1      42.158  31.364  35.111  1.00  0.00     0.148 A 
ATOM     67  C   UNL A   1      43.196  33.844  34.287  1.00  0.00     0.002 A 
ATOM     68  C   UNL A   1      42.068  32.476  35.941  1.00  0.00     0.091 A 
ATOM     69  F   UNL A   1      41.706  30.160  35.490  1.00  0.00    -0.205 F 
ATOM     70  C   UNL A   1      42.597  33.712  35.535  1.00  0.00     0.022 A 
BRANCH  68  71
ATOM     71  S   UNL A   1      41.244  32.429  37.537  1.00  0.00     0.127 S 
ATOM     72  O   UNL A   1      39.945  31.858  37.181  1.00  0.00    -0.237 OA
ATOM     73  O   UNL A   1      42.112  31.536  38.306  1.00  0.00    -0.237 OA
ATOM     74  O   UNL A   1      41.214  33.805  38.014  1.00  0.00    -0.744 OA
ENDBRANCH  68  71
ENDBRANCH  50  64
BRANCH  51  75
ATOM     75  C   UNL A   1      42.888  24.141  27.078  1.00  0.00     0.023 A 
ATOM     76  C   UNL A   1      43.633  24.353  25.900  1.00  0.00     0.012 A 
ATOM     77  C   UNL A   1      42.229  22.911  27.261  1.00  0.00     0.148 A 
ATOM     78  C   UNL A   1      43.694  23.372  24.910  1.00  0.00     0.002 A 
ATOM     79  C   UNL A   1      42.338  21.917  26.294  1.00  0.00     0.091 A 
ATOM     80  F   UNL A   1      41.515  22.732  28.381  1.00  0.00    -0.205 F 
ATOM     81  C   UNL A   1      43.055  22.151  25.111  1.00  0.00     0.022 A 
BRANCH  79  82
ATOM     82  S   UNL A   1      41.659  20.269  26.527  1.00  0.00     0.127 S 
ATOM     83  O   UNL A   1      40.223  20.532  26.504  1.00  0.00    -0.237 OA
ATOM     84  O   UNL A   1      42.175  19.560  25.355  1.00  0.00    -0.237 OA
ATOM     85  O   UNL A   1      42.200  19.801  27.796  1.00  0.00    -0.744 OA
ENDBRANCH  79  82
ENDBRANCH  51  75
BRANCH  63  86
ATOM     86  C   UNL A   1      47.178  26.026  32.256  1.00  0.00     0.023 A 
ATOM     87  C   UNL A   1      48.382  26.540  31.739  1.00  0.00     0.012 A 
ATOM     88  C   UNL A   1      47.220  25.064  33.285  1.00  0.00     0.148 A 
ATOM     89  C   UNL A   1      49.610  26.083  32.216  1.00  0.00     0.002 A 
ATOM     90  C   UNL A   1      48.447  24.649  33.789  1.00  0.00     0.091 A 
ATOM     91  F   UNL A   1      46.063  24.573  33.751  1.00  0.00    -0.205 F 
ATOM     92  C   UNL A   1      49.643  25.148  33.249  1.00  0.00     0.022 A 
BRANCH  90  93
ATOM     93  S   UNL A   1      48.582  23.523  35.183  1.00  0.00     0.127 S 
ATOM     94  O   UNL A   1      50.020  23.261  35.215  1.00  0.00    -0.237 OA
ATOM     95  O   UNL A   1      48.086  24.338  36.292  1.00  0.00    -0.237 OA
ATOM     96  O   UNL A   1      47.744  22.377  34.854  1.00  0.00    -0.744 OA
ENDBRANCH  90  93
ENDBRANCH  63  86
ENDBRANCH  37  38
ENDBRANCH  29  32
ENDBRANCH  27  28
ENDBRANCH  26  27
ENDBRANCH   1  26
TORSDOF 17
ENDMDL
