MODEL 1
REMARK VINA RESULT:     -12.7      0.000      0.000
REMARK SMILES COc1ccc(-n2c(SCc3cn(-c4ccc(C(=O)NCCCCNC(=O)c5ccc(-c6c7nc(c(-c8cccc(S(=O)(=O)[O-])c8F)c8ccc([nH]8)c(-c8cccc(S(=O)(=O)[O-])c8F)c8nc(c(-c9cccc(S(=O)(=O)[O-])c9F)c9ccc6[nH]9)C=C8)C=C7)cc5)cc4)nn3)nc3ccccc3c2=O)cc1
REMARK SMILES IDX 21 1 20 2 18 3 19 4 17 6 14 7 15 8 92 9 16 10 91 11 13 12
REMARK SMILES IDX 11 13 12 14 94 15 93 16 10 17 9 18 8 19 7 20 102 21 95 22
REMARK SMILES IDX 101 23 103 24 96 25 100 26 97 27 99 28 98 29 6 30 3 31 4 32
REMARK SMILES IDX 105 33 5 34 104 35 2 36 1 37 22 38 23 39 24 40 25 41 26 42
REMARK SMILES IDX 27 44 28 45 29 46 90 47 30 48 89 49 31 50 32 51 33 52 83 53
REMARK SMILES IDX 34 54 88 55 82 56 84 57 35 58 87 59 81 60 80 61 36 63 68 64
REMARK SMILES IDX 48 65 67 66 49 67 52 68 66 69 85 70 50 71 51 72 65 74 86 75
REMARK SMILES IDX 53 76 37 77 38 78 46 79 39 80 41 81 47 82 40 83 42 84 43 85
REMARK SMILES IDX 44 86 45 87 69 88 70 89 78 90 71 91 73 92 79 93 72 94 74 95
REMARK SMILES IDX 75 96 76 97 77 98 54 99 55 100 63 101 56 102 58 103 64 104
REMARK SMILES IDX 57 105 59 106 60 107 61 108 62 109
REMARK H PARENT 20 5 25 43 84 62 52 73
REMARK Flexibility Score: inf
ROOT
ATOM      1  C   UNL A   1      39.225  21.255  25.738  1.00  0.00     0.116 C 
ENDROOT
BRANCH   1   2
ATOM      2  N   UNL A   1      38.519  20.053  25.345  1.00  0.00    -0.352 N 
ATOM      3  C   UNL A   1      37.239  19.800  24.933  1.00  0.00     0.251 C 
ATOM      4  O   UNL A   1      36.934  18.623  24.732  1.00  0.00    -0.269 OA
ATOM      5  H   UNL A   1      39.081  19.245  25.383  1.00  0.00     0.163 HD
BRANCH   3   6
ATOM      6  C   UNL A   1      36.196  20.840  24.715  1.00  0.00     0.039 A 
ATOM      7  C   UNL A   1      34.388  22.868  24.098  1.00  0.00     0.066 A 
ATOM      8  C   UNL A   1      35.728  23.048  23.778  1.00  0.00     0.029 A 
ATOM      9  C   UNL A   1      33.933  21.714  24.735  1.00  0.00     0.029 A 
ATOM     10  C   UNL A   1      36.626  22.033  24.097  1.00  0.00     0.016 A 
ATOM     11  C   UNL A   1      34.838  20.689  25.014  1.00  0.00     0.016 A 
BRANCH   7  12
ATOM     12  N   UNL A   1      33.503  23.919  23.889  1.00  0.00    -0.220 N 
ATOM     13  C   UNL A   1      32.572  25.716  23.120  1.00  0.00     0.093 A 
ATOM     14  C   UNL A   1      33.569  24.807  22.859  1.00  0.00     0.141 A 
ATOM     15  N   UNL A   1      31.970  25.376  24.307  1.00  0.00    -0.134 NA
ATOM     16  N   UNL A   1      32.548  24.273  24.768  1.00  0.00    -0.062 NA
BRANCH  13  17
ATOM     17  C   UNL A   1      32.134  26.918  22.392  1.00  0.00     0.138 C 
BRANCH  17  18
ATOM     18  S   UNL A   1      32.487  28.480  23.170  1.00  0.00    -0.081 SA
BRANCH  18  19
ATOM     19  C   UNL A   1      31.202  28.753  24.375  1.00  0.00     0.176 A 
ATOM     20  N   UNL A   1      30.756  30.060  24.463  1.00  0.00    -0.255 N 
ATOM     21  C   UNL A   1      31.179  30.799  25.558  1.00  0.00     0.266 A 
ATOM     22  N   UNL A   1      31.323  28.032  25.448  1.00  0.00    -0.223 NA
ATOM     23  C   UNL A   1      32.219  30.096  26.362  1.00  0.00     0.066 A 
ATOM     24  O   UNL A   1      30.830  31.936  25.853  1.00  0.00    -0.268 OA
ATOM     25  C   UNL A   1      32.156  28.692  26.372  1.00  0.00     0.079 A 
ATOM     26  C   UNL A   1      33.353  30.755  26.829  1.00  0.00     0.016 A 
ATOM     27  C   UNL A   1      33.161  27.952  26.988  1.00  0.00     0.029 A 
ATOM     28  C   UNL A   1      34.415  29.994  27.329  1.00  0.00     0.001 A 
ATOM     29  C   UNL A   1      34.305  28.603  27.444  1.00  0.00     0.002 A 
BRANCH  20  30
ATOM     30  C   UNL A   1      29.686  30.478  23.633  1.00  0.00     0.052 A 
ATOM     31  C   UNL A   1      28.230  32.060  21.857  1.00  0.00     0.119 A 
ATOM     32  C   UNL A   1      28.932  30.957  21.375  1.00  0.00     0.048 A 
ATOM     33  C   UNL A   1      28.103  32.257  23.231  1.00  0.00     0.048 A 
ATOM     34  C   UNL A   1      29.687  30.179  22.261  1.00  0.00     0.030 A 
ATOM     35  C   UNL A   1      28.811  31.447  24.121  1.00  0.00     0.030 A 
BRANCH  31  36
ATOM     36  O   UNL A   1      27.653  32.915  20.958  1.00  0.00    -0.497 OA
ATOM     37  C   UNL A   1      27.753  32.423  19.614  1.00  0.00     0.278 C 
ENDBRANCH  31  36
ENDBRANCH  20  30
ENDBRANCH  18  19
ENDBRANCH  17  18
ENDBRANCH  13  17
ENDBRANCH   7  12
ENDBRANCH   3   6
ENDBRANCH   1   2
BRANCH   1  38
ATOM     38  C   UNL A   1      40.556  20.918  26.423  1.00  0.00     0.023 C 
BRANCH  38  39
ATOM     39  C   UNL A   1      41.255  19.648  25.910  1.00  0.00     0.023 C 
BRANCH  39  40
ATOM     40  C   UNL A   1      42.717  19.510  26.321  1.00  0.00     0.116 C 
BRANCH  40  41
ATOM     41  N   UNL A   1      43.612  19.337  25.174  1.00  0.00    -0.352 N 
ATOM     42  C   UNL A   1      44.187  20.318  24.382  1.00  0.00     0.251 C 
ATOM     43  H   UNL A   1      43.832  18.407  24.936  1.00  0.00     0.163 HD
ATOM     44  O   UNL A   1      44.569  20.071  23.253  1.00  0.00    -0.269 OA
BRANCH  42  45
ATOM     45  C   UNL A   1      44.345  21.668  24.955  1.00  0.00     0.039 A 
ATOM     46  C   UNL A   1      43.414  22.681  24.713  1.00  0.00     0.014 A 
ATOM     47  C   UNL A   1      45.442  21.884  25.784  1.00  0.00     0.014 A 
ATOM     48  C   UNL A   1      43.556  23.891  25.387  1.00  0.00     0.010 A 
ATOM     49  C   UNL A   1      45.491  23.009  26.564  1.00  0.00     0.010 A 
ATOM     50  C   UNL A   1      44.587  24.037  26.329  1.00  0.00    -0.014 A 
BRANCH  50  51
ATOM     51  C   UNL A   1      44.663  25.217  27.182  1.00  0.00     0.031 A 
ATOM     52  C   UNL A   1      45.759  26.157  26.825  1.00  0.00     0.074 A 
ATOM     53  C   UNL A   1      43.692  25.535  28.066  1.00  0.00     0.049 A 
ATOM     54  N   UNL A   1      46.831  26.392  27.505  1.00  0.00    -0.248 NA
ATOM     55  C   UNL A   1      45.753  26.783  25.494  1.00  0.00     0.031 C 
ATOM     56  C   UNL A   1      42.409  24.851  28.280  1.00  0.00     0.029 A 
ATOM     57  N   UNL A   1      43.572  26.640  28.853  1.00  0.00    -0.354 N 
ATOM     58  C   UNL A   1      47.499  27.399  26.814  1.00  0.00     0.074 A 
ATOM     59  C   UNL A   1      46.924  27.426  25.495  1.00  0.00     0.031 C 
ATOM     60  C   UNL A   1      41.553  25.688  28.907  1.00  0.00     0.029 A 
ATOM     61  C   UNL A   1      42.271  26.889  29.286  1.00  0.00     0.049 A 
ATOM     62  H   UNL A   1      44.336  27.211  29.094  1.00  0.00     0.167 HD
ATOM     63  C   UNL A   1      48.268  28.310  27.475  1.00  0.00     0.034 A 
ATOM     64  C   UNL A   1      41.808  28.032  29.853  1.00  0.00     0.034 A 
ATOM     65  C   UNL A   1      48.505  27.899  28.838  1.00  0.00     0.049 A 
ATOM     66  C   UNL A   1      42.983  28.749  30.400  1.00  0.00     0.074 A 
ATOM     67  C   UNL A   1      49.046  26.781  29.442  1.00  0.00     0.029 A 
ATOM     68  N   UNL A   1      47.768  28.535  29.807  1.00  0.00    -0.354 N 
ATOM     69  N   UNL A   1      43.700  28.294  31.387  1.00  0.00    -0.248 NA
ATOM     70  C   UNL A   1      43.634  29.735  29.553  1.00  0.00     0.031 C 
ATOM     71  C   UNL A   1      48.215  26.544  30.576  1.00  0.00     0.029 A 
ATOM     72  C   UNL A   1      47.277  27.576  30.651  1.00  0.00     0.049 A 
ATOM     73  H   UNL A   1      47.620  29.505  29.883  1.00  0.00     0.167 HD
ATOM     74  C   UNL A   1      45.008  28.541  30.994  1.00  0.00     0.074 A 
ATOM     75  C   UNL A   1      44.902  29.532  29.923  1.00  0.00     0.031 C 
ATOM     76  C   UNL A   1      46.019  27.697  31.353  1.00  0.00     0.034 A 
BRANCH  63  77
ATOM     77  C   UNL A   1      48.481  29.750  27.060  1.00  0.00     0.023 A 
ATOM     78  C   UNL A   1      49.815  30.223  27.050  1.00  0.00     0.012 A 
ATOM     79  C   UNL A   1      47.459  30.721  26.967  1.00  0.00     0.148 A 
ATOM     80  C   UNL A   1      50.112  31.589  27.020  1.00  0.00     0.002 A 
ATOM     81  C   UNL A   1      47.761  32.074  26.856  1.00  0.00     0.091 A 
ATOM     82  F   UNL A   1      46.182  30.368  27.119  1.00  0.00    -0.205 F 
ATOM     83  C   UNL A   1      49.084  32.517  26.918  1.00  0.00     0.022 A 
BRANCH  81  84
ATOM     84  S   UNL A   1      46.475  33.317  26.675  1.00  0.00     0.127 S 
ATOM     85  O   UNL A   1      45.272  32.490  26.653  1.00  0.00    -0.237 OA
ATOM     86  O   UNL A   1      46.661  34.112  27.889  1.00  0.00    -0.237 OA
ATOM     87  O   UNL A   1      46.786  34.027  25.442  1.00  0.00    -0.744 OA
ENDBRANCH  81  84
ENDBRANCH  63  77
BRANCH  64  88
ATOM     88  C   UNL A   1      40.485  28.688  29.722  1.00  0.00     0.023 A 
ATOM     89  C   UNL A   1      39.852  28.732  28.462  1.00  0.00     0.012 A 
ATOM     90  C   UNL A   1      39.711  28.992  30.862  1.00  0.00     0.148 A 
ATOM     91  C   UNL A   1      38.485  29.018  28.348  1.00  0.00     0.002 A 
ATOM     92  C   UNL A   1      38.355  29.278  30.746  1.00  0.00     0.091 A 
ATOM     93  F   UNL A   1      40.278  28.902  32.073  1.00  0.00    -0.205 F 
ATOM     94  C   UNL A   1      37.734  29.280  29.491  1.00  0.00     0.022 A 
BRANCH  92  95
ATOM     95  S   UNL A   1      37.322  29.583  32.186  1.00  0.00     0.127 S 
ATOM     96  O   UNL A   1      37.975  30.746  32.789  1.00  0.00    -0.237 OA
ATOM     97  O   UNL A   1      36.026  29.857  31.572  1.00  0.00    -0.237 OA
ATOM     98  O   UNL A   1      37.400  28.370  32.991  1.00  0.00    -0.744 OA
ENDBRANCH  92  95
ENDBRANCH  64  88
BRANCH  76  99
ATOM     99  C   UNL A   1      45.737  26.649  32.400  1.00  0.00     0.023 A 
ATOM    100  C   UNL A   1      45.239  25.367  32.087  1.00  0.00     0.012 A 
ATOM    101  C   UNL A   1      46.148  26.914  33.716  1.00  0.00     0.148 A 
ATOM    102  C   UNL A   1      45.130  24.380  33.072  1.00  0.00     0.002 A 
ATOM    103  C   UNL A   1      46.084  25.917  34.680  1.00  0.00     0.091 A 
ATOM    104  F   UNL A   1      46.621  28.137  33.996  1.00  0.00    -0.205 F 
ATOM    105  C   UNL A   1      45.567  24.652  34.366  1.00  0.00     0.022 A 
BRANCH 103 106
ATOM    106  S   UNL A   1      46.748  26.176  36.326  1.00  0.00     0.127 S 
ATOM    107  O   UNL A   1      45.813  27.153  36.880  1.00  0.00    -0.237 OA
ATOM    108  O   UNL A   1      46.660  24.840  36.916  1.00  0.00    -0.237 OA
ATOM    109  O   UNL A   1      48.113  26.651  36.135  1.00  0.00    -0.744 OA
ENDBRANCH 103 106
ENDBRANCH  76  99
ENDBRANCH  50  51
ENDBRANCH  42  45
ENDBRANCH  40  41
ENDBRANCH  39  40
ENDBRANCH  38  39
ENDBRANCH   1  38
TORSDOF 20
ENDMDL
MODEL 2
REMARK VINA RESULT:     -12.6      3.113      9.965
REMARK SMILES COc1ccc(-n2c(SCc3cn(-c4ccc(C(=O)NCCCCNC(=O)c5ccc(-c6c7nc(c(-c8cccc(S(=O)(=O)[O-])c8F)c8ccc([nH]8)c(-c8cccc(S(=O)(=O)[O-])c8F)c8nc(c(-c9cccc(S(=O)(=O)[O-])c9F)c9ccc6[nH]9)C=C8)C=C7)cc5)cc4)nn3)nc3ccccc3c2=O)cc1
REMARK SMILES IDX 21 1 20 2 18 3 19 4 17 6 14 7 15 8 92 9 16 10 91 11 13 12
REMARK SMILES IDX 11 13 12 14 94 15 93 16 10 17 9 18 8 19 7 20 102 21 95 22
REMARK SMILES IDX 101 23 103 24 96 25 100 26 97 27 99 28 98 29 6 30 3 31 4 32
REMARK SMILES IDX 105 33 5 34 104 35 2 36 1 37 22 38 23 39 24 40 25 41 26 42
REMARK SMILES IDX 27 44 28 45 29 46 90 47 30 48 89 49 31 50 32 51 33 52 83 53
REMARK SMILES IDX 34 54 88 55 82 56 84 57 35 58 87 59 81 60 80 61 36 63 68 64
REMARK SMILES IDX 48 65 67 66 49 67 52 68 66 69 85 70 50 71 51 72 65 74 86 75
REMARK SMILES IDX 53 76 37 77 38 78 46 79 39 80 41 81 47 82 40 83 42 84 43 85
REMARK SMILES IDX 44 86 45 87 69 88 70 89 78 90 71 91 73 92 79 93 72 94 74 95
REMARK SMILES IDX 75 96 76 97 77 98 54 99 55 100 63 101 56 102 58 103 64 104
REMARK SMILES IDX 57 105 59 106 60 107 61 108 62 109
REMARK H PARENT 20 5 25 43 84 62 52 73
REMARK Flexibility Score: inf
ROOT
ATOM      1  C   UNL A   1      33.917  34.601  31.376  1.00  0.00     0.116 C 
ENDROOT
BRANCH   1   2
ATOM      2  N   UNL A   1      34.067  35.367  30.157  1.00  0.00    -0.352 N 
ATOM      3  C   UNL A   1      34.072  35.040  28.828  1.00  0.00     0.251 C 
ATOM      4  O   UNL A   1      34.294  35.947  28.024  1.00  0.00    -0.269 OA
ATOM      5  H   UNL A   1      34.193  36.330  30.318  1.00  0.00     0.163 HD
BRANCH   3   6
ATOM      6  C   UNL A   1      33.833  33.672  28.290  1.00  0.00     0.039 A 
ATOM      7  C   UNL A   1      33.218  31.226  27.106  1.00  0.00     0.066 A 
ATOM      8  C   UNL A   1      32.264  32.235  27.086  1.00  0.00     0.029 A 
ATOM      9  C   UNL A   1      34.460  31.399  27.718  1.00  0.00     0.029 A 
ATOM     10  C   UNL A   1      32.576  33.452  27.687  1.00  0.00     0.016 A 
ATOM     11  C   UNL A   1      34.772  32.636  28.282  1.00  0.00     0.016 A 
BRANCH   7  12
ATOM     12  N   UNL A   1      32.877  29.972  26.612  1.00  0.00    -0.220 N 
ATOM     13  C   UNL A   1      32.240  27.908  26.475  1.00  0.00     0.093 A 
ATOM     14  C   UNL A   1      32.283  28.981  27.332  1.00  0.00     0.141 A 
ATOM     15  N   UNL A   1      32.839  28.268  25.293  1.00  0.00    -0.134 NA
ATOM     16  N   UNL A   1      33.224  29.534  25.388  1.00  0.00    -0.062 NA
BRANCH  13  17
ATOM     17  C   UNL A   1      31.726  26.539  26.652  1.00  0.00     0.138 C 
BRANCH  17  18
ATOM     18  S   UNL A   1      32.805  25.223  26.127  1.00  0.00    -0.081 SA
BRANCH  18  19
ATOM     19  C   UNL A   1      31.782  24.029  25.287  1.00  0.00     0.176 A 
ATOM     20  N   UNL A   1      32.452  23.220  24.387  1.00  0.00    -0.255 N 
ATOM     21  C   UNL A   1      32.280  23.498  23.038  1.00  0.00     0.266 A 
ATOM     22  N   UNL A   1      30.587  24.457  25.014  1.00  0.00    -0.223 NA
ATOM     23  C   UNL A   1      31.539  24.770  22.801  1.00  0.00     0.066 A 
ATOM     24  O   UNL A   1      32.721  22.852  22.095  1.00  0.00    -0.268 OA
ATOM     25  C   UNL A   1      30.596  25.133  23.777  1.00  0.00     0.079 A 
ATOM     26  C   UNL A   1      31.951  25.691  21.842  1.00  0.00     0.016 A 
ATOM     27  C   UNL A   1      29.953  26.366  23.704  1.00  0.00     0.029 A 
ATOM     28  C   UNL A   1      31.393  26.972  21.855  1.00  0.00     0.001 A 
ATOM     29  C   UNL A   1      30.371  27.296  22.756  1.00  0.00     0.002 A 
BRANCH  20  30
ATOM     30  C   UNL A   1      33.018  22.005  24.845  1.00  0.00     0.052 A 
ATOM     31  C   UNL A   1      34.100  19.436  24.753  1.00  0.00     0.119 A 
ATOM     32  C   UNL A   1      34.951  20.535  24.849  1.00  0.00     0.048 A 
ATOM     33  C   UNL A   1      32.724  19.607  24.893  1.00  0.00     0.048 A 
ATOM     34  C   UNL A   1      34.410  21.827  24.866  1.00  0.00     0.030 A 
ATOM     35  C   UNL A   1      32.184  20.893  24.966  1.00  0.00     0.030 A 
BRANCH  31  36
ATOM     36  O   UNL A   1      34.647  18.199  24.549  1.00  0.00    -0.497 OA
ATOM     37  C   UNL A   1      33.685  17.152  24.744  1.00  0.00     0.278 C 
ENDBRANCH  31  36
ENDBRANCH  20  30
ENDBRANCH  18  19
ENDBRANCH  17  18
ENDBRANCH  13  17
ENDBRANCH   7  12
ENDBRANCH   3   6
ENDBRANCH   1   2
BRANCH   1  38
ATOM     38  C   UNL A   1      35.072  34.874  32.349  1.00  0.00     0.023 C 
BRANCH  38  39
ATOM     39  C   UNL A   1      35.772  33.624  32.906  1.00  0.00     0.023 C 
BRANCH  39  40
ATOM     40  C   UNL A   1      36.517  32.790  31.869  1.00  0.00     0.116 C 
BRANCH  40  41
ATOM     41  N   UNL A   1      36.902  33.569  30.690  1.00  0.00    -0.352 N 
ATOM     42  C   UNL A   1      38.133  33.604  30.053  1.00  0.00     0.251 C 
ATOM     43  H   UNL A   1      36.200  34.139  30.301  1.00  0.00     0.163 HD
ATOM     44  O   UNL A   1      38.456  34.551  29.360  1.00  0.00    -0.269 OA
BRANCH  42  45
ATOM     45  C   UNL A   1      39.034  32.448  30.220  1.00  0.00     0.039 A 
ATOM     46  C   UNL A   1      38.750  31.207  29.647  1.00  0.00     0.014 A 
ATOM     47  C   UNL A   1      40.207  32.655  30.941  1.00  0.00     0.014 A 
ATOM     48  C   UNL A   1      39.705  30.197  29.736  1.00  0.00     0.010 A 
ATOM     49  C   UNL A   1      41.207  31.721  30.890  1.00  0.00     0.010 A 
ATOM     50  C   UNL A   1      40.942  30.472  30.342  1.00  0.00    -0.014 A 
BRANCH  50  51
ATOM     51  C   UNL A   1      42.032  29.505  30.298  1.00  0.00     0.031 A 
ATOM     52  C   UNL A   1      42.417  28.961  31.628  1.00  0.00     0.074 A 
ATOM     53  C   UNL A   1      42.491  28.983  29.140  1.00  0.00     0.049 A 
ATOM     54  N   UNL A   1      43.511  29.193  32.273  1.00  0.00    -0.248 NA
ATOM     55  C   UNL A   1      41.418  28.214  32.408  1.00  0.00     0.031 C 
ATOM     56  C   UNL A   1      41.972  29.205  27.783  1.00  0.00     0.029 A 
ATOM     57  N   UNL A   1      43.421  28.009  28.943  1.00  0.00    -0.354 N 
ATOM     58  C   UNL A   1      43.448  28.400  33.415  1.00  0.00     0.074 A 
ATOM     59  C   UNL A   1      42.069  28.016  33.557  1.00  0.00     0.031 C 
ATOM     60  C   UNL A   1      42.391  28.210  26.972  1.00  0.00     0.029 A 
ATOM     61  C   UNL A   1      43.334  27.383  27.700  1.00  0.00     0.049 A 
ATOM     62  H   UNL A   1      44.096  27.768  29.618  1.00  0.00     0.167 HD
ATOM     63  C   UNL A   1      44.581  27.896  33.981  1.00  0.00     0.034 A 
ATOM     64  C   UNL A   1      43.944  26.229  27.327  1.00  0.00     0.034 A 
ATOM     65  C   UNL A   1      45.759  28.527  33.435  1.00  0.00     0.049 A 
ATOM     66  C   UNL A   1      45.091  26.032  28.242  1.00  0.00     0.074 A 
ATOM     67  C   UNL A   1      46.211  29.828  33.330  1.00  0.00     0.029 A 
ATOM     68  N   UNL A   1      46.473  27.800  32.514  1.00  0.00    -0.354 N 
ATOM     69  N   UNL A   1      46.126  26.822  28.269  1.00  0.00    -0.248 NA
ATOM     70  C   UNL A   1      44.879  25.233  29.438  1.00  0.00     0.031 C 
ATOM     71  C   UNL A   1      46.799  29.902  32.033  1.00  0.00     0.029 A 
ATOM     72  C   UNL A   1      46.755  28.628  31.461  1.00  0.00     0.049 A 
ATOM     73  H   UNL A   1      46.736  26.855  32.596  1.00  0.00     0.167 HD
ATOM     74  C   UNL A   1      46.383  26.993  29.622  1.00  0.00     0.074 A 
ATOM     75  C   UNL A   1      45.667  25.902  30.285  1.00  0.00     0.031 C 
ATOM     76  C   UNL A   1      46.886  28.170  30.097  1.00  0.00     0.034 A 
BRANCH  63  77
ATOM     77  C   UNL A   1      44.688  26.577  34.716  1.00  0.00     0.023 A 
ATOM     78  C   UNL A   1      44.131  25.443  34.078  1.00  0.00     0.012 A 
ATOM     79  C   UNL A   1      45.027  26.439  36.081  1.00  0.00     0.148 A 
ATOM     80  C   UNL A   1      43.862  24.262  34.778  1.00  0.00     0.002 A 
ATOM     81  C   UNL A   1      44.832  25.237  36.752  1.00  0.00     0.091 A 
ATOM     82  F   UNL A   1      45.415  27.503  36.785  1.00  0.00    -0.205 F 
ATOM     83  C   UNL A   1      44.217  24.157  36.116  1.00  0.00     0.022 A 
BRANCH  81  84
ATOM     84  S   UNL A   1      45.314  25.028  38.471  1.00  0.00     0.127 S 
ATOM     85  O   UNL A   1      44.396  25.942  39.145  1.00  0.00    -0.237 OA
ATOM     86  O   UNL A   1      45.042  23.606  38.682  1.00  0.00    -0.237 OA
ATOM     87  O   UNL A   1      46.726  25.381  38.528  1.00  0.00    -0.744 OA
ENDBRANCH  81  84
ENDBRANCH  63  77
BRANCH  64  88
ATOM     88  C   UNL A   1      43.462  25.149  26.434  1.00  0.00     0.023 A 
ATOM     89  C   UNL A   1      44.204  24.814  25.282  1.00  0.00     0.012 A 
ATOM     90  C   UNL A   1      42.462  24.249  26.861  1.00  0.00     0.148 A 
ATOM     91  C   UNL A   1      43.992  23.603  24.611  1.00  0.00     0.002 A 
ATOM     92  C   UNL A   1      42.251  23.048  26.190  1.00  0.00     0.091 A 
ATOM     93  F   UNL A   1      41.783  24.519  27.984  1.00  0.00    -0.205 F 
ATOM     94  C   UNL A   1      43.024  22.714  25.071  1.00  0.00     0.022 A 
BRANCH  92  95
ATOM     95  S   UNL A   1      41.047  21.840  26.760  1.00  0.00     0.127 S 
ATOM     96  O   UNL A   1      39.796  22.382  26.225  1.00  0.00    -0.237 OA
ATOM     97  O   UNL A   1      41.515  20.620  26.109  1.00  0.00    -0.237 OA
ATOM     98  O   UNL A   1      41.130  21.857  28.216  1.00  0.00    -0.744 OA
ENDBRANCH  92  95
ENDBRANCH  64  88
BRANCH  76  99
ATOM     99  C   UNL A   1      47.406  29.177  29.103  1.00  0.00     0.023 A 
ATOM    100  C   UNL A   1      48.684  29.083  28.512  1.00  0.00     0.012 A 
ATOM    101  C   UNL A   1      46.511  30.149  28.629  1.00  0.00     0.148 A 
ATOM    102  C   UNL A   1      49.067  29.956  27.489  1.00  0.00     0.002 A 
ATOM    103  C   UNL A   1      46.876  30.982  27.581  1.00  0.00     0.091 A 
ATOM    104  F   UNL A   1      45.299  30.225  29.200  1.00  0.00    -0.205 F 
ATOM    105  C   UNL A   1      48.157  30.897  27.014  1.00  0.00     0.022 A 
BRANCH 103 106
ATOM    106  S   UNL A   1      45.701  32.123  26.850  1.00  0.00     0.127 S 
ATOM    107  O   UNL A   1      45.318  32.941  27.999  1.00  0.00    -0.237 OA
ATOM    108  O   UNL A   1      46.513  32.815  25.849  1.00  0.00    -0.237 OA
ATOM    109  O   UNL A   1      44.641  31.296  26.286  1.00  0.00    -0.744 OA
ENDBRANCH 103 106
ENDBRANCH  76  99
ENDBRANCH  50  51
ENDBRANCH  42  45
ENDBRANCH  40  41
ENDBRANCH  39  40
ENDBRANCH  38  39
ENDBRANCH   1  38
TORSDOF 20
ENDMDL
MODEL 3
REMARK VINA RESULT:     -12.5      1.639      3.265
REMARK SMILES COc1ccc(-n2c(SCc3cn(-c4ccc(C(=O)NCCCCNC(=O)c5ccc(-c6c7nc(c(-c8cccc(S(=O)(=O)[O-])c8F)c8ccc([nH]8)c(-c8cccc(S(=O)(=O)[O-])c8F)c8nc(c(-c9cccc(S(=O)(=O)[O-])c9F)c9ccc6[nH]9)C=C8)C=C7)cc5)cc4)nn3)nc3ccccc3c2=O)cc1
REMARK SMILES IDX 21 1 20 2 18 3 19 4 17 6 14 7 15 8 92 9 16 10 91 11 13 12
REMARK SMILES IDX 11 13 12 14 94 15 93 16 10 17 9 18 8 19 7 20 102 21 95 22
REMARK SMILES IDX 101 23 103 24 96 25 100 26 97 27 99 28 98 29 6 30 3 31 4 32
REMARK SMILES IDX 105 33 5 34 104 35 2 36 1 37 22 38 23 39 24 40 25 41 26 42
REMARK SMILES IDX 27 44 28 45 29 46 90 47 30 48 89 49 31 50 32 51 33 52 83 53
REMARK SMILES IDX 34 54 88 55 82 56 84 57 35 58 87 59 81 60 80 61 36 63 68 64
REMARK SMILES IDX 48 65 67 66 49 67 52 68 66 69 85 70 50 71 51 72 65 74 86 75
REMARK SMILES IDX 53 76 37 77 38 78 46 79 39 80 41 81 47 82 40 83 42 84 43 85
REMARK SMILES IDX 44 86 45 87 69 88 70 89 78 90 71 91 73 92 79 93 72 94 74 95
REMARK SMILES IDX 75 96 76 97 77 98 54 99 55 100 63 101 56 102 58 103 64 104
REMARK SMILES IDX 57 105 59 106 60 107 61 108 62 109
REMARK H PARENT 20 5 25 43 84 62 52 73
REMARK Flexibility Score: inf
ROOT
ATOM      1  C   UNL A   1      39.307  21.585  26.324  1.00  0.00     0.116 C 
ENDROOT
BRANCH   1   2
ATOM      2  N   UNL A   1      38.638  20.404  25.818  1.00  0.00    -0.352 N 
ATOM      3  C   UNL A   1      37.491  20.200  25.100  1.00  0.00     0.251 C 
ATOM      4  O   UNL A   1      37.162  19.033  24.881  1.00  0.00    -0.269 OA
ATOM      5  H   UNL A   1      39.110  19.568  26.038  1.00  0.00     0.163 HD
BRANCH   3   6
ATOM      6  C   UNL A   1      36.618  21.284  24.569  1.00  0.00     0.039 A 
ATOM      7  C   UNL A   1      35.152  23.326  23.368  1.00  0.00     0.066 A 
ATOM      8  C   UNL A   1      36.519  23.262  23.137  1.00  0.00     0.029 A 
ATOM      9  C   UNL A   1      34.503  22.412  24.198  1.00  0.00     0.029 A 
ATOM     10  C   UNL A   1      37.247  22.243  23.747  1.00  0.00     0.016 A 
ATOM     11  C   UNL A   1      35.238  21.374  24.772  1.00  0.00     0.016 A 
BRANCH   7  12
ATOM     12  N   UNL A   1      34.436  24.404  22.858  1.00  0.00    -0.220 N 
ATOM     13  C   UNL A   1      33.549  26.362  22.606  1.00  0.00     0.093 A 
ATOM     14  C   UNL A   1      34.488  25.677  23.338  1.00  0.00     0.141 A 
ATOM     15  N   UNL A   1      32.938  25.483  21.746  1.00  0.00    -0.134 NA
ATOM     16  N   UNL A   1      33.490  24.287  21.909  1.00  0.00    -0.062 NA
BRANCH  13  17
ATOM     17  C   UNL A   1      33.118  27.769  22.647  1.00  0.00     0.138 C 
BRANCH  17  18
ATOM     18  S   UNL A   1      31.438  28.090  22.151  1.00  0.00    -0.081 SA
BRANCH  18  19
ATOM     19  C   UNL A   1      30.483  28.234  23.648  1.00  0.00     0.176 A 
ATOM     20  N   UNL A   1      29.396  27.382  23.729  1.00  0.00    -0.255 N 
ATOM     21  C   UNL A   1      28.141  27.937  23.527  1.00  0.00     0.266 A 
ATOM     22  N   UNL A   1      30.394  29.447  24.103  1.00  0.00    -0.223 NA
ATOM     23  C   UNL A   1      28.204  29.351  23.057  1.00  0.00     0.066 A 
ATOM     24  O   UNL A   1      27.061  27.368  23.636  1.00  0.00    -0.268 OA
ATOM     25  C   UNL A   1      29.307  30.105  23.495  1.00  0.00     0.079 A 
ATOM     26  C   UNL A   1      27.399  29.816  22.021  1.00  0.00     0.016 A 
ATOM     27  C   UNL A   1      29.515  31.390  23.002  1.00  0.00     0.029 A 
ATOM     28  C   UNL A   1      27.694  31.055  21.443  1.00  0.00     0.001 A 
ATOM     29  C   UNL A   1      28.723  31.855  21.956  1.00  0.00     0.002 A 
BRANCH  20  30
ATOM     30  C   UNL A   1      29.573  26.094  24.292  1.00  0.00     0.052 A 
ATOM     31  C   UNL A   1      30.878  23.884  25.383  1.00  0.00     0.119 A 
ATOM     32  C   UNL A   1      30.255  24.798  26.229  1.00  0.00     0.048 A 
ATOM     33  C   UNL A   1      30.689  23.970  24.004  1.00  0.00     0.048 A 
ATOM     34  C   UNL A   1      29.625  25.924  25.684  1.00  0.00     0.030 A 
ATOM     35  C   UNL A   1      30.012  25.064  23.460  1.00  0.00     0.030 A 
BRANCH  31  36
ATOM     36  O   UNL A   1      31.646  22.895  25.935  1.00  0.00    -0.497 OA
ATOM     37  C   UNL A   1      32.517  23.404  26.956  1.00  0.00     0.278 C 
ENDBRANCH  31  36
ENDBRANCH  20  30
ENDBRANCH  18  19
ENDBRANCH  17  18
ENDBRANCH  13  17
ENDBRANCH   7  12
ENDBRANCH   3   6
ENDBRANCH   1   2
BRANCH   1  38
ATOM     38  C   UNL A   1      40.630  21.221  27.011  1.00  0.00     0.023 C 
BRANCH  38  39
ATOM     39  C   UNL A   1      41.149  19.802  26.728  1.00  0.00     0.023 C 
BRANCH  39  40
ATOM     40  C   UNL A   1      42.619  19.578  27.064  1.00  0.00     0.116 C 
BRANCH  40  41
ATOM     41  N   UNL A   1      43.443  19.362  25.872  1.00  0.00    -0.352 N 
ATOM     42  C   UNL A   1      43.915  20.308  24.976  1.00  0.00     0.251 C 
ATOM     43  H   UNL A   1      43.695  18.428  25.686  1.00  0.00     0.163 HD
ATOM     44  O   UNL A   1      44.233  19.996  23.842  1.00  0.00    -0.269 OA
BRANCH  42  45
ATOM     45  C   UNL A   1      44.040  21.702  25.439  1.00  0.00     0.039 A 
ATOM     46  C   UNL A   1      43.133  22.690  25.048  1.00  0.00     0.014 A 
ATOM     47  C   UNL A   1      45.079  21.990  26.319  1.00  0.00     0.014 A 
ATOM     48  C   UNL A   1      43.235  23.954  25.624  1.00  0.00     0.010 A 
ATOM     49  C   UNL A   1      45.081  23.177  27.001  1.00  0.00     0.010 A 
ATOM     50  C   UNL A   1      44.201  24.181  26.618  1.00  0.00    -0.014 A 
BRANCH  50  51
ATOM     51  C   UNL A   1      44.226  25.430  27.370  1.00  0.00     0.031 A 
ATOM     52  C   UNL A   1      45.381  26.310  27.050  1.00  0.00     0.074 A 
ATOM     53  C   UNL A   1      43.179  25.847  28.116  1.00  0.00     0.049 A 
ATOM     54  N   UNL A   1      46.384  26.582  27.816  1.00  0.00    -0.248 NA
ATOM     55  C   UNL A   1      45.532  26.815  25.677  1.00  0.00     0.031 C 
ATOM     56  C   UNL A   1      41.860  25.213  28.251  1.00  0.00     0.029 A 
ATOM     57  N   UNL A   1      43.012  27.019  28.787  1.00  0.00    -0.354 N 
ATOM     58  C   UNL A   1      47.150  27.509  27.115  1.00  0.00     0.074 A 
ATOM     59  C   UNL A   1      46.715  27.430  25.746  1.00  0.00     0.031 C 
ATOM     60  C   UNL A   1      40.971  26.120  28.710  1.00  0.00     0.029 A 
ATOM     61  C   UNL A   1      41.682  27.334  29.058  1.00  0.00     0.049 A 
ATOM     62  H   UNL A   1      43.765  27.593  29.057  1.00  0.00     0.167 HD
ATOM     63  C   UNL A   1      47.875  28.458  27.772  1.00  0.00     0.034 A 
ATOM     64  C   UNL A   1      41.199  28.533  29.473  1.00  0.00     0.034 A 
ATOM     65  C   UNL A   1      47.957  28.164  29.183  1.00  0.00     0.049 A 
ATOM     66  C   UNL A   1      42.333  29.270  30.076  1.00  0.00     0.074 A 
ATOM     67  C   UNL A   1      48.399  27.092  29.935  1.00  0.00     0.029 A 
ATOM     68  N   UNL A   1      47.145  28.900  30.011  1.00  0.00    -0.354 N 
ATOM     69  N   UNL A   1      42.930  28.889  31.169  1.00  0.00    -0.248 NA
ATOM     70  C   UNL A   1      43.098  30.163  29.220  1.00  0.00     0.031 C 
ATOM     71  C   UNL A   1      47.449  26.975  30.991  1.00  0.00     0.029 A 
ATOM     72  C   UNL A   1      46.540  28.030  30.878  1.00  0.00     0.049 A 
ATOM     73  H   UNL A   1      47.020  29.876  29.987  1.00  0.00     0.167 HD
ATOM     74  C   UNL A   1      44.279  29.071  30.896  1.00  0.00     0.074 A 
ATOM     75  C   UNL A   1      44.314  29.965  29.738  1.00  0.00     0.031 C 
ATOM     76  C   UNL A   1      45.221  28.241  31.430  1.00  0.00     0.034 A 
BRANCH  63  77
ATOM     77  C   UNL A   1      48.174  29.850  27.259  1.00  0.00     0.023 A 
ATOM     78  C   UNL A   1      49.508  30.306  27.387  1.00  0.00     0.012 A 
ATOM     79  C   UNL A   1      47.196  30.818  26.940  1.00  0.00     0.148 A 
ATOM     80  C   UNL A   1      49.836  31.661  27.273  1.00  0.00     0.002 A 
ATOM     81  C   UNL A   1      47.541  32.152  26.747  1.00  0.00     0.091 A 
ATOM     82  F   UNL A   1      45.902  30.493  26.950  1.00  0.00    -0.205 F 
ATOM     83  C   UNL A   1      48.853  32.585  26.948  1.00  0.00     0.022 A 
BRANCH  81  84
ATOM     84  S   UNL A   1      46.318  33.384  26.281  1.00  0.00     0.127 S 
ATOM     85  O   UNL A   1      47.131  34.327  25.518  1.00  0.00    -0.237 OA
ATOM     86  O   UNL A   1      45.382  32.587  25.488  1.00  0.00    -0.237 OA
ATOM     87  O   UNL A   1      45.766  33.882  27.534  1.00  0.00    -0.744 OA
ENDBRANCH  81  84
ENDBRANCH  63  77
BRANCH  64  88
ATOM     88  C   UNL A   1      39.918  29.203  29.146  1.00  0.00     0.023 A 
ATOM     89  C   UNL A   1      39.324  28.994  27.884  1.00  0.00     0.012 A 
ATOM     90  C   UNL A   1      39.129  29.789  30.160  1.00  0.00     0.148 A 
ATOM     91  C   UNL A   1      37.978  29.311  27.656  1.00  0.00     0.002 A 
ATOM     92  C   UNL A   1      37.794  30.105  29.929  1.00  0.00     0.091 A 
ATOM     93  F   UNL A   1      39.655  29.945  31.382  1.00  0.00    -0.205 F 
ATOM     94  C   UNL A   1      37.210  29.855  28.681  1.00  0.00     0.022 A 
BRANCH  92  95
ATOM     95  S   UNL A   1      36.738  30.770  31.223  1.00  0.00     0.127 S 
ATOM     96  O   UNL A   1      37.562  31.854  31.762  1.00  0.00    -0.237 OA
ATOM     97  O   UNL A   1      35.571  31.208  30.463  1.00  0.00    -0.237 OA
ATOM     98  O   UNL A   1      36.514  29.670  32.154  1.00  0.00    -0.744 OA
ENDBRANCH  92  95
ENDBRANCH  64  88
BRANCH  76  99
ATOM     99  C   UNL A   1      44.800  27.296  32.528  1.00  0.00     0.023 A 
ATOM    100  C   UNL A   1      44.434  25.955  32.287  1.00  0.00     0.012 A 
ATOM    101  C   UNL A   1      44.944  27.732  33.855  1.00  0.00     0.148 A 
ATOM    102  C   UNL A   1      44.191  25.077  33.348  1.00  0.00     0.002 A 
ATOM    103  C   UNL A   1      44.750  26.845  34.905  1.00  0.00     0.091 A 
ATOM    104  F   UNL A   1      45.295  29.009  34.066  1.00  0.00    -0.205 F 
ATOM    105  C   UNL A   1      44.364  25.519  34.658  1.00  0.00     0.022 A 
BRANCH 103 106
ATOM    106  S   UNL A   1      45.081  27.329  36.600  1.00  0.00     0.127 S 
ATOM    107  O   UNL A   1      44.049  28.337  36.835  1.00  0.00    -0.237 OA
ATOM    108  O   UNL A   1      44.890  26.075  37.330  1.00  0.00    -0.237 OA
ATOM    109  O   UNL A   1      46.454  27.821  36.614  1.00  0.00    -0.744 OA
ENDBRANCH 103 106
ENDBRANCH  76  99
ENDBRANCH  50  51
ENDBRANCH  42  45
ENDBRANCH  40  41
ENDBRANCH  39  40
ENDBRANCH  38  39
ENDBRANCH   1  38
TORSDOF 20
ENDMDL
