MODEL 1
REMARK VINA RESULT:     -11.9      0.000      0.000
REMARK SMILES COc1cc(S(=O)(=O)Nc2cccc(C(=O)NCCCCNC(=O)c3ccc(-c4c5nc(c(-c6cccc(S(=O)(=O)[O-])c6F)c6ccc([nH]6)c(-c6cccc(S(=O)(=O)[O-])c6F)c6nc(c(-c7cccc(S(=O)(=O)[O-])c7F)c7ccc4[nH]7)C=C6)C=C5)cc3)c2)c(OC)cc1C
REMARK SMILES IDX 19 1 18 2 17 3 15 4 16 5 14 7 10 8 11 9 88 10 12 11 13 12
REMARK SMILES IDX 9 13 6 15 7 16 8 17 5 18 3 19 4 20 93 21 92 22 94 23 89 24
REMARK SMILES IDX 2 25 1 26 90 27 91 28 20 29 21 30 22 31 23 32 24 34 25 35
REMARK SMILES IDX 26 36 87 37 27 38 86 39 28 40 29 41 30 42 80 43 31 44 85 45
REMARK SMILES IDX 79 46 81 47 32 48 84 49 78 50 77 51 33 53 65 54 45 55 64 56
REMARK SMILES IDX 46 57 49 58 63 59 82 60 47 61 48 62 62 64 83 65 50 66 34 67
REMARK SMILES IDX 35 68 43 69 36 70 38 71 44 72 37 73 39 74 40 75 41 76 42 77
REMARK SMILES IDX 66 78 67 79 75 80 68 81 70 82 76 83 69 84 71 85 72 86 73 87
REMARK SMILES IDX 74 88 51 89 52 90 60 91 53 92 55 93 61 94 54 95 56 96 57 97
REMARK SMILES IDX 58 98 59 99
REMARK H PARENT 17 6 9 14 22 33 81 52 49 63
REMARK Flexibility Score: inf
ROOT
ATOM      1  C   UNL A   1      41.423  19.430  26.114  1.00  0.00     0.023 C 
ENDROOT
BRANCH   1   2
ATOM      2  C   UNL A   1      40.783  20.047  27.368  1.00  0.00     0.116 C 
BRANCH   2   3
ATOM      3  N   UNL A   1      40.576  21.474  27.211  1.00  0.00    -0.352 N 
ATOM      4  C   UNL A   1      39.648  22.198  26.514  1.00  0.00     0.251 C 
ATOM      5  O   UNL A   1      39.728  23.427  26.552  1.00  0.00    -0.269 OA
ATOM      6  H   UNL A   1      41.229  22.027  27.699  1.00  0.00     0.163 HD
BRANCH   4   7
ATOM      7  C   UNL A   1      38.496  21.577  25.802  1.00  0.00     0.041 A 
ATOM      8  C   UNL A   1      36.189  21.907  25.109  1.00  0.00     0.050 A 
ATOM      9  C   UNL A   1      36.103  20.574  24.714  1.00  0.00     0.027 A 
ATOM     10  C   UNL A   1      37.406  22.421  25.567  1.00  0.00     0.040 A 
ATOM     11  C   UNL A   1      37.202  19.737  24.884  1.00  0.00     0.003 A 
ATOM     12  C   UNL A   1      38.385  20.236  25.436  1.00  0.00     0.014 A 
BRANCH   8  13
ATOM     13  N   UNL A   1      35.080  22.785  25.172  1.00  0.00    -0.279 N 
ATOM     14  H   UNL A   1      34.806  23.106  26.062  1.00  0.00     0.180 HD
BRANCH  13  15
ATOM     15  S   UNL A   1      34.200  23.321  23.860  1.00  0.00     0.265 S 
ATOM     16  O   UNL A   1      33.234  22.269  23.535  1.00  0.00    -0.201 OA
ATOM     17  O   UNL A   1      35.178  23.715  22.885  1.00  0.00    -0.201 OA
BRANCH  15  18
ATOM     18  C   UNL A   1      33.226  24.770  24.218  1.00  0.00     0.133 A 
ATOM     19  C   UNL A   1      32.545  26.919  23.297  1.00  0.00     0.123 A 
ATOM     20  C   UNL A   1      33.372  25.799  23.267  1.00  0.00     0.073 A 
ATOM     21  C   UNL A   1      31.459  26.958  24.168  1.00  0.00    -0.005 A 
ATOM     22  C   UNL A   1      31.384  25.984  25.171  1.00  0.00     0.055 A 
ATOM     23  C   UNL A   1      30.397  28.015  24.111  1.00  0.00     0.048 C 
ATOM     24  C   UNL A   1      32.308  24.930  25.259  1.00  0.00     0.139 A 
BRANCH  19  25
ATOM     25  O   UNL A   1      32.822  27.922  22.407  1.00  0.00    -0.496 OA
ATOM     26  C   UNL A   1      34.155  28.415  22.592  1.00  0.00     0.278 C 
ENDBRANCH  19  25
BRANCH  24  27
ATOM     27  O   UNL A   1      32.366  24.114  26.348  1.00  0.00    -0.495 OA
ATOM     28  C   UNL A   1      31.143  23.544  26.819  1.00  0.00     0.278 C 
ENDBRANCH  24  27
ENDBRANCH  15  18
ENDBRANCH  13  15
ENDBRANCH   8  13
ENDBRANCH   4   7
ENDBRANCH   2   3
ENDBRANCH   1   2
BRANCH   1  29
ATOM     29  C   UNL A   1      42.846  18.910  26.303  1.00  0.00     0.023 C 
BRANCH  29  30
ATOM     30  C   UNL A   1      43.691  19.072  25.064  1.00  0.00     0.116 C 
BRANCH  30  31
ATOM     31  N   UNL A   1      45.038  19.519  25.333  1.00  0.00    -0.352 N 
ATOM     32  C   UNL A   1      45.583  20.776  25.169  1.00  0.00     0.251 C 
ATOM     33  H   UNL A   1      45.651  18.831  25.682  1.00  0.00     0.163 HD
ATOM     34  O   UNL A   1      46.807  20.852  25.102  1.00  0.00    -0.269 OA
BRANCH  32  35
ATOM     35  C   UNL A   1      44.735  21.999  25.255  1.00  0.00     0.039 A 
ATOM     36  C   UNL A   1      45.028  23.040  24.361  1.00  0.00     0.014 A 
ATOM     37  C   UNL A   1      43.922  22.261  26.351  1.00  0.00     0.014 A 
ATOM     38  C   UNL A   1      44.812  24.357  24.744  1.00  0.00     0.010 A 
ATOM     39  C   UNL A   1      43.802  23.550  26.788  1.00  0.00     0.010 A 
ATOM     40  C   UNL A   1      44.347  24.581  26.027  1.00  0.00    -0.014 A 
BRANCH  40  41
ATOM     41  C   UNL A   1      44.304  25.849  26.711  1.00  0.00     0.031 A 
ATOM     42  C   UNL A   1      43.022  26.566  26.729  1.00  0.00     0.074 A 
ATOM     43  C   UNL A   1      45.303  26.065  27.597  1.00  0.00     0.049 A 
ATOM     44  N   UNL A   1      42.865  27.751  27.192  1.00  0.00    -0.248 NA
ATOM     45  C   UNL A   1      41.786  25.963  26.236  1.00  0.00     0.031 C 
ATOM     46  C   UNL A   1      45.270  26.875  28.808  1.00  0.00     0.029 A 
ATOM     47  N   UNL A   1      46.606  25.575  27.618  1.00  0.00    -0.354 N 
ATOM     48  C   UNL A   1      41.508  27.941  27.357  1.00  0.00     0.074 A 
ATOM     49  C   UNL A   1      40.881  26.852  26.650  1.00  0.00     0.031 C 
ATOM     50  C   UNL A   1      46.533  27.063  29.237  1.00  0.00     0.029 A 
ATOM     51  C   UNL A   1      47.410  26.560  28.195  1.00  0.00     0.049 A 
ATOM     52  H   UNL A   1      46.905  24.697  27.287  1.00  0.00     0.167 HD
ATOM     53  C   UNL A   1      41.096  28.896  28.237  1.00  0.00     0.034 A 
ATOM     54  C   UNL A   1      48.263  27.346  27.459  1.00  0.00     0.034 A 
ATOM     55  C   UNL A   1      42.268  29.576  28.820  1.00  0.00     0.049 A 
ATOM     56  C   UNL A   1      47.838  28.816  27.438  1.00  0.00     0.074 A 
ATOM     57  C   UNL A   1      42.963  29.400  30.007  1.00  0.00     0.029 A 
ATOM     58  N   UNL A   1      43.105  30.315  27.989  1.00  0.00    -0.354 N 
ATOM     59  N   UNL A   1      46.699  29.262  27.896  1.00  0.00    -0.248 NA
ATOM     60  C   UNL A   1      48.670  29.900  26.922  1.00  0.00     0.031 C 
ATOM     61  C   UNL A   1      44.258  29.974  29.849  1.00  0.00     0.029 A 
ATOM     62  C   UNL A   1      44.344  30.528  28.582  1.00  0.00     0.049 A 
ATOM     63  H   UNL A   1      42.852  30.646  27.097  1.00  0.00     0.167 HD
ATOM     64  C   UNL A   1      46.565  30.604  27.649  1.00  0.00     0.074 A 
ATOM     65  C   UNL A   1      47.871  30.966  27.114  1.00  0.00     0.031 C 
ATOM     66  C   UNL A   1      45.384  31.274  27.866  1.00  0.00     0.034 A 
BRANCH  53  67
ATOM     67  C   UNL A   1      39.692  29.001  28.814  1.00  0.00     0.023 A 
ATOM     68  C   UNL A   1      38.638  29.226  27.899  1.00  0.00     0.012 A 
ATOM     69  C   UNL A   1      39.317  28.933  30.178  1.00  0.00     0.148 A 
ATOM     70  C   UNL A   1      37.319  29.458  28.305  1.00  0.00     0.002 A 
ATOM     71  C   UNL A   1      38.012  29.225  30.592  1.00  0.00     0.091 A 
ATOM     72  F   UNL A   1      40.194  28.501  31.089  1.00  0.00    -0.205 F 
ATOM     73  C   UNL A   1      37.010  29.489  29.655  1.00  0.00     0.022 A 
BRANCH  71  74
ATOM     74  S   UNL A   1      37.542  29.351  32.330  1.00  0.00     0.127 S 
ATOM     75  O   UNL A   1      38.527  30.304  32.849  1.00  0.00    -0.237 OA
ATOM     76  O   UNL A   1      36.179  29.872  32.250  1.00  0.00    -0.237 OA
ATOM     77  O   UNL A   1      37.672  28.008  32.882  1.00  0.00    -0.744 OA
ENDBRANCH  71  74
ENDBRANCH  53  67
BRANCH  54  78
ATOM     78  C   UNL A   1      48.892  26.597  26.323  1.00  0.00     0.023 A 
ATOM     79  C   UNL A   1      48.303  26.792  25.048  1.00  0.00     0.012 A 
ATOM     80  C   UNL A   1      50.225  26.160  26.391  1.00  0.00     0.148 A 
ATOM     81  C   UNL A   1      49.090  26.798  23.894  1.00  0.00     0.002 A 
ATOM     82  C   UNL A   1      50.999  26.145  25.231  1.00  0.00     0.091 A 
ATOM     83  F   UNL A   1      50.736  25.835  27.585  1.00  0.00    -0.205 F 
ATOM     84  C   UNL A   1      50.451  26.531  23.996  1.00  0.00     0.022 A 
BRANCH  82  85
ATOM     85  S   UNL A   1      52.751  25.741  25.288  1.00  0.00     0.127 S 
ATOM     86  O   UNL A   1      53.174  26.080  23.932  1.00  0.00    -0.237 OA
ATOM     87  O   UNL A   1      53.257  26.638  26.324  1.00  0.00    -0.237 OA
ATOM     88  O   UNL A   1      52.794  24.330  25.645  1.00  0.00    -0.744 OA
ENDBRANCH  82  85
ENDBRANCH  54  78
BRANCH  66  89
ATOM     89  C   UNL A   1      45.066  32.703  27.424  1.00  0.00     0.023 A 
ATOM     90  C   UNL A   1      44.809  33.049  26.086  1.00  0.00     0.012 A 
ATOM     91  C   UNL A   1      44.898  33.748  28.378  1.00  0.00     0.148 A 
ATOM     92  C   UNL A   1      44.473  34.353  25.700  1.00  0.00     0.002 A 
ATOM     93  C   UNL A   1      44.428  35.004  28.005  1.00  0.00     0.091 A 
ATOM     94  F   UNL A   1      45.231  33.553  29.660  1.00  0.00    -0.205 F 
ATOM     95  C   UNL A   1      44.253  35.324  26.662  1.00  0.00     0.022 A 
BRANCH  93  96
ATOM     96  S   UNL A   1      43.883  36.204  29.230  1.00  0.00     0.127 S 
ATOM     97  O   UNL A   1      45.141  36.563  29.880  1.00  0.00    -0.237 OA
ATOM     98  O   UNL A   1      43.307  37.259  28.392  1.00  0.00    -0.237 OA
ATOM     99  O   UNL A   1      42.912  35.502  30.056  1.00  0.00    -0.744 OA
ENDBRANCH  93  96
ENDBRANCH  66  89
ENDBRANCH  40  41
ENDBRANCH  32  35
ENDBRANCH  30  31
ENDBRANCH  29  30
ENDBRANCH   1  29
TORSDOF 19
ENDMDL
MODEL 2
REMARK VINA RESULT:     -11.4      4.491      9.879
REMARK SMILES COc1cc(S(=O)(=O)Nc2cccc(C(=O)NCCCCNC(=O)c3ccc(-c4c5nc(c(-c6cccc(S(=O)(=O)[O-])c6F)c6ccc([nH]6)c(-c6cccc(S(=O)(=O)[O-])c6F)c6nc(c(-c7cccc(S(=O)(=O)[O-])c7F)c7ccc4[nH]7)C=C6)C=C5)cc3)c2)c(OC)cc1C
REMARK SMILES IDX 19 1 18 2 17 3 15 4 16 5 14 7 10 8 11 9 88 10 12 11 13 12
REMARK SMILES IDX 9 13 6 15 7 16 8 17 5 18 3 19 4 20 93 21 92 22 94 23 89 24
REMARK SMILES IDX 2 25 1 26 90 27 91 28 20 29 21 30 22 31 23 32 24 34 25 35
REMARK SMILES IDX 26 36 87 37 27 38 86 39 28 40 29 41 30 42 80 43 31 44 85 45
REMARK SMILES IDX 79 46 81 47 32 48 84 49 78 50 77 51 33 53 65 54 45 55 64 56
REMARK SMILES IDX 46 57 49 58 63 59 82 60 47 61 48 62 62 64 83 65 50 66 34 67
REMARK SMILES IDX 35 68 43 69 36 70 38 71 44 72 37 73 39 74 40 75 41 76 42 77
REMARK SMILES IDX 66 78 67 79 75 80 68 81 70 82 76 83 69 84 71 85 72 86 73 87
REMARK SMILES IDX 74 88 51 89 52 90 60 91 53 92 55 93 61 94 54 95 56 96 57 97
REMARK SMILES IDX 58 98 59 99
REMARK H PARENT 17 6 9 14 22 33 81 52 49 63
REMARK Flexibility Score: inf
ROOT
ATOM      1  C   UNL A   1      40.276  20.850  26.566  1.00  0.00     0.023 C 
ENDROOT
BRANCH   1   2
ATOM      2  C   UNL A   1      39.011  21.182  25.759  1.00  0.00     0.116 C 
BRANCH   2   3
ATOM      3  N   UNL A   1      38.493  22.493  26.100  1.00  0.00    -0.352 N 
ATOM      4  C   UNL A   1      37.280  23.088  25.881  1.00  0.00     0.251 C 
ATOM      5  O   UNL A   1      37.125  24.244  26.279  1.00  0.00    -0.269 OA
ATOM      6  H   UNL A   1      39.136  23.064  26.579  1.00  0.00     0.163 HD
BRANCH   4   7
ATOM      7  C   UNL A   1      36.117  22.375  25.284  1.00  0.00     0.041 A 
ATOM      8  C   UNL A   1      34.340  22.527  23.631  1.00  0.00     0.050 A 
ATOM      9  C   UNL A   1      33.756  21.365  24.133  1.00  0.00     0.027 A 
ATOM     10  C   UNL A   1      35.559  22.974  24.150  1.00  0.00     0.040 A 
ATOM     11  C   UNL A   1      34.337  20.723  25.222  1.00  0.00     0.003 A 
ATOM     12  C   UNL A   1      35.502  21.234  25.799  1.00  0.00     0.014 A 
BRANCH   8  13
ATOM     13  N   UNL A   1      33.727  23.366  22.669  1.00  0.00    -0.279 N 
ATOM     14  H   UNL A   1      34.160  23.435  21.787  1.00  0.00     0.180 HD
BRANCH  13  15
ATOM     15  S   UNL A   1      32.331  24.245  22.909  1.00  0.00     0.265 S 
ATOM     16  O   UNL A   1      31.259  23.282  23.173  1.00  0.00    -0.201 OA
ATOM     17  O   UNL A   1      32.237  25.122  21.775  1.00  0.00    -0.201 OA
BRANCH  15  18
ATOM     18  C   UNL A   1      32.402  25.288  24.353  1.00  0.00     0.133 A 
ATOM     19  C   UNL A   1      32.887  27.563  25.075  1.00  0.00     0.123 A 
ATOM     20  C   UNL A   1      32.934  26.568  24.102  1.00  0.00     0.073 A 
ATOM     21  C   UNL A   1      32.169  27.352  26.250  1.00  0.00    -0.005 A 
ATOM     22  C   UNL A   1      31.735  26.051  26.532  1.00  0.00     0.055 A 
ATOM     23  C   UNL A   1      31.882  28.438  27.243  1.00  0.00     0.048 C 
ATOM     24  C   UNL A   1      31.917  24.991  25.629  1.00  0.00     0.139 A 
BRANCH  19  25
ATOM     25  O   UNL A   1      33.520  28.742  24.791  1.00  0.00    -0.496 OA
ATOM     26  C   UNL A   1      33.747  28.874  23.382  1.00  0.00     0.278 C 
ENDBRANCH  19  25
BRANCH  24  27
ATOM     27  O   UNL A   1      31.693  23.696  25.987  1.00  0.00    -0.495 OA
ATOM     28  C   UNL A   1      32.397  23.188  27.122  1.00  0.00     0.278 C 
ENDBRANCH  24  27
ENDBRANCH  15  18
ENDBRANCH  13  15
ENDBRANCH   8  13
ENDBRANCH   4   7
ENDBRANCH   2   3
ENDBRANCH   1   2
BRANCH   1  29
ATOM     29  C   UNL A   1      41.594  21.159  25.858  1.00  0.00     0.023 C 
BRANCH  29  30
ATOM     30  C   UNL A   1      42.197  22.468  26.305  1.00  0.00     0.116 C 
BRANCH  30  31
ATOM     31  N   UNL A   1      41.444  23.627  25.889  1.00  0.00    -0.352 N 
ATOM     32  C   UNL A   1      41.052  24.720  26.634  1.00  0.00     0.251 C 
ATOM     33  H   UNL A   1      41.172  23.639  24.941  1.00  0.00     0.163 HD
ATOM     34  O   UNL A   1      40.124  25.395  26.196  1.00  0.00    -0.269 OA
BRANCH  32  35
ATOM     35  C   UNL A   1      41.839  25.164  27.820  1.00  0.00     0.039 A 
ATOM     36  C   UNL A   1      42.306  26.487  27.814  1.00  0.00     0.014 A 
ATOM     37  C   UNL A   1      42.379  24.263  28.730  1.00  0.00     0.014 A 
ATOM     38  C   UNL A   1      43.505  26.797  28.443  1.00  0.00     0.010 A 
ATOM     39  C   UNL A   1      43.610  24.523  29.262  1.00  0.00     0.010 A 
ATOM     40  C   UNL A   1      44.209  25.757  29.021  1.00  0.00    -0.014 A 
BRANCH  40  41
ATOM     41  C   UNL A   1      45.574  25.803  29.486  1.00  0.00     0.031 A 
ATOM     42  C   UNL A   1      46.618  25.323  28.571  1.00  0.00     0.074 A 
ATOM     43  C   UNL A   1      45.805  26.636  30.526  1.00  0.00     0.049 A 
ATOM     44  N   UNL A   1      47.852  25.193  28.890  1.00  0.00    -0.248 NA
ATOM     45  C   UNL A   1      46.334  24.976  27.181  1.00  0.00     0.031 C 
ATOM     46  C   UNL A   1      47.032  27.351  30.849  1.00  0.00     0.029 A 
ATOM     47  N   UNL A   1      44.956  27.053  31.548  1.00  0.00    -0.354 N 
ATOM     48  C   UNL A   1      48.560  25.064  27.713  1.00  0.00     0.074 A 
ATOM     49  C   UNL A   1      47.568  24.825  26.694  1.00  0.00     0.031 C 
ATOM     50  C   UNL A   1      46.939  27.828  32.105  1.00  0.00     0.029 A 
ATOM     51  C   UNL A   1      45.742  27.247  32.686  1.00  0.00     0.049 A 
ATOM     52  H   UNL A   1      43.983  27.186  31.481  1.00  0.00     0.167 HD
ATOM     53  C   UNL A   1      49.888  25.369  27.725  1.00  0.00     0.034 A 
ATOM     54  C   UNL A   1      45.745  26.370  33.743  1.00  0.00     0.034 A 
ATOM     55  C   UNL A   1      50.298  25.754  29.089  1.00  0.00     0.049 A 
ATOM     56  C   UNL A   1      47.085  25.648  33.903  1.00  0.00     0.074 A 
ATOM     57  C   UNL A   1      50.455  26.983  29.712  1.00  0.00     0.029 A 
ATOM     58  N   UNL A   1      50.226  24.811  30.111  1.00  0.00    -0.354 N 
ATOM     59  N   UNL A   1      48.060  25.698  33.036  1.00  0.00    -0.248 NA
ATOM     60  C   UNL A   1      47.440  24.832  35.062  1.00  0.00     0.031 C 
ATOM     61  C   UNL A   1      50.395  26.775  31.121  1.00  0.00     0.029 A 
ATOM     62  C   UNL A   1      50.235  25.419  31.360  1.00  0.00     0.049 A 
ATOM     63  H   UNL A   1      50.176  23.839  29.966  1.00  0.00     0.167 HD
ATOM     64  C   UNL A   1      49.088  24.872  33.408  1.00  0.00     0.074 A 
ATOM     65  C   UNL A   1      48.680  24.423  34.732  1.00  0.00     0.031 C 
ATOM     66  C   UNL A   1      50.150  24.604  32.576  1.00  0.00     0.034 A 
BRANCH  53  67
ATOM     67  C   UNL A   1      50.732  25.637  26.488  1.00  0.00     0.023 A 
ATOM     68  C   UNL A   1      51.996  25.006  26.425  1.00  0.00     0.012 A 
ATOM     69  C   UNL A   1      50.412  26.482  25.398  1.00  0.00     0.148 A 
ATOM     70  C   UNL A   1      52.917  25.258  25.403  1.00  0.00     0.002 A 
ATOM     71  C   UNL A   1      51.354  26.783  24.406  1.00  0.00     0.091 A 
ATOM     72  F   UNL A   1      49.165  26.939  25.252  1.00  0.00    -0.205 F 
ATOM     73  C   UNL A   1      52.610  26.171  24.409  1.00  0.00     0.022 A 
BRANCH  71  74
ATOM     74  S   UNL A   1      51.058  28.010  23.116  1.00  0.00     0.127 S 
ATOM     75  O   UNL A   1      49.597  28.004  23.013  1.00  0.00    -0.237 OA
ATOM     76  O   UNL A   1      51.619  29.225  23.702  1.00  0.00    -0.237 OA
ATOM     77  O   UNL A   1      51.736  27.514  21.925  1.00  0.00    -0.744 OA
ENDBRANCH  71  74
ENDBRANCH  53  67
BRANCH  54  78
ATOM     78  C   UNL A   1      44.393  25.778  33.999  1.00  0.00     0.023 A 
ATOM     79  C   UNL A   1      44.230  24.417  33.637  1.00  0.00     0.012 A 
ATOM     80  C   UNL A   1      43.529  26.328  34.961  1.00  0.00     0.148 A 
ATOM     81  C   UNL A   1      43.410  23.574  34.389  1.00  0.00     0.002 A 
ATOM     82  C   UNL A   1      42.694  25.483  35.693  1.00  0.00     0.091 A 
ATOM     83  F   UNL A   1      43.583  27.645  35.198  1.00  0.00    -0.205 F 
ATOM     84  C   UNL A   1      42.687  24.098  35.455  1.00  0.00     0.022 A 
BRANCH  82  85
ATOM     85  S   UNL A   1      41.684  26.115  37.040  1.00  0.00     0.127 S 
ATOM     86  O   UNL A   1      42.695  26.411  38.050  1.00  0.00    -0.237 OA
ATOM     87  O   UNL A   1      41.053  27.292  36.447  1.00  0.00    -0.237 OA
ATOM     88  O   UNL A   1      40.760  25.032  37.348  1.00  0.00    -0.744 OA
ENDBRANCH  82  85
ENDBRANCH  54  78
BRANCH  66  89
ATOM     89  C   UNL A   1      51.225  23.540  32.803  1.00  0.00     0.023 A 
ATOM     90  C   UNL A   1      52.599  23.801  32.664  1.00  0.00     0.012 A 
ATOM     91  C   UNL A   1      50.886  22.244  33.289  1.00  0.00     0.148 A 
ATOM     92  C   UNL A   1      53.576  22.831  32.920  1.00  0.00     0.002 A 
ATOM     93  C   UNL A   1      51.866  21.334  33.676  1.00  0.00     0.091 A 
ATOM     94  F   UNL A   1      49.606  21.857  33.346  1.00  0.00    -0.205 F 
ATOM     95  C   UNL A   1      53.213  21.607  33.455  1.00  0.00     0.022 A 
BRANCH  93  96
ATOM     96  S   UNL A   1      51.454  19.851  34.608  1.00  0.00     0.127 S 
ATOM     97  O   UNL A   1      52.596  18.987  34.316  1.00  0.00    -0.237 OA
ATOM     98  O   UNL A   1      51.407  20.356  35.983  1.00  0.00    -0.237 OA
ATOM     99  O   UNL A   1      50.168  19.411  34.090  1.00  0.00    -0.744 OA
ENDBRANCH  93  96
ENDBRANCH  66  89
ENDBRANCH  40  41
ENDBRANCH  32  35
ENDBRANCH  30  31
ENDBRANCH  29  30
ENDBRANCH   1  29
TORSDOF 19
ENDMDL
MODEL 3
REMARK VINA RESULT:     -11.2      1.640      2.253
REMARK SMILES COc1cc(S(=O)(=O)Nc2cccc(C(=O)NCCCCNC(=O)c3ccc(-c4c5nc(c(-c6cccc(S(=O)(=O)[O-])c6F)c6ccc([nH]6)c(-c6cccc(S(=O)(=O)[O-])c6F)c6nc(c(-c7cccc(S(=O)(=O)[O-])c7F)c7ccc4[nH]7)C=C6)C=C5)cc3)c2)c(OC)cc1C
REMARK SMILES IDX 19 1 18 2 17 3 15 4 16 5 14 7 10 8 11 9 88 10 12 11 13 12
REMARK SMILES IDX 9 13 6 15 7 16 8 17 5 18 3 19 4 20 93 21 92 22 94 23 89 24
REMARK SMILES IDX 2 25 1 26 90 27 91 28 20 29 21 30 22 31 23 32 24 34 25 35
REMARK SMILES IDX 26 36 87 37 27 38 86 39 28 40 29 41 30 42 80 43 31 44 85 45
REMARK SMILES IDX 79 46 81 47 32 48 84 49 78 50 77 51 33 53 65 54 45 55 64 56
REMARK SMILES IDX 46 57 49 58 63 59 82 60 47 61 48 62 62 64 83 65 50 66 34 67
REMARK SMILES IDX 35 68 43 69 36 70 38 71 44 72 37 73 39 74 40 75 41 76 42 77
REMARK SMILES IDX 66 78 67 79 75 80 68 81 70 82 76 83 69 84 71 85 72 86 73 87
REMARK SMILES IDX 74 88 51 89 52 90 60 91 53 92 55 93 61 94 54 95 56 96 57 97
REMARK SMILES IDX 58 98 59 99
REMARK H PARENT 17 6 9 14 22 33 81 52 49 63
REMARK Flexibility Score: inf
ROOT
ATOM      1  C   UNL A   1      42.060  21.143  26.458  1.00  0.00     0.023 C 
ENDROOT
BRANCH   1   2
ATOM      2  C   UNL A   1      40.680  20.761  27.017  1.00  0.00     0.116 C 
BRANCH   2   3
ATOM      3  N   UNL A   1      39.947  19.919  26.092  1.00  0.00    -0.352 N 
ATOM      4  C   UNL A   1      38.788  20.115  25.390  1.00  0.00     0.251 C 
ATOM      5  O   UNL A   1      38.385  19.196  24.675  1.00  0.00    -0.269 OA
ATOM      6  H   UNL A   1      40.362  19.039  25.940  1.00  0.00     0.163 HD
BRANCH   4   7
ATOM      7  C   UNL A   1      38.055  21.411  25.371  1.00  0.00     0.041 A 
ATOM      8  C   UNL A   1      36.378  22.717  24.191  1.00  0.00     0.050 A 
ATOM      9  C   UNL A   1      36.689  23.836  24.960  1.00  0.00     0.027 A 
ATOM     10  C   UNL A   1      36.998  21.493  24.459  1.00  0.00     0.040 A 
ATOM     11  C   UNL A   1      37.697  23.751  25.916  1.00  0.00     0.003 A 
ATOM     12  C   UNL A   1      38.382  22.549  26.109  1.00  0.00     0.014 A 
BRANCH   8  13
ATOM     13  N   UNL A   1      35.523  22.748  23.062  1.00  0.00    -0.279 N 
ATOM     14  H   UNL A   1      35.807  22.245  22.265  1.00  0.00     0.180 HD
BRANCH  13  15
ATOM     15  S   UNL A   1      34.072  23.565  22.976  1.00  0.00     0.265 S 
ATOM     16  O   UNL A   1      33.353  23.037  21.813  1.00  0.00    -0.201 OA
ATOM     17  O   UNL A   1      34.420  24.958  23.026  1.00  0.00    -0.201 OA
BRANCH  15  18
ATOM     18  C   UNL A   1      33.011  23.256  24.374  1.00  0.00     0.133 A 
ATOM     19  C   UNL A   1      31.405  24.326  25.859  1.00  0.00     0.123 A 
ATOM     20  C   UNL A   1      32.402  24.416  24.890  1.00  0.00     0.073 A 
ATOM     21  C   UNL A   1      30.888  23.082  26.210  1.00  0.00    -0.005 A 
ATOM     22  C   UNL A   1      31.566  21.938  25.771  1.00  0.00     0.055 A 
ATOM     23  C   UNL A   1      29.671  22.910  27.070  1.00  0.00     0.048 C 
ATOM     24  C   UNL A   1      32.680  22.012  24.919  1.00  0.00     0.139 A 
BRANCH  19  25
ATOM     25  O   UNL A   1      30.940  25.501  26.385  1.00  0.00    -0.496 OA
ATOM     26  C   UNL A   1      32.021  26.401  26.659  1.00  0.00     0.278 C 
ENDBRANCH  19  25
BRANCH  24  27
ATOM     27  O   UNL A   1      33.466  20.928  24.667  1.00  0.00    -0.495 OA
ATOM     28  C   UNL A   1      33.147  19.706  25.335  1.00  0.00     0.278 C 
ENDBRANCH  24  27
ENDBRANCH  15  18
ENDBRANCH  13  15
ENDBRANCH   8  13
ENDBRANCH   4   7
ENDBRANCH   2   3
ENDBRANCH   1   2
BRANCH   1  29
ATOM     29  C   UNL A   1      42.133  22.519  25.801  1.00  0.00     0.023 C 
BRANCH  29  30
ATOM     30  C   UNL A   1      43.073  22.547  24.620  1.00  0.00     0.116 C 
BRANCH  30  31
ATOM     31  N   UNL A   1      44.057  21.491  24.635  1.00  0.00    -0.352 N 
ATOM     32  C   UNL A   1      45.415  21.575  24.859  1.00  0.00     0.251 C 
ATOM     33  H   UNL A   1      43.710  20.585  24.460  1.00  0.00     0.163 HD
ATOM     34  O   UNL A   1      46.108  20.640  24.467  1.00  0.00    -0.269 OA
BRANCH  32  35
ATOM     35  C   UNL A   1      45.989  22.664  25.701  1.00  0.00     0.039 A 
ATOM     36  C   UNL A   1      45.664  22.650  27.066  1.00  0.00     0.014 A 
ATOM     37  C   UNL A   1      46.535  23.816  25.151  1.00  0.00     0.014 A 
ATOM     38  C   UNL A   1      45.557  23.848  27.760  1.00  0.00     0.010 A 
ATOM     39  C   UNL A   1      46.332  25.009  25.785  1.00  0.00     0.010 A 
ATOM     40  C   UNL A   1      45.743  25.018  27.046  1.00  0.00    -0.014 A 
BRANCH  40  41
ATOM     41  C   UNL A   1      45.425  26.351  27.494  1.00  0.00     0.031 A 
ATOM     42  C   UNL A   1      44.026  26.786  27.389  1.00  0.00     0.074 A 
ATOM     43  C   UNL A   1      46.333  26.917  28.323  1.00  0.00     0.049 A 
ATOM     44  N   UNL A   1      43.621  27.977  27.632  1.00  0.00    -0.248 NA
ATOM     45  C   UNL A   1      42.952  25.868  27.017  1.00  0.00     0.031 C 
ATOM     46  C   UNL A   1      46.100  27.904  29.369  1.00  0.00     0.029 A 
ATOM     47  N   UNL A   1      47.706  26.713  28.425  1.00  0.00    -0.354 N 
ATOM     48  C   UNL A   1      42.249  27.915  27.767  1.00  0.00     0.074 A 
ATOM     49  C   UNL A   1      41.875  26.615  27.268  1.00  0.00     0.031 C 
ATOM     50  C   UNL A   1      47.285  28.417  29.752  1.00  0.00     0.029 A 
ATOM     51  C   UNL A   1      48.277  27.926  28.812  1.00  0.00     0.049 A 
ATOM     52  H   UNL A   1      48.185  25.869  28.255  1.00  0.00     0.167 HD
ATOM     53  C   UNL A   1      41.626  28.907  28.464  1.00  0.00     0.034 A 
ATOM     54  C   UNL A   1      48.980  28.726  27.945  1.00  0.00     0.034 A 
ATOM     55  C   UNL A   1      42.620  29.901  28.910  1.00  0.00     0.049 A 
ATOM     56  C   UNL A   1      48.271  30.053  27.663  1.00  0.00     0.074 A 
ATOM     57  C   UNL A   1      43.297  30.081  30.107  1.00  0.00     0.029 A 
ATOM     58  N   UNL A   1      43.319  30.637  27.958  1.00  0.00    -0.354 N 
ATOM     59  N   UNL A   1      47.052  30.332  28.039  1.00  0.00    -0.248 NA
ATOM     60  C   UNL A   1      48.885  31.174  26.958  1.00  0.00     0.031 C 
ATOM     61  C   UNL A   1      44.456  30.869  29.844  1.00  0.00     0.029 A 
ATOM     62  C   UNL A   1      44.470  31.196  28.497  1.00  0.00     0.049 A 
ATOM     63  H   UNL A   1      43.033  30.747  27.022  1.00  0.00     0.167 HD
ATOM     64  C   UNL A   1      46.660  31.555  27.557  1.00  0.00     0.074 A 
ATOM     65  C   UNL A   1      47.884  32.074  26.960  1.00  0.00     0.031 C 
ATOM     66  C   UNL A   1      45.363  31.999  27.655  1.00  0.00     0.034 A 
BRANCH  53  67
ATOM     67  C   UNL A   1      40.212  28.825  29.019  1.00  0.00     0.023 A 
ATOM     68  C   UNL A   1      39.151  28.939  28.091  1.00  0.00     0.012 A 
ATOM     69  C   UNL A   1      39.829  28.682  30.375  1.00  0.00     0.148 A 
ATOM     70  C   UNL A   1      37.809  28.998  28.479  1.00  0.00     0.002 A 
ATOM     71  C   UNL A   1      38.492  28.801  30.772  1.00  0.00     0.091 A 
ATOM     72  F   UNL A   1      40.739  28.341  31.291  1.00  0.00    -0.205 F 
ATOM     73  C   UNL A   1      37.479  28.961  29.824  1.00  0.00     0.022 A 
BRANCH  71  74
ATOM     74  S   UNL A   1      37.985  28.830  32.504  1.00  0.00     0.127 S 
ATOM     75  O   UNL A   1      38.110  27.421  32.887  1.00  0.00    -0.237 OA
ATOM     76  O   UNL A   1      38.981  29.712  33.109  1.00  0.00    -0.237 OA
ATOM     77  O   UNL A   1      36.615  29.326  32.516  1.00  0.00    -0.744 OA
ENDBRANCH  71  74
ENDBRANCH  53  67
BRANCH  54  78
ATOM     78  C   UNL A   1      49.781  27.932  26.958  1.00  0.00     0.023 A 
ATOM     79  C   UNL A   1      49.176  27.717  25.694  1.00  0.00     0.012 A 
ATOM     80  C   UNL A   1      51.180  27.847  27.059  1.00  0.00     0.148 A 
ATOM     81  C   UNL A   1      49.951  27.673  24.533  1.00  0.00     0.002 A 
ATOM     82  C   UNL A   1      51.947  27.779  25.896  1.00  0.00     0.091 A 
ATOM     83  F   UNL A   1      51.742  27.904  28.273  1.00  0.00    -0.205 F 
ATOM     84  C   UNL A   1      51.335  27.764  24.632  1.00  0.00     0.022 A 
BRANCH  82  85
ATOM     85  S   UNL A   1      53.744  27.823  25.964  1.00  0.00     0.127 S 
ATOM     86  O   UNL A   1      54.098  27.422  24.606  1.00  0.00    -0.237 OA
ATOM     87  O   UNL A   1      54.022  29.223  26.277  1.00  0.00    -0.237 OA
ATOM     88  O   UNL A   1      54.097  26.891  27.026  1.00  0.00    -0.744 OA
ENDBRANCH  82  85
ENDBRANCH  54  78
BRANCH  66  89
ATOM     89  C   UNL A   1      44.780  33.234  26.966  1.00  0.00     0.023 A 
ATOM     90  C   UNL A   1      44.233  33.199  25.672  1.00  0.00     0.012 A 
ATOM     91  C   UNL A   1      44.657  34.474  27.658  1.00  0.00     0.148 A 
ATOM     92  C   UNL A   1      43.660  34.327  25.070  1.00  0.00     0.002 A 
ATOM     93  C   UNL A   1      43.962  35.548  27.109  1.00  0.00     0.091 A 
ATOM     94  F   UNL A   1      45.248  34.645  28.848  1.00  0.00    -0.205 F 
ATOM     95  C   UNL A   1      43.497  35.492  25.798  1.00  0.00     0.022 A 
BRANCH  93  96
ATOM     96  S   UNL A   1      43.502  36.975  28.102  1.00  0.00     0.127 S 
ATOM     97  O   UNL A   1      44.805  37.562  28.407  1.00  0.00    -0.237 OA
ATOM     98  O   UNL A   1      42.687  37.752  27.164  1.00  0.00    -0.237 OA
ATOM     99  O   UNL A   1      42.760  36.438  29.234  1.00  0.00    -0.744 OA
ENDBRANCH  93  96
ENDBRANCH  66  89
ENDBRANCH  40  41
ENDBRANCH  32  35
ENDBRANCH  30  31
ENDBRANCH  29  30
ENDBRANCH   1  29
TORSDOF 19
ENDMDL
