MODEL 1
REMARK VINA RESULT:     -11.1      0.000      0.000
REMARK SMILES COC(CNS(=O)(=O)c1ccc(Cl)c(C(=O)NCCCCNC(=O)c2ccc(-c3c4nc(c(-c5cccc(S(=O)(=O)[O-])c5F)c5ccc([nH]5)c(-c5cccc(S(=O)(=O)[O-])c5F)c5nc(c(-c6cccc(S(=O)(=O)[O-])c6F)c6ccc3[nH]6)C=C5)C=C4)cc2)c1Cl)OC
REMARK SMILES IDX 18 1 17 2 15 3 16 4 14 6 9 7 10 8 88 9 11 10 89 11 12 12
REMARK SMILES IDX 13 13 6 14 7 15 8 16 5 17 4 19 3 20 2 21 1 22 90 23 91 24
REMARK SMILES IDX 19 25 20 26 21 27 22 28 23 29 24 31 25 32 26 33 87 34 27 35
REMARK SMILES IDX 86 36 28 37 29 38 30 39 80 40 31 41 85 42 79 43 81 44 32 45
REMARK SMILES IDX 84 46 78 47 77 48 33 50 65 51 45 52 64 53 46 54 49 55 63 56
REMARK SMILES IDX 82 57 47 58 48 59 62 61 83 62 50 63 34 64 35 65 43 66 36 67
REMARK SMILES IDX 38 68 44 69 37 70 39 71 40 72 41 73 42 74 66 75 67 76 75 77
REMARK SMILES IDX 68 78 70 79 76 80 69 81 71 82 72 83 73 84 74 85 51 86 52 87
REMARK SMILES IDX 60 88 53 89 55 90 61 91 54 92 56 93 57 94 58 95 59 96
REMARK H PARENT 17 5 5 18 22 30 81 49 49 60
REMARK Flexibility Score: inf
ROOT
ATOM      1  C   UNL A   1      31.903  28.306  22.677  1.00  0.00     0.116 C 
ENDROOT
BRANCH   1   2
ATOM      2  N   UNL A   1      32.824  27.300  22.205  1.00  0.00    -0.352 N 
ATOM      3  C   UNL A   1      33.144  26.005  22.495  1.00  0.00     0.254 C 
ATOM      4  O   UNL A   1      33.925  25.546  21.654  1.00  0.00    -0.269 OA
ATOM      5  H   UNL A   1      33.378  27.645  21.468  1.00  0.00     0.163 HD
BRANCH   3   6
ATOM      6  C   UNL A   1      32.587  25.076  23.555  1.00  0.00     0.078 A 
ATOM      7  C   UNL A   1      33.267  23.336  25.171  1.00  0.00     0.101 A 
ATOM      8  C   UNL A   1      32.020  22.728  25.061  1.00  0.00     0.025 A 
ATOM      9  C   UNL A   1      33.532  24.536  24.488  1.00  0.00     0.075 A 
ATOM     10  C   UNL A   1      31.021  23.371  24.356  1.00  0.00     0.023 A 
ATOM     11  Cl  UNL A   1      34.871  25.513  25.051  1.00  0.00    -0.082 Cl
ATOM     12  C   UNL A   1      31.285  24.553  23.643  1.00  0.00     0.055 A 
ATOM     13  Cl  UNL A   1      29.825  25.371  23.244  1.00  0.00    -0.083 Cl
BRANCH   7  14
ATOM     14  S   UNL A   1      34.437  22.505  26.210  1.00  0.00     0.242 S 
ATOM     15  O   UNL A   1      34.099  22.835  27.584  1.00  0.00    -0.207 OA
ATOM     16  O   UNL A   1      35.749  22.781  25.684  1.00  0.00    -0.207 OA
BRANCH  14  17
ATOM     17  N   UNL A   1      34.182  20.875  26.052  1.00  0.00    -0.206 NA
ATOM     18  H   UNL A   1      34.525  20.448  26.913  1.00  0.00     0.141 HD
BRANCH  17  19
ATOM     19  C   UNL A   1      34.760  20.099  24.951  1.00  0.00     0.161 C 
BRANCH  19  20
ATOM     20  C   UNL A   1      33.985  18.795  24.601  1.00  0.00     0.263 C 
BRANCH  20  21
ATOM     21  O   UNL A   1      34.743  17.648  24.215  1.00  0.00    -0.355 OA
ATOM     22  C   UNL A   1      34.664  16.494  25.026  1.00  0.00     0.198 C 
ENDBRANCH  20  21
BRANCH  20  23
ATOM     23  O   UNL A   1      32.769  19.005  23.883  1.00  0.00    -0.355 OA
ATOM     24  C   UNL A   1      32.454  18.108  22.840  1.00  0.00     0.198 C 
ENDBRANCH  20  23
ENDBRANCH  19  20
ENDBRANCH  17  19
ENDBRANCH  14  17
ENDBRANCH   7  14
ENDBRANCH   3   6
ENDBRANCH   1   2
BRANCH   1  25
ATOM     25  C   UNL A   1      31.888  28.352  24.206  1.00  0.00     0.023 C 
BRANCH  25  26
ATOM     26  C   UNL A   1      32.929  29.277  24.830  1.00  0.00     0.023 C 
BRANCH  26  27
ATOM     27  C   UNL A   1      32.695  29.594  26.300  1.00  0.00     0.116 C 
BRANCH  27  28
ATOM     28  N   UNL A   1      32.480  31.012  26.569  1.00  0.00    -0.352 N 
ATOM     29  C   UNL A   1      33.287  31.864  27.284  1.00  0.00     0.251 C 
ATOM     30  H   UNL A   1      31.659  31.405  26.193  1.00  0.00     0.163 HD
ATOM     31  O   UNL A   1      32.941  33.017  27.516  1.00  0.00    -0.269 OA
BRANCH  29  32
ATOM     32  C   UNL A   1      34.566  31.338  27.798  1.00  0.00     0.039 A 
ATOM     33  C   UNL A   1      35.625  32.221  28.005  1.00  0.00     0.014 A 
ATOM     34  C   UNL A   1      34.662  29.997  28.175  1.00  0.00     0.014 A 
ATOM     35  C   UNL A   1      36.770  31.766  28.658  1.00  0.00     0.010 A 
ATOM     36  C   UNL A   1      35.763  29.573  28.904  1.00  0.00     0.010 A 
ATOM     37  C   UNL A   1      36.830  30.450  29.148  1.00  0.00    -0.014 A 
BRANCH  37  38
ATOM     38  C   UNL A   1      38.002  29.970  29.920  1.00  0.00     0.031 A 
ATOM     39  C   UNL A   1      38.239  30.478  31.316  1.00  0.00     0.074 A 
ATOM     40  C   UNL A   1      38.895  29.146  29.336  1.00  0.00     0.049 A 
ATOM     41  N   UNL A   1      39.227  30.218  32.129  1.00  0.00    -0.248 NA
ATOM     42  C   UNL A   1      37.249  31.424  31.860  1.00  0.00     0.031 C 
ATOM     43  C   UNL A   1      38.818  28.653  27.958  1.00  0.00     0.029 A 
ATOM     44  N   UNL A   1      40.056  28.597  29.819  1.00  0.00    -0.354 N 
ATOM     45  C   UNL A   1      39.000  30.991  33.260  1.00  0.00     0.074 A 
ATOM     46  C   UNL A   1      37.803  31.763  33.013  1.00  0.00     0.031 C 
ATOM     47  C   UNL A   1      39.879  27.867  27.712  1.00  0.00     0.029 A 
ATOM     48  C   UNL A   1      40.728  27.827  28.898  1.00  0.00     0.049 A 
ATOM     49  H   UNL A   1      40.377  28.742  30.738  1.00  0.00     0.167 HD
ATOM     50  C   UNL A   1      39.705  31.032  34.415  1.00  0.00     0.034 A 
ATOM     51  C   UNL A   1      41.901  27.172  28.997  1.00  0.00     0.034 A 
ATOM     52  C   UNL A   1      40.872  30.234  34.669  1.00  0.00     0.049 A 
ATOM     53  C   UNL A   1      42.649  27.210  30.302  1.00  0.00     0.074 A 
ATOM     54  C   UNL A   1      41.607  30.136  35.837  1.00  0.00     0.029 A 
ATOM     55  N   UNL A   1      41.480  29.403  33.741  1.00  0.00    -0.354 N 
ATOM     56  N   UNL A   1      42.331  27.822  31.418  1.00  0.00    -0.248 NA
ATOM     57  C   UNL A   1      43.896  26.437  30.378  1.00  0.00     0.031 C 
ATOM     58  C   UNL A   1      42.681  29.271  35.603  1.00  0.00     0.029 A 
ATOM     59  C   UNL A   1      42.590  28.799  34.303  1.00  0.00     0.049 A 
ATOM     60  H   UNL A   1      41.167  29.265  32.818  1.00  0.00     0.167 HD
ATOM     61  C   UNL A   1      43.316  27.478  32.336  1.00  0.00     0.074 A 
ATOM     62  C   UNL A   1      44.230  26.586  31.652  1.00  0.00     0.031 C 
ATOM     63  C   UNL A   1      43.460  27.873  33.625  1.00  0.00     0.034 A 
BRANCH  50  64
ATOM     64  C   UNL A   1      39.204  31.938  35.510  1.00  0.00     0.023 A 
ATOM     65  C   UNL A   1      38.240  31.462  36.423  1.00  0.00     0.012 A 
ATOM     66  C   UNL A   1      39.727  33.235  35.669  1.00  0.00     0.148 A 
ATOM     67  C   UNL A   1      37.777  32.276  37.456  1.00  0.00     0.002 A 
ATOM     68  C   UNL A   1      39.297  34.022  36.732  1.00  0.00     0.091 A 
ATOM     69  F   UNL A   1      40.626  33.678  34.779  1.00  0.00    -0.205 F 
ATOM     70  C   UNL A   1      38.314  33.550  37.617  1.00  0.00     0.022 A 
BRANCH  68  71
ATOM     71  S   UNL A   1      39.985  35.645  37.076  1.00  0.00     0.127 S 
ATOM     72  O   UNL A   1      39.288  36.005  38.310  1.00  0.00    -0.237 OA
ATOM     73  O   UNL A   1      41.407  35.345  37.245  1.00  0.00    -0.237 OA
ATOM     74  O   UNL A   1      39.669  36.471  35.919  1.00  0.00    -0.744 OA
ENDBRANCH  68  71
ENDBRANCH  50  64
BRANCH  51  75
ATOM     75  C   UNL A   1      42.415  26.377  27.845  1.00  0.00     0.023 A 
ATOM     76  C   UNL A   1      43.377  26.943  26.985  1.00  0.00     0.012 A 
ATOM     77  C   UNL A   1      41.967  25.064  27.603  1.00  0.00     0.148 A 
ATOM     78  C   UNL A   1      43.854  26.232  25.883  1.00  0.00     0.002 A 
ATOM     79  C   UNL A   1      42.489  24.340  26.537  1.00  0.00     0.091 A 
ATOM     80  F   UNL A   1      41.045  24.546  28.426  1.00  0.00    -0.205 F 
ATOM     81  C   UNL A   1      43.418  24.929  25.665  1.00  0.00     0.022 A 
BRANCH  79  82
ATOM     82  S   UNL A   1      42.082  22.614  26.255  1.00  0.00     0.127 S 
ATOM     83  O   UNL A   1      42.750  22.353  24.983  1.00  0.00    -0.237 OA
ATOM     84  O   UNL A   1      42.693  21.968  27.418  1.00  0.00    -0.237 OA
ATOM     85  O   UNL A   1      40.627  22.551  26.231  1.00  0.00    -0.744 OA
ENDBRANCH  79  82
ENDBRANCH  51  75
BRANCH  63  86
ATOM     86  C   UNL A   1      44.619  27.310  34.405  1.00  0.00     0.023 A 
ATOM     87  C   UNL A   1      45.860  27.976  34.405  1.00  0.00     0.012 A 
ATOM     88  C   UNL A   1      44.450  26.161  35.202  1.00  0.00     0.148 A 
ATOM     89  C   UNL A   1      46.926  27.487  35.158  1.00  0.00     0.002 A 
ATOM     90  C   UNL A   1      45.499  25.710  35.992  1.00  0.00     0.091 A 
ATOM     91  F   UNL A   1      43.265  25.533  35.175  1.00  0.00    -0.205 F 
ATOM     92  C   UNL A   1      46.743  26.362  35.961  1.00  0.00     0.022 A 
BRANCH  90  93
ATOM     93  S   UNL A   1      45.325  24.334  37.132  1.00  0.00     0.127 S 
ATOM     94  O   UNL A   1      44.279  24.821  38.029  1.00  0.00    -0.237 OA
ATOM     95  O   UNL A   1      44.910  23.247  36.245  1.00  0.00    -0.237 OA
ATOM     96  O   UNL A   1      46.634  24.149  37.744  1.00  0.00    -0.744 OA
ENDBRANCH  90  93
ENDBRANCH  63  86
ENDBRANCH  37  38
ENDBRANCH  29  32
ENDBRANCH  27  28
ENDBRANCH  26  27
ENDBRANCH  25  26
ENDBRANCH   1  25
TORSDOF 20
ENDMDL
MODEL 2
REMARK VINA RESULT:     -11.1      2.113      2.837
REMARK SMILES COC(CNS(=O)(=O)c1ccc(Cl)c(C(=O)NCCCCNC(=O)c2ccc(-c3c4nc(c(-c5cccc(S(=O)(=O)[O-])c5F)c5ccc([nH]5)c(-c5cccc(S(=O)(=O)[O-])c5F)c5nc(c(-c6cccc(S(=O)(=O)[O-])c6F)c6ccc3[nH]6)C=C5)C=C4)cc2)c1Cl)OC
REMARK SMILES IDX 18 1 17 2 15 3 16 4 14 6 9 7 10 8 88 9 11 10 89 11 12 12
REMARK SMILES IDX 13 13 6 14 7 15 8 16 5 17 4 19 3 20 2 21 1 22 90 23 91 24
REMARK SMILES IDX 19 25 20 26 21 27 22 28 23 29 24 31 25 32 26 33 87 34 27 35
REMARK SMILES IDX 86 36 28 37 29 38 30 39 80 40 31 41 85 42 79 43 81 44 32 45
REMARK SMILES IDX 84 46 78 47 77 48 33 50 65 51 45 52 64 53 46 54 49 55 63 56
REMARK SMILES IDX 82 57 47 58 48 59 62 61 83 62 50 63 34 64 35 65 43 66 36 67
REMARK SMILES IDX 38 68 44 69 37 70 39 71 40 72 41 73 42 74 66 75 67 76 75 77
REMARK SMILES IDX 68 78 70 79 76 80 69 81 71 82 72 83 73 84 74 85 51 86 52 87
REMARK SMILES IDX 60 88 53 89 55 90 61 91 54 92 56 93 57 94 58 95 59 96
REMARK H PARENT 17 5 5 18 22 30 81 49 49 60
REMARK Flexibility Score: inf
ROOT
ATOM      1  C   UNL A   1      33.052  27.910  23.864  1.00  0.00     0.116 C 
ENDROOT
BRANCH   1   2
ATOM      2  N   UNL A   1      33.548  26.828  23.048  1.00  0.00    -0.352 N 
ATOM      3  C   UNL A   1      33.483  25.464  23.028  1.00  0.00     0.254 C 
ATOM      4  O   UNL A   1      33.970  25.017  21.984  1.00  0.00    -0.269 OA
ATOM      5  H   UNL A   1      34.084  27.168  22.297  1.00  0.00     0.163 HD
BRANCH   3   6
ATOM      6  C   UNL A   1      32.802  24.505  23.984  1.00  0.00     0.078 A 
ATOM      7  C   UNL A   1      33.201  22.445  25.286  1.00  0.00     0.101 A 
ATOM      8  C   UNL A   1      31.856  22.102  25.180  1.00  0.00     0.025 A 
ATOM      9  C   UNL A   1      33.664  23.665  24.762  1.00  0.00     0.075 A 
ATOM     10  C   UNL A   1      30.971  23.018  24.645  1.00  0.00     0.023 A 
ATOM     11  Cl  UNL A   1      35.189  24.280  25.360  1.00  0.00    -0.082 Cl
ATOM     12  C   UNL A   1      31.428  24.225  24.089  1.00  0.00     0.055 A 
ATOM     13  Cl  UNL A   1      30.139  25.351  23.914  1.00  0.00    -0.083 Cl
BRANCH   7  14
ATOM     14  S   UNL A   1      34.231  21.263  26.113  1.00  0.00     0.242 S 
ATOM     15  O   UNL A   1      34.042  21.456  27.540  1.00  0.00    -0.207 OA
ATOM     16  O   UNL A   1      35.542  21.350  25.522  1.00  0.00    -0.207 OA
BRANCH  14  17
ATOM     17  N   UNL A   1      33.641  19.753  25.769  1.00  0.00    -0.206 NA
ATOM     18  H   UNL A   1      33.808  19.187  26.601  1.00  0.00     0.141 HD
BRANCH  17  19
ATOM     19  C   UNL A   1      34.129  18.966  24.632  1.00  0.00     0.161 C 
BRANCH  19  20
ATOM     20  C   UNL A   1      33.522  17.537  24.527  1.00  0.00     0.263 C 
BRANCH  20  21
ATOM     21  O   UNL A   1      32.701  17.239  23.397  1.00  0.00    -0.355 OA
ATOM     22  C   UNL A   1      32.460  18.267  22.459  1.00  0.00     0.198 C 
ENDBRANCH  20  21
BRANCH  20  23
ATOM     23  O   UNL A   1      33.090  16.986  25.771  1.00  0.00    -0.355 OA
ATOM     24  C   UNL A   1      32.627  15.653  25.778  1.00  0.00     0.198 C 
ENDBRANCH  20  23
ENDBRANCH  19  20
ENDBRANCH  17  19
ENDBRANCH  14  17
ENDBRANCH   7  14
ENDBRANCH   3   6
ENDBRANCH   1   2
BRANCH   1  25
ATOM     25  C   UNL A   1      33.243  27.600  25.350  1.00  0.00     0.023 C 
BRANCH  25  26
ATOM     26  C   UNL A   1      34.020  28.656  26.130  1.00  0.00     0.023 C 
BRANCH  26  27
ATOM     27  C   UNL A   1      33.362  29.094  27.431  1.00  0.00     0.116 C 
BRANCH  27  28
ATOM     28  N   UNL A   1      33.466  30.527  27.688  1.00  0.00    -0.352 N 
ATOM     29  C   UNL A   1      34.531  31.210  28.226  1.00  0.00     0.251 C 
ATOM     30  H   UNL A   1      32.680  31.069  27.448  1.00  0.00     0.163 HD
ATOM     31  O   UNL A   1      34.452  32.407  28.478  1.00  0.00    -0.269 OA
BRANCH  29  32
ATOM     32  C   UNL A   1      35.759  30.452  28.526  1.00  0.00     0.039 A 
ATOM     33  C   UNL A   1      36.853  30.569  27.669  1.00  0.00     0.014 A 
ATOM     34  C   UNL A   1      35.850  29.723  29.714  1.00  0.00     0.014 A 
ATOM     35  C   UNL A   1      38.072  30.002  28.043  1.00  0.00     0.010 A 
ATOM     36  C   UNL A   1      37.085  29.241  30.124  1.00  0.00     0.010 A 
ATOM     37  C   UNL A   1      38.206  29.370  29.291  1.00  0.00    -0.014 A 
BRANCH  37  38
ATOM     38  C   UNL A   1      39.513  28.836  29.745  1.00  0.00     0.031 A 
ATOM     39  C   UNL A   1      40.271  29.540  30.837  1.00  0.00     0.074 A 
ATOM     40  C   UNL A   1      40.054  27.772  29.119  1.00  0.00     0.049 A 
ATOM     41  N   UNL A   1      41.445  29.260  31.336  1.00  0.00    -0.248 NA
ATOM     42  C   UNL A   1      39.640  30.733  31.428  1.00  0.00     0.031 C 
ATOM     43  C   UNL A   1      39.452  27.056  27.991  1.00  0.00     0.029 A 
ATOM     44  N   UNL A   1      41.243  27.120  29.328  1.00  0.00    -0.354 N 
ATOM     45  C   UNL A   1      41.708  30.256  32.267  1.00  0.00     0.074 A 
ATOM     46  C   UNL A   1      40.591  31.172  32.236  1.00  0.00     0.031 C 
ATOM     47  C   UNL A   1      40.271  26.060  27.615  1.00  0.00     0.029 A 
ATOM     48  C   UNL A   1      41.468  26.086  28.449  1.00  0.00     0.049 A 
ATOM     49  H   UNL A   1      41.876  27.370  30.039  1.00  0.00     0.167 HD
ATOM     50  C   UNL A   1      42.769  30.380  33.099  1.00  0.00     0.034 A 
ATOM     51  C   UNL A   1      42.524  25.259  28.325  1.00  0.00     0.034 A 
ATOM     52  C   UNL A   1      43.858  29.444  33.153  1.00  0.00     0.049 A 
ATOM     53  C   UNL A   1      43.676  25.400  29.282  1.00  0.00     0.074 A 
ATOM     54  C   UNL A   1      44.937  29.431  34.019  1.00  0.00     0.029 A 
ATOM     55  N   UNL A   1      44.014  28.362  32.301  1.00  0.00    -0.354 N 
ATOM     56  N   UNL A   1      43.832  26.254  30.266  1.00  0.00    -0.248 NA
ATOM     57  C   UNL A   1      44.781  24.441  29.140  1.00  0.00     0.031 C 
ATOM     58  C   UNL A   1      45.762  28.358  33.668  1.00  0.00     0.029 A 
ATOM     59  C   UNL A   1      45.177  27.680  32.611  1.00  0.00     0.049 A 
ATOM     60  H   UNL A   1      43.388  28.115  31.582  1.00  0.00     0.167 HD
ATOM     61  C   UNL A   1      45.030  25.912  30.881  1.00  0.00     0.074 A 
ATOM     62  C   UNL A   1      45.549  24.760  30.173  1.00  0.00     0.031 C 
ATOM     63  C   UNL A   1      45.653  26.504  31.930  1.00  0.00     0.034 A 
BRANCH  50  64
ATOM     64  C   UNL A   1      42.779  31.547  34.053  1.00  0.00     0.023 A 
ATOM     65  C   UNL A   1      43.310  32.785  33.636  1.00  0.00     0.012 A 
ATOM     66  C   UNL A   1      42.212  31.434  35.336  1.00  0.00     0.148 A 
ATOM     67  C   UNL A   1      43.310  33.883  34.494  1.00  0.00     0.002 A 
ATOM     68  C   UNL A   1      42.170  32.548  36.168  1.00  0.00     0.091 A 
ATOM     69  F   UNL A   1      41.731  30.244  35.723  1.00  0.00    -0.205 F 
ATOM     70  C   UNL A   1      42.730  33.768  35.754  1.00  0.00     0.022 A 
BRANCH  68  71
ATOM     71  S   UNL A   1      41.372  32.527  37.777  1.00  0.00     0.127 S 
ATOM     72  O   UNL A   1      40.017  32.103  37.428  1.00  0.00    -0.237 OA
ATOM     73  O   UNL A   1      42.159  31.524  38.495  1.00  0.00    -0.237 OA
ATOM     74  O   UNL A   1      41.485  33.881  38.301  1.00  0.00    -0.744 OA
ENDBRANCH  68  71
ENDBRANCH  50  64
BRANCH  51  75
ATOM     75  C   UNL A   1      42.518  24.186  27.288  1.00  0.00     0.023 A 
ATOM     76  C   UNL A   1      43.227  24.379  26.086  1.00  0.00     0.012 A 
ATOM     77  C   UNL A   1      41.828  22.975  27.491  1.00  0.00     0.148 A 
ATOM     78  C   UNL A   1      43.215  23.404  25.088  1.00  0.00     0.002 A 
ATOM     79  C   UNL A   1      41.868  21.985  26.516  1.00  0.00     0.091 A 
ATOM     80  F   UNL A   1      41.152  22.814  28.637  1.00  0.00    -0.205 F 
ATOM     81  C   UNL A   1      42.544  22.205  25.307  1.00  0.00     0.022 A 
BRANCH  79  82
ATOM     82  S   UNL A   1      41.142  20.361  26.765  1.00  0.00     0.127 S 
ATOM     83  O   UNL A   1      39.890  20.477  26.022  1.00  0.00    -0.237 OA
ATOM     84  O   UNL A   1      42.144  19.487  26.153  1.00  0.00    -0.237 OA
ATOM     85  O   UNL A   1      41.011  20.205  28.207  1.00  0.00    -0.744 OA
ENDBRANCH  79  82
ENDBRANCH  51  75
BRANCH  63  86
ATOM     86  C   UNL A   1      46.942  25.894  32.415  1.00  0.00     0.023 A 
ATOM     87  C   UNL A   1      48.173  26.340  31.897  1.00  0.00     0.012 A 
ATOM     88  C   UNL A   1      46.931  24.932  33.445  1.00  0.00     0.148 A 
ATOM     89  C   UNL A   1      49.373  25.812  32.371  1.00  0.00     0.002 A 
ATOM     90  C   UNL A   1      48.132  24.450  33.950  1.00  0.00     0.091 A 
ATOM     91  F   UNL A   1      45.748  24.509  33.913  1.00  0.00    -0.205 F 
ATOM     92  C   UNL A   1      49.354  24.878  33.405  1.00  0.00     0.022 A 
BRANCH  90  93
ATOM     93  S   UNL A   1      48.208  23.324  35.346  1.00  0.00     0.127 S 
ATOM     94  O   UNL A   1      49.637  23.024  35.409  1.00  0.00    -0.237 OA
ATOM     95  O   UNL A   1      47.711  24.157  36.442  1.00  0.00    -0.237 OA
ATOM     96  O   UNL A   1      47.349  22.198  35.004  1.00  0.00    -0.744 OA
ENDBRANCH  90  93
ENDBRANCH  63  86
ENDBRANCH  37  38
ENDBRANCH  29  32
ENDBRANCH  27  28
ENDBRANCH  26  27
ENDBRANCH  25  26
ENDBRANCH   1  25
TORSDOF 20
ENDMDL
MODEL 3
REMARK VINA RESULT:     -11.0      5.063     10.299
REMARK SMILES COC(CNS(=O)(=O)c1ccc(Cl)c(C(=O)NCCCCNC(=O)c2ccc(-c3c4nc(c(-c5cccc(S(=O)(=O)[O-])c5F)c5ccc([nH]5)c(-c5cccc(S(=O)(=O)[O-])c5F)c5nc(c(-c6cccc(S(=O)(=O)[O-])c6F)c6ccc3[nH]6)C=C5)C=C4)cc2)c1Cl)OC
REMARK SMILES IDX 18 1 17 2 15 3 16 4 14 6 9 7 10 8 88 9 11 10 89 11 12 12
REMARK SMILES IDX 13 13 6 14 7 15 8 16 5 17 4 19 3 20 2 21 1 22 90 23 91 24
REMARK SMILES IDX 19 25 20 26 21 27 22 28 23 29 24 31 25 32 26 33 87 34 27 35
REMARK SMILES IDX 86 36 28 37 29 38 30 39 80 40 31 41 85 42 79 43 81 44 32 45
REMARK SMILES IDX 84 46 78 47 77 48 33 50 65 51 45 52 64 53 46 54 49 55 63 56
REMARK SMILES IDX 82 57 47 58 48 59 62 61 83 62 50 63 34 64 35 65 43 66 36 67
REMARK SMILES IDX 38 68 44 69 37 70 39 71 40 72 41 73 42 74 66 75 67 76 75 77
REMARK SMILES IDX 68 78 70 79 76 80 69 81 71 82 72 83 73 84 74 85 51 86 52 87
REMARK SMILES IDX 60 88 53 89 55 90 61 91 54 92 56 93 57 94 58 95 59 96
REMARK H PARENT 17 5 5 18 22 30 81 49 49 60
REMARK Flexibility Score: inf
ROOT
ATOM      1  C   UNL A   1      35.533  19.748  24.912  1.00  0.00     0.116 C 
ENDROOT
BRANCH   1   2
ATOM      2  N   UNL A   1      34.103  19.634  25.072  1.00  0.00    -0.352 N 
ATOM      3  C   UNL A   1      33.026  20.468  25.169  1.00  0.00     0.254 C 
ATOM      4  O   UNL A   1      31.970  19.827  25.133  1.00  0.00    -0.269 OA
ATOM      5  H   UNL A   1      33.827  18.691  25.126  1.00  0.00     0.163 HD
BRANCH   3   6
ATOM      6  C   UNL A   1      32.960  21.982  25.165  1.00  0.00     0.078 A 
ATOM      7  C   UNL A   1      33.203  23.936  23.674  1.00  0.00     0.101 A 
ATOM      8  C   UNL A   1      33.640  24.714  24.743  1.00  0.00     0.025 A 
ATOM      9  C   UNL A   1      32.795  22.608  23.886  1.00  0.00     0.075 A 
ATOM     10  C   UNL A   1      33.571  24.194  26.022  1.00  0.00     0.023 A 
ATOM     11  Cl  UNL A   1      31.789  21.862  22.663  1.00  0.00    -0.082 Cl
ATOM     12  C   UNL A   1      33.197  22.857  26.240  1.00  0.00     0.055 A 
ATOM     13  Cl  UNL A   1      32.762  22.599  27.884  1.00  0.00    -0.083 Cl
BRANCH   7  14
ATOM     14  S   UNL A   1      33.197  24.739  22.095  1.00  0.00     0.242 S 
ATOM     15  O   UNL A   1      33.504  23.727  21.099  1.00  0.00    -0.207 OA
ATOM     16  O   UNL A   1      34.004  25.927  22.216  1.00  0.00    -0.207 OA
BRANCH  14  17
ATOM     17  N   UNL A   1      31.646  25.233  21.787  1.00  0.00    -0.206 NA
ATOM     18  H   UNL A   1      31.720  26.006  21.125  1.00  0.00     0.141 HD
BRANCH  17  19
ATOM     19  C   UNL A   1      30.748  25.691  22.852  1.00  0.00     0.161 C 
BRANCH  19  20
ATOM     20  C   UNL A   1      30.790  27.223  23.121  1.00  0.00     0.263 C 
BRANCH  20  21
ATOM     21  O   UNL A   1      30.678  28.103  22.002  1.00  0.00    -0.355 OA
ATOM     22  C   UNL A   1      30.075  29.364  22.203  1.00  0.00     0.198 C 
ENDBRANCH  20  21
BRANCH  20  23
ATOM     23  O   UNL A   1      31.717  27.619  24.132  1.00  0.00    -0.355 OA
ATOM     24  C   UNL A   1      31.291  27.567  25.476  1.00  0.00     0.198 C 
ENDBRANCH  20  23
ENDBRANCH  19  20
ENDBRANCH  17  19
ENDBRANCH  14  17
ENDBRANCH   7  14
ENDBRANCH   3   6
ENDBRANCH   1   2
BRANCH   1  25
ATOM     25  C   UNL A   1      36.075  20.930  25.719  1.00  0.00     0.023 C 
BRANCH  25  26
ATOM     26  C   UNL A   1      36.587  22.097  24.880  1.00  0.00     0.023 C 
BRANCH  26  27
ATOM     27  C   UNL A   1      38.074  22.383  25.033  1.00  0.00     0.116 C 
BRANCH  27  28
ATOM     28  N   UNL A   1      38.815  21.310  25.686  1.00  0.00    -0.352 N 
ATOM     29  C   UNL A   1      39.790  21.425  26.648  1.00  0.00     0.251 C 
ATOM     30  H   UNL A   1      38.590  20.393  25.404  1.00  0.00     0.163 HD
ATOM     31  O   UNL A   1      40.404  20.441  27.047  1.00  0.00    -0.269 OA
BRANCH  29  32
ATOM     32  C   UNL A   1      40.103  22.773  27.158  1.00  0.00     0.039 A 
ATOM     33  C   UNL A   1      41.113  22.918  28.109  1.00  0.00     0.014 A 
ATOM     34  C   UNL A   1      39.471  23.887  26.603  1.00  0.00     0.014 A 
ATOM     35  C   UNL A   1      41.536  24.200  28.459  1.00  0.00     0.010 A 
ATOM     36  C   UNL A   1      39.957  25.156  26.885  1.00  0.00     0.010 A 
ATOM     37  C   UNL A   1      40.990  25.326  27.820  1.00  0.00    -0.014 A 
BRANCH  37  38
ATOM     38  C   UNL A   1      41.485  26.692  28.113  1.00  0.00     0.031 A 
ATOM     39  C   UNL A   1      42.909  27.057  27.797  1.00  0.00     0.074 A 
ATOM     40  C   UNL A   1      40.680  27.574  28.739  1.00  0.00     0.049 A 
ATOM     41  N   UNL A   1      43.541  28.178  28.023  1.00  0.00    -0.248 NA
ATOM     42  C   UNL A   1      43.743  26.016  27.170  1.00  0.00     0.031 C 
ATOM     43  C   UNL A   1      39.306  27.308  29.173  1.00  0.00     0.029 A 
ATOM     44  N   UNL A   1      40.909  28.865  29.142  1.00  0.00    -0.354 N 
ATOM     45  C   UNL A   1      44.848  27.967  27.602  1.00  0.00     0.074 A 
ATOM     46  C   UNL A   1      44.932  26.598  27.146  1.00  0.00     0.031 C 
ATOM     47  C   UNL A   1      38.812  28.405  29.770  1.00  0.00     0.029 A 
ATOM     48  C   UNL A   1      39.842  29.438  29.794  1.00  0.00     0.049 A 
ATOM     49  H   UNL A   1      41.758  29.337  28.980  1.00  0.00     0.167 HD
ATOM     50  C   UNL A   1      45.879  28.844  27.567  1.00  0.00     0.034 A 
ATOM     51  C   UNL A   1      39.713  30.656  30.356  1.00  0.00     0.034 A 
ATOM     52  C   UNL A   1      45.779  30.214  27.987  1.00  0.00     0.049 A 
ATOM     53  C   UNL A   1      40.865  31.621  30.276  1.00  0.00     0.074 A 
ATOM     54  C   UNL A   1      46.740  31.208  27.910  1.00  0.00     0.029 A 
ATOM     55  N   UNL A   1      44.658  30.784  28.569  1.00  0.00    -0.354 N 
ATOM     56  N   UNL A   1      42.044  31.454  29.727  1.00  0.00    -0.248 NA
ATOM     57  C   UNL A   1      40.657  32.955  30.857  1.00  0.00     0.031 C 
ATOM     58  C   UNL A   1      46.208  32.370  28.479  1.00  0.00     0.029 A 
ATOM     59  C   UNL A   1      44.904  32.111  28.871  1.00  0.00     0.049 A 
ATOM     60  H   UNL A   1      43.811  30.312  28.743  1.00  0.00     0.167 HD
ATOM     61  C   UNL A   1      42.703  32.670  29.863  1.00  0.00     0.074 A 
ATOM     62  C   UNL A   1      41.784  33.571  30.527  1.00  0.00     0.031 C 
ATOM     63  C   UNL A   1      43.960  33.009  29.484  1.00  0.00     0.034 A 
BRANCH  50  64
ATOM     64  C   UNL A   1      47.193  28.357  27.013  1.00  0.00     0.023 A 
ATOM     65  C   UNL A   1      48.268  28.101  27.889  1.00  0.00     0.012 A 
ATOM     66  C   UNL A   1      47.345  28.101  25.637  1.00  0.00     0.148 A 
ATOM     67  C   UNL A   1      49.486  27.630  27.400  1.00  0.00     0.002 A 
ATOM     68  C   UNL A   1      48.546  27.584  25.164  1.00  0.00     0.091 A 
ATOM     69  F   UNL A   1      46.320  28.371  24.817  1.00  0.00    -0.205 F 
ATOM     70  C   UNL A   1      49.620  27.361  26.042  1.00  0.00     0.022 A 
BRANCH  68  71
ATOM     71  S   UNL A   1      48.795  27.126  23.446  1.00  0.00     0.127 S 
ATOM     72  O   UNL A   1      50.215  26.779  23.436  1.00  0.00    -0.237 OA
ATOM     73  O   UNL A   1      47.887  25.987  23.299  1.00  0.00    -0.237 OA
ATOM     74  O   UNL A   1      48.435  28.297  22.660  1.00  0.00    -0.744 OA
ENDBRANCH  68  71
ENDBRANCH  50  64
BRANCH  51  75
ATOM     75  C   UNL A   1      38.426  31.054  30.995  1.00  0.00     0.023 A 
ATOM     76  C   UNL A   1      38.232  30.818  32.371  1.00  0.00     0.012 A 
ATOM     77  C   UNL A   1      37.400  31.673  30.255  1.00  0.00     0.148 A 
ATOM     78  C   UNL A   1      37.026  31.155  32.988  1.00  0.00     0.002 A 
ATOM     79  C   UNL A   1      36.225  32.058  30.889  1.00  0.00     0.091 A 
ATOM     80  F   UNL A   1      37.600  31.881  28.946  1.00  0.00    -0.205 F 
ATOM     81  C   UNL A   1      36.028  31.782  32.250  1.00  0.00     0.022 A 
BRANCH  79  82
ATOM     82  S   UNL A   1      34.938  32.986  30.047  1.00  0.00     0.127 S 
ATOM     83  O   UNL A   1      34.452  32.010  29.076  1.00  0.00    -0.237 OA
ATOM     84  O   UNL A   1      34.013  33.279  31.144  1.00  0.00    -0.237 OA
ATOM     85  O   UNL A   1      35.597  34.159  29.491  1.00  0.00    -0.744 OA
ENDBRANCH  79  82
ENDBRANCH  51  75
BRANCH  63  86
ATOM     86  C   UNL A   1      44.408  34.426  29.730  1.00  0.00     0.023 A 
ATOM     87  C   UNL A   1      45.020  34.772  30.950  1.00  0.00     0.012 A 
ATOM     88  C   UNL A   1      44.292  35.396  28.714  1.00  0.00     0.148 A 
ATOM     89  C   UNL A   1      45.477  36.070  31.170  1.00  0.00     0.002 A 
ATOM     90  C   UNL A   1      44.798  36.673  28.920  1.00  0.00     0.091 A 
ATOM     91  F   UNL A   1      43.692  35.050  27.566  1.00  0.00    -0.205 F 
ATOM     92  C   UNL A   1      45.378  37.017  30.152  1.00  0.00     0.022 A 
BRANCH  90  93
ATOM     93  S   UNL A   1      44.807  37.925  27.633  1.00  0.00     0.127 S 
ATOM     94  O   UNL A   1      43.385  38.035  27.314  1.00  0.00    -0.237 OA
ATOM     95  O   UNL A   1      45.366  39.083  28.332  1.00  0.00    -0.237 OA
ATOM     96  O   UNL A   1      45.646  37.400  26.565  1.00  0.00    -0.744 OA
ENDBRANCH  90  93
ENDBRANCH  63  86
ENDBRANCH  37  38
ENDBRANCH  29  32
ENDBRANCH  27  28
ENDBRANCH  26  27
ENDBRANCH  25  26
ENDBRANCH   1  25
TORSDOF 20
ENDMDL
