MODEL 1
REMARK VINA RESULT:     -10.8      0.000      0.000
REMARK SMILES COCc1nc2ccccc2n1CC(=O)NCCCCNC(=O)c1ccc(-c2c3nc(c(-c4cccc(S(=O)(=O)[O-])c4F)c4ccc([nH]4)c(-c4cccc(S(=O)(=O)[O-])c4F)c4nc(c(-c5cccc(S(=O)(=O)[O-])c5F)c5ccc2[nH]5)C=C4)C=C3)cc1
REMARK SMILES IDX 18 1 17 2 16 3 14 4 15 5 13 7 12 8 4 9 5 10 6 11 11 12 7 13
REMARK SMILES IDX 10 14 8 15 9 16 3 17 2 18 1 19 19 20 20 21 21 22 22 23 23 25
REMARK SMILES IDX 24 26 25 27 86 28 26 29 85 30 27 31 28 32 29 33 79 34 30 35
REMARK SMILES IDX 84 36 78 37 80 38 31 39 83 40 77 41 76 42 32 44 64 45 44 46
REMARK SMILES IDX 63 47 45 48 48 49 62 50 81 51 46 52 47 53 61 55 82 56 49 57
REMARK SMILES IDX 33 58 34 59 42 60 35 61 37 62 43 63 36 64 38 65 39 66 40 67
REMARK SMILES IDX 41 68 65 69 66 70 74 71 67 72 69 73 75 74 68 75 70 76 71 77
REMARK SMILES IDX 72 78 73 79 50 80 51 81 59 82 52 83 54 84 60 85 53 86 55 87
REMARK SMILES IDX 56 88 57 89 58 90
REMARK H PARENT 16 6 21 24 80 43 48 54
REMARK Flexibility Score: inf
ROOT
ATOM      1  C   UNL A   1      37.371  20.979  24.922  1.00  0.00     0.023 C 
ENDROOT
BRANCH   1   2
ATOM      2  C   UNL A   1      35.874  20.757  25.124  1.00  0.00     0.116 C 
BRANCH   2   3
ATOM      3  N   UNL A   1      35.394  21.351  26.356  1.00  0.00    -0.355 N 
ATOM      4  C   UNL A   1      34.862  22.589  26.561  1.00  0.00     0.240 C 
ATOM      5  O   UNL A   1      34.490  22.878  27.700  1.00  0.00    -0.273 OA
ATOM      6  H   UNL A   1      35.463  20.782  27.157  1.00  0.00     0.163 HD
BRANCH   4   7
ATOM      7  C   UNL A   1      34.671  23.561  25.411  1.00  0.00     0.223 C 
BRANCH   7   8
ATOM      8  N   UNL A   1      33.307  24.037  25.257  1.00  0.00    -0.316 N 
ATOM      9  C   UNL A   1      32.220  23.306  24.814  1.00  0.00     0.136 A 
ATOM     10  N   UNL A   1      31.112  24.011  24.962  1.00  0.00    -0.231 NA
ATOM     11  C   UNL A   1      31.488  25.237  25.434  1.00  0.00     0.089 A 
ATOM     12  C   UNL A   1      32.867  25.305  25.590  1.00  0.00     0.069 A 
ATOM     13  C   UNL A   1      30.693  26.341  25.771  1.00  0.00     0.030 A 
ATOM     14  C   UNL A   1      33.508  26.461  26.065  1.00  0.00     0.028 A 
ATOM     15  C   UNL A   1      31.312  27.490  26.274  1.00  0.00     0.002 A 
ATOM     16  C   UNL A   1      32.698  27.547  26.417  1.00  0.00     0.002 A 
BRANCH   9  17
ATOM     17  C   UNL A   1      32.282  21.888  24.330  1.00  0.00     0.235 C 
BRANCH  17  18
ATOM     18  O   UNL A   1      32.222  21.853  22.900  1.00  0.00    -0.377 OA
ATOM     19  C   UNL A   1      32.957  22.909  22.287  1.00  0.00     0.195 C 
ENDBRANCH  17  18
ENDBRANCH   9  17
ENDBRANCH   7   8
ENDBRANCH   4   7
ENDBRANCH   2   3
ENDBRANCH   1   2
BRANCH   1  20
ATOM     20  C   UNL A   1      38.187  19.685  24.788  1.00  0.00     0.023 C 
BRANCH  20  21
ATOM     21  C   UNL A   1      39.139  19.419  25.958  1.00  0.00     0.116 C 
BRANCH  21  22
ATOM     22  N   UNL A   1      40.469  19.024  25.541  1.00  0.00    -0.352 N 
ATOM     23  C   UNL A   1      41.736  19.435  25.853  1.00  0.00     0.251 C 
ATOM     24  H   UNL A   1      40.460  18.293  24.883  1.00  0.00     0.163 HD
ATOM     25  O   UNL A   1      42.651  18.753  25.384  1.00  0.00    -0.269 OA
BRANCH  23  26
ATOM     26  C   UNL A   1      42.066  20.653  26.640  1.00  0.00     0.039 A 
ATOM     27  C   UNL A   1      41.875  20.795  28.013  1.00  0.00     0.014 A 
ATOM     28  C   UNL A   1      42.527  21.763  25.905  1.00  0.00     0.014 A 
ATOM     29  C   UNL A   1      42.020  22.031  28.618  1.00  0.00     0.010 A 
ATOM     30  C   UNL A   1      42.695  23.002  26.510  1.00  0.00     0.010 A 
ATOM     31  C   UNL A   1      42.379  23.143  27.855  1.00  0.00    -0.014 A 
BRANCH  31  32
ATOM     32  C   UNL A   1      42.427  24.419  28.553  1.00  0.00     0.031 A 
ATOM     33  C   UNL A   1      41.299  25.341  28.247  1.00  0.00     0.074 A 
ATOM     34  C   UNL A   1      43.412  24.740  29.414  1.00  0.00     0.049 A 
ATOM     35  N   UNL A   1      41.344  26.483  27.639  1.00  0.00    -0.248 NA
ATOM     36  C   UNL A   1      39.939  24.867  28.540  1.00  0.00     0.031 C 
ATOM     37  C   UNL A   1      44.411  23.842  30.002  1.00  0.00     0.029 A 
ATOM     38  N   UNL A   1      43.650  25.925  30.043  1.00  0.00    -0.354 N 
ATOM     39  C   UNL A   1      40.036  26.966  27.658  1.00  0.00     0.074 A 
ATOM     40  C   UNL A   1      39.197  25.878  28.088  1.00  0.00     0.031 C 
ATOM     41  C   UNL A   1      44.963  24.442  31.080  1.00  0.00     0.029 A 
ATOM     42  C   UNL A   1      44.482  25.809  31.150  1.00  0.00     0.049 A 
ATOM     43  H   UNL A   1      43.269  26.782  29.742  1.00  0.00     0.167 HD
ATOM     44  C   UNL A   1      39.753  28.291  27.537  1.00  0.00     0.034 A 
ATOM     45  C   UNL A   1      44.689  26.759  32.090  1.00  0.00     0.034 A 
ATOM     46  C   UNL A   1      40.884  29.053  27.096  1.00  0.00     0.049 A 
ATOM     47  C   UNL A   1      44.381  28.068  31.471  1.00  0.00     0.074 A 
ATOM     48  C   UNL A   1      41.492  29.358  25.901  1.00  0.00     0.029 A 
ATOM     49  N   UNL A   1      41.755  29.376  28.100  1.00  0.00    -0.354 N 
ATOM     50  N   UNL A   1      45.060  28.575  30.480  1.00  0.00    -0.248 NA
ATOM     51  C   UNL A   1      43.121  28.737  31.776  1.00  0.00     0.031 C 
ATOM     52  C   UNL A   1      42.843  29.689  26.219  1.00  0.00     0.029 A 
ATOM     53  C   UNL A   1      43.010  29.590  27.599  1.00  0.00     0.049 A 
ATOM     54  H   UNL A   1      41.512  29.446  29.053  1.00  0.00     0.167 HD
ATOM     55  C   UNL A   1      44.133  29.329  29.790  1.00  0.00     0.074 A 
ATOM     56  C   UNL A   1      43.036  29.549  30.720  1.00  0.00     0.031 C 
ATOM     57  C   UNL A   1      44.178  29.429  28.434  1.00  0.00     0.034 A 
BRANCH  44  58
ATOM     58  C   UNL A   1      38.579  28.973  28.193  1.00  0.00     0.023 A 
ATOM     59  C   UNL A   1      37.685  29.707  27.385  1.00  0.00     0.012 A 
ATOM     60  C   UNL A   1      38.478  29.147  29.592  1.00  0.00     0.148 A 
ATOM     61  C   UNL A   1      36.732  30.567  27.945  1.00  0.00     0.002 A 
ATOM     62  C   UNL A   1      37.485  29.947  30.147  1.00  0.00     0.091 A 
ATOM     63  F   UNL A   1      39.429  28.646  30.389  1.00  0.00    -0.205 F 
ATOM     64  C   UNL A   1      36.619  30.674  29.327  1.00  0.00     0.022 A 
BRANCH  62  65
ATOM     65  S   UNL A   1      37.277  30.090  31.925  1.00  0.00     0.127 S 
ATOM     66  O   UNL A   1      38.469  30.844  32.301  1.00  0.00    -0.237 OA
ATOM     67  O   UNL A   1      36.017  30.830  32.021  1.00  0.00    -0.237 OA
ATOM     68  O   UNL A   1      37.199  28.719  32.413  1.00  0.00    -0.744 OA
ENDBRANCH  62  65
ENDBRANCH  44  58
BRANCH  45  69
ATOM     69  C   UNL A   1      44.886  26.629  33.552  1.00  0.00     0.023 A 
ATOM     70  C   UNL A   1      46.058  27.165  34.126  1.00  0.00     0.012 A 
ATOM     71  C   UNL A   1      43.815  26.298  34.410  1.00  0.00     0.148 A 
ATOM     72  C   UNL A   1      46.129  27.448  35.493  1.00  0.00     0.002 A 
ATOM     73  C   UNL A   1      43.895  26.572  35.772  1.00  0.00     0.091 A 
ATOM     74  F   UNL A   1      42.682  25.817  33.882  1.00  0.00    -0.205 F 
ATOM     75  C   UNL A   1      45.041  27.168  36.313  1.00  0.00     0.022 A 
BRANCH  73  76
ATOM     76  S   UNL A   1      42.522  26.253  36.888  1.00  0.00     0.127 S 
ATOM     77  O   UNL A   1      41.485  27.143  36.362  1.00  0.00    -0.237 OA
ATOM     78  O   UNL A   1      42.278  24.832  36.668  1.00  0.00    -0.237 OA
ATOM     79  O   UNL A   1      43.002  26.622  38.214  1.00  0.00    -0.744 OA
ENDBRANCH  73  76
ENDBRANCH  45  69
BRANCH  57  80
ATOM     80  C   UNL A   1      45.483  29.136  27.759  1.00  0.00     0.023 A 
ATOM     81  C   UNL A   1      46.577  30.023  27.806  1.00  0.00     0.012 A 
ATOM     82  C   UNL A   1      45.640  27.877  27.158  1.00  0.00     0.148 A 
ATOM     83  C   UNL A   1      47.807  29.659  27.253  1.00  0.00     0.002 A 
ATOM     84  C   UNL A   1      46.874  27.505  26.643  1.00  0.00     0.091 A 
ATOM     85  F   UNL A   1      44.581  27.056  27.130  1.00  0.00    -0.205 F 
ATOM     86  C   UNL A   1      47.958  28.396  26.683  1.00  0.00     0.022 A 
BRANCH  84  87
ATOM     87  S   UNL A   1      47.160  25.859  25.991  1.00  0.00     0.127 S 
ATOM     88  O   UNL A   1      46.884  25.017  27.159  1.00  0.00    -0.237 OA
ATOM     89  O   UNL A   1      46.153  25.772  24.929  1.00  0.00    -0.237 OA
ATOM     90  O   UNL A   1      48.531  25.839  25.520  1.00  0.00    -0.744 OA
ENDBRANCH  84  87
ENDBRANCH  57  80
ENDBRANCH  31  32
ENDBRANCH  23  26
ENDBRANCH  21  22
ENDBRANCH  20  21
ENDBRANCH   1  20
TORSDOF 17
ENDMDL
MODEL 2
REMARK VINA RESULT:     -10.7      3.379      7.998
REMARK SMILES COCc1nc2ccccc2n1CC(=O)NCCCCNC(=O)c1ccc(-c2c3nc(c(-c4cccc(S(=O)(=O)[O-])c4F)c4ccc([nH]4)c(-c4cccc(S(=O)(=O)[O-])c4F)c4nc(c(-c5cccc(S(=O)(=O)[O-])c5F)c5ccc2[nH]5)C=C4)C=C3)cc1
REMARK SMILES IDX 18 1 17 2 16 3 14 4 15 5 13 7 12 8 4 9 5 10 6 11 11 12 7 13
REMARK SMILES IDX 10 14 8 15 9 16 3 17 2 18 1 19 19 20 20 21 21 22 22 23 23 25
REMARK SMILES IDX 24 26 25 27 86 28 26 29 85 30 27 31 28 32 29 33 79 34 30 35
REMARK SMILES IDX 84 36 78 37 80 38 31 39 83 40 77 41 76 42 32 44 64 45 44 46
REMARK SMILES IDX 63 47 45 48 48 49 62 50 81 51 46 52 47 53 61 55 82 56 49 57
REMARK SMILES IDX 33 58 34 59 42 60 35 61 37 62 43 63 36 64 38 65 39 66 40 67
REMARK SMILES IDX 41 68 65 69 66 70 74 71 67 72 69 73 75 74 68 75 70 76 71 77
REMARK SMILES IDX 72 78 73 79 50 80 51 81 59 82 52 83 54 84 60 85 53 86 55 87
REMARK SMILES IDX 56 88 57 89 58 90
REMARK H PARENT 16 6 21 24 80 43 48 54
REMARK Flexibility Score: inf
ROOT
ATOM      1  C   UNL A   1      31.788  29.604  27.136  1.00  0.00     0.023 C 
ENDROOT
BRANCH   1   2
ATOM      2  C   UNL A   1      32.251  28.189  27.472  1.00  0.00     0.116 C 
BRANCH   2   3
ATOM      3  N   UNL A   1      31.249  27.194  27.149  1.00  0.00    -0.355 N 
ATOM      4  C   UNL A   1      31.408  25.977  26.554  1.00  0.00     0.240 C 
ATOM      5  O   UNL A   1      30.407  25.273  26.400  1.00  0.00    -0.273 OA
ATOM      6  H   UNL A   1      30.324  27.429  27.390  1.00  0.00     0.163 HD
BRANCH   4   7
ATOM      7  C   UNL A   1      32.782  25.473  26.153  1.00  0.00     0.223 C 
BRANCH   7   8
ATOM      8  N   UNL A   1      32.928  25.217  24.730  1.00  0.00    -0.316 N 
ATOM      9  C   UNL A   1      33.402  26.097  23.775  1.00  0.00     0.136 A 
ATOM     10  N   UNL A   1      33.555  25.471  22.622  1.00  0.00    -0.231 NA
ATOM     11  C   UNL A   1      33.108  24.193  22.807  1.00  0.00     0.089 A 
ATOM     12  C   UNL A   1      32.665  24.009  24.111  1.00  0.00     0.069 A 
ATOM     13  C   UNL A   1      33.070  23.125  21.901  1.00  0.00     0.030 A 
ATOM     14  C   UNL A   1      32.156  22.779  24.560  1.00  0.00     0.028 A 
ATOM     15  C   UNL A   1      32.594  21.884  22.339  1.00  0.00     0.002 A 
ATOM     16  C   UNL A   1      32.145  21.717  23.648  1.00  0.00     0.002 A 
BRANCH   9  17
ATOM     17  C   UNL A   1      33.777  27.525  24.037  1.00  0.00     0.235 C 
BRANCH  17  18
ATOM     18  O   UNL A   1      32.986  28.399  23.224  1.00  0.00    -0.377 OA
ATOM     19  C   UNL A   1      31.620  28.447  23.626  1.00  0.00     0.195 C 
ENDBRANCH  17  18
ENDBRANCH   9  17
ENDBRANCH   7   8
ENDBRANCH   4   7
ENDBRANCH   2   3
ENDBRANCH   1   2
BRANCH   1  20
ATOM     20  C   UNL A   1      32.871  30.486  26.498  1.00  0.00     0.023 C 
BRANCH  20  21
ATOM     21  C   UNL A   1      34.176  30.554  27.295  1.00  0.00     0.116 C 
BRANCH  21  22
ATOM     22  N   UNL A   1      34.134  31.500  28.392  1.00  0.00    -0.352 N 
ATOM     23  C   UNL A   1      35.027  31.909  29.344  1.00  0.00     0.251 C 
ATOM     24  H   UNL A   1      33.264  31.953  28.470  1.00  0.00     0.163 HD
ATOM     25  O   UNL A   1      34.665  32.856  30.047  1.00  0.00    -0.269 OA
BRANCH  23  26
ATOM     26  C   UNL A   1      36.335  31.257  29.619  1.00  0.00     0.039 A 
ATOM     27  C   UNL A   1      37.574  31.893  29.555  1.00  0.00     0.014 A 
ATOM     28  C   UNL A   1      36.299  29.874  29.880  1.00  0.00     0.014 A 
ATOM     29  C   UNL A   1      38.744  31.158  29.627  1.00  0.00     0.010 A 
ATOM     30  C   UNL A   1      37.471  29.132  29.975  1.00  0.00     0.010 A 
ATOM     31  C   UNL A   1      38.689  29.773  29.784  1.00  0.00    -0.014 A 
BRANCH  31  32
ATOM     32  C   UNL A   1      39.962  29.067  29.765  1.00  0.00     0.031 A 
ATOM     33  C   UNL A   1      40.565  28.832  31.106  1.00  0.00     0.074 A 
ATOM     34  C   UNL A   1      40.546  28.651  28.625  1.00  0.00     0.049 A 
ATOM     35  N   UNL A   1      41.661  29.327  31.586  1.00  0.00    -0.248 NA
ATOM     36  C   UNL A   1      39.781  28.054  32.074  1.00  0.00     0.031 C 
ATOM     37  C   UNL A   1      39.943  28.575  27.290  1.00  0.00     0.029 A 
ATOM     38  N   UNL A   1      41.774  28.090  28.445  1.00  0.00    -0.354 N 
ATOM     39  C   UNL A   1      41.807  28.755  32.849  1.00  0.00     0.074 A 
ATOM     40  C   UNL A   1      40.561  28.100  33.155  1.00  0.00     0.031 C 
ATOM     41  C   UNL A   1      40.699  27.769  26.511  1.00  0.00     0.029 A 
ATOM     42  C   UNL A   1      41.907  27.419  27.236  1.00  0.00     0.049 A 
ATOM     43  H   UNL A   1      42.499  28.154  29.108  1.00  0.00     0.167 HD
ATOM     44  C   UNL A   1      43.016  28.661  33.465  1.00  0.00     0.034 A 
ATOM     45  C   UNL A   1      42.911  26.578  26.900  1.00  0.00     0.034 A 
ATOM     46  C   UNL A   1      44.018  29.464  32.827  1.00  0.00     0.049 A 
ATOM     47  C   UNL A   1      44.080  26.930  27.736  1.00  0.00     0.074 A 
ATOM     48  C   UNL A   1      44.420  30.779  32.846  1.00  0.00     0.029 A 
ATOM     49  N   UNL A   1      44.581  28.872  31.729  1.00  0.00    -0.354 N 
ATOM     50  N   UNL A   1      44.704  28.073  27.658  1.00  0.00    -0.248 NA
ATOM     51  C   UNL A   1      44.428  26.102  28.885  1.00  0.00     0.031 C 
ATOM     52  C   UNL A   1      45.086  31.005  31.604  1.00  0.00     0.029 A 
ATOM     53  C   UNL A   1      45.080  29.817  30.875  1.00  0.00     0.049 A 
ATOM     54  H   UNL A   1      44.622  27.900  31.576  1.00  0.00     0.167 HD
ATOM     55  C   UNL A   1      45.181  28.281  28.936  1.00  0.00     0.074 A 
ATOM     56  C   UNL A   1      45.156  26.978  29.581  1.00  0.00     0.031 C 
ATOM     57  C   UNL A   1      45.242  29.532  29.468  1.00  0.00     0.034 A 
BRANCH  44  58
ATOM     58  C   UNL A   1      43.410  27.546  34.399  1.00  0.00     0.023 A 
ATOM     59  C   UNL A   1      43.702  27.860  35.743  1.00  0.00     0.012 A 
ATOM     60  C   UNL A   1      43.767  26.255  33.945  1.00  0.00     0.148 A 
ATOM     61  C   UNL A   1      44.314  26.932  36.595  1.00  0.00     0.002 A 
ATOM     62  C   UNL A   1      44.310  25.313  34.812  1.00  0.00     0.091 A 
ATOM     63  F   UNL A   1      43.709  25.978  32.637  1.00  0.00    -0.205 F 
ATOM     64  C   UNL A   1      44.603  25.652  36.135  1.00  0.00     0.022 A 
BRANCH  62  65
ATOM     65  S   UNL A   1      44.667  23.637  34.275  1.00  0.00     0.127 S 
ATOM     66  O   UNL A   1      45.824  23.845  33.410  1.00  0.00    -0.237 OA
ATOM     67  O   UNL A   1      44.952  22.969  35.545  1.00  0.00    -0.237 OA
ATOM     68  O   UNL A   1      43.447  23.176  33.622  1.00  0.00    -0.744 OA
ENDBRANCH  62  65
ENDBRANCH  44  58
BRANCH  45  69
ATOM     69  C   UNL A   1      42.885  25.328  26.104  1.00  0.00     0.023 A 
ATOM     70  C   UNL A   1      43.910  25.107  25.162  1.00  0.00     0.012 A 
ATOM     71  C   UNL A   1      42.082  24.231  26.487  1.00  0.00     0.148 A 
ATOM     72  C   UNL A   1      44.189  23.823  24.685  1.00  0.00     0.002 A 
ATOM     73  C   UNL A   1      42.358  22.956  26.001  1.00  0.00     0.091 A 
ATOM     74  F   UNL A   1      41.124  24.414  27.403  1.00  0.00    -0.205 F 
ATOM     75  C   UNL A   1      43.424  22.745  25.119  1.00  0.00     0.022 A 
BRANCH  73  76
ATOM     76  S   UNL A   1      41.422  21.515  26.531  1.00  0.00     0.127 S 
ATOM     77  O   UNL A   1      42.020  20.448  25.726  1.00  0.00    -0.237 OA
ATOM     78  O   UNL A   1      41.738  21.458  27.954  1.00  0.00    -0.237 OA
ATOM     79  O   UNL A   1      40.034  21.806  26.194  1.00  0.00    -0.744 OA
ENDBRANCH  73  76
ENDBRANCH  45  69
BRANCH  57  80
ATOM     80  C   UNL A   1      45.256  30.690  28.518  1.00  0.00     0.023 A 
ATOM     81  C   UNL A   1      44.082  31.367  28.132  1.00  0.00     0.012 A 
ATOM     82  C   UNL A   1      46.504  31.175  28.096  1.00  0.00     0.148 A 
ATOM     83  C   UNL A   1      44.156  32.509  27.329  1.00  0.00     0.002 A 
ATOM     84  C   UNL A   1      46.575  32.329  27.330  1.00  0.00     0.091 A 
ATOM     85  F   UNL A   1      47.602  30.508  28.481  1.00  0.00    -0.205 F 
ATOM     86  C   UNL A   1      45.403  32.996  26.938  1.00  0.00     0.022 A 
BRANCH  84  87
ATOM     87  S   UNL A   1      48.150  33.063  26.883  1.00  0.00     0.127 S 
ATOM     88  O   UNL A   1      48.919  31.893  26.451  1.00  0.00    -0.237 OA
ATOM     89  O   UNL A   1      47.766  33.972  25.799  1.00  0.00    -0.237 OA
ATOM     90  O   UNL A   1      48.643  33.727  28.074  1.00  0.00    -0.744 OA
ENDBRANCH  84  87
ENDBRANCH  57  80
ENDBRANCH  31  32
ENDBRANCH  23  26
ENDBRANCH  21  22
ENDBRANCH  20  21
ENDBRANCH   1  20
TORSDOF 17
ENDMDL
MODEL 3
REMARK VINA RESULT:     -10.6      3.554      7.692
REMARK SMILES COCc1nc2ccccc2n1CC(=O)NCCCCNC(=O)c1ccc(-c2c3nc(c(-c4cccc(S(=O)(=O)[O-])c4F)c4ccc([nH]4)c(-c4cccc(S(=O)(=O)[O-])c4F)c4nc(c(-c5cccc(S(=O)(=O)[O-])c5F)c5ccc2[nH]5)C=C4)C=C3)cc1
REMARK SMILES IDX 18 1 17 2 16 3 14 4 15 5 13 7 12 8 4 9 5 10 6 11 11 12 7 13
REMARK SMILES IDX 10 14 8 15 9 16 3 17 2 18 1 19 19 20 20 21 21 22 22 23 23 25
REMARK SMILES IDX 24 26 25 27 86 28 26 29 85 30 27 31 28 32 29 33 79 34 30 35
REMARK SMILES IDX 84 36 78 37 80 38 31 39 83 40 77 41 76 42 32 44 64 45 44 46
REMARK SMILES IDX 63 47 45 48 48 49 62 50 81 51 46 52 47 53 61 55 82 56 49 57
REMARK SMILES IDX 33 58 34 59 42 60 35 61 37 62 43 63 36 64 38 65 39 66 40 67
REMARK SMILES IDX 41 68 65 69 66 70 74 71 67 72 69 73 75 74 68 75 70 76 71 77
REMARK SMILES IDX 72 78 73 79 50 80 51 81 59 82 52 83 54 84 60 85 53 86 55 87
REMARK SMILES IDX 56 88 57 89 58 90
REMARK H PARENT 16 6 21 24 80 43 48 54
REMARK Flexibility Score: inf
ROOT
ATOM      1  C   UNL A   1      39.353  23.018  26.865  1.00  0.00     0.023 C 
ENDROOT
BRANCH   1   2
ATOM      2  C   UNL A   1      37.964  23.528  26.490  1.00  0.00     0.116 C 
BRANCH   2   3
ATOM      3  N   UNL A   1      37.595  23.165  25.137  1.00  0.00    -0.355 N 
ATOM      4  C   UNL A   1      36.699  22.227  24.714  1.00  0.00     0.240 C 
ATOM      5  O   UNL A   1      36.520  22.105  23.500  1.00  0.00    -0.273 OA
ATOM      6  H   UNL A   1      38.055  23.663  24.423  1.00  0.00     0.163 HD
BRANCH   4   7
ATOM      7  C   UNL A   1      35.898  21.404  25.705  1.00  0.00     0.223 C 
BRANCH   7   8
ATOM      8  N   UNL A   1      34.610  20.959  25.203  1.00  0.00    -0.316 N 
ATOM      9  C   UNL A   1      33.466  21.723  25.067  1.00  0.00     0.136 A 
ATOM     10  N   UNL A   1      32.539  21.036  24.423  1.00  0.00    -0.231 NA
ATOM     11  C   UNL A   1      33.055  19.790  24.205  1.00  0.00     0.089 A 
ATOM     12  C   UNL A   1      34.341  19.691  24.721  1.00  0.00     0.069 A 
ATOM     13  C   UNL A   1      32.481  18.693  23.549  1.00  0.00     0.030 A 
ATOM     14  C   UNL A   1      35.095  18.510  24.624  1.00  0.00     0.028 A 
ATOM     15  C   UNL A   1      33.229  17.518  23.417  1.00  0.00     0.002 A 
ATOM     16  C   UNL A   1      34.515  17.430  23.947  1.00  0.00     0.002 A 
BRANCH   9  17
ATOM     17  C   UNL A   1      33.334  23.153  25.500  1.00  0.00     0.235 C 
BRANCH  17  18
ATOM     18  O   UNL A   1      33.711  24.028  24.431  1.00  0.00    -0.377 OA
ATOM     19  C   UNL A   1      34.345  25.220  24.886  1.00  0.00     0.195 C 
ENDBRANCH  17  18
ENDBRANCH   9  17
ENDBRANCH   7   8
ENDBRANCH   4   7
ENDBRANCH   2   3
ENDBRANCH   1   2
BRANCH   1  20
ATOM     20  C   UNL A   1      39.831  21.819  26.031  1.00  0.00     0.023 C 
BRANCH  20  21
ATOM     21  C   UNL A   1      41.290  21.425  26.277  1.00  0.00     0.116 C 
BRANCH  21  22
ATOM     22  N   UNL A   1      42.224  22.093  25.393  1.00  0.00    -0.352 N 
ATOM     23  C   UNL A   1      42.753  23.352  25.327  1.00  0.00     0.251 C 
ATOM     24  H   UNL A   1      42.555  21.505  24.677  1.00  0.00     0.163 HD
ATOM     25  O   UNL A   1      43.644  23.516  24.490  1.00  0.00    -0.269 OA
BRANCH  23  26
ATOM     26  C   UNL A   1      42.286  24.515  26.128  1.00  0.00     0.039 A 
ATOM     27  C   UNL A   1      41.465  25.536  25.652  1.00  0.00     0.014 A 
ATOM     28  C   UNL A   1      42.793  24.613  27.438  1.00  0.00     0.014 A 
ATOM     29  C   UNL A   1      41.253  26.676  26.408  1.00  0.00     0.010 A 
ATOM     30  C   UNL A   1      42.567  25.745  28.211  1.00  0.00     0.010 A 
ATOM     31  C   UNL A   1      41.847  26.800  27.664  1.00  0.00    -0.014 A 
BRANCH  31  32
ATOM     32  C   UNL A   1      41.642  28.064  28.356  1.00  0.00     0.031 A 
ATOM     33  C   UNL A   1      42.610  29.136  27.996  1.00  0.00     0.074 A 
ATOM     34  C   UNL A   1      40.649  28.253  29.246  1.00  0.00     0.049 A 
ATOM     35  N   UNL A   1      43.505  29.688  28.751  1.00  0.00    -0.248 NA
ATOM     36  C   UNL A   1      42.672  29.549  26.587  1.00  0.00     0.031 C 
ATOM     37  C   UNL A   1      39.487  27.390  29.483  1.00  0.00     0.029 A 
ATOM     38  N   UNL A   1      40.408  29.328  30.048  1.00  0.00    -0.354 N 
ATOM     39  C   UNL A   1      44.107  30.667  27.960  1.00  0.00     0.074 A 
ATOM     40  C   UNL A   1      43.663  30.441  26.609  1.00  0.00     0.031 C 
ATOM     41  C   UNL A   1      38.548  28.091  30.157  1.00  0.00     0.029 A 
ATOM     42  C   UNL A   1      39.108  29.375  30.538  1.00  0.00     0.049 A 
ATOM     43  H   UNL A   1      41.088  30.007  30.259  1.00  0.00     0.167 HD
ATOM     44  C   UNL A   1      44.751  31.737  28.499  1.00  0.00     0.034 A 
ATOM     45  C   UNL A   1      38.527  30.433  31.147  1.00  0.00     0.034 A 
ATOM     46  C   UNL A   1      44.994  31.578  29.903  1.00  0.00     0.049 A 
ATOM     47  C   UNL A   1      39.611  31.268  31.710  1.00  0.00     0.074 A 
ATOM     48  C   UNL A   1      45.930  30.963  30.702  1.00  0.00     0.029 A 
ATOM     49  N   UNL A   1      43.917  31.888  30.687  1.00  0.00    -0.354 N 
ATOM     50  N   UNL A   1      40.410  30.869  32.660  1.00  0.00    -0.248 NA
ATOM     51  C   UNL A   1      40.006  32.498  31.033  1.00  0.00     0.031 C 
ATOM     52  C   UNL A   1      45.288  30.735  31.956  1.00  0.00     0.029 A 
ATOM     53  C   UNL A   1      43.988  31.231  31.885  1.00  0.00     0.049 A 
ATOM     54  H   UNL A   1      43.190  32.500  30.425  1.00  0.00     0.167 HD
ATOM     55  C   UNL A   1      41.589  31.542  32.411  1.00  0.00     0.074 A 
ATOM     56  C   UNL A   1      41.230  32.653  31.542  1.00  0.00     0.031 C 
ATOM     57  C   UNL A   1      42.794  30.960  32.653  1.00  0.00     0.034 A 
BRANCH  44  58
ATOM     58  C   UNL A   1      44.813  33.102  27.861  1.00  0.00     0.023 A 
ATOM     59  C   UNL A   1      46.024  33.518  27.269  1.00  0.00     0.012 A 
ATOM     60  C   UNL A   1      43.820  34.088  28.064  1.00  0.00     0.148 A 
ATOM     61  C   UNL A   1      46.233  34.849  26.890  1.00  0.00     0.002 A 
ATOM     62  C   UNL A   1      44.004  35.393  27.622  1.00  0.00     0.091 A 
ATOM     63  F   UNL A   1      42.746  33.799  28.807  1.00  0.00    -0.205 F 
ATOM     64  C   UNL A   1      45.216  35.785  27.050  1.00  0.00     0.022 A 
BRANCH  62  65
ATOM     65  S   UNL A   1      42.708  36.629  27.774  1.00  0.00     0.127 S 
ATOM     66  O   UNL A   1      41.623  36.012  27.018  1.00  0.00    -0.237 OA
ATOM     67  O   UNL A   1      42.508  36.676  29.223  1.00  0.00    -0.237 OA
ATOM     68  O   UNL A   1      43.275  37.849  27.213  1.00  0.00    -0.744 OA
ENDBRANCH  62  65
ENDBRANCH  44  58
BRANCH  45  69
ATOM     69  C   UNL A   1      37.134  30.930  31.073  1.00  0.00     0.023 A 
ATOM     70  C   UNL A   1      36.512  31.372  32.259  1.00  0.00     0.012 A 
ATOM     71  C   UNL A   1      36.545  31.283  29.839  1.00  0.00     0.148 A 
ATOM     72  C   UNL A   1      35.395  32.213  32.220  1.00  0.00     0.002 A 
ATOM     73  C   UNL A   1      35.427  32.112  29.806  1.00  0.00     0.091 A 
ATOM     74  F   UNL A   1      37.137  30.899  28.702  1.00  0.00    -0.205 F 
ATOM     75  C   UNL A   1      34.864  32.597  30.993  1.00  0.00     0.022 A 
BRANCH  73  76
ATOM     76  S   UNL A   1      34.699  32.663  28.257  1.00  0.00     0.127 S 
ATOM     77  O   UNL A   1      33.677  33.606  28.717  1.00  0.00    -0.237 OA
ATOM     78  O   UNL A   1      35.841  33.275  27.588  1.00  0.00    -0.237 OA
ATOM     79  O   UNL A   1      34.158  31.462  27.631  1.00  0.00    -0.744 OA
ENDBRANCH  73  76
ENDBRANCH  45  69
BRANCH  57  80
ATOM     80  C   UNL A   1      42.832  29.818  33.621  1.00  0.00     0.023 A 
ATOM     81  C   UNL A   1      42.437  28.512  33.268  1.00  0.00     0.012 A 
ATOM     82  C   UNL A   1      43.389  30.053  34.888  1.00  0.00     0.148 A 
ATOM     83  C   UNL A   1      42.591  27.458  34.173  1.00  0.00     0.002 A 
ATOM     84  C   UNL A   1      43.574  28.996  35.769  1.00  0.00     0.091 A 
ATOM     85  F   UNL A   1      43.754  31.306  35.194  1.00  0.00    -0.205 F 
ATOM     86  C   UNL A   1      43.170  27.699  35.418  1.00  0.00     0.022 A 
BRANCH  84  87
ATOM     87  S   UNL A   1      44.406  29.222  37.342  1.00  0.00     0.127 S 
ATOM     88  O   UNL A   1      43.578  30.249  37.980  1.00  0.00    -0.237 OA
ATOM     89  O   UNL A   1      44.291  27.890  37.943  1.00  0.00    -0.237 OA
ATOM     90  O   UNL A   1      45.764  29.623  37.031  1.00  0.00    -0.744 OA
ENDBRANCH  84  87
ENDBRANCH  57  80
ENDBRANCH  31  32
ENDBRANCH  23  26
ENDBRANCH  21  22
ENDBRANCH  20  21
ENDBRANCH   1  20
TORSDOF 17
ENDMDL
