MODEL 1
REMARK VINA RESULT:     -11.6      0.000      0.000
REMARK SMILES CCc1c(C)nn(CC(=O)N[C@H](C(=O)NCCCCNC(=O)c2ccc(-c3c4nc(c(-c5cccc(S(=O)(=O)[O-])c5F)c5ccc([nH]5)c(-c5cccc(S(=O)(=O)[O-])c5F)c5nc(c(-c6cccc(S(=O)(=O)[O-])c6F)c6ccc3[nH]6)C=C5)C=C4)cc2)c2c(C)n[nH]c2C)c1C
REMARK SMILES IDX 17 1 16 2 15 3 13 4 14 5 12 7 11 8 9 9 10 10 8 12 7 13 3 14
REMARK SMILES IDX 4 15 93 16 5 17 6 18 94 19 2 20 1 21 86 22 87 23 91 24 88 25
REMARK SMILES IDX 89 26 90 27 92 28 18 30 19 31 20 32 21 33 22 35 23 36 24 37
REMARK SMILES IDX 85 38 25 39 84 40 26 41 27 42 28 43 78 44 29 45 83 46 77 47
REMARK SMILES IDX 79 48 30 49 82 50 76 51 75 52 31 54 63 55 43 56 62 57 44 58
REMARK SMILES IDX 47 59 61 60 80 61 45 62 46 63 60 65 81 66 48 67 32 68 33 69
REMARK SMILES IDX 41 70 34 71 36 72 42 73 35 74 37 75 38 76 39 77 40 78 64 79
REMARK SMILES IDX 65 80 73 81 66 82 68 83 74 84 67 85 69 86 70 87 71 88 72 89
REMARK SMILES IDX 49 90 50 91 58 92 51 93 53 94 59 95 52 96 54 97 55 98 56 99
REMARK SMILES IDX 57 100
REMARK H PARENT 15 6 11 11 90 29 20 34 79 53 47 64
REMARK Flexibility Score: inf
ROOT
ATOM      1  C   UNL A   1      31.725  30.469  25.815  1.00  0.00     0.023 C 
ENDROOT
BRANCH   1   2
ATOM      2  C   UNL A   1      32.947  29.647  26.235  1.00  0.00     0.116 C 
BRANCH   2   3
ATOM      3  N   UNL A   1      33.762  29.278  25.101  1.00  0.00    -0.354 N 
ATOM      4  C   UNL A   1      33.394  28.486  24.071  1.00  0.00     0.247 C 
ATOM      5  O   UNL A   1      33.010  29.158  23.095  1.00  0.00    -0.272 OA
ATOM      6  H   UNL A   1      34.677  29.642  25.076  1.00  0.00     0.163 HD
BRANCH   4   7
ATOM      7  C   UNL A   1      33.299  26.914  24.016  1.00  0.00     0.206 C 
BRANCH   7   8
ATOM      8  N   UNL A   1      33.458  26.648  22.600  1.00  0.00    -0.339 N 
ATOM      9  C   UNL A   1      32.767  25.684  21.915  1.00  0.00     0.242 C 
ATOM     10  O   UNL A   1      33.157  25.432  20.770  1.00  0.00    -0.273 OA
ATOM     11  H   UNL A   1      34.106  27.194  22.098  1.00  0.00     0.164 HD
BRANCH   9  12
ATOM     12  C   UNL A   1      31.459  25.152  22.460  1.00  0.00     0.244 C 
BRANCH  12  13
ATOM     13  N   UNL A   1      31.344  23.864  23.159  1.00  0.00    -0.260 N 
ATOM     14  C   UNL A   1      31.915  22.032  24.318  1.00  0.00    -0.004 A 
ATOM     15  C   UNL A   1      31.037  22.874  25.033  1.00  0.00     0.063 A 
ATOM     16  C   UNL A   1      31.972  22.612  23.049  1.00  0.00     0.039 A 
ATOM     17  C   UNL A   1      30.415  22.737  26.367  1.00  0.00     0.069 C 
ATOM     18  N   UNL A   1      30.702  23.956  24.334  1.00  0.00    -0.177 NA
ATOM     19  C   UNL A   1      32.473  21.811  21.881  1.00  0.00     0.066 C 
BRANCH  14  20
ATOM     20  C   UNL A   1      32.614  20.739  24.652  1.00  0.00     0.036 C 
ATOM     21  C   UNL A   1      33.584  20.731  25.805  1.00  0.00     0.009 C 
ENDBRANCH  14  20
ENDBRANCH  12  13
ENDBRANCH   9  12
ENDBRANCH   7   8
BRANCH   7  22
ATOM     22  C   UNL A   1      33.918  25.660  24.773  1.00  0.00     0.027 A 
ATOM     23  C   UNL A   1      33.351  25.364  26.086  1.00  0.00     0.065 A 
ATOM     24  C   UNL A   1      34.737  24.492  24.584  1.00  0.00     0.038 A 
ATOM     25  C   UNL A   1      32.206  26.021  26.769  1.00  0.00     0.069 C 
ATOM     26  N   UNL A   1      33.900  24.321  26.694  1.00  0.00    -0.180 NA
ATOM     27  N   UNL A   1      34.743  23.849  25.801  1.00  0.00    -0.282 N 
ATOM     28  C   UNL A   1      35.572  23.711  23.579  1.00  0.00     0.066 C 
ATOM     29  H   UNL A   1      35.338  23.087  25.989  1.00  0.00     0.190 HD
ENDBRANCH   7  22
ENDBRANCH   4   7
ENDBRANCH   2   3
ENDBRANCH   1   2
BRANCH   1  30
ATOM     30  C   UNL A   1      31.536  31.843  26.485  1.00  0.00     0.023 C 
BRANCH  30  31
ATOM     31  C   UNL A   1      32.756  32.477  27.152  1.00  0.00     0.116 C 
BRANCH  31  32
ATOM     32  N   UNL A   1      32.514  33.842  27.588  1.00  0.00    -0.352 N 
ATOM     33  C   UNL A   1      33.109  34.587  28.577  1.00  0.00     0.251 C 
ATOM     34  H   UNL A   1      31.806  34.311  27.092  1.00  0.00     0.163 HD
ATOM     35  O   UNL A   1      32.621  35.680  28.869  1.00  0.00    -0.269 OA
BRANCH  33  36
ATOM     36  C   UNL A   1      34.301  34.100  29.310  1.00  0.00     0.039 A 
ATOM     37  C   UNL A   1      34.116  33.467  30.545  1.00  0.00     0.014 A 
ATOM     38  C   UNL A   1      35.597  34.303  28.828  1.00  0.00     0.014 A 
ATOM     39  C   UNL A   1      35.216  32.986  31.261  1.00  0.00     0.010 A 
ATOM     40  C   UNL A   1      36.690  33.762  29.510  1.00  0.00     0.010 A 
ATOM     41  C   UNL A   1      36.514  33.099  30.735  1.00  0.00    -0.014 A 
BRANCH  41  42
ATOM     42  C   UNL A   1      37.685  32.514  31.444  1.00  0.00     0.031 A 
ATOM     43  C   UNL A   1      38.465  31.377  30.835  1.00  0.00     0.074 A 
ATOM     44  C   UNL A   1      38.008  32.960  32.675  1.00  0.00     0.049 A 
ATOM     45  N   UNL A   1      39.482  30.717  31.328  1.00  0.00    -0.248 NA
ATOM     46  C   UNL A   1      38.032  30.906  29.510  1.00  0.00     0.031 C 
ATOM     47  C   UNL A   1      37.294  34.009  33.408  1.00  0.00     0.029 A 
ATOM     48  N   UNL A   1      39.002  32.572  33.541  1.00  0.00    -0.354 N 
ATOM     49  C   UNL A   1      39.790  29.736  30.393  1.00  0.00     0.074 A 
ATOM     50  C   UNL A   1      38.830  29.865  29.319  1.00  0.00     0.031 C 
ATOM     51  C   UNL A   1      37.875  34.184  34.605  1.00  0.00     0.029 A 
ATOM     52  C   UNL A   1      38.978  33.240  34.744  1.00  0.00     0.049 A 
ATOM     53  H   UNL A   1      39.668  31.882  33.321  1.00  0.00     0.167 HD
ATOM     54  C   UNL A   1      40.794  28.826  30.412  1.00  0.00     0.034 A 
ATOM     55  C   UNL A   1      39.750  33.101  35.841  1.00  0.00     0.034 A 
ATOM     56  C   UNL A   1      41.768  28.718  31.467  1.00  0.00     0.049 A 
ATOM     57  C   UNL A   1      40.870  32.095  35.828  1.00  0.00     0.074 A 
ATOM     58  C   UNL A   1      42.868  27.883  31.539  1.00  0.00     0.029 A 
ATOM     59  N   UNL A   1      41.752  29.459  32.637  1.00  0.00    -0.354 N 
ATOM     60  N   UNL A   1      41.237  31.281  34.869  1.00  0.00    -0.248 NA
ATOM     61  C   UNL A   1      41.704  32.014  37.036  1.00  0.00     0.031 C 
ATOM     62  C   UNL A   1      43.500  28.096  32.768  1.00  0.00     0.029 A 
ATOM     63  C   UNL A   1      42.816  29.091  33.445  1.00  0.00     0.049 A 
ATOM     64  H   UNL A   1      41.084  30.147  32.863  1.00  0.00     0.167 HD
ATOM     65  C   UNL A   1      42.365  30.620  35.341  1.00  0.00     0.074 A 
ATOM     66  C   UNL A   1      42.634  31.145  36.664  1.00  0.00     0.031 C 
ATOM     67  C   UNL A   1      43.105  29.657  34.738  1.00  0.00     0.034 A 
BRANCH  54  68
ATOM     68  C   UNL A   1      40.924  27.899  29.229  1.00  0.00     0.023 A 
ATOM     69  C   UNL A   1      40.205  26.686  29.212  1.00  0.00     0.012 A 
ATOM     70  C   UNL A   1      41.705  28.254  28.110  1.00  0.00     0.148 A 
ATOM     71  C   UNL A   1      40.291  25.823  28.120  1.00  0.00     0.002 A 
ATOM     72  C   UNL A   1      41.746  27.410  27.005  1.00  0.00     0.091 A 
ATOM     73  F   UNL A   1      42.394  29.402  28.149  1.00  0.00    -0.205 F 
ATOM     74  C   UNL A   1      41.051  26.189  27.014  1.00  0.00     0.022 A 
BRANCH  72  75
ATOM     75  S   UNL A   1      42.630  27.830  25.498  1.00  0.00     0.127 S 
ATOM     76  O   UNL A   1      41.880  28.999  25.034  1.00  0.00    -0.237 OA
ATOM     77  O   UNL A   1      43.971  28.133  26.006  1.00  0.00    -0.237 OA
ATOM     78  O   UNL A   1      42.553  26.659  24.643  1.00  0.00    -0.744 OA
ENDBRANCH  72  75
ENDBRANCH  54  68
BRANCH  55  79
ATOM     79  C   UNL A   1      39.527  33.977  37.028  1.00  0.00     0.023 A 
ATOM     80  C   UNL A   1      39.872  35.341  36.958  1.00  0.00     0.012 A 
ATOM     81  C   UNL A   1      38.963  33.472  38.216  1.00  0.00     0.148 A 
ATOM     82  C   UNL A   1      39.697  36.177  38.061  1.00  0.00     0.002 A 
ATOM     83  C   UNL A   1      38.737  34.323  39.291  1.00  0.00     0.091 A 
ATOM     84  F   UNL A   1      38.650  32.170  38.267  1.00  0.00    -0.205 F 
ATOM     85  C   UNL A   1      39.121  35.672  39.223  1.00  0.00     0.022 A 
BRANCH  83  86
ATOM     86  S   UNL A   1      37.877  33.788  40.775  1.00  0.00     0.127 S 
ATOM     87  O   UNL A   1      37.615  35.064  41.444  1.00  0.00    -0.237 OA
ATOM     88  O   UNL A   1      36.690  33.135  40.215  1.00  0.00    -0.237 OA
ATOM     89  O   UNL A   1      38.787  32.890  41.460  1.00  0.00    -0.744 OA
ENDBRANCH  83  86
ENDBRANCH  55  79
BRANCH  67  90
ATOM     90  C   UNL A   1      44.308  29.130  35.479  1.00  0.00     0.023 A 
ATOM     91  C   UNL A   1      45.579  29.697  35.257  1.00  0.00     0.012 A 
ATOM     92  C   UNL A   1      44.164  28.117  36.448  1.00  0.00     0.148 A 
ATOM     93  C   UNL A   1      46.693  29.241  35.961  1.00  0.00     0.002 A 
ATOM     94  C   UNL A   1      45.268  27.704  37.183  1.00  0.00     0.091 A 
ATOM     95  F   UNL A   1      42.950  27.578  36.634  1.00  0.00    -0.205 F 
ATOM     96  C   UNL A   1      46.536  28.254  36.931  1.00  0.00     0.022 A 
BRANCH  94  97
ATOM     97  S   UNL A   1      45.146  26.511  38.520  1.00  0.00     0.127 S 
ATOM     98  O   UNL A   1      46.541  26.108  38.688  1.00  0.00    -0.237 OA
ATOM     99  O   UNL A   1      44.609  27.323  39.612  1.00  0.00    -0.237 OA
ATOM    100  O   UNL A   1      44.248  25.465  38.046  1.00  0.00    -0.744 OA
ENDBRANCH  94  97
ENDBRANCH  67  90
ENDBRANCH  41  42
ENDBRANCH  33  36
ENDBRANCH  31  32
ENDBRANCH  30  31
ENDBRANCH   1  30
TORSDOF 19
ENDMDL
MODEL 2
REMARK VINA RESULT:     -11.2      1.126      7.723
REMARK SMILES CCc1c(C)nn(CC(=O)N[C@H](C(=O)NCCCCNC(=O)c2ccc(-c3c4nc(c(-c5cccc(S(=O)(=O)[O-])c5F)c5ccc([nH]5)c(-c5cccc(S(=O)(=O)[O-])c5F)c5nc(c(-c6cccc(S(=O)(=O)[O-])c6F)c6ccc3[nH]6)C=C5)C=C4)cc2)c2c(C)n[nH]c2C)c1C
REMARK SMILES IDX 17 1 16 2 15 3 13 4 14 5 12 7 11 8 9 9 10 10 8 12 7 13 3 14
REMARK SMILES IDX 4 15 93 16 5 17 6 18 94 19 2 20 1 21 86 22 87 23 91 24 88 25
REMARK SMILES IDX 89 26 90 27 92 28 18 30 19 31 20 32 21 33 22 35 23 36 24 37
REMARK SMILES IDX 85 38 25 39 84 40 26 41 27 42 28 43 78 44 29 45 83 46 77 47
REMARK SMILES IDX 79 48 30 49 82 50 76 51 75 52 31 54 63 55 43 56 62 57 44 58
REMARK SMILES IDX 47 59 61 60 80 61 45 62 46 63 60 65 81 66 48 67 32 68 33 69
REMARK SMILES IDX 41 70 34 71 36 72 42 73 35 74 37 75 38 76 39 77 40 78 64 79
REMARK SMILES IDX 65 80 73 81 66 82 68 83 74 84 67 85 69 86 70 87 71 88 72 89
REMARK SMILES IDX 49 90 50 91 58 92 51 93 53 94 59 95 52 96 54 97 55 98 56 99
REMARK SMILES IDX 57 100
REMARK H PARENT 15 6 11 11 90 29 20 34 79 53 47 64
REMARK Flexibility Score: inf
ROOT
ATOM      1  C   UNL A   1      31.352  31.102  26.002  1.00  0.00     0.023 C 
ENDROOT
BRANCH   1   2
ATOM      2  C   UNL A   1      31.795  29.826  26.724  1.00  0.00     0.116 C 
BRANCH   2   3
ATOM      3  N   UNL A   1      33.007  29.283  26.158  1.00  0.00    -0.354 N 
ATOM      4  C   UNL A   1      33.144  28.727  24.934  1.00  0.00     0.247 C 
ATOM      5  O   UNL A   1      33.578  29.552  24.107  1.00  0.00    -0.272 OA
ATOM      6  H   UNL A   1      33.814  29.322  26.720  1.00  0.00     0.163 HD
BRANCH   4   7
ATOM      7  C   UNL A   1      32.736  27.284  24.452  1.00  0.00     0.206 C 
BRANCH   7   8
ATOM      8  N   UNL A   1      31.322  27.444  24.173  1.00  0.00    -0.339 N 
ATOM      9  C   UNL A   1      30.339  26.641  24.688  1.00  0.00     0.242 C 
ATOM     10  O   UNL A   1      29.211  26.764  24.201  1.00  0.00    -0.273 OA
ATOM     11  H   UNL A   1      31.050  28.177  23.574  1.00  0.00     0.164 HD
BRANCH   9  12
ATOM     12  C   UNL A   1      30.595  25.837  25.945  1.00  0.00     0.244 C 
BRANCH  12  13
ATOM     13  N   UNL A   1      31.021  24.431  25.927  1.00  0.00    -0.260 N 
ATOM     14  C   UNL A   1      32.231  22.597  25.482  1.00  0.00    -0.004 A 
ATOM     15  C   UNL A   1      32.223  22.920  26.855  1.00  0.00     0.063 A 
ATOM     16  C   UNL A   1      31.317  23.492  24.924  1.00  0.00     0.039 A 
ATOM     17  C   UNL A   1      32.830  22.250  28.025  1.00  0.00     0.069 C 
ATOM     18  N   UNL A   1      31.499  24.008  27.108  1.00  0.00    -0.177 NA
ATOM     19  C   UNL A   1      30.737  23.222  23.564  1.00  0.00     0.066 C 
BRANCH  14  20
ATOM     20  C   UNL A   1      32.909  21.520  24.674  1.00  0.00     0.036 C 
ATOM     21  C   UNL A   1      32.351  20.122  24.739  1.00  0.00     0.009 C 
ENDBRANCH  14  20
ENDBRANCH  12  13
ENDBRANCH   9  12
ENDBRANCH   7   8
BRANCH   7  22
ATOM     22  C   UNL A   1      33.262  26.179  23.438  1.00  0.00     0.027 A 
ATOM     23  C   UNL A   1      34.222  25.220  23.981  1.00  0.00     0.065 A 
ATOM     24  C   UNL A   1      33.002  25.575  22.158  1.00  0.00     0.038 A 
ATOM     25  C   UNL A   1      34.700  25.083  25.381  1.00  0.00     0.069 C 
ATOM     26  N   UNL A   1      34.650  24.321  23.105  1.00  0.00    -0.180 NA
ATOM     27  N   UNL A   1      33.942  24.578  22.026  1.00  0.00    -0.282 N 
ATOM     28  C   UNL A   1      32.105  25.608  20.929  1.00  0.00     0.066 C 
ATOM     29  H   UNL A   1      34.076  24.090  21.180  1.00  0.00     0.190 HD
ENDBRANCH   7  22
ENDBRANCH   4   7
ENDBRANCH   2   3
ENDBRANCH   1   2
BRANCH   1  30
ATOM     30  C   UNL A   1      31.393  32.417  26.804  1.00  0.00     0.023 C 
BRANCH  30  31
ATOM     31  C   UNL A   1      32.765  32.956  27.206  1.00  0.00     0.116 C 
BRANCH  31  32
ATOM     32  N   UNL A   1      32.696  34.266  27.830  1.00  0.00    -0.352 N 
ATOM     33  C   UNL A   1      33.381  34.787  28.901  1.00  0.00     0.251 C 
ATOM     34  H   UNL A   1      32.051  34.882  27.418  1.00  0.00     0.163 HD
ATOM     35  O   UNL A   1      33.033  35.879  29.351  1.00  0.00    -0.269 OA
BRANCH  33  36
ATOM     36  C   UNL A   1      34.505  34.060  29.536  1.00  0.00     0.039 A 
ATOM     37  C   UNL A   1      35.814  34.413  29.185  1.00  0.00     0.014 A 
ATOM     38  C   UNL A   1      34.293  33.005  30.428  1.00  0.00     0.014 A 
ATOM     39  C   UNL A   1      36.901  33.757  29.772  1.00  0.00     0.010 A 
ATOM     40  C   UNL A   1      35.378  32.398  31.064  1.00  0.00     0.010 A 
ATOM     41  C   UNL A   1      36.694  32.763  30.743  1.00  0.00    -0.014 A 
BRANCH  41  42
ATOM     42  C   UNL A   1      37.841  32.117  31.438  1.00  0.00     0.031 A 
ATOM     43  C   UNL A   1      38.320  32.628  32.773  1.00  0.00     0.074 A 
ATOM     44  C   UNL A   1      38.503  31.109  30.834  1.00  0.00     0.049 A 
ATOM     45  N   UNL A   1      39.327  32.218  33.500  1.00  0.00    -0.248 NA
ATOM     46  C   UNL A   1      37.584  33.762  33.356  1.00  0.00     0.031 C 
ATOM     47  C   UNL A   1      38.186  30.562  29.512  1.00  0.00     0.029 A 
ATOM     48  N   UNL A   1      39.594  30.379  31.239  1.00  0.00    -0.354 N 
ATOM     49  C   UNL A   1      39.367  33.059  34.606  1.00  0.00     0.074 A 
ATOM     50  C   UNL A   1      38.303  34.024  34.437  1.00  0.00     0.031 C 
ATOM     51  C   UNL A   1      39.057  29.584  29.219  1.00  0.00     0.029 A 
ATOM     52  C   UNL A   1      40.016  29.454  30.311  1.00  0.00     0.049 A 
ATOM     53  H   UNL A   1      40.034  30.506  32.110  1.00  0.00     0.167 HD
ATOM     54  C   UNL A   1      40.196  33.019  35.678  1.00  0.00     0.034 A 
ATOM     55  C   UNL A   1      41.062  28.604  30.330  1.00  0.00     0.034 A 
ATOM     56  C   UNL A   1      41.235  32.040  35.860  1.00  0.00     0.049 A 
ATOM     57  C   UNL A   1      41.956  28.568  31.540  1.00  0.00     0.074 A 
ATOM     58  C   UNL A   1      42.074  31.868  36.947  1.00  0.00     0.029 A 
ATOM     59  N   UNL A   1      41.586  31.075  34.930  1.00  0.00    -0.354 N 
ATOM     60  N   UNL A   1      41.881  29.271  32.643  1.00  0.00    -0.248 NA
ATOM     61  C   UNL A   1      43.058  27.595  31.524  1.00  0.00     0.031 C 
ATOM     62  C   UNL A   1      42.953  30.819  36.660  1.00  0.00     0.029 A 
ATOM     63  C   UNL A   1      42.638  30.313  35.411  1.00  0.00     0.049 A 
ATOM     64  H   UNL A   1      41.152  30.949  34.055  1.00  0.00     0.167 HD
ATOM     65  C   UNL A   1      42.898  28.802  33.466  1.00  0.00     0.074 A 
ATOM     66  C   UNL A   1      43.562  27.737  32.742  1.00  0.00     0.031 C 
ATOM     67  C   UNL A   1      43.258  29.221  34.704  1.00  0.00     0.034 A 
BRANCH  54  68
ATOM     68  C   UNL A   1      39.984  34.040  36.768  1.00  0.00     0.023 A 
ATOM     69  C   UNL A   1      40.276  35.396  36.520  1.00  0.00     0.012 A 
ATOM     70  C   UNL A   1      39.437  33.669  38.014  1.00  0.00     0.148 A 
ATOM     71  C   UNL A   1      40.067  36.362  37.504  1.00  0.00     0.002 A 
ATOM     72  C   UNL A   1      39.187  34.645  38.972  1.00  0.00     0.091 A 
ATOM     73  F   UNL A   1      39.180  32.374  38.239  1.00  0.00    -0.205 F 
ATOM     74  C   UNL A   1      39.513  35.988  38.724  1.00  0.00     0.022 A 
BRANCH  72  75
ATOM     75  S   UNL A   1      38.398  34.278  40.545  1.00  0.00     0.127 S 
ATOM     76  O   UNL A   1      39.445  33.513  41.226  1.00  0.00    -0.237 OA
ATOM     77  O   UNL A   1      38.173  35.618  41.093  1.00  0.00    -0.237 OA
ATOM     78  O   UNL A   1      37.190  33.537  40.229  1.00  0.00    -0.744 OA
ENDBRANCH  72  75
ENDBRANCH  54  68
BRANCH  55  79
ATOM     79  C   UNL A   1      41.292  27.675  29.186  1.00  0.00     0.023 A 
ATOM     80  C   UNL A   1      40.773  26.366  29.241  1.00  0.00     0.012 A 
ATOM     81  C   UNL A   1      42.006  28.081  28.042  1.00  0.00     0.148 A 
ATOM     82  C   UNL A   1      40.993  25.468  28.197  1.00  0.00     0.002 A 
ATOM     83  C   UNL A   1      42.171  27.201  26.979  1.00  0.00     0.091 A 
ATOM     84  F   UNL A   1      42.500  29.327  28.012  1.00  0.00    -0.205 F 
ATOM     85  C   UNL A   1      41.683  25.887  27.062  1.00  0.00     0.022 A 
BRANCH  83  86
ATOM     86  S   UNL A   1      42.927  27.700  25.428  1.00  0.00     0.127 S 
ATOM     87  O   UNL A   1      42.026  28.766  24.987  1.00  0.00    -0.237 OA
ATOM     88  O   UNL A   1      44.247  28.157  25.870  1.00  0.00    -0.237 OA
ATOM     89  O   UNL A   1      42.953  26.510  24.598  1.00  0.00    -0.744 OA
ENDBRANCH  83  86
ENDBRANCH  55  79
BRANCH  67  90
ATOM     90  C   UNL A   1      44.396  28.504  35.384  1.00  0.00     0.023 A 
ATOM     91  C   UNL A   1      45.728  28.870  35.107  1.00  0.00     0.012 A 
ATOM     92  C   UNL A   1      44.140  27.511  36.351  1.00  0.00     0.148 A 
ATOM     93  C   UNL A   1      46.789  28.236  35.754  1.00  0.00     0.002 A 
ATOM     94  C   UNL A   1      45.199  26.921  37.030  1.00  0.00     0.091 A 
ATOM     95  F   UNL A   1      42.867  27.163  36.589  1.00  0.00    -0.205 F 
ATOM     96  C   UNL A   1      46.524  27.271  36.723  1.00  0.00     0.022 A 
BRANCH  94  97
ATOM     97  S   UNL A   1      44.953  25.741  38.362  1.00  0.00     0.127 S 
ATOM     98  O   UNL A   1      44.087  26.493  39.270  1.00  0.00    -0.237 OA
ATOM     99  O   UNL A   1      44.296  24.629  37.674  1.00  0.00    -0.237 OA
ATOM    100  O   UNL A   1      46.280  25.434  38.878  1.00  0.00    -0.744 OA
ENDBRANCH  94  97
ENDBRANCH  67  90
ENDBRANCH  41  42
ENDBRANCH  33  36
ENDBRANCH  31  32
ENDBRANCH  30  31
ENDBRANCH   1  30
TORSDOF 19
ENDMDL
MODEL 3
REMARK VINA RESULT:     -11.0      1.883      2.706
REMARK SMILES CCc1c(C)nn(CC(=O)N[C@H](C(=O)NCCCCNC(=O)c2ccc(-c3c4nc(c(-c5cccc(S(=O)(=O)[O-])c5F)c5ccc([nH]5)c(-c5cccc(S(=O)(=O)[O-])c5F)c5nc(c(-c6cccc(S(=O)(=O)[O-])c6F)c6ccc3[nH]6)C=C5)C=C4)cc2)c2c(C)n[nH]c2C)c1C
REMARK SMILES IDX 17 1 16 2 15 3 13 4 14 5 12 7 11 8 9 9 10 10 8 12 7 13 3 14
REMARK SMILES IDX 4 15 93 16 5 17 6 18 94 19 2 20 1 21 86 22 87 23 91 24 88 25
REMARK SMILES IDX 89 26 90 27 92 28 18 30 19 31 20 32 21 33 22 35 23 36 24 37
REMARK SMILES IDX 85 38 25 39 84 40 26 41 27 42 28 43 78 44 29 45 83 46 77 47
REMARK SMILES IDX 79 48 30 49 82 50 76 51 75 52 31 54 63 55 43 56 62 57 44 58
REMARK SMILES IDX 47 59 61 60 80 61 45 62 46 63 60 65 81 66 48 67 32 68 33 69
REMARK SMILES IDX 41 70 34 71 36 72 42 73 35 74 37 75 38 76 39 77 40 78 64 79
REMARK SMILES IDX 65 80 73 81 66 82 68 83 74 84 67 85 69 86 70 87 71 88 72 89
REMARK SMILES IDX 49 90 50 91 58 92 51 93 53 94 59 95 52 96 54 97 55 98 56 99
REMARK SMILES IDX 57 100
REMARK H PARENT 15 6 11 11 90 29 20 34 79 53 47 64
REMARK Flexibility Score: inf
ROOT
ATOM      1  C   UNL A   1      34.369  30.544  27.654  1.00  0.00     0.023 C 
ENDROOT
BRANCH   1   2
ATOM      2  C   UNL A   1      34.049  29.110  27.221  1.00  0.00     0.116 C 
BRANCH   2   3
ATOM      3  N   UNL A   1      32.675  28.971  26.801  1.00  0.00    -0.354 N 
ATOM      4  C   UNL A   1      31.924  27.850  26.866  1.00  0.00     0.247 C 
ATOM      5  O   UNL A   1      31.214  27.837  27.891  1.00  0.00    -0.272 OA
ATOM      6  H   UNL A   1      32.241  29.773  26.429  1.00  0.00     0.163 HD
BRANCH   4   7
ATOM      7  C   UNL A   1      31.933  26.595  25.913  1.00  0.00     0.206 C 
BRANCH   7   8
ATOM      8  N   UNL A   1      30.939  25.737  26.529  1.00  0.00    -0.339 N 
ATOM      9  C   UNL A   1      31.151  24.423  26.853  1.00  0.00     0.242 C 
ATOM     10  O   UNL A   1      30.156  23.765  27.174  1.00  0.00    -0.273 OA
ATOM     11  H   UNL A   1      30.055  26.123  26.725  1.00  0.00     0.164 HD
BRANCH   9  12
ATOM     12  C   UNL A   1      32.560  23.902  27.036  1.00  0.00     0.244 C 
BRANCH  12  13
ATOM     13  N   UNL A   1      33.283  23.157  25.995  1.00  0.00    -0.260 N 
ATOM     14  C   UNL A   1      34.927  22.053  24.945  1.00  0.00    -0.004 A 
ATOM     15  C   UNL A   1      33.815  21.230  25.226  1.00  0.00     0.063 A 
ATOM     16  C   UNL A   1      34.495  23.330  25.306  1.00  0.00     0.039 A 
ATOM     17  C   UNL A   1      33.542  19.810  24.919  1.00  0.00     0.069 C 
ATOM     18  N   UNL A   1      32.844  21.897  25.846  1.00  0.00    -0.177 NA
ATOM     19  C   UNL A   1      35.224  24.540  24.795  1.00  0.00     0.066 C 
BRANCH  14  20
ATOM     20  C   UNL A   1      36.272  21.799  24.313  1.00  0.00     0.036 C 
ATOM     21  C   UNL A   1      37.141  20.717  24.900  1.00  0.00     0.009 C 
ENDBRANCH  14  20
ENDBRANCH  12  13
ENDBRANCH   9  12
ENDBRANCH   7   8
BRANCH   7  22
ATOM     22  C   UNL A   1      31.876  26.288  24.355  1.00  0.00     0.027 A 
ATOM     23  C   UNL A   1      32.801  27.050  23.520  1.00  0.00     0.065 A 
ATOM     24  C   UNL A   1      31.381  25.347  23.385  1.00  0.00     0.038 A 
ATOM     25  C   UNL A   1      33.857  28.007  23.945  1.00  0.00     0.069 C 
ATOM     26  N   UNL A   1      32.717  26.779  22.224  1.00  0.00    -0.180 NA
ATOM     27  N   UNL A   1      31.842  25.797  22.169  1.00  0.00    -0.282 N 
ATOM     28  C   UNL A   1      30.570  24.073  23.193  1.00  0.00     0.066 C 
ATOM     29  H   UNL A   1      31.538  25.411  21.315  1.00  0.00     0.190 HD
ENDBRANCH   7  22
ENDBRANCH   4   7
ENDBRANCH   2   3
ENDBRANCH   1   2
BRANCH   1  30
ATOM     30  C   UNL A   1      33.185  31.518  27.799  1.00  0.00     0.023 C 
BRANCH  30  31
ATOM     31  C   UNL A   1      33.242  32.822  27.004  1.00  0.00     0.116 C 
BRANCH  31  32
ATOM     32  N   UNL A   1      32.826  33.976  27.782  1.00  0.00    -0.352 N 
ATOM     33  C   UNL A   1      33.280  34.457  28.986  1.00  0.00     0.251 C 
ATOM     34  H   UNL A   1      32.098  34.500  27.380  1.00  0.00     0.163 HD
ATOM     35  O   UNL A   1      32.658  35.370  29.531  1.00  0.00    -0.269 OA
BRANCH  33  36
ATOM     36  C   UNL A   1      34.478  33.892  29.650  1.00  0.00     0.039 A 
ATOM     37  C   UNL A   1      34.297  33.034  30.741  1.00  0.00     0.014 A 
ATOM     38  C   UNL A   1      35.773  34.234  29.251  1.00  0.00     0.014 A 
ATOM     39  C   UNL A   1      35.404  32.473  31.387  1.00  0.00     0.010 A 
ATOM     40  C   UNL A   1      36.875  33.620  29.852  1.00  0.00     0.010 A 
ATOM     41  C   UNL A   1      36.705  32.735  30.927  1.00  0.00    -0.014 A 
BRANCH  41  42
ATOM     42  C   UNL A   1      37.887  32.078  31.549  1.00  0.00     0.031 A 
ATOM     43  C   UNL A   1      38.598  30.948  30.848  1.00  0.00     0.074 A 
ATOM     44  C   UNL A   1      38.282  32.449  32.784  1.00  0.00     0.049 A 
ATOM     45  N   UNL A   1      39.613  30.232  31.258  1.00  0.00    -0.248 NA
ATOM     46  C   UNL A   1      38.088  30.559  29.523  1.00  0.00     0.031 C 
ATOM     47  C   UNL A   1      37.641  33.483  33.601  1.00  0.00     0.029 A 
ATOM     48  N   UNL A   1      39.302  31.986  33.580  1.00  0.00    -0.354 N 
ATOM     49  C   UNL A   1      39.843  29.290  30.262  1.00  0.00     0.074 A 
ATOM     50  C   UNL A   1      38.839  29.504  29.243  1.00  0.00     0.031 C 
ATOM     51  C   UNL A   1      38.283  33.578  34.776  1.00  0.00     0.029 A 
ATOM     52  C   UNL A   1      39.358  32.592  34.815  1.00  0.00     0.049 A 
ATOM     53  H   UNL A   1      39.933  31.287  33.294  1.00  0.00     0.167 HD
ATOM     54  C   UNL A   1      40.815  28.348  30.187  1.00  0.00     0.034 A 
ATOM     55  C   UNL A   1      40.175  32.373  35.865  1.00  0.00     0.034 A 
ATOM     56  C   UNL A   1      41.832  28.156  31.187  1.00  0.00     0.049 A 
ATOM     57  C   UNL A   1      41.257  31.333  35.748  1.00  0.00     0.074 A 
ATOM     58  C   UNL A   1      42.906  27.282  31.165  1.00  0.00     0.029 A 
ATOM     59  N   UNL A   1      41.897  28.836  32.392  1.00  0.00    -0.354 N 
ATOM     60  N   UNL A   1      41.551  30.558  34.734  1.00  0.00    -0.248 NA
ATOM     61  C   UNL A   1      42.143  31.164  36.909  1.00  0.00     0.031 C 
ATOM     62  C   UNL A   1      43.601  27.413  32.371  1.00  0.00     0.029 A 
ATOM     63  C   UNL A   1      42.984  28.393  33.129  1.00  0.00     0.049 A 
ATOM     64  H   UNL A   1      41.265  29.532  32.683  1.00  0.00     0.167 HD
ATOM     65  C   UNL A   1      42.676  29.837  35.117  1.00  0.00     0.074 A 
ATOM     66  C   UNL A   1      43.024  30.286  36.449  1.00  0.00     0.031 C 
ATOM     67  C   UNL A   1      43.353  28.883  34.432  1.00  0.00     0.034 A 
BRANCH  54  68
ATOM     68  C   UNL A   1      40.857  27.478  28.955  1.00  0.00     0.023 A 
ATOM     69  C   UNL A   1      39.898  26.458  28.789  1.00  0.00     0.012 A 
ATOM     70  C   UNL A   1      41.802  27.709  27.935  1.00  0.00     0.148 A 
ATOM     71  C   UNL A   1      39.902  25.656  27.649  1.00  0.00     0.002 A 
ATOM     72  C   UNL A   1      41.769  26.936  26.779  1.00  0.00     0.091 A 
ATOM     73  F   UNL A   1      42.715  28.672  28.116  1.00  0.00    -0.205 F 
ATOM     74  C   UNL A   1      40.829  25.902  26.641  1.00  0.00     0.022 A 
BRANCH  72  75
ATOM     75  S   UNL A   1      42.866  27.228  25.387  1.00  0.00     0.127 S 
ATOM     76  O   UNL A   1      42.774  25.956  24.668  1.00  0.00    -0.237 OA
ATOM     77  O   UNL A   1      42.212  28.354  24.714  1.00  0.00    -0.237 OA
ATOM     78  O   UNL A   1      44.168  27.531  25.954  1.00  0.00    -0.744 OA
ENDBRANCH  72  75
ENDBRANCH  54  68
BRANCH  55  79
ATOM     79  C   UNL A   1      40.038  33.194  37.103  1.00  0.00     0.023 A 
ATOM     80  C   UNL A   1      39.003  32.905  38.015  1.00  0.00     0.012 A 
ATOM     81  C   UNL A   1      40.930  34.245  37.389  1.00  0.00     0.148 A 
ATOM     82  C   UNL A   1      38.837  33.671  39.169  1.00  0.00     0.002 A 
ATOM     83  C   UNL A   1      40.795  34.967  38.569  1.00  0.00     0.091 A 
ATOM     84  F   UNL A   1      41.902  34.510  36.505  1.00  0.00    -0.205 F 
ATOM     85  C   UNL A   1      39.737  34.695  39.451  1.00  0.00     0.022 A 
BRANCH  83  86
ATOM     86  S   UNL A   1      41.989  36.209  39.076  1.00  0.00     0.127 S 
ATOM     87  O   UNL A   1      41.884  37.184  37.988  1.00  0.00    -0.237 OA
ATOM     88  O   UNL A   1      41.432  36.657  40.356  1.00  0.00    -0.237 OA
ATOM     89  O   UNL A   1      43.260  35.519  39.184  1.00  0.00    -0.744 OA
ENDBRANCH  83  86
ENDBRANCH  55  79
BRANCH  67  90
ATOM     90  C   UNL A   1      44.570  28.281  35.087  1.00  0.00     0.023 A 
ATOM     91  C   UNL A   1      45.826  28.905  34.953  1.00  0.00     0.012 A 
ATOM     92  C   UNL A   1      44.453  27.131  35.894  1.00  0.00     0.148 A 
ATOM     93  C   UNL A   1      46.953  28.375  35.582  1.00  0.00     0.002 A 
ATOM     94  C   UNL A   1      45.569  26.639  36.560  1.00  0.00     0.091 A 
ATOM     95  F   UNL A   1      43.254  26.541  35.996  1.00  0.00    -0.205 F 
ATOM     96  C   UNL A   1      46.823  27.251  36.393  1.00  0.00     0.022 A 
BRANCH  94  97
ATOM     97  S   UNL A   1      45.479  25.257  37.704  1.00  0.00     0.127 S 
ATOM     98  O   UNL A   1      44.888  24.215  36.865  1.00  0.00    -0.237 OA
ATOM     99  O   UNL A   1      46.886  25.043  38.041  1.00  0.00    -0.237 OA
ATOM    100  O   UNL A   1      44.652  25.707  38.815  1.00  0.00    -0.744 OA
ENDBRANCH  94  97
ENDBRANCH  67  90
ENDBRANCH  41  42
ENDBRANCH  33  36
ENDBRANCH  31  32
ENDBRANCH  30  31
ENDBRANCH   1  30
TORSDOF 19
ENDMDL
