MODEL 1
REMARK VINA RESULT:     -12.2      0.000      0.000
REMARK SMILES O=C(NCCCCNC(=O)c1ccc(-c2c3nc(c(-c4cccc(S(=O)(=O)[O-])c4F)c4ccc([nH]4)c(-c4cccc(S(=O)(=O)[O-])c4F)c4nc(c(-c5cccc(S(=O)(=O)[O-])c5F)c5ccc2[nH]5)C=C4)C=C3)cc1)c1ccc(Cc2nc3ccccc3s2)cc1
REMARK SMILES IDX 6 1 5 2 4 3 3 4 1 5 2 6 74 8 75 9 89 10 76 11 88 12 77 13
REMARK SMILES IDX 78 14 79 15 80 16 87 17 81 18 86 19 82 20 85 21 83 22 84 23
REMARK SMILES IDX 7 24 8 25 9 26 10 28 11 29 12 30 73 31 13 32 72 33 14 34
REMARK SMILES IDX 15 35 16 36 66 37 17 38 71 39 65 40 67 41 18 42 70 43 64 44
REMARK SMILES IDX 63 45 19 47 51 48 31 49 50 50 32 51 35 52 49 53 68 54 33 55
REMARK SMILES IDX 34 56 48 58 69 59 36 60 20 61 21 62 29 63 22 64 24 65 30 66
REMARK SMILES IDX 23 67 25 68 26 69 27 70 28 71 52 72 53 73 61 74 54 75 56 76
REMARK SMILES IDX 62 77 55 78 57 79 58 80 59 81 60 82 37 83 38 84 46 85 39 86
REMARK SMILES IDX 41 87 47 88 40 89 42 90 43 91 44 92 45 93
REMARK H PARENT 3 7 8 27 67 46 35 57
REMARK Flexibility Score: inf
ROOT
ATOM      1  C   UNL A   1      33.510  28.383  25.770  1.00  0.00     0.023 C 
ENDROOT
BRANCH   1   2
ATOM      2  C   UNL A   1      32.857  29.329  24.763  1.00  0.00     0.023 C 
BRANCH   2   3
ATOM      3  C   UNL A   1      31.354  29.532  24.927  1.00  0.00     0.116 C 
BRANCH   3   4
ATOM      4  N   UNL A   1      30.683  29.852  23.678  1.00  0.00    -0.352 N 
ATOM      5  O   UNL A   1      29.818  29.446  21.625  1.00  0.00    -0.269 OA
ATOM      6  C   UNL A   1      30.287  29.009  22.664  1.00  0.00     0.251 C 
ATOM      7  H   UNL A   1      30.481  30.806  23.538  1.00  0.00     0.163 HD
BRANCH   6   8
ATOM      8  C   UNL A   1      30.470  27.552  22.826  1.00  0.00     0.039 A 
ATOM      9  C   UNL A   1      29.665  26.822  23.703  1.00  0.00     0.014 A 
ATOM     10  C   UNL A   1      31.492  26.928  22.109  1.00  0.00     0.014 A 
ATOM     11  C   UNL A   1      29.953  25.480  23.945  1.00  0.00     0.005 A 
ATOM     12  C   UNL A   1      31.772  25.583  22.346  1.00  0.00     0.005 A 
ATOM     13  C   UNL A   1      31.027  24.857  23.288  1.00  0.00    -0.041 A 
BRANCH  13  14
ATOM     14  C   UNL A   1      31.441  23.452  23.671  1.00  0.00     0.103 C 
BRANCH  14  15
ATOM     15  C   UNL A   1      32.875  23.370  24.129  1.00  0.00     0.098 A 
ATOM     16  N   UNL A   1      33.810  22.635  23.564  1.00  0.00    -0.241 NA
ATOM     17  S   UNL A   1      33.384  24.268  25.505  1.00  0.00    -0.118 S 
ATOM     18  C   UNL A   1      35.018  22.806  24.212  1.00  0.00     0.082 A 
ATOM     19  C   UNL A   1      34.986  23.662  25.313  1.00  0.00     0.055 A 
ATOM     20  C   UNL A   1      36.239  22.199  23.856  1.00  0.00     0.030 A 
ATOM     21  C   UNL A   1      36.134  23.927  26.078  1.00  0.00     0.021 A 
ATOM     22  C   UNL A   1      37.390  22.459  24.608  1.00  0.00     0.002 A 
ATOM     23  C   UNL A   1      37.335  23.310  25.706  1.00  0.00     0.002 A 
ENDBRANCH  14  15
ENDBRANCH  13  14
ENDBRANCH   6   8
ENDBRANCH   3   4
ENDBRANCH   2   3
ENDBRANCH   1   2
BRANCH   1  24
ATOM     24  C   UNL A   1      33.391  28.785  27.236  1.00  0.00     0.116 C 
BRANCH  24  25
ATOM     25  N   UNL A   1      33.521  30.219  27.456  1.00  0.00    -0.352 N 
ATOM     26  C   UNL A   1      34.565  30.929  28.002  1.00  0.00     0.251 C 
ATOM     27  H   UNL A   1      32.748  30.759  27.173  1.00  0.00     0.163 HD
ATOM     28  O   UNL A   1      34.446  32.136  28.198  1.00  0.00    -0.269 OA
BRANCH  26  29
ATOM     29  C   UNL A   1      35.817  30.237  28.387  1.00  0.00     0.039 A 
ATOM     30  C   UNL A   1      36.887  30.231  27.487  1.00  0.00     0.014 A 
ATOM     31  C   UNL A   1      35.945  29.612  29.629  1.00  0.00     0.014 A 
ATOM     32  C   UNL A   1      38.111  29.670  27.864  1.00  0.00     0.010 A 
ATOM     33  C   UNL A   1      37.184  29.115  30.029  1.00  0.00     0.010 A 
ATOM     34  C   UNL A   1      38.282  29.143  29.154  1.00  0.00    -0.014 A 
BRANCH  34  35
ATOM     35  C   UNL A   1      39.603  28.647  29.623  1.00  0.00     0.031 A 
ATOM     36  C   UNL A   1      40.343  29.370  30.718  1.00  0.00     0.074 A 
ATOM     37  C   UNL A   1      40.190  27.614  28.985  1.00  0.00     0.049 A 
ATOM     38  N   UNL A   1      41.537  29.137  31.197  1.00  0.00    -0.248 NA
ATOM     39  C   UNL A   1      39.665  30.522  31.333  1.00  0.00     0.031 C 
ATOM     40  C   UNL A   1      39.619  26.883  27.852  1.00  0.00     0.029 A 
ATOM     41  N   UNL A   1      41.415  27.021  29.175  1.00  0.00    -0.354 N 
ATOM     42  C   UNL A   1      41.775  30.138  32.130  1.00  0.00     0.074 A 
ATOM     43  C   UNL A   1      40.607  30.993  32.139  1.00  0.00     0.031 C 
ATOM     44  C   UNL A   1      40.492  25.948  27.444  1.00  0.00     0.029 A 
ATOM     45  C   UNL A   1      41.694  26.026  28.268  1.00  0.00     0.049 A 
ATOM     46  H   UNL A   1      42.035  27.285  29.893  1.00  0.00     0.167 HD
ATOM     47  C   UNL A   1      42.855  30.317  32.927  1.00  0.00     0.034 A 
ATOM     48  C   UNL A   1      42.797  25.266  28.110  1.00  0.00     0.034 A 
ATOM     49  C   UNL A   1      43.984  29.428  32.968  1.00  0.00     0.049 A 
ATOM     50  C   UNL A   1      43.954  25.445  29.056  1.00  0.00     0.074 A 
ATOM     51  C   UNL A   1      45.064  29.451  33.832  1.00  0.00     0.029 A 
ATOM     52  N   UNL A   1      44.182  28.358  32.110  1.00  0.00    -0.354 N 
ATOM     53  N   UNL A   1      44.075  26.275  30.063  1.00  0.00    -0.248 NA
ATOM     54  C   UNL A   1      45.111  24.556  28.870  1.00  0.00     0.031 C 
ATOM     55  C   UNL A   1      45.924  28.405  33.485  1.00  0.00     0.029 A 
ATOM     56  C   UNL A   1      45.371  27.721  32.415  1.00  0.00     0.049 A 
ATOM     57  H   UNL A   1      43.566  28.091  31.389  1.00  0.00     0.167 HD
ATOM     58  C   UNL A   1      45.300  25.985  30.651  1.00  0.00     0.074 A 
ATOM     59  C   UNL A   1      45.875  24.888  29.902  1.00  0.00     0.031 C 
ATOM     60  C   UNL A   1      45.904  26.587  31.705  1.00  0.00     0.034 A 
BRANCH  47  61
ATOM     61  C   UNL A   1      42.847  31.488  33.874  1.00  0.00     0.023 A 
ATOM     62  C   UNL A   1      43.302  32.744  33.425  1.00  0.00     0.012 A 
ATOM     63  C   UNL A   1      42.316  31.367  35.173  1.00  0.00     0.148 A 
ATOM     64  C   UNL A   1      43.253  33.857  34.263  1.00  0.00     0.002 A 
ATOM     65  C   UNL A   1      42.235  32.490  35.989  1.00  0.00     0.091 A 
ATOM     66  F   UNL A   1      41.909  30.159  35.588  1.00  0.00    -0.205 F 
ATOM     67  C   UNL A   1      42.710  33.733  35.538  1.00  0.00     0.022 A 
BRANCH  65  68
ATOM     68  S   UNL A   1      41.482  32.449  37.619  1.00  0.00     0.127 S 
ATOM     69  O   UNL A   1      41.578  33.851  38.023  1.00  0.00    -0.237 OA
ATOM     70  O   UNL A   1      40.124  31.993  37.322  1.00  0.00    -0.237 OA
ATOM     71  O   UNL A   1      42.277  31.516  38.405  1.00  0.00    -0.744 OA
ENDBRANCH  65  68
ENDBRANCH  47  61
BRANCH  48  72
ATOM     72  C   UNL A   1      42.834  24.212  27.056  1.00  0.00     0.023 A 
ATOM     73  C   UNL A   1      43.548  24.455  25.866  1.00  0.00     0.012 A 
ATOM     74  C   UNL A   1      42.187  22.973  27.226  1.00  0.00     0.148 A 
ATOM     75  C   UNL A   1      43.589  23.499  24.852  1.00  0.00     0.002 A 
ATOM     76  C   UNL A   1      42.276  22.004  26.233  1.00  0.00     0.091 A 
ATOM     77  F   UNL A   1      41.497  22.764  28.356  1.00  0.00    -0.205 F 
ATOM     78  C   UNL A   1      42.963  22.270  25.038  1.00  0.00     0.022 A 
BRANCH  76  79
ATOM     79  S   UNL A   1      41.610  20.350  26.453  1.00  0.00     0.127 S 
ATOM     80  O   UNL A   1      40.181  20.574  26.259  1.00  0.00    -0.237 OA
ATOM     81  O   UNL A   1      42.268  19.605  25.379  1.00  0.00    -0.237 OA
ATOM     82  O   UNL A   1      42.020  19.947  27.792  1.00  0.00    -0.744 OA
ENDBRANCH  76  79
ENDBRANCH  48  72
BRANCH  60  83
ATOM     83  C   UNL A   1      47.241  26.056  32.146  1.00  0.00     0.023 A 
ATOM     84  C   UNL A   1      47.311  25.160  33.231  1.00  0.00     0.012 A 
ATOM     85  C   UNL A   1      48.414  26.373  31.433  1.00  0.00     0.148 A 
ATOM     86  C   UNL A   1      48.533  24.611  33.618  1.00  0.00     0.002 A 
ATOM     87  C   UNL A   1      49.621  25.785  31.795  1.00  0.00     0.091 A 
ATOM     88  F   UNL A   1      48.330  27.242  30.416  1.00  0.00    -0.205 F 
ATOM     89  C   UNL A   1      49.684  24.912  32.892  1.00  0.00     0.022 A 
BRANCH  87  90
ATOM     90  S   UNL A   1      51.132  26.045  30.858  1.00  0.00     0.127 S 
ATOM     91  O   UNL A   1      52.088  25.225  31.600  1.00  0.00    -0.237 OA
ATOM     92  O   UNL A   1      50.776  25.522  29.538  1.00  0.00    -0.237 OA
ATOM     93  O   UNL A   1      51.378  27.481  30.888  1.00  0.00    -0.744 OA
ENDBRANCH  87  90
ENDBRANCH  60  83
ENDBRANCH  34  35
ENDBRANCH  26  29
ENDBRANCH  24  25
ENDBRANCH   1  24
TORSDOF 16
ENDMDL
MODEL 2
REMARK VINA RESULT:     -12.1      3.836      8.928
REMARK SMILES O=C(NCCCCNC(=O)c1ccc(-c2c3nc(c(-c4cccc(S(=O)(=O)[O-])c4F)c4ccc([nH]4)c(-c4cccc(S(=O)(=O)[O-])c4F)c4nc(c(-c5cccc(S(=O)(=O)[O-])c5F)c5ccc2[nH]5)C=C4)C=C3)cc1)c1ccc(Cc2nc3ccccc3s2)cc1
REMARK SMILES IDX 6 1 5 2 4 3 3 4 1 5 2 6 74 8 75 9 89 10 76 11 88 12 77 13
REMARK SMILES IDX 78 14 79 15 80 16 87 17 81 18 86 19 82 20 85 21 83 22 84 23
REMARK SMILES IDX 7 24 8 25 9 26 10 28 11 29 12 30 73 31 13 32 72 33 14 34
REMARK SMILES IDX 15 35 16 36 66 37 17 38 71 39 65 40 67 41 18 42 70 43 64 44
REMARK SMILES IDX 63 45 19 47 51 48 31 49 50 50 32 51 35 52 49 53 68 54 33 55
REMARK SMILES IDX 34 56 48 58 69 59 36 60 20 61 21 62 29 63 22 64 24 65 30 66
REMARK SMILES IDX 23 67 25 68 26 69 27 70 28 71 52 72 53 73 61 74 54 75 56 76
REMARK SMILES IDX 62 77 55 78 57 79 58 80 59 81 60 82 37 83 38 84 46 85 39 86
REMARK SMILES IDX 41 87 47 88 40 89 42 90 43 91 44 92 45 93
REMARK H PARENT 3 7 8 27 67 46 35 57
REMARK Flexibility Score: inf
ROOT
ATOM      1  C   UNL A   1      31.774  31.597  26.854  1.00  0.00     0.023 C 
ENDROOT
BRANCH   1   2
ATOM      2  C   UNL A   1      32.096  30.119  26.644  1.00  0.00     0.023 C 
BRANCH   2   3
ATOM      3  C   UNL A   1      32.193  29.665  25.190  1.00  0.00     0.116 C 
BRANCH   3   4
ATOM      4  N   UNL A   1      30.989  29.943  24.425  1.00  0.00    -0.352 N 
ATOM      5  O   UNL A   1      29.312  29.508  22.965  1.00  0.00    -0.269 OA
ATOM      6  C   UNL A   1      30.253  29.096  23.627  1.00  0.00     0.251 C 
ATOM      7  H   UNL A   1      30.651  30.866  24.486  1.00  0.00     0.163 HD
BRANCH   6   8
ATOM      8  C   UNL A   1      30.634  27.672  23.543  1.00  0.00     0.039 A 
ATOM      9  C   UNL A   1      31.290  27.171  22.416  1.00  0.00     0.014 A 
ATOM     10  C   UNL A   1      30.291  26.829  24.601  1.00  0.00     0.014 A 
ATOM     11  C   UNL A   1      31.507  25.799  22.300  1.00  0.00     0.005 A 
ATOM     12  C   UNL A   1      30.517  25.458  24.487  1.00  0.00     0.005 A 
ATOM     13  C   UNL A   1      31.097  24.928  23.323  1.00  0.00    -0.041 A 
BRANCH  13  14
ATOM     14  C   UNL A   1      31.184  23.430  23.127  1.00  0.00     0.103 C 
BRANCH  14  15
ATOM     15  C   UNL A   1      32.520  22.864  23.536  1.00  0.00     0.098 A 
ATOM     16  N   UNL A   1      33.689  23.388  23.234  1.00  0.00    -0.241 NA
ATOM     17  S   UNL A   1      32.587  21.409  24.452  1.00  0.00    -0.118 S 
ATOM     18  C   UNL A   1      34.712  22.638  23.783  1.00  0.00     0.082 A 
ATOM     19  C   UNL A   1      34.307  21.503  24.485  1.00  0.00     0.055 A 
ATOM     20  C   UNL A   1      36.089  22.926  23.687  1.00  0.00     0.030 A 
ATOM     21  C   UNL A   1      35.234  20.636  25.089  1.00  0.00     0.021 A 
ATOM     22  C   UNL A   1      37.020  22.073  24.289  1.00  0.00     0.002 A 
ATOM     23  C   UNL A   1      36.595  20.942  24.979  1.00  0.00     0.002 A 
ENDBRANCH  14  15
ENDBRANCH  13  14
ENDBRANCH   6   8
ENDBRANCH   3   4
ENDBRANCH   2   3
ENDBRANCH   1   2
BRANCH   1  24
ATOM     24  C   UNL A   1      32.951  32.487  27.242  1.00  0.00     0.116 C 
BRANCH  24  25
ATOM     25  N   UNL A   1      32.561  33.844  27.594  1.00  0.00    -0.352 N 
ATOM     26  C   UNL A   1      33.072  34.678  28.562  1.00  0.00     0.251 C 
ATOM     27  H   UNL A   1      31.823  34.221  27.062  1.00  0.00     0.163 HD
ATOM     28  O   UNL A   1      32.537  35.763  28.777  1.00  0.00    -0.269 OA
BRANCH  26  29
ATOM     29  C   UNL A   1      34.240  34.256  29.369  1.00  0.00     0.039 A 
ATOM     30  C   UNL A   1      34.021  33.528  30.542  1.00  0.00     0.014 A 
ATOM     31  C   UNL A   1      35.543  34.561  28.969  1.00  0.00     0.014 A 
ATOM     32  C   UNL A   1      35.109  33.035  31.269  1.00  0.00     0.010 A 
ATOM     33  C   UNL A   1      36.624  34.011  29.655  1.00  0.00     0.010 A 
ATOM     34  C   UNL A   1      36.419  33.239  30.810  1.00  0.00    -0.014 A 
BRANCH  34  35
ATOM     35  C   UNL A   1      37.589  32.628  31.496  1.00  0.00     0.031 A 
ATOM     36  C   UNL A   1      38.334  31.484  30.860  1.00  0.00     0.074 A 
ATOM     37  C   UNL A   1      37.909  33.024  32.745  1.00  0.00     0.049 A 
ATOM     38  N   UNL A   1      39.318  30.772  31.343  1.00  0.00    -0.248 NA
ATOM     39  C   UNL A   1      37.896  31.067  29.517  1.00  0.00     0.031 C 
ATOM     40  C   UNL A   1      37.211  34.061  33.509  1.00  0.00     0.029 A 
ATOM     41  N   UNL A   1      38.881  32.579  33.607  1.00  0.00    -0.354 N 
ATOM     42  C   UNL A   1      39.585  29.795  30.392  1.00  0.00     0.074 A 
ATOM     43  C   UNL A   1      38.647  29.994  29.308  1.00  0.00     0.031 C 
ATOM     44  C   UNL A   1      37.772  34.166  34.725  1.00  0.00     0.029 A 
ATOM     45  C   UNL A   1      38.852  33.191  34.838  1.00  0.00     0.049 A 
ATOM     46  H   UNL A   1      39.538  31.886  33.366  1.00  0.00     0.167 HD
ATOM     47  C   UNL A   1      40.540  28.836  30.405  1.00  0.00     0.034 A 
ATOM     48  C   UNL A   1      39.602  32.985  35.939  1.00  0.00     0.034 A 
ATOM     49  C   UNL A   1      41.518  28.684  31.449  1.00  0.00     0.049 A 
ATOM     50  C   UNL A   1      40.701  31.957  35.897  1.00  0.00     0.074 A 
ATOM     51  C   UNL A   1      42.603  27.827  31.490  1.00  0.00     0.029 A 
ATOM     52  N   UNL A   1      41.528  29.400  32.635  1.00  0.00    -0.354 N 
ATOM     53  N   UNL A   1      41.061  31.175  34.909  1.00  0.00    -0.248 NA
ATOM     54  C   UNL A   1      41.522  31.809  37.109  1.00  0.00     0.031 C 
ATOM     55  C   UNL A   1      43.262  28.015  32.710  1.00  0.00     0.029 A 
ATOM     56  C   UNL A   1      42.593  28.998  33.421  1.00  0.00     0.049 A 
ATOM     57  H   UNL A   1      40.873  30.093  32.882  1.00  0.00     0.167 HD
ATOM     58  C   UNL A   1      42.169  30.471  35.365  1.00  0.00     0.074 A 
ATOM     59  C   UNL A   1      42.436  30.934  36.711  1.00  0.00     0.031 C 
ATOM     60  C   UNL A   1      42.890  29.513  34.732  1.00  0.00     0.034 A 
BRANCH  47  61
ATOM     61  C   UNL A   1      40.624  27.906  29.224  1.00  0.00     0.023 A 
ATOM     62  C   UNL A   1      39.754  26.799  29.151  1.00  0.00     0.012 A 
ATOM     63  C   UNL A   1      41.498  28.173  28.151  1.00  0.00     0.148 A 
ATOM     64  C   UNL A   1      39.772  25.955  28.042  1.00  0.00     0.002 A 
ATOM     65  C   UNL A   1      41.481  27.349  27.031  1.00  0.00     0.091 A 
ATOM     66  F   UNL A   1      42.332  29.218  28.249  1.00  0.00    -0.205 F 
ATOM     67  C   UNL A   1      40.625  26.236  26.979  1.00  0.00     0.022 A 
BRANCH  65  68
ATOM     68  S   UNL A   1      42.488  27.670  25.578  1.00  0.00     0.127 S 
ATOM     69  O   UNL A   1      43.827  27.755  26.160  1.00  0.00    -0.237 OA
ATOM     70  O   UNL A   1      42.251  26.476  24.768  1.00  0.00    -0.237 OA
ATOM     71  O   UNL A   1      41.977  28.905  25.002  1.00  0.00    -0.744 OA
ENDBRANCH  65  68
ENDBRANCH  47  61
BRANCH  48  72
ATOM     72  C   UNL A   1      39.391  33.822  37.155  1.00  0.00     0.023 A 
ATOM     73  C   UNL A   1      39.828  35.161  37.152  1.00  0.00     0.012 A 
ATOM     74  C   UNL A   1      38.751  33.312  38.301  1.00  0.00     0.148 A 
ATOM     75  C   UNL A   1      39.662  35.967  38.277  1.00  0.00     0.002 A 
ATOM     76  C   UNL A   1      38.542  34.137  39.401  1.00  0.00     0.091 A 
ATOM     77  F   UNL A   1      38.358  32.031  38.295  1.00  0.00    -0.205 F 
ATOM     78  C   UNL A   1      39.010  35.460  39.398  1.00  0.00     0.022 A 
BRANCH  76  79
ATOM     79  S   UNL A   1      37.594  33.598  40.829  1.00  0.00     0.127 S 
ATOM     80  O   UNL A   1      37.425  34.846  41.566  1.00  0.00    -0.237 OA
ATOM     81  O   UNL A   1      36.374  33.077  40.212  1.00  0.00    -0.237 OA
ATOM     82  O   UNL A   1      38.416  32.581  41.472  1.00  0.00    -0.744 OA
ENDBRANCH  76  79
ENDBRANCH  48  72
BRANCH  60  83
ATOM     83  C   UNL A   1      44.063  28.919  35.464  1.00  0.00     0.023 A 
ATOM     84  C   UNL A   1      45.339  29.500  35.322  1.00  0.00     0.012 A 
ATOM     85  C   UNL A   1      43.887  27.844  36.358  1.00  0.00     0.148 A 
ATOM     86  C   UNL A   1      46.428  29.001  36.037  1.00  0.00     0.002 A 
ATOM     87  C   UNL A   1      44.968  27.382  37.101  1.00  0.00     0.091 A 
ATOM     88  F   UNL A   1      42.670  27.292  36.464  1.00  0.00    -0.205 F 
ATOM     89  C   UNL A   1      46.239  27.953  36.935  1.00  0.00     0.022 A 
BRANCH  87  90
ATOM     90  S   UNL A   1      44.794  26.101  38.348  1.00  0.00     0.127 S 
ATOM     91  O   UNL A   1      43.784  26.679  39.233  1.00  0.00    -0.237 OA
ATOM     92  O   UNL A   1      44.331  24.957  37.560  1.00  0.00    -0.237 OA
ATOM     93  O   UNL A   1      46.118  25.930  38.933  1.00  0.00    -0.744 OA
ENDBRANCH  87  90
ENDBRANCH  60  83
ENDBRANCH  34  35
ENDBRANCH  26  29
ENDBRANCH  24  25
ENDBRANCH   1  24
TORSDOF 16
ENDMDL
MODEL 3
REMARK VINA RESULT:     -12.0      4.014      9.464
REMARK SMILES O=C(NCCCCNC(=O)c1ccc(-c2c3nc(c(-c4cccc(S(=O)(=O)[O-])c4F)c4ccc([nH]4)c(-c4cccc(S(=O)(=O)[O-])c4F)c4nc(c(-c5cccc(S(=O)(=O)[O-])c5F)c5ccc2[nH]5)C=C4)C=C3)cc1)c1ccc(Cc2nc3ccccc3s2)cc1
REMARK SMILES IDX 6 1 5 2 4 3 3 4 1 5 2 6 74 8 75 9 89 10 76 11 88 12 77 13
REMARK SMILES IDX 78 14 79 15 80 16 87 17 81 18 86 19 82 20 85 21 83 22 84 23
REMARK SMILES IDX 7 24 8 25 9 26 10 28 11 29 12 30 73 31 13 32 72 33 14 34
REMARK SMILES IDX 15 35 16 36 66 37 17 38 71 39 65 40 67 41 18 42 70 43 64 44
REMARK SMILES IDX 63 45 19 47 51 48 31 49 50 50 32 51 35 52 49 53 68 54 33 55
REMARK SMILES IDX 34 56 48 58 69 59 36 60 20 61 21 62 29 63 22 64 24 65 30 66
REMARK SMILES IDX 23 67 25 68 26 69 27 70 28 71 52 72 53 73 61 74 54 75 56 76
REMARK SMILES IDX 62 77 55 78 57 79 58 80 59 81 60 82 37 83 38 84 46 85 39 86
REMARK SMILES IDX 41 87 47 88 40 89 42 90 43 91 44 92 45 93
REMARK H PARENT 3 7 8 27 67 46 35 57
REMARK Flexibility Score: inf
ROOT
ATOM      1  C   UNL A   1      35.968  22.794  24.658  1.00  0.00     0.023 C 
ENDROOT
BRANCH   1   2
ATOM      2  C   UNL A   1      35.816  21.330  25.070  1.00  0.00     0.023 C 
BRANCH   2   3
ATOM      3  C   UNL A   1      34.785  21.055  26.161  1.00  0.00     0.116 C 
BRANCH   3   4
ATOM      4  N   UNL A   1      33.921  19.927  25.857  1.00  0.00    -0.352 N 
ATOM      5  O   UNL A   1      32.048  18.889  25.119  1.00  0.00    -0.269 OA
ATOM      6  C   UNL A   1      32.704  19.915  25.213  1.00  0.00     0.251 C 
ATOM      7  H   UNL A   1      34.251  19.048  26.152  1.00  0.00     0.163 HD
BRANCH   6   8
ATOM      8  C   UNL A   1      32.169  21.175  24.659  1.00  0.00     0.039 A 
ATOM      9  C   UNL A   1      32.426  21.543  23.336  1.00  0.00     0.014 A 
ATOM     10  C   UNL A   1      31.430  22.009  25.500  1.00  0.00     0.014 A 
ATOM     11  C   UNL A   1      32.035  22.802  22.884  1.00  0.00     0.005 A 
ATOM     12  C   UNL A   1      31.031  23.264  25.042  1.00  0.00     0.005 A 
ATOM     13  C   UNL A   1      31.358  23.683  23.742  1.00  0.00    -0.041 A 
BRANCH  13  14
ATOM     14  C   UNL A   1      31.078  25.105  23.306  1.00  0.00     0.103 C 
BRANCH  14  15
ATOM     15  C   UNL A   1      31.700  26.130  24.220  1.00  0.00     0.098 A 
ATOM     16  N   UNL A   1      31.032  27.000  24.950  1.00  0.00    -0.241 NA
ATOM     17  S   UNL A   1      33.413  26.235  24.345  1.00  0.00    -0.118 S 
ATOM     18  C   UNL A   1      31.901  27.777  25.692  1.00  0.00     0.082 A 
ATOM     19  C   UNL A   1      33.256  27.512  25.491  1.00  0.00     0.055 A 
ATOM     20  C   UNL A   1      31.531  28.785  26.606  1.00  0.00     0.030 A 
ATOM     21  C   UNL A   1      34.258  28.228  26.167  1.00  0.00     0.021 A 
ATOM     22  C   UNL A   1      32.521  29.501  27.288  1.00  0.00     0.002 A 
ATOM     23  C   UNL A   1      33.866  29.225  27.068  1.00  0.00     0.002 A 
ENDBRANCH  14  15
ENDBRANCH  13  14
ENDBRANCH   6   8
ENDBRANCH   3   4
ENDBRANCH   2   3
ENDBRANCH   1   2
BRANCH   1  24
ATOM     24  C   UNL A   1      37.332  23.423  24.926  1.00  0.00     0.116 C 
BRANCH  24  25
ATOM     25  N   UNL A   1      38.281  22.508  25.544  1.00  0.00    -0.352 N 
ATOM     26  C   UNL A   1      39.330  22.778  26.392  1.00  0.00     0.251 C 
ATOM     27  H   UNL A   1      38.153  21.558  25.323  1.00  0.00     0.163 HD
ATOM     28  O   UNL A   1      40.087  21.873  26.733  1.00  0.00    -0.269 OA
BRANCH  26  29
ATOM     29  C   UNL A   1      39.569  24.160  26.866  1.00  0.00     0.039 A 
ATOM     30  C   UNL A   1      39.237  24.489  28.184  1.00  0.00     0.014 A 
ATOM     31  C   UNL A   1      40.131  25.126  26.027  1.00  0.00     0.014 A 
ATOM     32  C   UNL A   1      39.542  25.758  28.684  1.00  0.00     0.010 A 
ATOM     33  C   UNL A   1      40.497  26.365  26.546  1.00  0.00     0.010 A 
ATOM     34  C   UNL A   1      40.212  26.694  27.881  1.00  0.00    -0.014 A 
BRANCH  34  35
ATOM     35  C   UNL A   1      40.655  28.007  28.420  1.00  0.00     0.031 A 
ATOM     36  C   UNL A   1      42.120  28.297  28.613  1.00  0.00     0.074 A 
ATOM     37  C   UNL A   1      39.733  28.896  28.846  1.00  0.00     0.049 A 
ATOM     38  N   UNL A   1      42.688  29.347  29.147  1.00  0.00    -0.248 NA
ATOM     39  C   UNL A   1      43.069  27.260  28.175  1.00  0.00     0.031 C 
ATOM     40  C   UNL A   1      38.282  28.701  28.798  1.00  0.00     0.029 A 
ATOM     41  N   UNL A   1      39.880  30.127  29.436  1.00  0.00    -0.354 N 
ATOM     42  C   UNL A   1      44.051  29.078  29.157  1.00  0.00     0.074 A 
ATOM     43  C   UNL A   1      44.225  27.758  28.590  1.00  0.00     0.031 C 
ATOM     44  C   UNL A   1      37.675  29.768  29.341  1.00  0.00     0.029 A 
ATOM     45  C   UNL A   1      38.689  30.713  29.798  1.00  0.00     0.049 A 
ATOM     46  H   UNL A   1      40.755  30.551  29.587  1.00  0.00     0.167 HD
ATOM     47  C   UNL A   1      45.069  29.867  29.575  1.00  0.00     0.034 A 
ATOM     48  C   UNL A   1      38.439  31.875  30.434  1.00  0.00     0.034 A 
ATOM     49  C   UNL A   1      44.901  31.206  30.071  1.00  0.00     0.049 A 
ATOM     50  C   UNL A   1      39.592  32.761  30.825  1.00  0.00     0.074 A 
ATOM     51  C   UNL A   1      45.878  32.130  30.396  1.00  0.00     0.029 A 
ATOM     52  N   UNL A   1      43.680  31.812  30.318  1.00  0.00    -0.354 N 
ATOM     53  N   UNL A   1      40.876  32.570  30.645  1.00  0.00    -0.248 NA
ATOM     54  C   UNL A   1      39.261  34.040  31.471  1.00  0.00     0.031 C 
ATOM     55  C   UNL A   1      45.247  33.291  30.855  1.00  0.00     0.029 A 
ATOM     56  C   UNL A   1      43.877  33.093  30.802  1.00  0.00     0.049 A 
ATOM     57  H   UNL A   1      42.801  31.392  30.171  1.00  0.00     0.167 HD
ATOM     58  C   UNL A   1      41.502  33.716  31.121  1.00  0.00     0.074 A 
ATOM     59  C   UNL A   1      40.455  34.607  31.576  1.00  0.00     0.031 C 
ATOM     60  C   UNL A   1      42.826  33.998  31.191  1.00  0.00     0.034 A 
BRANCH  47  61
ATOM     61  C   UNL A   1      46.471  29.333  29.456  1.00  0.00     0.023 A 
ATOM     62  C   UNL A   1      47.019  28.582  30.516  1.00  0.00     0.012 A 
ATOM     63  C   UNL A   1      47.213  29.499  28.270  1.00  0.00     0.148 A 
ATOM     64  C   UNL A   1      48.293  28.028  30.409  1.00  0.00     0.002 A 
ATOM     65  C   UNL A   1      48.468  28.910  28.156  1.00  0.00     0.091 A 
ATOM     66  F   UNL A   1      46.684  30.234  27.281  1.00  0.00    -0.205 F 
ATOM     67  C   UNL A   1      49.012  28.182  29.227  1.00  0.00     0.022 A 
BRANCH  65  68
ATOM     68  S   UNL A   1      49.440  28.986  26.647  1.00  0.00     0.127 S 
ATOM     69  O   UNL A   1      48.490  28.476  25.659  1.00  0.00    -0.237 OA
ATOM     70  O   UNL A   1      49.726  30.416  26.535  1.00  0.00    -0.237 OA
ATOM     71  O   UNL A   1      50.608  28.150  26.881  1.00  0.00    -0.744 OA
ENDBRANCH  65  68
ENDBRANCH  47  61
BRANCH  48  72
ATOM     72  C   UNL A   1      37.033  32.307  30.678  1.00  0.00     0.023 A 
ATOM     73  C   UNL A   1      36.478  32.146  31.962  1.00  0.00     0.012 A 
ATOM     74  C   UNL A   1      36.252  32.888  29.660  1.00  0.00     0.148 A 
ATOM     75  C   UNL A   1      35.160  32.522  32.221  1.00  0.00     0.002 A 
ATOM     76  C   UNL A   1      34.956  33.311  29.939  1.00  0.00     0.091 A 
ATOM     77  F   UNL A   1      36.789  33.019  28.439  1.00  0.00    -0.205 F 
ATOM     78  C   UNL A   1      34.403  33.114  31.214  1.00  0.00     0.022 A 
BRANCH  76  79
ATOM     79  S   UNL A   1      33.964  34.200  28.734  1.00  0.00     0.127 S 
ATOM     80  O   UNL A   1      34.866  35.277  28.339  1.00  0.00    -0.237 OA
ATOM     81  O   UNL A   1      33.736  33.181  27.709  1.00  0.00    -0.237 OA
ATOM     82  O   UNL A   1      32.761  34.602  29.450  1.00  0.00    -0.744 OA
ENDBRANCH  76  79
ENDBRANCH  48  72
BRANCH  60  83
ATOM     83  C   UNL A   1      43.231  35.337  31.746  1.00  0.00     0.023 A 
ATOM     84  C   UNL A   1      43.379  35.497  33.138  1.00  0.00     0.012 A 
ATOM     85  C   UNL A   1      43.549  36.408  30.887  1.00  0.00     0.148 A 
ATOM     86  C   UNL A   1      43.810  36.713  33.669  1.00  0.00     0.002 A 
ATOM     87  C   UNL A   1      44.022  37.602  31.421  1.00  0.00     0.091 A 
ATOM     88  F   UNL A   1      43.383  36.242  29.568  1.00  0.00    -0.205 F 
ATOM     89  C   UNL A   1      44.144  37.759  32.811  1.00  0.00     0.022 A 
BRANCH  87  90
ATOM     90  S   UNL A   1      44.565  38.965  30.385  1.00  0.00     0.127 S 
ATOM     91  O   UNL A   1      43.346  39.278  29.641  1.00  0.00    -0.237 OA
ATOM     92  O   UNL A   1      44.952  39.975  31.372  1.00  0.00    -0.237 OA
ATOM     93  O   UNL A   1      45.671  38.448  29.591  1.00  0.00    -0.744 OA
ENDBRANCH  87  90
ENDBRANCH  60  83
ENDBRANCH  34  35
ENDBRANCH  26  29
ENDBRANCH  24  25
ENDBRANCH   1  24
TORSDOF 16
ENDMDL
