MODEL 1
REMARK VINA RESULT:     -10.9      0.000      0.000
REMARK SMILES NS(=O)(=O)c1ccc(C#Cc2cc(Cl)cc3c2O[C@H](C(F)(F)F)C(C(=O)NCCCCNC(=O)c2ccc(-c4c5nc(c(-c6cccc(S(=O)(=O)[O-])c6F)c6ccc([nH]6)c(-c6cccc(S(=O)(=O)[O-])c6F)c6nc(c(-c7cccc(S(=O)(=O)[O-])c7F)c7ccc4[nH]7)C=C6)C=C5)cc2)=C3)cc1
REMARK SMILES IDX 29 1 28 2 27 3 25 4 26 5 24 7 11 8 12 9 17 10 13 11 16 12
REMARK SMILES IDX 18 13 14 14 15 15 98 16 19 17 10 18 9 19 8 20 5 21 6 22
REMARK SMILES IDX 100 23 7 24 99 25 2 26 3 27 4 28 1 29 20 32 21 33 22 34
REMARK SMILES IDX 23 35 30 36 31 37 32 38 33 39 34 41 35 42 36 43 97 44 37 45
REMARK SMILES IDX 96 46 38 47 39 48 40 49 90 50 41 51 95 52 89 53 91 54 42 55
REMARK SMILES IDX 94 56 88 57 87 58 43 60 75 61 55 62 74 63 56 64 59 65 73 66
REMARK SMILES IDX 92 67 57 68 58 69 72 71 93 72 60 73 44 74 45 75 53 76 46 77
REMARK SMILES IDX 48 78 54 79 47 80 49 81 50 82 51 83 52 84 76 85 77 86 85 87
REMARK SMILES IDX 78 88 80 89 86 90 79 91 81 92 82 93 83 94 84 95 61 96 62 97
REMARK SMILES IDX 70 98 63 99 65 100 71 101 64 102 66 103 67 104 68 105 69 106
REMARK H PARENT 27 6 1 30 1 31 32 40 91 59 59 70
REMARK Flexibility Score: inf
ROOT
ATOM      1  C   UNL A   1      38.137  31.901  37.095  1.00  0.00     0.023 C 
ENDROOT
BRANCH   1   2
ATOM      2  C   UNL A   1      38.083  32.049  35.579  1.00  0.00     0.116 C 
BRANCH   2   3
ATOM      3  N   UNL A   1      36.954  32.856  35.145  1.00  0.00    -0.352 N 
ATOM      4  C   UNL A   1      36.180  32.955  34.038  1.00  0.00     0.251 C 
ATOM      5  O   UNL A   1      35.255  33.769  34.096  1.00  0.00    -0.270 OA
ATOM      6  H   UNL A   1      36.679  33.498  35.838  1.00  0.00     0.163 HD
BRANCH   4   7
ATOM      7  C   UNL A   1      36.384  32.164  32.788  1.00  0.00     0.067 C 
ATOM      8  C   UNL A   1      36.823  29.625  29.464  1.00  0.00     0.069 A 
ATOM      9  C   UNL A   1      37.965  28.832  29.347  1.00  0.00     0.041 A 
ATOM     10  C   UNL A   1      36.676  30.461  30.578  1.00  0.00     0.143 A 
ATOM     11  C   UNL A   1      38.936  28.870  30.348  1.00  0.00     0.043 A 
ATOM     12  C   UNL A   1      37.639  30.484  31.592  1.00  0.00     0.020 A 
ATOM     13  O   UNL A   1      35.533  31.205  30.650  1.00  0.00    -0.474 OA
ATOM     14  Cl  UNL A   1      40.339  27.885  30.201  1.00  0.00    -0.084 Cl
ATOM     15  C   UNL A   1      38.779  29.684  31.471  1.00  0.00     0.032 A 
ATOM     16  C   UNL A   1      37.411  31.294  32.785  1.00  0.00     0.025 C 
ATOM     17  C   UNL A   1      35.529  32.322  31.568  1.00  0.00     0.314 C 
BRANCH   8  18
ATOM     18  C   UNL A   1      35.811  29.565  28.449  1.00  0.00    -0.058 C 
ATOM     19  C   UNL A   1      34.967  29.509  27.592  1.00  0.00    -0.062 C 
BRANCH  19  20
ATOM     20  C   UNL A   1      33.946  29.478  26.591  1.00  0.00     0.025 A 
ATOM     21  C   UNL A   1      31.888  29.377  24.712  1.00  0.00     0.082 A 
ATOM     22  C   UNL A   1      32.999  28.542  24.566  1.00  0.00     0.023 A 
ATOM     23  C   UNL A   1      31.813  30.286  25.772  1.00  0.00     0.023 A 
ATOM     24  C   UNL A   1      34.029  28.593  25.511  1.00  0.00     0.018 A 
ATOM     25  C   UNL A   1      32.844  30.331  26.712  1.00  0.00     0.018 A 
BRANCH  21  26
ATOM     26  S   UNL A   1      30.558  29.295  23.550  1.00  0.00     0.238 S 
ATOM     27  O   UNL A   1      29.604  30.343  23.825  1.00  0.00    -0.207 OA
ATOM     28  O   UNL A   1      30.170  27.914  23.378  1.00  0.00    -0.207 OA
BRANCH  26  29
ATOM     29  N   UNL A   1      31.317  29.747  22.120  1.00  0.00    -0.225 NA
ATOM     30  H   UNL A   1      31.250  30.757  22.004  1.00  0.00     0.137 HD
ATOM     31  H   UNL A   1      30.864  29.282  21.334  1.00  0.00     0.137 HD
ENDBRANCH  26  29
ENDBRANCH  21  26
ENDBRANCH  19  20
ENDBRANCH   8  18
BRANCH  17  32
ATOM     32  C   UNL A   1      35.845  33.621  30.802  1.00  0.00     0.429 C 
ATOM     33  F   UNL A   1      35.836  33.399  29.464  1.00  0.00    -0.167 F 
ATOM     34  F   UNL A   1      34.940  34.601  31.034  1.00  0.00    -0.167 F 
ATOM     35  F   UNL A   1      37.058  34.127  31.122  1.00  0.00    -0.167 F 
ENDBRANCH  17  32
ENDBRANCH   4   7
ENDBRANCH   2   3
ENDBRANCH   1   2
BRANCH   1  36
ATOM     36  C   UNL A   1      37.811  33.192  37.834  1.00  0.00     0.023 C 
BRANCH  36  37
ATOM     37  C   UNL A   1      38.906  33.675  38.776  1.00  0.00     0.116 C 
BRANCH  37  38
ATOM     38  N   UNL A   1      38.923  35.120  38.978  1.00  0.00    -0.352 N 
ATOM     39  C   UNL A   1      39.586  36.066  38.223  1.00  0.00     0.251 C 
ATOM     40  H   UNL A   1      38.401  35.460  39.741  1.00  0.00     0.163 HD
ATOM     41  O   UNL A   1      39.602  37.244  38.557  1.00  0.00    -0.269 OA
BRANCH  39  42
ATOM     42  C   UNL A   1      40.317  35.594  37.030  1.00  0.00     0.039 A 
ATOM     43  C   UNL A   1      39.638  35.502  35.814  1.00  0.00     0.014 A 
ATOM     44  C   UNL A   1      41.598  35.065  37.178  1.00  0.00     0.014 A 
ATOM     45  C   UNL A   1      40.143  34.673  34.825  1.00  0.00     0.010 A 
ATOM     46  C   UNL A   1      42.159  34.336  36.127  1.00  0.00     0.010 A 
ATOM     47  C   UNL A   1      41.407  34.073  34.969  1.00  0.00    -0.014 A 
BRANCH  47  48
ATOM     48  C   UNL A   1      41.909  33.173  33.899  1.00  0.00     0.031 A 
ATOM     49  C   UNL A   1      42.267  33.701  32.533  1.00  0.00     0.074 A 
ATOM     50  C   UNL A   1      42.083  31.866  34.181  1.00  0.00     0.049 A 
ATOM     51  N   UNL A   1      42.713  33.042  31.493  1.00  0.00    -0.248 NA
ATOM     52  C   UNL A   1      42.108  35.146  32.294  1.00  0.00     0.031 C 
ATOM     53  C   UNL A   1      41.773  31.233  35.466  1.00  0.00     0.029 A 
ATOM     54  N   UNL A   1      42.571  30.839  33.416  1.00  0.00    -0.354 N 
ATOM     55  C   UNL A   1      42.843  33.976  30.471  1.00  0.00     0.074 A 
ATOM     56  C   UNL A   1      42.428  35.252  31.010  1.00  0.00     0.031 C 
ATOM     57  C   UNL A   1      42.115  29.939  35.414  1.00  0.00     0.029 A 
ATOM     58  C   UNL A   1      42.594  29.631  34.072  1.00  0.00     0.049 A 
ATOM     59  H   UNL A   1      42.875  30.954  32.486  1.00  0.00     0.167 HD
ATOM     60  C   UNL A   1      43.283  33.788  29.205  1.00  0.00     0.034 A 
ATOM     61  C   UNL A   1      42.932  28.402  33.643  1.00  0.00     0.034 A 
ATOM     62  C   UNL A   1      43.736  32.527  28.685  1.00  0.00     0.049 A 
ATOM     63  C   UNL A   1      43.393  28.219  32.231  1.00  0.00     0.074 A 
ATOM     64  C   UNL A   1      44.244  32.256  27.425  1.00  0.00     0.029 A 
ATOM     65  N   UNL A   1      43.734  31.331  29.382  1.00  0.00    -0.354 N 
ATOM     66  N   UNL A   1      43.566  29.127  31.303  1.00  0.00    -0.248 NA
ATOM     67  C   UNL A   1      43.719  26.850  31.806  1.00  0.00     0.031 C 
ATOM     68  C   UNL A   1      44.521  30.890  27.352  1.00  0.00     0.029 A 
ATOM     69  C   UNL A   1      44.219  30.317  28.576  1.00  0.00     0.049 A 
ATOM     70  H   UNL A   1      43.433  31.219  30.313  1.00  0.00     0.167 HD
ATOM     71  C   UNL A   1      44.040  28.447  30.190  1.00  0.00     0.074 A 
ATOM     72  C   UNL A   1      44.138  27.049  30.562  1.00  0.00     0.031 C 
ATOM     73  C   UNL A   1      44.353  28.938  28.969  1.00  0.00     0.034 A 
BRANCH  60  74
ATOM     74  C   UNL A   1      43.337  34.972  28.279  1.00  0.00     0.023 A 
ATOM     75  C   UNL A   1      42.155  35.426  27.662  1.00  0.00     0.012 A 
ATOM     76  C   UNL A   1      44.527  35.714  28.132  1.00  0.00     0.148 A 
ATOM     77  C   UNL A   1      42.155  36.600  26.909  1.00  0.00     0.002 A 
ATOM     78  C   UNL A   1      44.514  36.897  27.404  1.00  0.00     0.091 A 
ATOM     79  F   UNL A   1      45.638  35.259  28.727  1.00  0.00    -0.205 F 
ATOM     80  C   UNL A   1      43.330  37.341  26.791  1.00  0.00     0.022 A 
BRANCH  78  81
ATOM     81  S   UNL A   1      45.959  37.948  27.224  1.00  0.00     0.127 S 
ATOM     82  O   UNL A   1      45.429  39.037  26.402  1.00  0.00    -0.237 OA
ATOM     83  O   UNL A   1      46.246  38.314  28.610  1.00  0.00    -0.237 OA
ATOM     84  O   UNL A   1      46.977  37.131  26.580  1.00  0.00    -0.744 OA
ENDBRANCH  78  81
ENDBRANCH  60  74
BRANCH  61  85
ATOM     85  C   UNL A   1      42.857  27.261  34.594  1.00  0.00     0.023 A 
ATOM     86  C   UNL A   1      41.645  26.564  34.741  1.00  0.00     0.012 A 
ATOM     87  C   UNL A   1      44.005  26.811  35.275  1.00  0.00     0.148 A 
ATOM     88  C   UNL A   1      41.575  25.434  35.557  1.00  0.00     0.002 A 
ATOM     89  C   UNL A   1      43.938  25.665  36.055  1.00  0.00     0.091 A 
ATOM     90  F   UNL A   1      45.148  27.490  35.104  1.00  0.00    -0.205 F 
ATOM     91  C   UNL A   1      42.722  24.980  36.204  1.00  0.00     0.022 A 
BRANCH  89  92
ATOM     92  S   UNL A   1      45.378  24.952  36.857  1.00  0.00     0.127 S 
ATOM     93  O   UNL A   1      46.297  24.797  35.732  1.00  0.00    -0.237 OA
ATOM     94  O   UNL A   1      45.738  26.001  37.810  1.00  0.00    -0.237 OA
ATOM     95  O   UNL A   1      44.920  23.709  37.464  1.00  0.00    -0.744 OA
ENDBRANCH  89  92
ENDBRANCH  61  85
BRANCH  73  96
ATOM     96  C   UNL A   1      44.862  27.983  27.927  1.00  0.00     0.023 A 
ATOM     97  C   UNL A   1      46.249  27.787  27.782  1.00  0.00     0.012 A 
ATOM     98  C   UNL A   1      43.963  27.180  27.198  1.00  0.00     0.148 A 
ATOM     99  C   UNL A   1      46.734  26.803  26.922  1.00  0.00     0.002 A 
ATOM    100  C   UNL A   1      44.453  26.180  26.368  1.00  0.00     0.091 A 
ATOM    101  F   UNL A   1      42.649  27.392  27.356  1.00  0.00    -0.205 F 
ATOM    102  C   UNL A   1      45.838  25.992  26.228  1.00  0.00     0.022 A 
BRANCH 100 103
ATOM    103  S   UNL A   1      43.381  25.048  25.478  1.00  0.00     0.127 S 
ATOM    104  O   UNL A   1      42.518  25.972  24.745  1.00  0.00    -0.237 OA
ATOM    105  O   UNL A   1      44.333  24.311  24.648  1.00  0.00    -0.237 OA
ATOM    106  O   UNL A   1      42.706  24.246  26.491  1.00  0.00    -0.744 OA
ENDBRANCH 100 103
ENDBRANCH  73  96
ENDBRANCH  47  48
ENDBRANCH  39  42
ENDBRANCH  37  38
ENDBRANCH  36  37
ENDBRANCH   1  36
TORSDOF 19
ENDMDL
MODEL 2
REMARK VINA RESULT:     -10.7      0.340      7.071
REMARK SMILES NS(=O)(=O)c1ccc(C#Cc2cc(Cl)cc3c2O[C@H](C(F)(F)F)C(C(=O)NCCCCNC(=O)c2ccc(-c4c5nc(c(-c6cccc(S(=O)(=O)[O-])c6F)c6ccc([nH]6)c(-c6cccc(S(=O)(=O)[O-])c6F)c6nc(c(-c7cccc(S(=O)(=O)[O-])c7F)c7ccc4[nH]7)C=C6)C=C5)cc2)=C3)cc1
REMARK SMILES IDX 29 1 28 2 27 3 25 4 26 5 24 7 11 8 12 9 17 10 13 11 16 12
REMARK SMILES IDX 18 13 14 14 15 15 98 16 19 17 10 18 9 19 8 20 5 21 6 22
REMARK SMILES IDX 100 23 7 24 99 25 2 26 3 27 4 28 1 29 20 32 21 33 22 34
REMARK SMILES IDX 23 35 30 36 31 37 32 38 33 39 34 41 35 42 36 43 97 44 37 45
REMARK SMILES IDX 96 46 38 47 39 48 40 49 90 50 41 51 95 52 89 53 91 54 42 55
REMARK SMILES IDX 94 56 88 57 87 58 43 60 75 61 55 62 74 63 56 64 59 65 73 66
REMARK SMILES IDX 92 67 57 68 58 69 72 71 93 72 60 73 44 74 45 75 53 76 46 77
REMARK SMILES IDX 48 78 54 79 47 80 49 81 50 82 51 83 52 84 76 85 77 86 85 87
REMARK SMILES IDX 78 88 80 89 86 90 79 91 81 92 82 93 83 94 84 95 61 96 62 97
REMARK SMILES IDX 70 98 63 99 65 100 71 101 64 102 66 103 67 104 68 105 69 106
REMARK H PARENT 27 6 1 30 1 31 32 40 91 59 59 70
REMARK Flexibility Score: inf
ROOT
ATOM      1  C   UNL A   1      38.698  31.998  36.948  1.00  0.00     0.023 C 
ENDROOT
BRANCH   1   2
ATOM      2  C   UNL A   1      37.870  31.614  35.729  1.00  0.00     0.116 C 
BRANCH   2   3
ATOM      3  N   UNL A   1      37.157  32.750  35.167  1.00  0.00    -0.352 N 
ATOM      4  C   UNL A   1      36.645  33.095  33.962  1.00  0.00     0.251 C 
ATOM      5  O   UNL A   1      36.046  34.173  33.917  1.00  0.00    -0.270 OA
ATOM      6  H   UNL A   1      37.006  33.452  35.840  1.00  0.00     0.163 HD
BRANCH   4   7
ATOM      7  C   UNL A   1      36.768  32.272  32.722  1.00  0.00     0.067 C 
ATOM      8  C   UNL A   1      36.984  29.653  29.438  1.00  0.00     0.069 A 
ATOM      9  C   UNL A   1      38.101  28.831  29.283  1.00  0.00     0.041 A 
ATOM     10  C   UNL A   1      36.911  30.516  30.539  1.00  0.00     0.143 A 
ATOM     11  C   UNL A   1      39.121  28.868  30.233  1.00  0.00     0.043 A 
ATOM     12  C   UNL A   1      37.925  30.538  31.503  1.00  0.00     0.020 A 
ATOM     13  O   UNL A   1      35.791  31.287  30.651  1.00  0.00    -0.474 OA
ATOM     14  Cl  UNL A   1      40.493  27.847  30.040  1.00  0.00    -0.084 Cl
ATOM     15  C   UNL A   1      39.039  29.710  31.344  1.00  0.00     0.032 A 
ATOM     16  C   UNL A   1      37.774  31.379  32.687  1.00  0.00     0.025 C 
ATOM     17  C   UNL A   1      35.857  32.424  31.542  1.00  0.00     0.314 C 
BRANCH   8  18
ATOM     18  C   UNL A   1      35.922  29.595  28.477  1.00  0.00    -0.058 C 
ATOM     19  C   UNL A   1      35.024  29.543  27.677  1.00  0.00    -0.062 C 
BRANCH  19  20
ATOM     20  C   UNL A   1      33.986  29.483  26.694  1.00  0.00     0.025 A 
ATOM     21  C   UNL A   1      31.897  29.331  24.853  1.00  0.00     0.082 A 
ATOM     22  C   UNL A   1      32.990  28.469  24.730  1.00  0.00     0.023 A 
ATOM     23  C   UNL A   1      31.856  30.291  25.868  1.00  0.00     0.023 A 
ATOM     24  C   UNL A   1      34.036  28.546  25.656  1.00  0.00     0.018 A 
ATOM     25  C   UNL A   1      32.902  30.362  26.790  1.00  0.00     0.018 A 
BRANCH  21  26
ATOM     26  S   UNL A   1      30.547  29.218  23.716  1.00  0.00     0.238 S 
ATOM     27  O   UNL A   1      29.690  30.371  23.859  1.00  0.00    -0.207 OA
ATOM     28  O   UNL A   1      30.041  27.866  23.721  1.00  0.00    -0.207 OA
BRANCH  26  29
ATOM     29  N   UNL A   1      31.321  29.419  22.237  1.00  0.00    -0.225 NA
ATOM     30  H   UNL A   1      31.001  28.703  21.586  1.00  0.00     0.137 HD
ATOM     31  H   UNL A   1      32.329  29.335  22.367  1.00  0.00     0.137 HD
ENDBRANCH  26  29
ENDBRANCH  21  26
ENDBRANCH  19  20
ENDBRANCH   8  18
BRANCH  17  32
ATOM     32  C   UNL A   1      36.163  33.699  30.732  1.00  0.00     0.429 C 
ATOM     33  F   UNL A   1      36.092  33.445  29.402  1.00  0.00    -0.167 F 
ATOM     34  F   UNL A   1      35.287  34.700  30.979  1.00  0.00    -0.167 F 
ATOM     35  F   UNL A   1      37.398  34.188  30.988  1.00  0.00    -0.167 F 
ENDBRANCH  17  32
ENDBRANCH   4   7
ENDBRANCH   2   3
ENDBRANCH   1   2
BRANCH   1  36
ATOM     36  C   UNL A   1      38.073  33.120  37.766  1.00  0.00     0.023 C 
BRANCH  36  37
ATOM     37  C   UNL A   1      38.972  33.681  38.861  1.00  0.00     0.116 C 
BRANCH  37  38
ATOM     38  N   UNL A   1      38.913  35.133  38.995  1.00  0.00    -0.352 N 
ATOM     39  C   UNL A   1      39.526  36.076  38.196  1.00  0.00     0.251 C 
ATOM     40  H   UNL A   1      38.373  35.480  39.743  1.00  0.00     0.163 HD
ATOM     41  O   UNL A   1      39.479  37.267  38.474  1.00  0.00    -0.269 OA
BRANCH  39  42
ATOM     42  C   UNL A   1      40.281  35.587  37.025  1.00  0.00     0.039 A 
ATOM     43  C   UNL A   1      39.617  35.442  35.806  1.00  0.00     0.014 A 
ATOM     44  C   UNL A   1      41.574  35.096  37.202  1.00  0.00     0.014 A 
ATOM     45  C   UNL A   1      40.155  34.598  34.847  1.00  0.00     0.010 A 
ATOM     46  C   UNL A   1      42.164  34.351  36.178  1.00  0.00     0.010 A 
ATOM     47  C   UNL A   1      41.431  34.035  35.022  1.00  0.00    -0.014 A 
BRANCH  47  48
ATOM     48  C   UNL A   1      41.968  33.116  33.984  1.00  0.00     0.031 A 
ATOM     49  C   UNL A   1      42.116  31.638  34.245  1.00  0.00     0.074 A 
ATOM     50  C   UNL A   1      42.287  33.620  32.775  1.00  0.00     0.049 A 
ATOM     51  N   UNL A   1      42.572  30.709  33.444  1.00  0.00    -0.248 NA
ATOM     52  C   UNL A   1      41.703  31.132  35.565  1.00  0.00     0.031 C 
ATOM     53  C   UNL A   1      42.189  35.034  32.400  1.00  0.00     0.029 A 
ATOM     54  N   UNL A   1      42.746  33.008  31.638  1.00  0.00    -0.354 N 
ATOM     55  C   UNL A   1      42.546  29.525  34.172  1.00  0.00     0.074 A 
ATOM     56  C   UNL A   1      42.029  29.847  35.484  1.00  0.00     0.031 C 
ATOM     57  C   UNL A   1      42.535  35.173  31.113  1.00  0.00     0.029 A 
ATOM     58  C   UNL A   1      42.954  33.877  30.595  1.00  0.00     0.049 A 
ATOM     59  H   UNL A   1      42.910  32.038  31.575  1.00  0.00     0.167 HD
ATOM     60  C   UNL A   1      42.905  28.282  33.776  1.00  0.00     0.034 A 
ATOM     61  C   UNL A   1      43.455  33.670  29.363  1.00  0.00     0.034 A 
ATOM     62  C   UNL A   1      43.377  27.956  32.459  1.00  0.00     0.049 A 
ATOM     63  C   UNL A   1      43.866  32.289  28.960  1.00  0.00     0.074 A 
ATOM     64  C   UNL A   1      43.718  26.711  31.958  1.00  0.00     0.029 A 
ATOM     65  N   UNL A   1      43.579  28.869  31.438  1.00  0.00    -0.354 N 
ATOM     66  N   UNL A   1      43.773  31.176  29.645  1.00  0.00    -0.248 NA
ATOM     67  C   UNL A   1      44.436  32.125  27.616  1.00  0.00     0.031 C 
ATOM     68  C   UNL A   1      44.156  26.876  30.643  1.00  0.00     0.029 A 
ATOM     69  C   UNL A   1      44.053  28.217  30.313  1.00  0.00     0.049 A 
ATOM     70  H   UNL A   1      43.411  29.837  31.502  1.00  0.00     0.167 HD
ATOM     71  C   UNL A   1      44.253  30.176  28.811  1.00  0.00     0.074 A 
ATOM     72  C   UNL A   1      44.627  30.813  27.563  1.00  0.00     0.031 C 
ATOM     73  C   UNL A   1      44.382  28.853  29.064  1.00  0.00     0.034 A 
BRANCH  60  74
ATOM     74  C   UNL A   1      42.777  27.149  34.759  1.00  0.00     0.023 A 
ATOM     75  C   UNL A   1      41.558  26.450  34.858  1.00  0.00     0.012 A 
ATOM     76  C   UNL A   1      43.899  26.694  35.480  1.00  0.00     0.148 A 
ATOM     77  C   UNL A   1      41.457  25.314  35.661  1.00  0.00     0.002 A 
ATOM     78  C   UNL A   1      43.800  25.546  36.256  1.00  0.00     0.091 A 
ATOM     79  F   UNL A   1      45.046  27.379  35.371  1.00  0.00    -0.205 F 
ATOM     80  C   UNL A   1      42.579  24.856  36.349  1.00  0.00     0.022 A 
BRANCH  78  81
ATOM     81  S   UNL A   1      45.193  24.847  37.148  1.00  0.00     0.127 S 
ATOM     82  O   UNL A   1      44.858  25.191  38.530  1.00  0.00    -0.237 OA
ATOM     83  O   UNL A   1      45.078  23.425  36.829  1.00  0.00    -0.237 OA
ATOM     84  O   UNL A   1      46.381  25.502  36.622  1.00  0.00    -0.744 OA
ENDBRANCH  78  81
ENDBRANCH  60  74
BRANCH  61  85
ATOM     85  C   UNL A   1      43.568  34.821  28.429  1.00  0.00     0.023 A 
ATOM     86  C   UNL A   1      42.432  35.247  27.718  1.00  0.00     0.012 A 
ATOM     87  C   UNL A   1      44.769  35.548  28.319  1.00  0.00     0.148 A 
ATOM     88  C   UNL A   1      42.491  36.381  26.907  1.00  0.00     0.002 A 
ATOM     89  C   UNL A   1      44.812  36.696  27.539  1.00  0.00     0.091 A 
ATOM     90  F   UNL A   1      45.832  35.123  29.018  1.00  0.00    -0.205 F 
ATOM     91  C   UNL A   1      43.675  37.110  26.827  1.00  0.00     0.022 A 
BRANCH  89  92
ATOM     92  S   UNL A   1      46.262  37.749  27.441  1.00  0.00     0.127 S 
ATOM     93  O   UNL A   1      47.298  36.793  27.056  1.00  0.00    -0.237 OA
ATOM     94  O   UNL A   1      45.874  38.694  26.395  1.00  0.00    -0.237 OA
ATOM     95  O   UNL A   1      46.418  38.337  28.766  1.00  0.00    -0.744 OA
ENDBRANCH  89  92
ENDBRANCH  61  85
BRANCH  73  96
ATOM     96  C   UNL A   1      44.924  27.970  27.976  1.00  0.00     0.023 A 
ATOM     97  C   UNL A   1      46.317  27.839  27.818  1.00  0.00     0.012 A 
ATOM     98  C   UNL A   1      44.056  27.167  27.213  1.00  0.00     0.148 A 
ATOM     99  C   UNL A   1      46.838  26.918  26.910  1.00  0.00     0.002 A 
ATOM    100  C   UNL A   1      44.582  26.229  26.333  1.00  0.00     0.091 A 
ATOM    101  F   UNL A   1      42.734  27.316  27.385  1.00  0.00    -0.205 F 
ATOM    102  C   UNL A   1      45.973  26.104  26.181  1.00  0.00     0.022 A 
BRANCH 100 103
ATOM    103  S   UNL A   1      43.553  25.097  25.394  1.00  0.00     0.127 S 
ATOM    104  O   UNL A   1      44.527  24.493  24.487  1.00  0.00    -0.237 OA
ATOM    105  O   UNL A   1      43.050  24.201  26.436  1.00  0.00    -0.237 OA
ATOM    106  O   UNL A   1      42.534  25.914  24.748  1.00  0.00    -0.744 OA
ENDBRANCH 100 103
ENDBRANCH  73  96
ENDBRANCH  47  48
ENDBRANCH  39  42
ENDBRANCH  37  38
ENDBRANCH  36  37
ENDBRANCH   1  36
TORSDOF 19
ENDMDL
MODEL 3
REMARK VINA RESULT:     -10.4      4.403     10.365
REMARK SMILES NS(=O)(=O)c1ccc(C#Cc2cc(Cl)cc3c2O[C@H](C(F)(F)F)C(C(=O)NCCCCNC(=O)c2ccc(-c4c5nc(c(-c6cccc(S(=O)(=O)[O-])c6F)c6ccc([nH]6)c(-c6cccc(S(=O)(=O)[O-])c6F)c6nc(c(-c7cccc(S(=O)(=O)[O-])c7F)c7ccc4[nH]7)C=C6)C=C5)cc2)=C3)cc1
REMARK SMILES IDX 29 1 28 2 27 3 25 4 26 5 24 7 11 8 12 9 17 10 13 11 16 12
REMARK SMILES IDX 18 13 14 14 15 15 98 16 19 17 10 18 9 19 8 20 5 21 6 22
REMARK SMILES IDX 100 23 7 24 99 25 2 26 3 27 4 28 1 29 20 32 21 33 22 34
REMARK SMILES IDX 23 35 30 36 31 37 32 38 33 39 34 41 35 42 36 43 97 44 37 45
REMARK SMILES IDX 96 46 38 47 39 48 40 49 90 50 41 51 95 52 89 53 91 54 42 55
REMARK SMILES IDX 94 56 88 57 87 58 43 60 75 61 55 62 74 63 56 64 59 65 73 66
REMARK SMILES IDX 92 67 57 68 58 69 72 71 93 72 60 73 44 74 45 75 53 76 46 77
REMARK SMILES IDX 48 78 54 79 47 80 49 81 50 82 51 83 52 84 76 85 77 86 85 87
REMARK SMILES IDX 78 88 80 89 86 90 79 91 81 92 82 93 83 94 84 95 61 96 62 97
REMARK SMILES IDX 70 98 63 99 65 100 71 101 64 102 66 103 67 104 68 105 69 106
REMARK H PARENT 27 6 1 30 1 31 32 40 91 59 59 70
REMARK Flexibility Score: inf
ROOT
ATOM      1  C   UNL A   1      46.084  24.106  24.876  1.00  0.00     0.023 C 
ENDROOT
BRANCH   1   2
ATOM      2  C   UNL A   1      45.815  22.832  25.666  1.00  0.00     0.116 C 
BRANCH   2   3
ATOM      3  N   UNL A   1      44.495  22.286  25.397  1.00  0.00    -0.352 N 
ATOM      4  C   UNL A   1      43.225  22.532  25.798  1.00  0.00     0.251 C 
ATOM      5  O   UNL A   1      42.348  21.844  25.270  1.00  0.00    -0.270 OA
ATOM      6  H   UNL A   1      44.534  21.542  24.753  1.00  0.00     0.163 HD
BRANCH   4   7
ATOM      7  C   UNL A   1      42.842  23.553  26.818  1.00  0.00     0.067 C 
ATOM      8  C   UNL A   1      41.985  26.682  29.495  1.00  0.00     0.069 A 
ATOM      9  C   UNL A   1      42.877  26.970  30.528  1.00  0.00     0.041 A 
ATOM     10  C   UNL A   1      42.279  25.646  28.599  1.00  0.00     0.143 A 
ATOM     11  C   UNL A   1      44.056  26.234  30.646  1.00  0.00     0.043 A 
ATOM     12  C   UNL A   1      43.472  24.922  28.705  1.00  0.00     0.020 A 
ATOM     13  O   UNL A   1      41.381  25.416  27.598  1.00  0.00    -0.474 OA
ATOM     14  Cl  UNL A   1      45.156  26.599  31.919  1.00  0.00    -0.084 Cl
ATOM     15  C   UNL A   1      44.363  25.218  29.739  1.00  0.00     0.032 A 
ATOM     16  C   UNL A   1      43.793  23.913  27.699  1.00  0.00     0.025 C 
ATOM     17  C   UNL A   1      41.470  24.149  26.909  1.00  0.00     0.314 C 
BRANCH   8  18
ATOM     18  C   UNL A   1      40.786  27.457  29.356  1.00  0.00    -0.058 C 
ATOM     19  C   UNL A   1      39.775  28.100  29.244  1.00  0.00    -0.062 C 
BRANCH  19  20
ATOM     20  C   UNL A   1      38.592  28.888  29.080  1.00  0.00     0.025 A 
ATOM     21  C   UNL A   1      36.347  30.510  28.760  1.00  0.00     0.082 A 
ATOM     22  C   UNL A   1      36.517  29.792  29.947  1.00  0.00     0.023 A 
ATOM     23  C   UNL A   1      37.273  30.398  27.719  1.00  0.00     0.023 A 
ATOM     24  C   UNL A   1      37.645  28.980  30.105  1.00  0.00     0.018 A 
ATOM     25  C   UNL A   1      38.397  29.587  27.884  1.00  0.00     0.018 A 
BRANCH  21  26
ATOM     26  S   UNL A   1      34.948  31.573  28.560  1.00  0.00     0.238 S 
ATOM     27  O   UNL A   1      34.621  32.193  29.822  1.00  0.00    -0.207 OA
ATOM     28  O   UNL A   1      33.963  30.904  27.742  1.00  0.00    -0.207 OA
BRANCH  26  29
ATOM     29  N   UNL A   1      35.582  32.806  27.609  1.00  0.00    -0.225 NA
ATOM     30  H   UNL A   1      34.832  33.437  27.326  1.00  0.00     0.137 HD
ATOM     31  H   UNL A   1      36.020  32.405  26.780  1.00  0.00     0.137 HD
ENDBRANCH  26  29
ENDBRANCH  21  26
ENDBRANCH  19  20
ENDBRANCH   8  18
BRANCH  17  32
ATOM     32  C   UNL A   1      40.447  23.162  27.505  1.00  0.00     0.429 C 
ATOM     33  F   UNL A   1      39.529  23.824  28.252  1.00  0.00    -0.167 F 
ATOM     34  F   UNL A   1      39.756  22.486  26.558  1.00  0.00    -0.167 F 
ATOM     35  F   UNL A   1      41.028  22.235  28.301  1.00  0.00    -0.167 F 
ENDBRANCH  17  32
ENDBRANCH   4   7
ENDBRANCH   2   3
ENDBRANCH   1   2
BRANCH   1  36
ATOM     36  C   UNL A   1      46.699  25.215  25.719  1.00  0.00     0.023 C 
BRANCH  36  37
ATOM     37  C   UNL A   1      45.812  26.441  25.894  1.00  0.00     0.116 C 
BRANCH  37  38
ATOM     38  N   UNL A   1      44.604  26.425  25.076  1.00  0.00    -0.352 N 
ATOM     39  C   UNL A   1      43.439  27.135  25.284  1.00  0.00     0.251 C 
ATOM     40  H   UNL A   1      44.621  25.839  24.285  1.00  0.00     0.163 HD
ATOM     41  O   UNL A   1      42.455  26.957  24.577  1.00  0.00    -0.269 OA
BRANCH  39  42
ATOM     42  C   UNL A   1      43.410  28.076  26.421  1.00  0.00     0.039 A 
ATOM     43  C   UNL A   1      42.366  28.997  26.509  1.00  0.00     0.014 A 
ATOM     44  C   UNL A   1      44.516  28.162  27.265  1.00  0.00     0.014 A 
ATOM     45  C   UNL A   1      42.541  30.139  27.275  1.00  0.00     0.010 A 
ATOM     46  C   UNL A   1      44.627  29.252  28.132  1.00  0.00     0.010 A 
ATOM     47  C   UNL A   1      43.676  30.286  28.092  1.00  0.00    -0.014 A 
BRANCH  47  48
ATOM     48  C   UNL A   1      43.844  31.532  28.885  1.00  0.00     0.031 A 
ATOM     49  C   UNL A   1      44.834  32.594  28.477  1.00  0.00     0.074 A 
ATOM     50  C   UNL A   1      43.060  31.724  29.964  1.00  0.00     0.049 A 
ATOM     51  N   UNL A   1      45.100  33.732  29.066  1.00  0.00    -0.248 NA
ATOM     52  C   UNL A   1      45.628  32.358  27.258  1.00  0.00     0.031 C 
ATOM     53  C   UNL A   1      42.064  30.770  30.462  1.00  0.00     0.029 A 
ATOM     54  N   UNL A   1      42.966  32.781  30.831  1.00  0.00    -0.354 N 
ATOM     55  C   UNL A   1      46.116  34.323  28.323  1.00  0.00     0.074 A 
ATOM     56  C   UNL A   1      46.425  33.419  27.237  1.00  0.00     0.031 C 
ATOM     57  C   UNL A   1      41.433  31.302  31.517  1.00  0.00     0.029 A 
ATOM     58  C   UNL A   1      42.030  32.596  31.820  1.00  0.00     0.049 A 
ATOM     59  H   UNL A   1      43.516  33.595  30.752  1.00  0.00     0.167 HD
ATOM     60  C   UNL A   1      46.724  35.516  28.521  1.00  0.00     0.034 A 
ATOM     61  C   UNL A   1      41.701  33.363  32.876  1.00  0.00     0.034 A 
ATOM     62  C   UNL A   1      46.385  36.432  29.576  1.00  0.00     0.049 A 
ATOM     63  C   UNL A   1      42.406  34.667  33.084  1.00  0.00     0.074 A 
ATOM     64  C   UNL A   1      46.919  37.686  29.821  1.00  0.00     0.029 A 
ATOM     65  N   UNL A   1      45.437  36.199  30.558  1.00  0.00    -0.354 N 
ATOM     66  N   UNL A   1      43.319  35.231  32.333  1.00  0.00    -0.248 NA
ATOM     67  C   UNL A   1      42.031  35.449  34.270  1.00  0.00     0.031 C 
ATOM     68  C   UNL A   1      46.315  38.198  30.970  1.00  0.00     0.029 A 
ATOM     69  C   UNL A   1      45.380  37.280  31.419  1.00  0.00     0.049 A 
ATOM     70  H   UNL A   1      44.886  35.386  30.632  1.00  0.00     0.167 HD
ATOM     71  C   UNL A   1      43.616  36.443  32.942  1.00  0.00     0.074 A 
ATOM     72  C   UNL A   1      42.775  36.537  34.120  1.00  0.00     0.031 C 
ATOM     73  C   UNL A   1      44.512  37.383  32.563  1.00  0.00     0.034 A 
BRANCH  60  74
ATOM     74  C   UNL A   1      47.805  35.940  27.564  1.00  0.00     0.023 A 
ATOM     75  C   UNL A   1      47.478  36.756  26.464  1.00  0.00     0.012 A 
ATOM     76  C   UNL A   1      49.157  35.645  27.833  1.00  0.00     0.148 A 
ATOM     77  C   UNL A   1      48.480  37.272  25.643  1.00  0.00     0.002 A 
ATOM     78  C   UNL A   1      50.152  36.185  27.027  1.00  0.00     0.091 A 
ATOM     79  F   UNL A   1      49.441  34.864  28.884  1.00  0.00    -0.205 F 
ATOM     80  C   UNL A   1      49.815  36.996  25.931  1.00  0.00     0.022 A 
BRANCH  78  81
ATOM     81  S   UNL A   1      51.903  35.928  27.335  1.00  0.00     0.127 S 
ATOM     82  O   UNL A   1      51.993  34.468  27.314  1.00  0.00    -0.237 OA
ATOM     83  O   UNL A   1      52.516  36.593  26.186  1.00  0.00    -0.237 OA
ATOM     84  O   UNL A   1      52.182  36.544  28.623  1.00  0.00    -0.744 OA
ENDBRANCH  78  81
ENDBRANCH  60  74
BRANCH  61  85
ATOM     85  C   UNL A   1      40.630  32.899  33.797  1.00  0.00     0.023 A 
ATOM     86  C   UNL A   1      40.971  32.115  34.913  1.00  0.00     0.012 A 
ATOM     87  C   UNL A   1      39.295  33.313  33.620  1.00  0.00     0.148 A 
ATOM     88  C   UNL A   1      39.996  31.746  35.841  1.00  0.00     0.002 A 
ATOM     89  C   UNL A   1      38.338  32.973  34.565  1.00  0.00     0.091 A 
ATOM     90  F   UNL A   1      39.004  34.068  32.551  1.00  0.00    -0.205 F 
ATOM     91  C   UNL A   1      38.685  32.184  35.673  1.00  0.00     0.022 A 
BRANCH  89  92
ATOM     92  S   UNL A   1      36.643  33.561  34.483  1.00  0.00     0.127 S 
ATOM     93  O   UNL A   1      36.824  34.918  33.975  1.00  0.00    -0.237 OA
ATOM     94  O   UNL A   1      36.047  32.620  33.535  1.00  0.00    -0.237 OA
ATOM     95  O   UNL A   1      36.123  33.467  35.841  1.00  0.00    -0.744 OA
ENDBRANCH  89  92
ENDBRANCH  61  85
BRANCH  73  96
ATOM     96  C   UNL A   1      44.634  38.626  33.398  1.00  0.00     0.023 A 
ATOM     97  C   UNL A   1      45.662  38.720  34.356  1.00  0.00     0.012 A 
ATOM     98  C   UNL A   1      43.824  39.746  33.130  1.00  0.00     0.148 A 
ATOM     99  C   UNL A   1      45.880  39.916  35.038  1.00  0.00     0.002 A 
ATOM    100  C   UNL A   1      44.067  40.944  33.790  1.00  0.00     0.091 A 
ATOM    101  F   UNL A   1      42.853  39.624  32.213  1.00  0.00    -0.205 F 
ATOM    102  C   UNL A   1      45.093  41.029  34.745  1.00  0.00     0.022 A 
BRANCH 100 103
ATOM    103  S   UNL A   1      43.149  42.446  33.441  1.00  0.00     0.127 S 
ATOM    104  O   UNL A   1      41.777  42.029  33.729  1.00  0.00    -0.237 OA
ATOM    105  O   UNL A   1      43.718  43.386  34.406  1.00  0.00    -0.237 OA
ATOM    106  O   UNL A   1      43.413  42.769  32.045  1.00  0.00    -0.744 OA
ENDBRANCH 100 103
ENDBRANCH  73  96
ENDBRANCH  47  48
ENDBRANCH  39  42
ENDBRANCH  37  38
ENDBRANCH  36  37
ENDBRANCH   1  36
TORSDOF 19
ENDMDL
