MODEL 1
REMARK VINA RESULT:     -12.8      0.000      0.000
REMARK SMILES Cc1[nH]c2ccccc2c1/N=N\c1ccccc1C(=O)NCCCCNC(=O)c1ccc(-c2c3nc(c(-c4cccc(S(=O)(=O)[O-])c4F)c4ccc([nH]4)c(-c4cccc(S(=O)(=O)[O-])c4F)c4nc(c(-c5cccc(S(=O)(=O)[O-])c5F)c5ccc2[nH]5)C=C4)C=C3)cc1
REMARK SMILES IDX 24 1 23 2 22 3 21 4 19 5 20 6 18 8 13 9 14 10 15 11 17 12
REMARK SMILES IDX 16 13 12 14 11 15 10 16 1 17 2 18 3 19 4 20 9 22 5 23 8 24
REMARK SMILES IDX 6 25 7 26 25 27 26 28 27 29 28 31 29 32 30 33 91 34 31 35
REMARK SMILES IDX 90 36 32 37 33 38 34 39 84 40 35 41 89 42 83 43 85 44 36 45
REMARK SMILES IDX 88 46 82 47 81 48 37 50 69 51 49 52 68 53 50 54 53 55 67 56
REMARK SMILES IDX 86 57 51 58 52 59 66 61 87 62 54 63 38 64 39 65 47 66 40 67
REMARK SMILES IDX 42 68 48 69 41 70 43 71 44 72 45 73 46 74 70 75 71 76 79 77
REMARK SMILES IDX 72 78 74 79 80 80 73 81 75 82 76 83 77 84 78 85 55 86 56 87
REMARK SMILES IDX 64 88 57 89 59 90 65 91 58 92 60 93 61 94 62 95 63 96
REMARK H PARENT 21 7 3 21 26 30 85 49 53 60
REMARK Flexibility Score: inf
ROOT
ATOM      1  C   UNL A   1      35.109  21.264  25.326  1.00  0.00     0.023 C 
ENDROOT
BRANCH   1   2
ATOM      2  C   UNL A   1      34.166  21.157  26.523  1.00  0.00     0.023 C 
BRANCH   2   3
ATOM      3  C   UNL A   1      34.031  22.413  27.373  1.00  0.00     0.116 C 
BRANCH   3   4
ATOM      4  N   UNL A   1      32.662  22.842  27.583  1.00  0.00    -0.352 N 
ATOM      5  C   UNL A   1      31.801  23.447  26.697  1.00  0.00     0.253 C 
ATOM      6  O   UNL A   1      30.670  23.762  27.064  1.00  0.00    -0.269 OA
ATOM      7  H   UNL A   1      32.297  22.678  28.482  1.00  0.00     0.163 HD
BRANCH   5   8
ATOM      8  C   UNL A   1      32.230  23.821  25.329  1.00  0.00     0.067 A 
ATOM      9  C   UNL A   1      33.025  24.943  25.038  1.00  0.00     0.098 A 
ATOM     10  C   UNL A   1      33.341  25.205  23.691  1.00  0.00     0.031 A 
ATOM     11  C   UNL A   1      32.955  24.327  22.672  1.00  0.00     0.002 A 
ATOM     12  C   UNL A   1      31.878  22.923  24.304  1.00  0.00     0.016 A 
ATOM     13  C   UNL A   1      32.242  23.175  22.982  1.00  0.00     0.001 A 
BRANCH   9  14
ATOM     14  N   UNL A   1      33.505  25.819  26.040  1.00  0.00    -0.150 NA
ATOM     15  N   UNL A   1      32.619  26.549  26.547  1.00  0.00    -0.148 NA
BRANCH  15  16
ATOM     16  C   UNL A   1      32.224  27.630  25.739  1.00  0.00     0.114 A 
ATOM     17  C   UNL A   1      34.209  29.251  26.222  1.00  0.00     0.067 C 
ATOM     18  C   UNL A   1      32.935  28.804  25.618  1.00  0.00     0.041 A 
ATOM     19  N   UNL A   1      32.198  29.620  24.795  1.00  0.00    -0.357 N 
ATOM     20  C   UNL A   1      31.115  28.941  24.282  1.00  0.00     0.048 A 
ATOM     21  H   UNL A   1      32.414  30.559  24.600  1.00  0.00     0.166 HD
ATOM     22  C   UNL A   1      31.096  27.674  24.873  1.00  0.00     0.027 A 
ATOM     23  C   UNL A   1      30.163  29.359  23.345  1.00  0.00     0.027 A 
ATOM     24  C   UNL A   1      30.065  26.783  24.510  1.00  0.00     0.012 A 
ATOM     25  C   UNL A   1      29.166  28.452  22.985  1.00  0.00     0.002 A 
ATOM     26  C   UNL A   1      29.114  27.183  23.559  1.00  0.00     0.001 A 
ENDBRANCH  15  16
ENDBRANCH   9  14
ENDBRANCH   5   8
ENDBRANCH   3   4
ENDBRANCH   2   3
ENDBRANCH   1   2
BRANCH   1  27
ATOM     27  C   UNL A   1      36.482  21.873  25.597  1.00  0.00     0.116 C 
BRANCH  27  28
ATOM     28  N   UNL A   1      37.567  20.901  25.596  1.00  0.00    -0.352 N 
ATOM     29  C   UNL A   1      38.887  21.053  25.964  1.00  0.00     0.251 C 
ATOM     30  H   UNL A   1      37.320  20.000  25.285  1.00  0.00     0.163 HD
ATOM     31  O   UNL A   1      39.677  20.134  25.815  1.00  0.00    -0.269 OA
BRANCH  29  32
ATOM     32  C   UNL A   1      39.350  22.352  26.502  1.00  0.00     0.039 A 
ATOM     33  C   UNL A   1      40.404  22.363  27.419  1.00  0.00     0.014 A 
ATOM     34  C   UNL A   1      38.775  23.551  26.076  1.00  0.00     0.014 A 
ATOM     35  C   UNL A   1      40.946  23.582  27.833  1.00  0.00     0.010 A 
ATOM     36  C   UNL A   1      39.363  24.762  26.432  1.00  0.00     0.010 A 
ATOM     37  C   UNL A   1      40.462  24.791  27.305  1.00  0.00    -0.014 A 
BRANCH  37  38
ATOM     38  C   UNL A   1      41.117  26.086  27.619  1.00  0.00     0.031 A 
ATOM     39  C   UNL A   1      42.547  26.335  27.224  1.00  0.00     0.074 A 
ATOM     40  C   UNL A   1      40.455  27.005  28.352  1.00  0.00     0.049 A 
ATOM     41  N   UNL A   1      43.299  27.378  27.462  1.00  0.00    -0.248 NA
ATOM     42  C   UNL A   1      43.233  25.257  26.490  1.00  0.00     0.031 C 
ATOM     43  C   UNL A   1      39.096  26.850  28.878  1.00  0.00     0.029 A 
ATOM     44  N   UNL A   1      40.844  28.241  28.807  1.00  0.00    -0.354 N 
ATOM     45  C   UNL A   1      44.550  27.071  26.943  1.00  0.00     0.074 A 
ATOM     46  C   UNL A   1      44.467  25.731  26.405  1.00  0.00     0.031 C 
ATOM     47  C   UNL A   1      38.765  27.947  29.578  1.00  0.00     0.029 A 
ATOM     48  C   UNL A   1      39.891  28.875  29.571  1.00  0.00     0.049 A 
ATOM     49  H   UNL A   1      41.723  28.636  28.605  1.00  0.00     0.167 HD
ATOM     50  C   UNL A   1      45.660  27.846  26.888  1.00  0.00     0.034 A 
ATOM     51  C   UNL A   1      39.920  30.070  30.194  1.00  0.00     0.034 A 
ATOM     52  C   UNL A   1      45.725  29.199  27.372  1.00  0.00     0.049 A 
ATOM     53  C   UNL A   1      41.142  30.938  30.060  1.00  0.00     0.074 A 
ATOM     54  C   UNL A   1      46.774  30.097  27.277  1.00  0.00     0.029 A 
ATOM     55  N   UNL A   1      44.702  29.849  28.043  1.00  0.00    -0.354 N 
ATOM     56  N   UNL A   1      42.256  30.697  29.411  1.00  0.00    -0.248 NA
ATOM     57  C   UNL A   1      41.097  32.257  30.706  1.00  0.00     0.031 C 
ATOM     58  C   UNL A   1      46.386  31.289  27.897  1.00  0.00     0.029 A 
ATOM     59  C   UNL A   1      45.091  31.137  28.368  1.00  0.00     0.049 A 
ATOM     60  H   UNL A   1      43.825  29.453  28.256  1.00  0.00     0.167 HD
ATOM     61  C   UNL A   1      43.028  31.847  29.540  1.00  0.00     0.074 A 
ATOM     62  C   UNL A   1      42.245  32.791  30.310  1.00  0.00     0.031 C 
ATOM     63  C   UNL A   1      44.278  32.090  29.078  1.00  0.00     0.034 A 
BRANCH  50  64
ATOM     64  C   UNL A   1      46.878  27.274  26.212  1.00  0.00     0.023 A 
ATOM     65  C   UNL A   1      47.048  27.461  24.825  1.00  0.00     0.012 A 
ATOM     66  C   UNL A   1      47.877  26.607  26.948  1.00  0.00     0.148 A 
ATOM     67  C   UNL A   1      48.177  26.966  24.174  1.00  0.00     0.002 A 
ATOM     68  C   UNL A   1      49.019  26.151  26.298  1.00  0.00     0.091 A 
ATOM     69  F   UNL A   1      47.687  26.419  28.261  1.00  0.00    -0.205 F 
ATOM     70  C   UNL A   1      49.166  26.321  24.911  1.00  0.00     0.022 A 
BRANCH  68  71
ATOM     71  S   UNL A   1      50.384  25.375  27.172  1.00  0.00     0.127 S 
ATOM     72  O   UNL A   1      50.786  26.437  28.093  1.00  0.00    -0.237 OA
ATOM     73  O   UNL A   1      49.733  24.231  27.810  1.00  0.00    -0.237 OA
ATOM     74  O   UNL A   1      51.362  25.024  26.153  1.00  0.00    -0.744 OA
ENDBRANCH  68  71
ENDBRANCH  50  64
BRANCH  51  75
ATOM     75  C   UNL A   1      38.717  30.556  30.929  1.00  0.00     0.023 A 
ATOM     76  C   UNL A   1      38.648  30.379  32.325  1.00  0.00     0.012 A 
ATOM     77  C   UNL A   1      37.661  31.211  30.269  1.00  0.00     0.148 A 
ATOM     78  C   UNL A   1      37.535  30.815  33.045  1.00  0.00     0.002 A 
ATOM     79  C   UNL A   1      36.578  31.691  30.999  1.00  0.00     0.091 A 
ATOM     80  F   UNL A   1      37.737  31.359  28.938  1.00  0.00    -0.205 F 
ATOM     81  C   UNL A   1      36.506  31.480  32.384  1.00  0.00     0.022 A 
BRANCH  79  82
ATOM     82  S   UNL A   1      35.273  32.670  30.247  1.00  0.00     0.127 S 
ATOM     83  O   UNL A   1      36.005  33.852  29.800  1.00  0.00    -0.237 OA
ATOM     84  O   UNL A   1      34.810  31.789  29.174  1.00  0.00    -0.237 OA
ATOM     85  O   UNL A   1      34.294  32.888  31.304  1.00  0.00    -0.744 OA
ENDBRANCH  79  82
ENDBRANCH  51  75
BRANCH  63  86
ATOM     86  C   UNL A   1      44.876  33.444  29.356  1.00  0.00     0.023 A 
ATOM     87  C   UNL A   1      45.609  33.653  30.541  1.00  0.00     0.012 A 
ATOM     88  C   UNL A   1      44.779  34.483  28.409  1.00  0.00     0.148 A 
ATOM     89  C   UNL A   1      46.214  34.884  30.791  1.00  0.00     0.002 A 
ATOM     90  C   UNL A   1      45.422  35.693  28.647  1.00  0.00     0.091 A 
ATOM     91  F   UNL A   1      44.059  34.273  27.299  1.00  0.00    -0.205 F 
ATOM     92  C   UNL A   1      46.131  35.898  29.840  1.00  0.00     0.022 A 
BRANCH  90  93
ATOM     93  S   UNL A   1      45.444  37.019  27.433  1.00  0.00     0.127 S 
ATOM     94  O   UNL A   1      46.136  36.386  26.313  1.00  0.00    -0.237 OA
ATOM     95  O   UNL A   1      44.019  37.265  27.210  1.00  0.00    -0.237 OA
ATOM     96  O   UNL A   1      46.151  38.125  28.067  1.00  0.00    -0.744 OA
ENDBRANCH  90  93
ENDBRANCH  63  86
ENDBRANCH  37  38
ENDBRANCH  29  32
ENDBRANCH  27  28
ENDBRANCH   1  27
TORSDOF 16
ENDMDL
MODEL 2
REMARK VINA RESULT:     -12.8      4.991      9.996
REMARK SMILES Cc1[nH]c2ccccc2c1/N=N\c1ccccc1C(=O)NCCCCNC(=O)c1ccc(-c2c3nc(c(-c4cccc(S(=O)(=O)[O-])c4F)c4ccc([nH]4)c(-c4cccc(S(=O)(=O)[O-])c4F)c4nc(c(-c5cccc(S(=O)(=O)[O-])c5F)c5ccc2[nH]5)C=C4)C=C3)cc1
REMARK SMILES IDX 24 1 23 2 22 3 21 4 19 5 20 6 18 8 13 9 14 10 15 11 17 12
REMARK SMILES IDX 16 13 12 14 11 15 10 16 1 17 2 18 3 19 4 20 9 22 5 23 8 24
REMARK SMILES IDX 6 25 7 26 25 27 26 28 27 29 28 31 29 32 30 33 91 34 31 35
REMARK SMILES IDX 90 36 32 37 33 38 34 39 84 40 35 41 89 42 83 43 85 44 36 45
REMARK SMILES IDX 88 46 82 47 81 48 37 50 69 51 49 52 68 53 50 54 53 55 67 56
REMARK SMILES IDX 86 57 51 58 52 59 66 61 87 62 54 63 38 64 39 65 47 66 40 67
REMARK SMILES IDX 42 68 48 69 41 70 43 71 44 72 45 73 46 74 70 75 71 76 79 77
REMARK SMILES IDX 72 78 74 79 80 80 73 81 75 82 76 83 77 84 78 85 55 86 56 87
REMARK SMILES IDX 64 88 57 89 59 90 65 91 58 92 60 93 61 94 62 95 63 96
REMARK H PARENT 21 7 3 21 26 30 85 49 53 60
REMARK Flexibility Score: inf
ROOT
ATOM      1  C   UNL A   1      31.503  29.623  26.989  1.00  0.00     0.023 C 
ENDROOT
BRANCH   1   2
ATOM      2  C   UNL A   1      31.776  28.252  27.606  1.00  0.00     0.023 C 
BRANCH   2   3
ATOM      3  C   UNL A   1      32.700  27.340  26.811  1.00  0.00     0.116 C 
BRANCH   3   4
ATOM      4  N   UNL A   1      32.070  26.119  26.345  1.00  0.00    -0.352 N 
ATOM      5  C   UNL A   1      31.340  25.907  25.199  1.00  0.00     0.253 C 
ATOM      6  O   UNL A   1      30.860  24.796  24.980  1.00  0.00    -0.269 OA
ATOM      7  H   UNL A   1      32.180  25.335  26.930  1.00  0.00     0.163 HD
BRANCH   5   8
ATOM      8  C   UNL A   1      31.032  27.009  24.259  1.00  0.00     0.067 A 
ATOM      9  C   UNL A   1      32.009  27.742  23.565  1.00  0.00     0.098 A 
ATOM     10  C   UNL A   1      31.585  28.785  22.720  1.00  0.00     0.031 A 
ATOM     11  C   UNL A   1      30.226  29.034  22.501  1.00  0.00     0.002 A 
ATOM     12  C   UNL A   1      29.667  27.240  24.005  1.00  0.00     0.016 A 
ATOM     13  C   UNL A   1      29.267  28.246  23.127  1.00  0.00     0.001 A 
BRANCH   9  14
ATOM     14  N   UNL A   1      33.394  27.479  23.692  1.00  0.00    -0.150 NA
ATOM     15  N   UNL A   1      33.901  26.919  22.688  1.00  0.00    -0.148 NA
BRANCH  15  16
ATOM     16  C   UNL A   1      33.611  25.548  22.580  1.00  0.00     0.114 A 
ATOM     17  C   UNL A   1      32.311  25.580  20.319  1.00  0.00     0.067 C 
ATOM     18  C   UNL A   1      32.909  24.987  21.536  1.00  0.00     0.041 A 
ATOM     19  N   UNL A   1      32.786  23.650  21.825  1.00  0.00    -0.357 N 
ATOM     20  C   UNL A   1      33.513  23.328  22.950  1.00  0.00     0.048 A 
ATOM     21  H   UNL A   1      32.253  23.011  21.301  1.00  0.00     0.166 HD
ATOM     22  C   UNL A   1      34.041  24.518  23.462  1.00  0.00     0.027 A 
ATOM     23  C   UNL A   1      33.736  22.079  23.540  1.00  0.00     0.027 A 
ATOM     24  C   UNL A   1      34.828  24.450  24.631  1.00  0.00     0.012 A 
ATOM     25  C   UNL A   1      34.536  22.036  24.683  1.00  0.00     0.002 A 
ATOM     26  C   UNL A   1      35.074  23.203  25.223  1.00  0.00     0.001 A 
ENDBRANCH  15  16
ENDBRANCH   9  14
ENDBRANCH   5   8
ENDBRANCH   3   4
ENDBRANCH   2   3
ENDBRANCH   1   2
BRANCH   1  27
ATOM     27  C   UNL A   1      32.722  30.402  26.503  1.00  0.00     0.116 C 
BRANCH  27  28
ATOM     28  N   UNL A   1      32.722  31.803  26.903  1.00  0.00    -0.352 N 
ATOM     29  C   UNL A   1      33.655  32.514  27.628  1.00  0.00     0.251 C 
ATOM     30  H   UNL A   1      31.936  32.320  26.610  1.00  0.00     0.163 HD
ATOM     31  O   UNL A   1      33.439  33.674  27.938  1.00  0.00    -0.269 OA
BRANCH  29  32
ATOM     32  C   UNL A   1      34.901  31.846  28.065  1.00  0.00     0.039 A 
ATOM     33  C   UNL A   1      36.066  32.609  28.184  1.00  0.00     0.014 A 
ATOM     34  C   UNL A   1      34.912  30.488  28.393  1.00  0.00     0.014 A 
ATOM     35  C   UNL A   1      37.217  32.030  28.725  1.00  0.00     0.010 A 
ATOM     36  C   UNL A   1      36.036  29.935  28.998  1.00  0.00     0.010 A 
ATOM     37  C   UNL A   1      37.197  30.701  29.182  1.00  0.00    -0.014 A 
BRANCH  37  38
ATOM     38  C   UNL A   1      38.362  30.113  29.892  1.00  0.00     0.031 A 
ATOM     39  C   UNL A   1      38.735  30.585  31.271  1.00  0.00     0.074 A 
ATOM     40  C   UNL A   1      39.149  29.223  29.253  1.00  0.00     0.049 A 
ATOM     41  N   UNL A   1      39.747  30.228  32.019  1.00  0.00    -0.248 NA
ATOM     42  C   UNL A   1      37.873  31.614  31.879  1.00  0.00     0.031 C 
ATOM     43  C   UNL A   1      38.952  28.752  27.879  1.00  0.00     0.029 A 
ATOM     44  N   UNL A   1      40.289  28.576  29.662  1.00  0.00    -0.354 N 
ATOM     45  C   UNL A   1      39.667  31.010  33.164  1.00  0.00     0.074 A 
ATOM     46  C   UNL A   1      38.526  31.884  33.000  1.00  0.00     0.031 C 
ATOM     47  C   UNL A   1      39.933  27.891  27.563  1.00  0.00     0.029 A 
ATOM     48  C   UNL A   1      40.840  27.763  28.698  1.00  0.00     0.049 A 
ATOM     49  H   UNL A   1      40.675  28.684  30.561  1.00  0.00     0.167 HD
ATOM     50  C   UNL A   1      40.451  30.982  34.268  1.00  0.00     0.034 A 
ATOM     51  C   UNL A   1      41.950  26.998  28.727  1.00  0.00     0.034 A 
ATOM     52  C   UNL A   1      41.552  30.075  34.454  1.00  0.00     0.049 A 
ATOM     53  C   UNL A   1      42.765  26.936  29.990  1.00  0.00     0.074 A 
ATOM     54  C   UNL A   1      42.346  29.904  35.574  1.00  0.00     0.029 A 
ATOM     55  N   UNL A   1      42.013  29.185  33.497  1.00  0.00    -0.354 N 
ATOM     56  N   UNL A   1      42.569  27.555  31.129  1.00  0.00    -0.248 NA
ATOM     57  C   UNL A   1      43.930  26.038  29.988  1.00  0.00     0.031 C 
ATOM     58  C   UNL A   1      43.294  28.915  35.291  1.00  0.00     0.029 A 
ATOM     59  C   UNL A   1      43.082  28.461  33.999  1.00  0.00     0.049 A 
ATOM     60  H   UNL A   1      41.636  29.082  32.593  1.00  0.00     0.167 HD
ATOM     61  C   UNL A   1      43.561  27.096  31.989  1.00  0.00     0.074 A 
ATOM     62  C   UNL A   1      44.343  26.130  31.245  1.00  0.00     0.031 C 
ATOM     63  C   UNL A   1      43.811  27.456  33.271  1.00  0.00     0.034 A 
BRANCH  50  64
ATOM     64  C   UNL A   1      40.101  31.915  35.398  1.00  0.00     0.023 A 
ATOM     65  C   UNL A   1      40.804  33.130  35.531  1.00  0.00     0.012 A 
ATOM     66  C   UNL A   1      39.048  31.623  36.287  1.00  0.00     0.148 A 
ATOM     67  C   UNL A   1      40.487  34.026  36.550  1.00  0.00     0.002 A 
ATOM     68  C   UNL A   1      38.712  32.541  37.276  1.00  0.00     0.091 A 
ATOM     69  F   UNL A   1      38.407  30.454  36.159  1.00  0.00    -0.205 F 
ATOM     70  C   UNL A   1      39.436  33.737  37.415  1.00  0.00     0.022 A 
BRANCH  68  71
ATOM     71  S   UNL A   1      37.325  32.295  38.392  1.00  0.00     0.127 S 
ATOM     72  O   UNL A   1      37.840  32.869  39.633  1.00  0.00    -0.237 OA
ATOM     73  O   UNL A   1      36.269  33.079  37.751  1.00  0.00    -0.237 OA
ATOM     74  O   UNL A   1      37.082  30.860  38.416  1.00  0.00    -0.744 OA
ENDBRANCH  68  71
ENDBRANCH  50  64
BRANCH  51  75
ATOM     75  C   UNL A   1      42.307  26.159  27.547  1.00  0.00     0.023 A 
ATOM     76  C   UNL A   1      43.088  26.720  26.517  1.00  0.00     0.012 A 
ATOM     77  C   UNL A   1      41.906  24.813  27.448  1.00  0.00     0.148 A 
ATOM     78  C   UNL A   1      43.436  25.966  25.396  1.00  0.00     0.002 A 
ATOM     79  C   UNL A   1      42.300  24.052  26.352  1.00  0.00     0.091 A 
ATOM     80  F   UNL A   1      41.151  24.300  28.430  1.00  0.00    -0.205 F 
ATOM     81  C   UNL A   1      43.051  24.631  25.318  1.00  0.00     0.022 A 
BRANCH  79  82
ATOM     82  S   UNL A   1      41.957  22.293  26.235  1.00  0.00     0.127 S 
ATOM     83  O   UNL A   1      40.500  22.277  26.149  1.00  0.00    -0.237 OA
ATOM     84  O   UNL A   1      42.651  21.927  24.999  1.00  0.00    -0.237 OA
ATOM     85  O   UNL A   1      42.532  21.704  27.437  1.00  0.00    -0.744 OA
ENDBRANCH  79  82
ENDBRANCH  51  75
BRANCH  63  86
ATOM     86  C   UNL A   1      44.957  26.780  33.977  1.00  0.00     0.023 A 
ATOM     87  C   UNL A   1      46.249  27.335  33.898  1.00  0.00     0.012 A 
ATOM     88  C   UNL A   1      44.739  25.643  34.780  1.00  0.00     0.148 A 
ATOM     89  C   UNL A   1      47.312  26.754  34.587  1.00  0.00     0.002 A 
ATOM     90  C   UNL A   1      45.796  25.095  35.499  1.00  0.00     0.091 A 
ATOM     91  F   UNL A   1      43.507  25.116  34.825  1.00  0.00    -0.205 F 
ATOM     92  C   UNL A   1      47.084  25.643  35.396  1.00  0.00     0.022 A 
BRANCH  90  93
ATOM     93  S   UNL A   1      45.570  23.723  36.638  1.00  0.00     0.127 S 
ATOM     94  O   UNL A   1      46.942  23.461  37.066  1.00  0.00    -0.237 OA
ATOM     95  O   UNL A   1      44.709  24.308  37.667  1.00  0.00    -0.237 OA
ATOM     96  O   UNL A   1      44.940  22.663  35.861  1.00  0.00    -0.744 OA
ENDBRANCH  90  93
ENDBRANCH  63  86
ENDBRANCH  37  38
ENDBRANCH  29  32
ENDBRANCH  27  28
ENDBRANCH   1  27
TORSDOF 16
ENDMDL
MODEL 3
REMARK VINA RESULT:     -12.7      4.594      9.988
REMARK SMILES Cc1[nH]c2ccccc2c1/N=N\c1ccccc1C(=O)NCCCCNC(=O)c1ccc(-c2c3nc(c(-c4cccc(S(=O)(=O)[O-])c4F)c4ccc([nH]4)c(-c4cccc(S(=O)(=O)[O-])c4F)c4nc(c(-c5cccc(S(=O)(=O)[O-])c5F)c5ccc2[nH]5)C=C4)C=C3)cc1
REMARK SMILES IDX 24 1 23 2 22 3 21 4 19 5 20 6 18 8 13 9 14 10 15 11 17 12
REMARK SMILES IDX 16 13 12 14 11 15 10 16 1 17 2 18 3 19 4 20 9 22 5 23 8 24
REMARK SMILES IDX 6 25 7 26 25 27 26 28 27 29 28 31 29 32 30 33 91 34 31 35
REMARK SMILES IDX 90 36 32 37 33 38 34 39 84 40 35 41 89 42 83 43 85 44 36 45
REMARK SMILES IDX 88 46 82 47 81 48 37 50 69 51 49 52 68 53 50 54 53 55 67 56
REMARK SMILES IDX 86 57 51 58 52 59 66 61 87 62 54 63 38 64 39 65 47 66 40 67
REMARK SMILES IDX 42 68 48 69 41 70 43 71 44 72 45 73 46 74 70 75 71 76 79 77
REMARK SMILES IDX 72 78 74 79 80 80 73 81 75 82 76 83 77 84 78 85 55 86 56 87
REMARK SMILES IDX 64 88 57 89 59 90 65 91 58 92 60 93 61 94 62 95 63 96
REMARK H PARENT 21 7 3 21 26 30 85 49 53 60
REMARK Flexibility Score: inf
ROOT
ATOM      1  C   UNL A   1      31.420  29.371  25.168  1.00  0.00     0.023 C 
ENDROOT
BRANCH   1   2
ATOM      2  C   UNL A   1      31.608  29.307  23.653  1.00  0.00     0.023 C 
BRANCH   2   3
ATOM      3  C   UNL A   1      32.866  28.595  23.172  1.00  0.00     0.116 C 
BRANCH   3   4
ATOM      4  N   UNL A   1      32.614  27.511  22.243  1.00  0.00    -0.352 N 
ATOM      5  C   UNL A   1      32.160  26.239  22.503  1.00  0.00     0.253 C 
ATOM      6  O   UNL A   1      32.026  25.439  21.579  1.00  0.00    -0.269 OA
ATOM      7  H   UNL A   1      32.792  27.712  21.296  1.00  0.00     0.163 HD
BRANCH   5   8
ATOM      8  C   UNL A   1      31.916  25.768  23.886  1.00  0.00     0.067 A 
ATOM      9  C   UNL A   1      32.938  25.405  24.781  1.00  0.00     0.098 A 
ATOM     10  C   UNL A   1      32.572  24.946  26.060  1.00  0.00     0.031 A 
ATOM     11  C   UNL A   1      31.235  24.935  26.471  1.00  0.00     0.002 A 
ATOM     12  C   UNL A   1      30.577  25.790  24.319  1.00  0.00     0.016 A 
ATOM     13  C   UNL A   1      30.239  25.378  25.607  1.00  0.00     0.001 A 
BRANCH   9  14
ATOM     14  N   UNL A   1      34.310  25.472  24.440  1.00  0.00    -0.150 NA
ATOM     15  N   UNL A   1      34.677  24.589  23.627  1.00  0.00    -0.148 NA
BRANCH  15  16
ATOM     16  C   UNL A   1      34.841  23.312  24.192  1.00  0.00     0.114 A 
ATOM     17  C   UNL A   1      36.914  23.791  25.700  1.00  0.00     0.067 C 
ATOM     18  C   UNL A   1      35.831  22.986  25.092  1.00  0.00     0.041 A 
ATOM     19  N   UNL A   1      35.691  21.646  25.355  1.00  0.00    -0.357 N 
ATOM     20  C   UNL A   1      34.554  21.150  24.756  1.00  0.00     0.048 A 
ATOM     21  H   UNL A   1      36.316  21.113  25.896  1.00  0.00     0.166 HD
ATOM     22  C   UNL A   1      33.997  22.184  23.996  1.00  0.00     0.027 A 
ATOM     23  C   UNL A   1      33.990  19.872  24.834  1.00  0.00     0.027 A 
ATOM     24  C   UNL A   1      32.814  21.918  23.274  1.00  0.00     0.012 A 
ATOM     25  C   UNL A   1      32.809  19.641  24.127  1.00  0.00     0.002 A 
ATOM     26  C   UNL A   1      32.229  20.646  23.357  1.00  0.00     0.001 A 
ENDBRANCH  15  16
ENDBRANCH   9  14
ENDBRANCH   5   8
ENDBRANCH   3   4
ENDBRANCH   2   3
ENDBRANCH   1   2
BRANCH   1  27
ATOM     27  C   UNL A   1      32.598  29.906  25.976  1.00  0.00     0.116 C 
BRANCH  27  28
ATOM     28  N   UNL A   1      32.417  31.274  26.445  1.00  0.00    -0.352 N 
ATOM     29  C   UNL A   1      33.217  32.038  27.268  1.00  0.00     0.251 C 
ATOM     30  H   UNL A   1      31.599  31.720  26.125  1.00  0.00     0.163 HD
ATOM     31  O   UNL A   1      32.855  33.148  27.620  1.00  0.00    -0.269 OA
BRANCH  29  32
ATOM     32  C   UNL A   1      34.500  31.483  27.756  1.00  0.00     0.039 A 
ATOM     33  C   UNL A   1      35.573  32.354  27.961  1.00  0.00     0.014 A 
ATOM     34  C   UNL A   1      34.631  30.124  28.046  1.00  0.00     0.014 A 
ATOM     35  C   UNL A   1      36.746  31.876  28.550  1.00  0.00     0.010 A 
ATOM     36  C   UNL A   1      35.772  29.665  28.699  1.00  0.00     0.010 A 
ATOM     37  C   UNL A   1      36.837  30.538  28.969  1.00  0.00    -0.014 A 
BRANCH  37  38
ATOM     38  C   UNL A   1      38.017  30.046  29.727  1.00  0.00     0.031 A 
ATOM     39  C   UNL A   1      38.279  30.526  31.128  1.00  0.00     0.074 A 
ATOM     40  C   UNL A   1      38.911  29.242  29.115  1.00  0.00     0.049 A 
ATOM     41  N   UNL A   1      39.283  30.250  31.920  1.00  0.00    -0.248 NA
ATOM     42  C   UNL A   1      37.299  31.461  31.707  1.00  0.00     0.031 C 
ATOM     43  C   UNL A   1      38.823  28.779  27.728  1.00  0.00     0.029 A 
ATOM     44  N   UNL A   1      40.085  28.694  29.571  1.00  0.00    -0.354 N 
ATOM     45  C   UNL A   1      39.077  31.002  33.070  1.00  0.00     0.074 A 
ATOM     46  C   UNL A   1      37.870  31.771  32.862  1.00  0.00     0.031 C 
ATOM     47  C   UNL A   1      39.892  28.016  27.449  1.00  0.00     0.029 A 
ATOM     48  C   UNL A   1      40.753  27.951  28.625  1.00  0.00     0.049 A 
ATOM     49  H   UNL A   1      40.417  28.821  30.489  1.00  0.00     0.167 HD
ATOM     50  C   UNL A   1      39.808  31.026  34.210  1.00  0.00     0.034 A 
ATOM     51  C   UNL A   1      41.926  27.291  28.697  1.00  0.00     0.034 A 
ATOM     52  C   UNL A   1      40.977  30.219  34.438  1.00  0.00     0.049 A 
ATOM     53  C   UNL A   1      42.683  27.281  29.998  1.00  0.00     0.074 A 
ATOM     54  C   UNL A   1      41.730  30.102  35.592  1.00  0.00     0.029 A 
ATOM     55  N   UNL A   1      41.563  29.391  33.493  1.00  0.00    -0.354 N 
ATOM     56  N   UNL A   1      42.377  27.860  31.134  1.00  0.00    -0.248 NA
ATOM     57  C   UNL A   1      43.923  26.493  30.041  1.00  0.00     0.031 C 
ATOM     58  C   UNL A   1      42.777  29.209  35.343  1.00  0.00     0.029 A 
ATOM     59  C   UNL A   1      42.668  28.760  34.037  1.00  0.00     0.049 A 
ATOM     60  H   UNL A   1      41.240  29.270  32.570  1.00  0.00     0.167 HD
ATOM     61  C   UNL A   1      43.365  27.478  32.035  1.00  0.00     0.074 A 
ATOM     62  C   UNL A   1      44.267  26.600  31.318  1.00  0.00     0.031 C 
ATOM     63  C   UNL A   1      43.520  27.837  33.332  1.00  0.00     0.034 A 
BRANCH  50  64
ATOM     64  C   UNL A   1      39.321  31.903  35.333  1.00  0.00     0.023 A 
ATOM     65  C   UNL A   1      38.417  31.374  36.277  1.00  0.00     0.012 A 
ATOM     66  C   UNL A   1      39.795  33.220  35.491  1.00  0.00     0.148 A 
ATOM     67  C   UNL A   1      37.966  32.152  37.343  1.00  0.00     0.002 A 
ATOM     68  C   UNL A   1      39.372  33.976  36.579  1.00  0.00     0.091 A 
ATOM     69  F   UNL A   1      40.636  33.712  34.571  1.00  0.00    -0.205 F 
ATOM     70  C   UNL A   1      38.451  33.447  37.499  1.00  0.00     0.022 A 
BRANCH  68  71
ATOM     71  S   UNL A   1      39.996  35.628  36.910  1.00  0.00     0.127 S 
ATOM     72  O   UNL A   1      41.438  35.391  36.967  1.00  0.00    -0.237 OA
ATOM     73  O   UNL A   1      39.547  36.371  35.732  1.00  0.00    -0.237 OA
ATOM     74  O   UNL A   1      39.378  36.045  38.160  1.00  0.00    -0.744 OA
ENDBRANCH  68  71
ENDBRANCH  50  64
BRANCH  51  75
ATOM     75  C   UNL A   1      42.413  26.507  27.526  1.00  0.00     0.023 A 
ATOM     76  C   UNL A   1      43.223  27.144  26.564  1.00  0.00     0.012 A 
ATOM     77  C   UNL A   1      42.107  25.143  27.369  1.00  0.00     0.148 A 
ATOM     78  C   UNL A   1      43.692  26.444  25.452  1.00  0.00     0.002 A 
ATOM     79  C   UNL A   1      42.622  24.438  26.285  1.00  0.00     0.091 A 
ATOM     80  F   UNL A   1      41.324  24.556  28.286  1.00  0.00    -0.205 F 
ATOM     81  C   UNL A   1      43.400  25.090  25.318  1.00  0.00     0.022 A 
BRANCH  79  82
ATOM     82  S   UNL A   1      42.402  22.664  26.105  1.00  0.00     0.127 S 
ATOM     83  O   UNL A   1      43.042  22.412  24.817  1.00  0.00    -0.237 OA
ATOM     84  O   UNL A   1      43.127  22.146  27.265  1.00  0.00    -0.237 OA
ATOM     85  O   UNL A   1      40.962  22.444  26.156  1.00  0.00    -0.744 OA
ENDBRANCH  79  82
ENDBRANCH  51  75
BRANCH  63  86
ATOM     86  C   UNL A   1      44.689  27.256  34.084  1.00  0.00     0.023 A 
ATOM     87  C   UNL A   1      45.926  27.929  34.077  1.00  0.00     0.012 A 
ATOM     88  C   UNL A   1      44.539  26.089  34.859  1.00  0.00     0.148 A 
ATOM     89  C   UNL A   1      47.005  27.435  34.810  1.00  0.00     0.002 A 
ATOM     90  C   UNL A   1      45.607  25.627  35.622  1.00  0.00     0.091 A 
ATOM     91  F   UNL A   1      43.361  25.450  34.835  1.00  0.00    -0.205 F 
ATOM     92  C   UNL A   1      46.842  26.293  35.590  1.00  0.00     0.022 A 
BRANCH  90  93
ATOM     93  S   UNL A   1      45.454  24.218  36.727  1.00  0.00     0.127 S 
ATOM     94  O   UNL A   1      46.802  24.129  37.284  1.00  0.00    -0.237 OA
ATOM     95  O   UNL A   1      44.432  24.670  37.673  1.00  0.00    -0.237 OA
ATOM     96  O   UNL A   1      45.043  23.099  35.889  1.00  0.00    -0.744 OA
ENDBRANCH  90  93
ENDBRANCH  63  86
ENDBRANCH  37  38
ENDBRANCH  29  32
ENDBRANCH  27  28
ENDBRANCH   1  27
TORSDOF 16
ENDMDL
