MODEL 1
REMARK VINA RESULT:     -10.9      0.000      0.000
REMARK SMILES CCOc1cccc(OCC)c1-c1ccc([C@@H](C)C(=O)NCCCCNC(=O)c2ccc(-c3c4nc(c(-c5cccc(S(=O)(=O)[O-])c5F)c5ccc([nH]5)c(-c5cccc(S(=O)(=O)[O-])c5F)c5nc(c(-c6cccc(S(=O)(=O)[O-])c6F)c6ccc3[nH]6)C=C5)C=C4)cc2)cc1F
REMARK SMILES IDX 23 1 22 2 21 3 19 4 20 5 17 7 18 8 16 9 13 10 14 11 93 12
REMARK SMILES IDX 15 13 92 14 94 15 12 16 4 17 5 18 6 19 8 20 7 21 3 22 2 23
REMARK SMILES IDX 1 24 9 25 10 26 11 27 24 28 25 29 26 30 27 31 28 33 29 34
REMARK SMILES IDX 30 35 91 36 31 37 90 38 32 39 33 40 34 41 84 42 35 43 89 44
REMARK SMILES IDX 83 45 85 46 36 47 88 48 82 49 81 50 37 52 69 53 49 54 68 55
REMARK SMILES IDX 50 56 53 57 67 58 86 59 51 60 52 61 66 63 87 64 54 65 38 66
REMARK SMILES IDX 39 67 47 68 40 69 42 70 48 71 41 72 43 73 44 74 45 75 46 76
REMARK SMILES IDX 70 77 71 78 79 79 72 80 74 81 80 82 73 83 75 84 76 85 77 86
REMARK SMILES IDX 78 87 55 88 56 89 64 90 57 91 59 92 65 93 58 94 60 95 61 96
REMARK SMILES IDX 62 97 63 98
REMARK H PARENT 21 6 26 32 85 51 53 62
REMARK Flexibility Score: inf
ROOT
ATOM      1  C   UNL A   1      35.369  22.163  26.253  1.00  0.00     0.023 C 
ENDROOT
BRANCH   1   2
ATOM      2  C   UNL A   1      34.957  21.285  25.057  1.00  0.00     0.116 C 
BRANCH   2   3
ATOM      3  N   UNL A   1      34.147  22.019  24.094  1.00  0.00    -0.356 N 
ATOM      4  C   UNL A   1      33.118  22.909  24.183  1.00  0.00     0.227 C 
ATOM      5  O   UNL A   1      32.647  23.281  23.099  1.00  0.00    -0.274 OA
ATOM      6  H   UNL A   1      34.401  21.827  23.162  1.00  0.00     0.163 HD
BRANCH   4   7
ATOM      7  C   UNL A   1      32.515  23.479  25.490  1.00  0.00     0.105 C 
ATOM      8  C   UNL A   1      31.258  22.763  25.974  1.00  0.00     0.023 C 
BRANCH   7   9
ATOM      9  C   UNL A   1      32.389  24.993  25.505  1.00  0.00    -0.033 A 
ATOM     10  C   UNL A   1      31.908  27.799  25.415  1.00  0.00     0.025 A 
ATOM     11  C   UNL A   1      30.994  26.916  25.979  1.00  0.00     0.012 A 
ATOM     12  C   UNL A   1      33.075  27.242  24.871  1.00  0.00     0.131 A 
ATOM     13  C   UNL A   1      31.310  25.579  26.145  1.00  0.00     0.005 A 
ATOM     14  C   UNL A   1      33.295  25.854  24.872  1.00  0.00     0.044 A 
ATOM     15  F   UNL A   1      34.000  28.032  24.303  1.00  0.00    -0.206 F 
BRANCH  10  16
ATOM     16  C   UNL A   1      31.532  29.219  25.352  1.00  0.00     0.069 A 
ATOM     17  C   UNL A   1      30.660  29.616  24.302  1.00  0.00     0.130 A 
ATOM     18  C   UNL A   1      30.124  30.903  24.219  1.00  0.00     0.047 A 
ATOM     19  C   UNL A   1      30.424  31.830  25.204  1.00  0.00     0.008 A 
ATOM     20  C   UNL A   1      31.849  30.185  26.338  1.00  0.00     0.130 A 
ATOM     21  C   UNL A   1      31.285  31.474  26.238  1.00  0.00     0.047 A 
BRANCH  17  22
ATOM     22  O   UNL A   1      30.382  28.731  23.286  1.00  0.00    -0.493 OA
BRANCH  22  23
ATOM     23  C   UNL A   1      29.194  29.061  22.558  1.00  0.00     0.226 C 
ATOM     24  C   UNL A   1      28.042  28.239  23.112  1.00  0.00     0.049 C 
ENDBRANCH  22  23
ENDBRANCH  17  22
BRANCH  20  25
ATOM     25  O   UNL A   1      32.682  30.139  27.426  1.00  0.00    -0.493 OA
BRANCH  25  26
ATOM     26  C   UNL A   1      34.081  30.375  27.391  1.00  0.00     0.226 C 
ATOM     27  C   UNL A   1      34.857  29.065  27.363  1.00  0.00     0.049 C 
ENDBRANCH  25  26
ENDBRANCH  20  25
ENDBRANCH  10  16
ENDBRANCH   7   9
ENDBRANCH   4   7
ENDBRANCH   2   3
ENDBRANCH   1   2
BRANCH   1  28
ATOM     28  C   UNL A   1      36.150  23.428  25.936  1.00  0.00     0.023 C 
BRANCH  28  29
ATOM     29  C   UNL A   1      37.361  23.229  25.040  1.00  0.00     0.116 C 
BRANCH  29  30
ATOM     30  N   UNL A   1      38.400  22.371  25.600  1.00  0.00    -0.352 N 
ATOM     31  C   UNL A   1      39.431  22.729  26.440  1.00  0.00     0.251 C 
ATOM     32  H   UNL A   1      38.358  21.419  25.347  1.00  0.00     0.163 HD
ATOM     33  O   UNL A   1      40.264  21.900  26.795  1.00  0.00    -0.269 OA
BRANCH  31  34
ATOM     34  C   UNL A   1      39.548  24.142  26.865  1.00  0.00     0.039 A 
ATOM     35  C   UNL A   1      39.177  24.493  28.164  1.00  0.00     0.014 A 
ATOM     36  C   UNL A   1      40.129  25.085  26.015  1.00  0.00     0.014 A 
ATOM     37  C   UNL A   1      39.480  25.770  28.642  1.00  0.00     0.010 A 
ATOM     38  C   UNL A   1      40.517  26.316  26.523  1.00  0.00     0.010 A 
ATOM     39  C   UNL A   1      40.200  26.673  27.843  1.00  0.00    -0.014 A 
BRANCH  39  40
ATOM     40  C   UNL A   1      40.655  27.987  28.365  1.00  0.00     0.031 A 
ATOM     41  C   UNL A   1      42.125  28.256  28.550  1.00  0.00     0.074 A 
ATOM     42  C   UNL A   1      39.746  28.892  28.781  1.00  0.00     0.049 A 
ATOM     43  N   UNL A   1      42.712  29.307  29.059  1.00  0.00    -0.248 NA
ATOM     44  C   UNL A   1      43.055  27.189  28.143  1.00  0.00     0.031 C 
ATOM     45  C   UNL A   1      38.293  28.707  28.757  1.00  0.00     0.029 A 
ATOM     46  N   UNL A   1      39.911  30.138  29.335  1.00  0.00    -0.354 N 
ATOM     47  C   UNL A   1      44.070  29.010  29.076  1.00  0.00     0.074 A 
ATOM     48  C   UNL A   1      44.217  27.666  28.565  1.00  0.00     0.031 C 
ATOM     49  C   UNL A   1      37.700  29.802  29.260  1.00  0.00     0.029 A 
ATOM     50  C   UNL A   1      38.727  30.758  29.665  1.00  0.00     0.049 A 
ATOM     51  H   UNL A   1      40.792  30.549  29.481  1.00  0.00     0.167 HD
ATOM     52  C   UNL A   1      45.106  29.800  29.445  1.00  0.00     0.034 A 
ATOM     53  C   UNL A   1      38.496  31.961  30.225  1.00  0.00     0.034 A 
ATOM     54  C   UNL A   1      44.961  31.159  29.885  1.00  0.00     0.049 A 
ATOM     55  C   UNL A   1      39.665  32.851  30.549  1.00  0.00     0.074 A 
ATOM     56  C   UNL A   1      45.952  32.079  30.176  1.00  0.00     0.029 A 
ATOM     57  N   UNL A   1      43.748  31.796  30.094  1.00  0.00    -0.354 N 
ATOM     58  N   UNL A   1      40.946  32.619  30.389  1.00  0.00    -0.248 NA
ATOM     59  C   UNL A   1      39.360  34.183  31.091  1.00  0.00     0.031 C 
ATOM     60  C   UNL A   1      45.337  33.273  30.570  1.00  0.00     0.029 A 
ATOM     61  C   UNL A   1      43.964  33.098  30.511  1.00  0.00     0.049 A 
ATOM     62  H   UNL A   1      42.864  31.383  29.965  1.00  0.00     0.167 HD
ATOM     63  C   UNL A   1      41.596  33.785  30.777  1.00  0.00     0.074 A 
ATOM     64  C   UNL A   1      40.566  34.729  31.159  1.00  0.00     0.031 C 
ATOM     65  C   UNL A   1      42.926  34.044  30.830  1.00  0.00     0.034 A 
BRANCH  52  66
ATOM     66  C   UNL A   1      46.494  29.233  29.312  1.00  0.00     0.023 A 
ATOM     67  C   UNL A   1      47.063  28.535  30.398  1.00  0.00     0.012 A 
ATOM     68  C   UNL A   1      47.217  29.344  28.109  1.00  0.00     0.148 A 
ATOM     69  C   UNL A   1      48.341  27.989  30.303  1.00  0.00     0.002 A 
ATOM     70  C   UNL A   1      48.474  28.760  28.007  1.00  0.00     0.091 A 
ATOM     71  F   UNL A   1      46.672  30.032  27.096  1.00  0.00    -0.205 F 
ATOM     72  C   UNL A   1      49.042  28.092  29.105  1.00  0.00     0.022 A 
BRANCH  70  73
ATOM     73  S   UNL A   1      49.425  28.773  26.482  1.00  0.00     0.127 S 
ATOM     74  O   UNL A   1      50.441  27.759  26.761  1.00  0.00    -0.237 OA
ATOM     75  O   UNL A   1      48.426  28.376  25.490  1.00  0.00    -0.237 OA
ATOM     76  O   UNL A   1      49.921  30.134  26.333  1.00  0.00    -0.744 OA
ENDBRANCH  70  73
ENDBRANCH  52  66
BRANCH  53  77
ATOM     77  C   UNL A   1      37.095  32.432  30.428  1.00  0.00     0.023 A 
ATOM     78  C   UNL A   1      36.482  32.239  31.681  1.00  0.00     0.012 A 
ATOM     79  C   UNL A   1      36.385  33.097  29.411  1.00  0.00     0.148 A 
ATOM     80  C   UNL A   1      35.175  32.673  31.909  1.00  0.00     0.002 A 
ATOM     81  C   UNL A   1      35.102  33.574  29.661  1.00  0.00     0.091 A 
ATOM     82  F   UNL A   1      36.980  33.259  28.220  1.00  0.00    -0.205 F 
ATOM     83  C   UNL A   1      34.490  33.349  30.904  1.00  0.00     0.022 A 
BRANCH  81  84
ATOM     84  S   UNL A   1      34.201  34.572  28.469  1.00  0.00     0.127 S 
ATOM     85  O   UNL A   1      34.891  35.855  28.572  1.00  0.00    -0.237 OA
ATOM     86  O   UNL A   1      34.436  33.843  27.222  1.00  0.00    -0.237 OA
ATOM     87  O   UNL A   1      32.815  34.555  28.917  1.00  0.00    -0.744 OA
ENDBRANCH  81  84
ENDBRANCH  53  77
BRANCH  65  88
ATOM     88  C   UNL A   1      43.354  35.412  31.291  1.00  0.00     0.023 A 
ATOM     89  C   UNL A   1      43.621  36.414  30.340  1.00  0.00     0.012 A 
ATOM     90  C   UNL A   1      43.407  35.725  32.663  1.00  0.00     0.148 A 
ATOM     91  C   UNL A   1      43.961  37.704  30.747  1.00  0.00     0.002 A 
ATOM     92  C   UNL A   1      43.701  37.024  33.061  1.00  0.00     0.091 A 
ATOM     93  F   UNL A   1      43.169  34.750  33.553  1.00  0.00    -0.205 F 
ATOM     94  C   UNL A   1      43.988  38.011  32.104  1.00  0.00     0.022 A 
BRANCH  92  95
ATOM     95  S   UNL A   1      43.665  37.528  34.785  1.00  0.00     0.127 S 
ATOM     96  O   UNL A   1      43.938  38.961  34.682  1.00  0.00    -0.237 OA
ATOM     97  O   UNL A   1      42.295  37.195  35.180  1.00  0.00    -0.237 OA
ATOM     98  O   UNL A   1      44.691  36.738  35.453  1.00  0.00    -0.744 OA
ENDBRANCH  92  95
ENDBRANCH  65  88
ENDBRANCH  39  40
ENDBRANCH  31  34
ENDBRANCH  29  30
ENDBRANCH  28  29
ENDBRANCH   1  28
TORSDOF 20
ENDMDL
MODEL 2
REMARK VINA RESULT:     -10.7      1.825      2.103
REMARK SMILES CCOc1cccc(OCC)c1-c1ccc([C@@H](C)C(=O)NCCCCNC(=O)c2ccc(-c3c4nc(c(-c5cccc(S(=O)(=O)[O-])c5F)c5ccc([nH]5)c(-c5cccc(S(=O)(=O)[O-])c5F)c5nc(c(-c6cccc(S(=O)(=O)[O-])c6F)c6ccc3[nH]6)C=C5)C=C4)cc2)cc1F
REMARK SMILES IDX 23 1 22 2 21 3 19 4 20 5 17 7 18 8 16 9 13 10 14 11 93 12
REMARK SMILES IDX 15 13 92 14 94 15 12 16 4 17 5 18 6 19 8 20 7 21 3 22 2 23
REMARK SMILES IDX 1 24 9 25 10 26 11 27 24 28 25 29 26 30 27 31 28 33 29 34
REMARK SMILES IDX 30 35 91 36 31 37 90 38 32 39 33 40 34 41 84 42 35 43 89 44
REMARK SMILES IDX 83 45 85 46 36 47 88 48 82 49 81 50 37 52 69 53 49 54 68 55
REMARK SMILES IDX 50 56 53 57 67 58 86 59 51 60 52 61 66 63 87 64 54 65 38 66
REMARK SMILES IDX 39 67 47 68 40 69 42 70 48 71 41 72 43 73 44 74 45 75 46 76
REMARK SMILES IDX 70 77 71 78 79 79 72 80 74 81 80 82 73 83 75 84 76 85 77 86
REMARK SMILES IDX 78 87 55 88 56 89 64 90 57 91 59 92 65 93 58 94 60 95 61 96
REMARK SMILES IDX 62 97 63 98
REMARK H PARENT 21 6 26 32 85 51 53 62
REMARK Flexibility Score: inf
ROOT
ATOM      1  C   UNL A   1      35.511  22.226  26.226  1.00  0.00     0.023 C 
ENDROOT
BRANCH   1   2
ATOM      2  C   UNL A   1      34.846  21.335  25.162  1.00  0.00     0.116 C 
BRANCH   2   3
ATOM      3  N   UNL A   1      33.947  22.091  24.299  1.00  0.00    -0.356 N 
ATOM      4  C   UNL A   1      33.007  23.056  24.502  1.00  0.00     0.227 C 
ATOM      5  O   UNL A   1      32.399  23.423  23.486  1.00  0.00    -0.274 OA
ATOM      6  H   UNL A   1      34.040  21.847  23.350  1.00  0.00     0.163 HD
BRANCH   4   7
ATOM      7  C   UNL A   1      32.654  23.717  25.857  1.00  0.00     0.105 C 
ATOM      8  C   UNL A   1      31.529  23.028  26.624  1.00  0.00     0.023 C 
BRANCH   7   9
ATOM      9  C   UNL A   1      32.500  25.227  25.789  1.00  0.00    -0.033 A 
ATOM     10  C   UNL A   1      31.957  28.014  25.569  1.00  0.00     0.025 A 
ATOM     11  C   UNL A   1      31.120  27.157  26.275  1.00  0.00     0.012 A 
ATOM     12  C   UNL A   1      33.076  27.439  24.950  1.00  0.00     0.131 A 
ATOM     13  C   UNL A   1      31.476  25.838  26.493  1.00  0.00     0.005 A 
ATOM     14  C   UNL A   1      33.323  26.057  25.018  1.00  0.00     0.044 A 
ATOM     15  F   UNL A   1      33.926  28.203  24.246  1.00  0.00    -0.206 F 
BRANCH  10  16
ATOM     16  C   UNL A   1      31.548  29.422  25.455  1.00  0.00     0.069 A 
ATOM     17  C   UNL A   1      30.595  29.744  24.451  1.00  0.00     0.130 A 
ATOM     18  C   UNL A   1      30.027  31.015  24.335  1.00  0.00     0.047 A 
ATOM     19  C   UNL A   1      30.380  32.002  25.241  1.00  0.00     0.008 A 
ATOM     20  C   UNL A   1      31.917  30.449  26.358  1.00  0.00     0.130 A 
ATOM     21  C   UNL A   1      31.321  31.721  26.228  1.00  0.00     0.047 A 
BRANCH  17  22
ATOM     22  O   UNL A   1      30.262  28.797  23.510  1.00  0.00    -0.493 OA
BRANCH  22  23
ATOM     23  C   UNL A   1      29.324  29.272  22.537  1.00  0.00     0.226 C 
ATOM     24  C   UNL A   1      27.957  28.687  22.856  1.00  0.00     0.049 C 
ENDBRANCH  22  23
ENDBRANCH  17  22
BRANCH  20  25
ATOM     25  O   UNL A   1      32.827  30.478  27.382  1.00  0.00    -0.493 OA
BRANCH  25  26
ATOM     26  C   UNL A   1      34.237  30.438  27.221  1.00  0.00     0.226 C 
ATOM     27  C   UNL A   1      34.793  29.073  27.605  1.00  0.00     0.049 C 
ENDBRANCH  25  26
ENDBRANCH  20  25
ENDBRANCH  10  16
ENDBRANCH   7   9
ENDBRANCH   4   7
ENDBRANCH   2   3
ENDBRANCH   1   2
BRANCH   1  28
ATOM     28  C   UNL A   1      36.397  23.352  25.719  1.00  0.00     0.023 C 
BRANCH  28  29
ATOM     29  C   UNL A   1      37.620  22.904  24.934  1.00  0.00     0.116 C 
BRANCH  29  30
ATOM     30  N   UNL A   1      38.562  22.083  25.688  1.00  0.00    -0.352 N 
ATOM     31  C   UNL A   1      39.489  22.498  26.619  1.00  0.00     0.251 C 
ATOM     32  H   UNL A   1      38.531  21.115  25.509  1.00  0.00     0.163 HD
ATOM     33  O   UNL A   1      40.253  21.691  27.141  1.00  0.00    -0.269 OA
BRANCH  31  34
ATOM     34  C   UNL A   1      39.584  23.940  26.938  1.00  0.00     0.039 A 
ATOM     35  C   UNL A   1      39.224  24.378  28.215  1.00  0.00     0.014 A 
ATOM     36  C   UNL A   1      40.134  24.829  26.014  1.00  0.00     0.014 A 
ATOM     37  C   UNL A   1      39.509  25.691  28.595  1.00  0.00     0.010 A 
ATOM     38  C   UNL A   1      40.505  26.102  26.426  1.00  0.00     0.010 A 
ATOM     39  C   UNL A   1      40.199  26.548  27.722  1.00  0.00    -0.014 A 
BRANCH  39  40
ATOM     40  C   UNL A   1      40.636  27.904  28.141  1.00  0.00     0.031 A 
ATOM     41  C   UNL A   1      42.101  28.244  28.181  1.00  0.00     0.074 A 
ATOM     42  C   UNL A   1      39.724  28.789  28.593  1.00  0.00     0.049 A 
ATOM     43  N   UNL A   1      42.681  29.343  28.588  1.00  0.00    -0.248 NA
ATOM     44  C   UNL A   1      43.042  27.198  27.743  1.00  0.00     0.031 C 
ATOM     45  C   UNL A   1      38.284  28.541  28.707  1.00  0.00     0.029 A 
ATOM     46  N   UNL A   1      39.877  30.066  29.072  1.00  0.00    -0.354 N 
ATOM     47  C   UNL A   1      44.047  29.106  28.498  1.00  0.00     0.074 A 
ATOM     48  C   UNL A   1      44.213  27.746  28.038  1.00  0.00     0.031 C 
ATOM     49  C   UNL A   1      37.687  29.633  29.209  1.00  0.00     0.029 A 
ATOM     50  C   UNL A   1      38.699  30.651  29.477  1.00  0.00     0.049 A 
ATOM     51  H   UNL A   1      40.748  30.522  29.121  1.00  0.00     0.167 HD
ATOM     52  C   UNL A   1      45.073  29.957  28.737  1.00  0.00     0.034 A 
ATOM     53  C   UNL A   1      38.461  31.870  30.000  1.00  0.00     0.034 A 
ATOM     54  C   UNL A   1      44.903  31.329  29.126  1.00  0.00     0.049 A 
ATOM     55  C   UNL A   1      39.611  32.823  30.177  1.00  0.00     0.074 A 
ATOM     56  C   UNL A   1      45.872  32.304  29.285  1.00  0.00     0.029 A 
ATOM     57  N   UNL A   1      43.684  31.923  29.411  1.00  0.00    -0.354 N 
ATOM     58  N   UNL A   1      40.883  32.639  29.916  1.00  0.00    -0.248 NA
ATOM     59  C   UNL A   1      39.292  34.167  30.683  1.00  0.00     0.031 C 
ATOM     60  C   UNL A   1      45.238  33.488  29.676  1.00  0.00     0.029 A 
ATOM     61  C   UNL A   1      43.874  33.252  29.748  1.00  0.00     0.049 A 
ATOM     62  H   UNL A   1      42.812  31.467  29.381  1.00  0.00     0.167 HD
ATOM     63  C   UNL A   1      41.508  33.850  30.191  1.00  0.00     0.074 A 
ATOM     64  C   UNL A   1      40.472  34.767  30.619  1.00  0.00     0.031 C 
ATOM     65  C   UNL A   1      42.824  34.167  30.113  1.00  0.00     0.034 A 
BRANCH  52  66
ATOM     66  C   UNL A   1      46.469  29.443  28.508  1.00  0.00     0.023 A 
ATOM     67  C   UNL A   1      47.089  29.661  27.259  1.00  0.00     0.012 A 
ATOM     68  C   UNL A   1      47.187  28.793  29.530  1.00  0.00     0.148 A 
ATOM     69  C   UNL A   1      48.384  29.208  27.018  1.00  0.00     0.002 A 
ATOM     70  C   UNL A   1      48.494  28.382  29.296  1.00  0.00     0.091 A 
ATOM     71  F   UNL A   1      46.574  28.573  30.702  1.00  0.00    -0.205 F 
ATOM     72  C   UNL A   1      49.090  28.579  28.039  1.00  0.00     0.022 A 
BRANCH  70  73
ATOM     73  S   UNL A   1      49.513  27.630  30.571  1.00  0.00     0.127 S 
ATOM     74  O   UNL A   1      50.858  27.844  30.037  1.00  0.00    -0.237 OA
ATOM     75  O   UNL A   1      49.188  28.439  31.745  1.00  0.00    -0.237 OA
ATOM     76  O   UNL A   1      49.085  26.240  30.655  1.00  0.00    -0.744 OA
ENDBRANCH  70  73
ENDBRANCH  52  66
BRANCH  53  77
ATOM     77  C   UNL A   1      37.063  32.290  30.304  1.00  0.00     0.023 A 
ATOM     78  C   UNL A   1      36.507  31.967  31.557  1.00  0.00     0.012 A 
ATOM     79  C   UNL A   1      36.298  33.033  29.386  1.00  0.00     0.148 A 
ATOM     80  C   UNL A   1      35.204  32.350  31.880  1.00  0.00     0.002 A 
ATOM     81  C   UNL A   1      35.019  33.457  29.733  1.00  0.00     0.091 A 
ATOM     82  F   UNL A   1      36.838  33.319  28.192  1.00  0.00    -0.205 F 
ATOM     83  C   UNL A   1      34.465  33.103  30.973  1.00  0.00     0.022 A 
BRANCH  81  84
ATOM     84  S   UNL A   1      34.051  34.543  28.679  1.00  0.00     0.127 S 
ATOM     85  O   UNL A   1      34.820  35.784  28.742  1.00  0.00    -0.237 OA
ATOM     86  O   UNL A   1      34.104  33.849  27.392  1.00  0.00    -0.237 OA
ATOM     87  O   UNL A   1      32.724  34.585  29.279  1.00  0.00    -0.744 OA
ENDBRANCH  81  84
ENDBRANCH  53  77
BRANCH  65  88
ATOM     88  C   UNL A   1      43.226  35.573  30.471  1.00  0.00     0.023 A 
ATOM     89  C   UNL A   1      43.621  35.870  31.789  1.00  0.00     0.012 A 
ATOM     90  C   UNL A   1      43.293  36.576  29.484  1.00  0.00     0.148 A 
ATOM     91  C   UNL A   1      44.053  37.152  32.127  1.00  0.00     0.002 A 
ATOM     92  C   UNL A   1      43.768  37.839  29.818  1.00  0.00     0.091 A 
ATOM     93  F   UNL A   1      42.893  36.278  28.239  1.00  0.00    -0.205 F 
ATOM     94  C   UNL A   1      44.139  38.131  31.141  1.00  0.00     0.022 A 
BRANCH  92  95
ATOM     95  S   UNL A   1      44.001  39.129  28.590  1.00  0.00     0.127 S 
ATOM     96  O   UNL A   1      44.926  38.490  27.656  1.00  0.00    -0.237 OA
ATOM     97  O   UNL A   1      42.644  39.318  28.073  1.00  0.00    -0.237 OA
ATOM     98  O   UNL A   1      44.532  40.277  29.315  1.00  0.00    -0.744 OA
ENDBRANCH  92  95
ENDBRANCH  65  88
ENDBRANCH  39  40
ENDBRANCH  31  34
ENDBRANCH  29  30
ENDBRANCH  28  29
ENDBRANCH   1  28
TORSDOF 20
ENDMDL
MODEL 3
REMARK VINA RESULT:     -10.4      3.597      9.253
REMARK SMILES CCOc1cccc(OCC)c1-c1ccc([C@@H](C)C(=O)NCCCCNC(=O)c2ccc(-c3c4nc(c(-c5cccc(S(=O)(=O)[O-])c5F)c5ccc([nH]5)c(-c5cccc(S(=O)(=O)[O-])c5F)c5nc(c(-c6cccc(S(=O)(=O)[O-])c6F)c6ccc3[nH]6)C=C5)C=C4)cc2)cc1F
REMARK SMILES IDX 23 1 22 2 21 3 19 4 20 5 17 7 18 8 16 9 13 10 14 11 93 12
REMARK SMILES IDX 15 13 92 14 94 15 12 16 4 17 5 18 6 19 8 20 7 21 3 22 2 23
REMARK SMILES IDX 1 24 9 25 10 26 11 27 24 28 25 29 26 30 27 31 28 33 29 34
REMARK SMILES IDX 30 35 91 36 31 37 90 38 32 39 33 40 34 41 84 42 35 43 89 44
REMARK SMILES IDX 83 45 85 46 36 47 88 48 82 49 81 50 37 52 69 53 49 54 68 55
REMARK SMILES IDX 50 56 53 57 67 58 86 59 51 60 52 61 66 63 87 64 54 65 38 66
REMARK SMILES IDX 39 67 47 68 40 69 42 70 48 71 41 72 43 73 44 74 45 75 46 76
REMARK SMILES IDX 70 77 71 78 79 79 72 80 74 81 80 82 73 83 75 84 76 85 77 86
REMARK SMILES IDX 78 87 55 88 56 89 64 90 57 91 59 92 65 93 58 94 60 95 61 96
REMARK SMILES IDX 62 97 63 98
REMARK H PARENT 21 6 26 32 85 51 53 62
REMARK Flexibility Score: inf
ROOT
ATOM      1  C   UNL A   1      31.809  28.936  27.051  1.00  0.00     0.023 C 
ENDROOT
BRANCH   1   2
ATOM      2  C   UNL A   1      31.251  27.867  26.094  1.00  0.00     0.116 C 
BRANCH   2   3
ATOM      3  N   UNL A   1      31.150  28.356  24.726  1.00  0.00    -0.356 N 
ATOM      4  C   UNL A   1      32.017  28.467  23.679  1.00  0.00     0.227 C 
ATOM      5  O   UNL A   1      31.550  28.999  22.661  1.00  0.00    -0.274 OA
ATOM      6  H   UNL A   1      30.248  28.682  24.506  1.00  0.00     0.163 HD
BRANCH   4   7
ATOM      7  C   UNL A   1      33.490  27.991  23.658  1.00  0.00     0.105 C 
ATOM      8  C   UNL A   1      34.286  28.445  22.439  1.00  0.00     0.023 C 
BRANCH   7   9
ATOM      9  C   UNL A   1      33.670  26.518  23.981  1.00  0.00    -0.033 A 
ATOM     10  C   UNL A   1      33.755  23.715  24.483  1.00  0.00     0.025 A 
ATOM     11  C   UNL A   1      33.452  24.227  23.226  1.00  0.00     0.012 A 
ATOM     12  C   UNL A   1      33.998  24.645  25.504  1.00  0.00     0.131 A 
ATOM     13  C   UNL A   1      33.559  25.582  22.967  1.00  0.00     0.005 A 
ATOM     14  C   UNL A   1      33.912  26.029  25.271  1.00  0.00     0.044 A 
ATOM     15  F   UNL A   1      34.290  24.226  26.745  1.00  0.00    -0.206 F 
BRANCH  10  16
ATOM     16  C   UNL A   1      33.700  22.256  24.655  1.00  0.00     0.069 A 
ATOM     17  C   UNL A   1      32.415  21.661  24.771  1.00  0.00     0.130 A 
ATOM     18  C   UNL A   1      32.228  20.277  24.799  1.00  0.00     0.047 A 
ATOM     19  C   UNL A   1      33.327  19.440  24.685  1.00  0.00     0.008 A 
ATOM     20  C   UNL A   1      34.816  21.387  24.565  1.00  0.00     0.130 A 
ATOM     21  C   UNL A   1      34.601  19.994  24.583  1.00  0.00     0.047 A 
BRANCH  17  22
ATOM     22  O   UNL A   1      31.311  22.467  24.932  1.00  0.00    -0.493 OA
BRANCH  22  23
ATOM     23  C   UNL A   1      30.915  22.616  26.300  1.00  0.00     0.226 C 
ATOM     24  C   UNL A   1      30.490  24.058  26.527  1.00  0.00     0.049 C 
ENDBRANCH  22  23
ENDBRANCH  17  22
BRANCH  20  25
ATOM     25  O   UNL A   1      36.162  21.637  24.499  1.00  0.00    -0.493 OA
BRANCH  25  26
ATOM     26  C   UNL A   1      36.975  22.019  25.598  1.00  0.00     0.226 C 
ATOM     27  C   UNL A   1      37.338  23.496  25.522  1.00  0.00     0.049 C 
ENDBRANCH  25  26
ENDBRANCH  20  25
ENDBRANCH  10  16
ENDBRANCH   7   9
ENDBRANCH   4   7
ENDBRANCH   2   3
ENDBRANCH   1   2
BRANCH   1  28
ATOM     28  C   UNL A   1      33.278  28.818  27.428  1.00  0.00     0.023 C 
BRANCH  28  29
ATOM     29  C   UNL A   1      34.157  29.964  26.953  1.00  0.00     0.116 C 
BRANCH  29  30
ATOM     30  N   UNL A   1      33.634  31.295  27.241  1.00  0.00    -0.352 N 
ATOM     31  C   UNL A   1      34.163  32.248  28.083  1.00  0.00     0.251 C 
ATOM     32  H   UNL A   1      32.800  31.542  26.777  1.00  0.00     0.163 HD
ATOM     33  O   UNL A   1      33.581  33.314  28.264  1.00  0.00    -0.269 OA
BRANCH  31  34
ATOM     34  C   UNL A   1      35.417  31.944  28.807  1.00  0.00     0.039 A 
ATOM     35  C   UNL A   1      35.403  30.977  29.815  1.00  0.00     0.014 A 
ATOM     36  C   UNL A   1      36.619  32.532  28.408  1.00  0.00     0.014 A 
ATOM     37  C   UNL A   1      36.611  30.531  30.355  1.00  0.00     0.010 A 
ATOM     38  C   UNL A   1      37.821  32.017  28.874  1.00  0.00     0.010 A 
ATOM     39  C   UNL A   1      37.832  31.008  29.851  1.00  0.00    -0.014 A 
BRANCH  39  40
ATOM     40  C   UNL A   1      39.134  30.459  30.307  1.00  0.00     0.031 A 
ATOM     41  C   UNL A   1      39.823  31.053  31.506  1.00  0.00     0.074 A 
ATOM     42  C   UNL A   1      39.750  29.507  29.577  1.00  0.00     0.049 A 
ATOM     43  N   UNL A   1      40.993  30.762  32.012  1.00  0.00    -0.248 NA
ATOM     44  C   UNL A   1      39.122  32.143  32.208  1.00  0.00     0.031 C 
ATOM     45  C   UNL A   1      39.236  28.926  28.334  1.00  0.00     0.029 A 
ATOM     46  N   UNL A   1      40.958  28.881  29.759  1.00  0.00    -0.354 N 
ATOM     47  C   UNL A   1      41.187  31.659  33.056  1.00  0.00     0.074 A 
ATOM     48  C   UNL A   1      40.034  32.530  33.087  1.00  0.00     0.031 C 
ATOM     49  C   UNL A   1      40.115  28.022  27.873  1.00  0.00     0.029 A 
ATOM     50  C   UNL A   1      41.266  27.974  28.771  1.00  0.00     0.049 A 
ATOM     51  H   UNL A   1      41.548  29.062  30.525  1.00  0.00     0.167 HD
ATOM     52  C   UNL A   1      42.213  31.725  33.937  1.00  0.00     0.034 A 
ATOM     53  C   UNL A   1      42.349  27.189  28.609  1.00  0.00     0.034 A 
ATOM     54  C   UNL A   1      43.322  30.812  33.947  1.00  0.00     0.049 A 
ATOM     55  C   UNL A   1      43.436  27.225  29.649  1.00  0.00     0.074 A 
ATOM     56  C   UNL A   1      44.356  30.724  34.862  1.00  0.00     0.029 A 
ATOM     57  N   UNL A   1      43.540  29.825  32.998  1.00  0.00    -0.354 N 
ATOM     58  N   UNL A   1      43.515  27.958  30.734  1.00  0.00    -0.248 NA
ATOM     59  C   UNL A   1      44.563  26.299  29.468  1.00  0.00     0.031 C 
ATOM     60  C   UNL A   1      45.205  29.687  34.462  1.00  0.00     0.029 A 
ATOM     61  C   UNL A   1      44.693  29.124  33.304  1.00  0.00     0.049 A 
ATOM     62  H   UNL A   1      42.962  29.651  32.221  1.00  0.00     0.167 HD
ATOM     63  C   UNL A   1      44.679  27.559  31.380  1.00  0.00     0.074 A 
ATOM     64  C   UNL A   1      45.261  26.504  30.577  1.00  0.00     0.031 C 
ATOM     65  C   UNL A   1      45.226  28.035  32.526  1.00  0.00     0.034 A 
BRANCH  52  66
ATOM     66  C   UNL A   1      42.140  32.776  35.011  1.00  0.00     0.023 A 
ATOM     67  C   UNL A   1      42.750  34.029  34.795  1.00  0.00     0.012 A 
ATOM     68  C   UNL A   1      41.434  32.551  36.208  1.00  0.00     0.148 A 
ATOM     69  C   UNL A   1      42.691  35.027  35.765  1.00  0.00     0.002 A 
ATOM     70  C   UNL A   1      41.342  33.566  37.154  1.00  0.00     0.091 A 
ATOM     71  F   UNL A   1      40.881  31.346  36.408  1.00  0.00    -0.205 F 
ATOM     72  C   UNL A   1      41.979  34.800  36.939  1.00  0.00     0.022 A 
BRANCH  70  73
ATOM     73  S   UNL A   1      40.384  33.397  38.664  1.00  0.00     0.127 S 
ATOM     74  O   UNL A   1      40.616  34.690  39.306  1.00  0.00    -0.237 OA
ATOM     75  O   UNL A   1      39.027  33.207  38.151  1.00  0.00    -0.237 OA
ATOM     76  O   UNL A   1      40.936  32.243  39.360  1.00  0.00    -0.744 OA
ENDBRANCH  70  73
ENDBRANCH  52  66
BRANCH  53  77
ATOM     77  C   UNL A   1      42.414  26.234  27.466  1.00  0.00     0.023 A 
ATOM     78  C   UNL A   1      42.910  26.682  26.226  1.00  0.00     0.012 A 
ATOM     79  C   UNL A   1      42.027  24.888  27.604  1.00  0.00     0.148 A 
ATOM     80  C   UNL A   1      42.992  25.815  25.136  1.00  0.00     0.002 A 
ATOM     81  C   UNL A   1      42.160  24.016  26.528  1.00  0.00     0.091 A 
ATOM     82  F   UNL A   1      41.545  24.483  28.788  1.00  0.00    -0.205 F 
ATOM     83  C   UNL A   1      42.628  24.481  25.290  1.00  0.00     0.022 A 
BRANCH  81  84
ATOM     84  S   UNL A   1      41.843  22.254  26.678  1.00  0.00     0.127 S 
ATOM     85  O   UNL A   1      42.452  21.949  27.970  1.00  0.00    -0.237 OA
ATOM     86  O   UNL A   1      40.380  22.204  26.660  1.00  0.00    -0.237 OA
ATOM     87  O   UNL A   1      42.474  21.644  25.515  1.00  0.00    -0.744 OA
ENDBRANCH  81  84
ENDBRANCH  53  77
BRANCH  65  88
ATOM     88  C   UNL A   1      46.507  27.405  33.004  1.00  0.00     0.023 A 
ATOM     89  C   UNL A   1      46.457  26.295  33.868  1.00  0.00     0.012 A 
ATOM     90  C   UNL A   1      47.753  27.859  32.529  1.00  0.00     0.148 A 
ATOM     91  C   UNL A   1      47.629  25.661  34.274  1.00  0.00     0.002 A 
ATOM     92  C   UNL A   1      48.915  27.193  32.901  1.00  0.00     0.091 A 
ATOM     93  F   UNL A   1      47.781  28.930  31.723  1.00  0.00    -0.205 F 
ATOM     94  C   UNL A   1      48.855  26.100  33.782  1.00  0.00     0.022 A 
BRANCH  92  95
ATOM     95  S   UNL A   1      50.525  27.634  32.239  1.00  0.00     0.127 S 
ATOM     96  O   UNL A   1      50.203  27.930  30.844  1.00  0.00    -0.237 OA
ATOM     97  O   UNL A   1      50.886  28.803  33.043  1.00  0.00    -0.237 OA
ATOM     98  O   UNL A   1      51.376  26.471  32.454  1.00  0.00    -0.744 OA
ENDBRANCH  92  95
ENDBRANCH  65  88
ENDBRANCH  39  40
ENDBRANCH  31  34
ENDBRANCH  29  30
ENDBRANCH  28  29
ENDBRANCH   1  28
TORSDOF 20
ENDMDL
