MODEL 1
REMARK VINA RESULT:     -12.3      0.000      0.000
REMARK SMILES CC1(C)C[C@@H](Nc2ccc(Cl)c(C(=O)NCCCCNC(=O)c3ccc(-c4c5nc(c(-c6cccc(S(=O)(=O)[O-])c6F)c6ccc([nH]6)c(-c6cccc(S(=O)(=O)[O-])c6F)c6nc(c(-c7cccc(S(=O)(=O)[O-])c7F)c7ccc4[nH]7)C=C6)C=C5)cc3)c2)C(C)(C)O1
REMARK SMILES IDX 18 1 17 2 16 3 15 4 13 5 14 6 12 8 7 9 8 10 86 11 9 12 10 13
REMARK SMILES IDX 11 14 6 15 5 17 1 18 2 19 3 20 4 21 90 22 87 23 88 24 89 25
REMARK SMILES IDX 19 26 20 27 21 28 22 30 23 31 24 32 85 33 25 34 84 35 26 36
REMARK SMILES IDX 27 37 28 38 78 39 29 40 83 41 77 42 79 43 30 44 82 45 76 46
REMARK SMILES IDX 75 47 31 49 63 50 43 51 62 52 44 53 47 54 61 55 80 56 45 57
REMARK SMILES IDX 46 58 60 60 81 61 48 62 32 63 33 64 41 65 34 66 36 67 42 68
REMARK SMILES IDX 35 69 37 70 38 71 39 72 40 73 64 74 65 75 73 76 66 77 68 78
REMARK SMILES IDX 74 79 67 80 69 81 70 82 71 83 72 84 49 85 50 86 58 87 51 88
REMARK SMILES IDX 53 89 59 90 52 91 54 92 55 93 56 94 57 95
REMARK H PARENT 15 7 6 16 20 29 79 48 47 59
REMARK Flexibility Score: inf
ROOT
ATOM      1  C   UNL A   1      31.891  30.843  26.754  1.00  0.00     0.023 C 
ENDROOT
BRANCH   1   2
ATOM      2  C   UNL A   1      32.063  30.059  25.454  1.00  0.00     0.023 C 
BRANCH   2   3
ATOM      3  C   UNL A   1      33.298  29.172  25.349  1.00  0.00     0.116 C 
BRANCH   3   4
ATOM      4  N   UNL A   1      33.899  29.110  24.030  1.00  0.00    -0.352 N 
ATOM      5  C   UNL A   1      33.711  28.203  23.013  1.00  0.00     0.252 C 
ATOM      6  O   UNL A   1      34.289  28.381  21.941  1.00  0.00    -0.269 OA
ATOM      7  H   UNL A   1      34.542  29.829  23.833  1.00  0.00     0.163 HD
BRANCH   5   8
ATOM      8  C   UNL A   1      32.920  26.960  23.188  1.00  0.00     0.060 A 
ATOM      9  C   UNL A   1      33.039  24.539  23.554  1.00  0.00     0.035 A 
ATOM     10  C   UNL A   1      31.644  24.505  23.583  1.00  0.00     0.027 A 
ATOM     11  C   UNL A   1      33.666  25.783  23.423  1.00  0.00     0.041 A 
ATOM     12  C   UNL A   1      30.896  25.646  23.305  1.00  0.00     0.023 A 
ATOM     13  C   UNL A   1      31.536  26.854  23.023  1.00  0.00     0.053 A 
ATOM     14  Cl  UNL A   1      30.550  28.082  22.315  1.00  0.00    -0.083 Cl
BRANCH   9  15
ATOM     15  N   UNL A   1      33.787  23.365  23.489  1.00  0.00    -0.379 N 
ATOM     16  H   UNL A   1      33.616  22.692  22.791  1.00  0.00     0.160 HD
BRANCH  15  17
ATOM     17  C   UNL A   1      34.835  23.166  24.491  1.00  0.00     0.113 C 
ATOM     18  C   UNL A   1      37.710  20.856  24.844  1.00  0.00     0.042 C 
ATOM     19  C   UNL A   1      36.806  22.048  25.146  1.00  0.00     0.065 C 
ATOM     20  C   UNL A   1      37.623  23.157  25.822  1.00  0.00     0.042 C 
ATOM     21  C   UNL A   1      36.075  22.536  23.898  1.00  0.00     0.062 C 
ATOM     22  O   UNL A   1      35.778  21.631  26.068  1.00  0.00    -0.367 OA
ATOM     23  C   UNL A   1      34.506  22.205  25.657  1.00  0.00     0.083 C 
ATOM     24  C   UNL A   1      33.596  21.028  25.292  1.00  0.00     0.044 C 
ATOM     25  C   UNL A   1      33.923  22.957  26.855  1.00  0.00     0.044 C 
ENDBRANCH  15  17
ENDBRANCH   9  15
ENDBRANCH   5   8
ENDBRANCH   3   4
ENDBRANCH   2   3
ENDBRANCH   1   2
BRANCH   1  26
ATOM     26  C   UNL A   1      33.025  31.786  27.152  1.00  0.00     0.116 C 
BRANCH  26  27
ATOM     27  N   UNL A   1      32.600  33.154  27.421  1.00  0.00    -0.352 N 
ATOM     28  C   UNL A   1      33.097  34.083  28.306  1.00  0.00     0.251 C 
ATOM     29  H   UNL A   1      31.835  33.462  26.883  1.00  0.00     0.163 HD
ATOM     30  O   UNL A   1      32.545  35.177  28.412  1.00  0.00    -0.269 OA
BRANCH  28  31
ATOM     31  C   UNL A   1      34.260  33.761  29.164  1.00  0.00     0.039 A 
ATOM     32  C   UNL A   1      34.057  32.966  30.297  1.00  0.00     0.014 A 
ATOM     33  C   UNL A   1      35.544  34.209  28.848  1.00  0.00     0.014 A 
ATOM     34  C   UNL A   1      35.155  32.533  31.048  1.00  0.00     0.010 A 
ATOM     35  C   UNL A   1      36.641  33.711  29.549  1.00  0.00     0.010 A 
ATOM     36  C   UNL A   1      36.461  32.853  30.646  1.00  0.00    -0.014 A 
BRANCH  36  37
ATOM     37  C   UNL A   1      37.649  32.257  31.314  1.00  0.00     0.031 A 
ATOM     38  C   UNL A   1      38.391  31.112  30.679  1.00  0.00     0.074 A 
ATOM     39  C   UNL A   1      37.989  32.670  32.553  1.00  0.00     0.049 A 
ATOM     40  N   UNL A   1      39.389  30.411  31.156  1.00  0.00    -0.248 NA
ATOM     41  C   UNL A   1      37.937  30.676  29.349  1.00  0.00     0.031 C 
ATOM     42  C   UNL A   1      37.293  33.707  33.320  1.00  0.00     0.029 A 
ATOM     43  N   UNL A   1      38.982  32.245  33.402  1.00  0.00    -0.354 N 
ATOM     44  C   UNL A   1      39.652  29.428  30.210  1.00  0.00     0.074 A 
ATOM     45  C   UNL A   1      38.695  29.607  29.140  1.00  0.00     0.031 C 
ATOM     46  C   UNL A   1      37.876  33.833  34.523  1.00  0.00     0.029 A 
ATOM     47  C   UNL A   1      38.968  32.871  34.628  1.00  0.00     0.049 A 
ATOM     48  H   UNL A   1      39.642  31.556  33.156  1.00  0.00     0.167 HD
ATOM     49  C   UNL A   1      40.620  28.481  30.215  1.00  0.00     0.034 A 
ATOM     50  C   UNL A   1      39.738  32.686  35.718  1.00  0.00     0.034 A 
ATOM     51  C   UNL A   1      41.610  28.344  31.249  1.00  0.00     0.049 A 
ATOM     52  C   UNL A   1      40.848  31.670  35.669  1.00  0.00     0.074 A 
ATOM     53  C   UNL A   1      42.699  27.491  31.287  1.00  0.00     0.029 A 
ATOM     54  N   UNL A   1      41.634  29.073  32.427  1.00  0.00    -0.354 N 
ATOM     55  N   UNL A   1      41.194  30.876  34.686  1.00  0.00    -0.248 NA
ATOM     56  C   UNL A   1      41.695  31.549  36.866  1.00  0.00     0.031 C 
ATOM     57  C   UNL A   1      43.373  27.693  32.495  1.00  0.00     0.029 A 
ATOM     58  C   UNL A   1      42.711  28.683  33.204  1.00  0.00     0.049 A 
ATOM     59  H   UNL A   1      40.979  29.765  32.675  1.00  0.00     0.167 HD
ATOM     60  C   UNL A   1      42.315  30.184  35.132  1.00  0.00     0.074 A 
ATOM     61  C   UNL A   1      42.605  30.673  36.464  1.00  0.00     0.031 C 
ATOM     62  C   UNL A   1      43.027  29.218  34.502  1.00  0.00     0.034 A 
BRANCH  49  63
ATOM     63  C   UNL A   1      40.706  27.556  29.031  1.00  0.00     0.023 A 
ATOM     64  C   UNL A   1      39.792  26.489  28.920  1.00  0.00     0.012 A 
ATOM     65  C   UNL A   1      41.630  27.786  27.993  1.00  0.00     0.148 A 
ATOM     66  C   UNL A   1      39.812  25.648  27.809  1.00  0.00     0.002 A 
ATOM     67  C   UNL A   1      41.618  26.968  26.868  1.00  0.00     0.091 A 
ATOM     68  F   UNL A   1      42.503  28.795  28.125  1.00  0.00    -0.205 F 
ATOM     69  C   UNL A   1      40.716  25.893  26.780  1.00  0.00     0.022 A 
BRANCH  67  70
ATOM     70  S   UNL A   1      42.689  27.246  25.453  1.00  0.00     0.127 S 
ATOM     71  O   UNL A   1      43.985  27.444  26.099  1.00  0.00    -0.237 OA
ATOM     72  O   UNL A   1      42.561  25.987  24.718  1.00  0.00    -0.237 OA
ATOM     73  O   UNL A   1      42.150  28.410  24.763  1.00  0.00    -0.744 OA
ENDBRANCH  67  70
ENDBRANCH  49  63
BRANCH  50  74
ATOM     74  C   UNL A   1      39.533  33.532  36.929  1.00  0.00     0.023 A 
ATOM     75  C   UNL A   1      40.031  34.850  36.942  1.00  0.00     0.012 A 
ATOM     76  C   UNL A   1      38.837  33.052  38.055  1.00  0.00     0.148 A 
ATOM     77  C   UNL A   1      39.869  35.662  38.064  1.00  0.00     0.002 A 
ATOM     78  C   UNL A   1      38.631  33.884  39.149  1.00  0.00     0.091 A 
ATOM     79  F   UNL A   1      38.385  31.789  38.034  1.00  0.00    -0.205 F 
ATOM     80  C   UNL A   1      39.161  35.184  39.164  1.00  0.00     0.022 A 
BRANCH  78  81
ATOM     81  S   UNL A   1      37.614  33.391  40.546  1.00  0.00     0.127 S 
ATOM     82  O   UNL A   1      36.359  33.034  39.892  1.00  0.00    -0.237 OA
ATOM     83  O   UNL A   1      38.367  32.260  41.090  1.00  0.00    -0.237 OA
ATOM     84  O   UNL A   1      37.571  34.553  41.422  1.00  0.00    -0.744 OA
ENDBRANCH  78  81
ENDBRANCH  50  74
BRANCH  62  85
ATOM     85  C   UNL A   1      44.211  28.635  35.228  1.00  0.00     0.023 A 
ATOM     86  C   UNL A   1      45.496  29.165  35.000  1.00  0.00     0.012 A 
ATOM     87  C   UNL A   1      44.039  27.624  36.194  1.00  0.00     0.148 A 
ATOM     88  C   UNL A   1      46.597  28.676  35.703  1.00  0.00     0.002 A 
ATOM     89  C   UNL A   1      45.134  27.175  36.923  1.00  0.00     0.091 A 
ATOM     90  F   UNL A   1      42.810  27.120  36.382  1.00  0.00    -0.205 F 
ATOM     91  C   UNL A   1      46.415  27.692  36.672  1.00  0.00     0.022 A 
BRANCH  89  92
ATOM     92  S   UNL A   1      44.977  25.977  38.252  1.00  0.00     0.127 S 
ATOM     93  O   UNL A   1      46.360  25.850  38.706  1.00  0.00    -0.237 OA
ATOM     94  O   UNL A   1      44.088  26.666  39.190  1.00  0.00    -0.237 OA
ATOM     95  O   UNL A   1      44.402  24.783  37.649  1.00  0.00    -0.744 OA
ENDBRANCH  89  92
ENDBRANCH  62  85
ENDBRANCH  36  37
ENDBRANCH  28  31
ENDBRANCH  26  27
ENDBRANCH   1  26
TORSDOF 16
ENDMDL
MODEL 2
REMARK VINA RESULT:     -12.3      1.680      2.241
REMARK SMILES CC1(C)C[C@@H](Nc2ccc(Cl)c(C(=O)NCCCCNC(=O)c3ccc(-c4c5nc(c(-c6cccc(S(=O)(=O)[O-])c6F)c6ccc([nH]6)c(-c6cccc(S(=O)(=O)[O-])c6F)c6nc(c(-c7cccc(S(=O)(=O)[O-])c7F)c7ccc4[nH]7)C=C6)C=C5)cc3)c2)C(C)(C)O1
REMARK SMILES IDX 18 1 17 2 16 3 15 4 13 5 14 6 12 8 7 9 8 10 86 11 9 12 10 13
REMARK SMILES IDX 11 14 6 15 5 17 1 18 2 19 3 20 4 21 90 22 87 23 88 24 89 25
REMARK SMILES IDX 19 26 20 27 21 28 22 30 23 31 24 32 85 33 25 34 84 35 26 36
REMARK SMILES IDX 27 37 28 38 78 39 29 40 83 41 77 42 79 43 30 44 82 45 76 46
REMARK SMILES IDX 75 47 31 49 63 50 43 51 62 52 44 53 47 54 61 55 80 56 45 57
REMARK SMILES IDX 46 58 60 60 81 61 48 62 32 63 33 64 41 65 34 66 36 67 42 68
REMARK SMILES IDX 35 69 37 70 38 71 39 72 40 73 64 74 65 75 73 76 66 77 68 78
REMARK SMILES IDX 74 79 67 80 69 81 70 82 71 83 72 84 49 85 50 86 58 87 51 88
REMARK SMILES IDX 53 89 59 90 52 91 54 92 55 93 56 94 57 95
REMARK H PARENT 15 7 6 16 20 29 79 48 47 59
REMARK Flexibility Score: inf
ROOT
ATOM      1  C   UNL A   1      31.370  32.013  26.884  1.00  0.00     0.023 C 
ENDROOT
BRANCH   1   2
ATOM      2  C   UNL A   1      31.640  30.554  26.520  1.00  0.00     0.023 C 
BRANCH   2   3
ATOM      3  C   UNL A   1      33.070  30.059  26.699  1.00  0.00     0.116 C 
BRANCH   3   4
ATOM      4  N   UNL A   1      33.729  29.630  25.479  1.00  0.00    -0.352 N 
ATOM      5  C   UNL A   1      33.525  28.508  24.709  1.00  0.00     0.252 C 
ATOM      6  O   UNL A   1      34.165  28.375  23.667  1.00  0.00    -0.269 OA
ATOM      7  H   UNL A   1      34.432  30.237  25.152  1.00  0.00     0.163 HD
BRANCH   5   8
ATOM      8  C   UNL A   1      32.636  27.398  25.135  1.00  0.00     0.060 A 
ATOM      9  C   UNL A   1      32.558  25.146  26.098  1.00  0.00     0.035 A 
ATOM     10  C   UNL A   1      31.164  25.203  26.043  1.00  0.00     0.027 A 
ATOM     11  C   UNL A   1      33.281  26.278  25.703  1.00  0.00     0.041 A 
ATOM     12  C   UNL A   1      30.517  26.279  25.441  1.00  0.00     0.023 A 
ATOM     13  C   UNL A   1      31.258  27.336  24.910  1.00  0.00     0.053 A 
ATOM     14  Cl  UNL A   1      30.401  28.403  23.856  1.00  0.00    -0.083 Cl
BRANCH   9  15
ATOM     15  N   UNL A   1      33.219  23.952  26.376  1.00  0.00    -0.379 N 
ATOM     16  H   UNL A   1      33.646  23.798  27.250  1.00  0.00     0.160 HD
BRANCH  15  17
ATOM     17  C   UNL A   1      33.256  22.931  25.327  1.00  0.00     0.113 C 
ATOM     18  C   UNL A   1      33.033  19.234  25.268  1.00  0.00     0.042 C 
ATOM     19  C   UNL A   1      33.068  20.658  24.724  1.00  0.00     0.065 C 
ATOM     20  C   UNL A   1      32.315  20.718  23.387  1.00  0.00     0.042 C 
ATOM     21  C   UNL A   1      32.537  21.667  25.740  1.00  0.00     0.062 C 
ATOM     22  O   UNL A   1      34.439  21.031  24.477  1.00  0.00    -0.367 OA
ATOM     23  C   UNL A   1      34.652  22.398  24.928  1.00  0.00     0.083 C 
ATOM     24  C   UNL A   1      35.670  22.324  26.069  1.00  0.00     0.044 C 
ATOM     25  C   UNL A   1      35.240  23.189  23.759  1.00  0.00     0.044 C 
ENDBRANCH  15  17
ENDBRANCH   9  15
ENDBRANCH   5   8
ENDBRANCH   3   4
ENDBRANCH   2   3
ENDBRANCH   1   2
BRANCH   1  26
ATOM     26  C   UNL A   1      32.538  32.988  26.760  1.00  0.00     0.116 C 
BRANCH  26  27
ATOM     27  N   UNL A   1      32.454  34.140  27.649  1.00  0.00    -0.352 N 
ATOM     28  C   UNL A   1      33.269  34.524  28.689  1.00  0.00     0.251 C 
ATOM     29  H   UNL A   1      31.692  34.740  27.477  1.00  0.00     0.163 HD
ATOM     30  O   UNL A   1      32.978  35.518  29.353  1.00  0.00    -0.269 OA
BRANCH  28  31
ATOM     31  C   UNL A   1      34.463  33.726  29.046  1.00  0.00     0.039 A 
ATOM     32  C   UNL A   1      35.730  34.273  28.813  1.00  0.00     0.014 A 
ATOM     33  C   UNL A   1      34.348  32.464  29.631  1.00  0.00     0.014 A 
ATOM     34  C   UNL A   1      36.871  33.603  29.264  1.00  0.00     0.010 A 
ATOM     35  C   UNL A   1      35.479  31.837  30.150  1.00  0.00     0.010 A 
ATOM     36  C   UNL A   1      36.751  32.407  29.989  1.00  0.00    -0.014 A 
BRANCH  36  37
ATOM     37  C   UNL A   1      37.929  31.770  30.639  1.00  0.00     0.031 A 
ATOM     38  C   UNL A   1      38.705  30.692  29.931  1.00  0.00     0.074 A 
ATOM     39  C   UNL A   1      38.227  32.079  31.918  1.00  0.00     0.049 A 
ATOM     40  N   UNL A   1      39.698  29.965  30.375  1.00  0.00    -0.248 NA
ATOM     41  C   UNL A   1      38.295  30.367  28.555  1.00  0.00     0.031 C 
ATOM     42  C   UNL A   1      37.495  33.038  32.750  1.00  0.00     0.029 A 
ATOM     43  N   UNL A   1      39.202  31.595  32.756  1.00  0.00    -0.354 N 
ATOM     44  C   UNL A   1      40.002  29.070  29.357  1.00  0.00     0.074 A 
ATOM     45  C   UNL A   1      39.074  29.329  28.278  1.00  0.00     0.031 C 
ATOM     46  C   UNL A   1      38.042  33.068  33.976  1.00  0.00     0.029 A 
ATOM     47  C   UNL A   1      39.144  32.113  34.030  1.00  0.00     0.049 A 
ATOM     48  H   UNL A   1      39.878  30.938  32.472  1.00  0.00     0.167 HD
ATOM     49  C   UNL A   1      40.984  28.138  29.310  1.00  0.00     0.034 A 
ATOM     50  C   UNL A   1      39.886  31.846  35.123  1.00  0.00     0.034 A 
ATOM     51  C   UNL A   1      41.946  27.925  30.358  1.00  0.00     0.049 A 
ATOM     52  C   UNL A   1      41.011  30.851  35.020  1.00  0.00     0.074 A 
ATOM     53  C   UNL A   1      43.046  27.085  30.354  1.00  0.00     0.029 A 
ATOM     54  N   UNL A   1      41.926  28.550  31.593  1.00  0.00    -0.354 N 
ATOM     55  N   UNL A   1      41.397  30.148  33.984  1.00  0.00    -0.248 NA
ATOM     56  C   UNL A   1      41.825  30.638  36.227  1.00  0.00     0.031 C 
ATOM     57  C   UNL A   1      43.682  27.191  31.595  1.00  0.00     0.029 A 
ATOM     58  C   UNL A   1      42.986  28.108  32.365  1.00  0.00     0.049 A 
ATOM     59  H   UNL A   1      41.255  29.211  31.880  1.00  0.00     0.167 HD
ATOM     60  C   UNL A   1      42.514  29.434  34.401  1.00  0.00     0.074 A 
ATOM     61  C   UNL A   1      42.759  29.811  35.778  1.00  0.00     0.031 C 
ATOM     62  C   UNL A   1      43.258  28.534  33.713  1.00  0.00     0.034 A 
BRANCH  49  63
ATOM     63  C   UNL A   1      41.117  27.319  28.054  1.00  0.00     0.023 A 
ATOM     64  C   UNL A   1      41.739  27.885  26.923  1.00  0.00     0.012 A 
ATOM     65  C   UNL A   1      40.704  25.972  28.016  1.00  0.00     0.148 A 
ATOM     66  C   UNL A   1      41.924  27.134  25.763  1.00  0.00     0.002 A 
ATOM     67  C   UNL A   1      40.930  25.217  26.870  1.00  0.00     0.091 A 
ATOM     68  F   UNL A   1      40.099  25.458  29.096  1.00  0.00    -0.205 F 
ATOM     69  C   UNL A   1      41.530  25.799  25.741  1.00  0.00     0.022 A 
BRANCH  67  70
ATOM     70  S   UNL A   1      40.530  23.469  26.765  1.00  0.00     0.127 S 
ATOM     71  O   UNL A   1      41.440  23.021  25.713  1.00  0.00    -0.237 OA
ATOM     72  O   UNL A   1      40.870  22.995  28.108  1.00  0.00    -0.237 OA
ATOM     73  O   UNL A   1      39.113  23.399  26.437  1.00  0.00    -0.744 OA
ENDBRANCH  67  70
ENDBRANCH  49  63
BRANCH  50  74
ATOM     74  C   UNL A   1      39.635  32.581  36.395  1.00  0.00     0.023 A 
ATOM     75  C   UNL A   1      40.376  33.746  36.676  1.00  0.00     0.012 A 
ATOM     76  C   UNL A   1      38.660  32.152  37.316  1.00  0.00     0.148 A 
ATOM     77  C   UNL A   1      40.176  34.450  37.863  1.00  0.00     0.002 A 
ATOM     78  C   UNL A   1      38.426  32.889  38.472  1.00  0.00     0.091 A 
ATOM     79  F   UNL A   1      37.974  31.032  37.042  1.00  0.00    -0.205 F 
ATOM     80  C   UNL A   1      39.194  34.028  38.757  1.00  0.00     0.022 A 
BRANCH  78  81
ATOM     81  S   UNL A   1      37.090  32.489  39.605  1.00  0.00     0.127 S 
ATOM     82  O   UNL A   1      35.920  32.590  38.737  1.00  0.00    -0.237 OA
ATOM     83  O   UNL A   1      37.433  31.127  40.017  1.00  0.00    -0.237 OA
ATOM     84  O   UNL A   1      37.182  33.474  40.673  1.00  0.00    -0.744 OA
ENDBRANCH  78  81
ENDBRANCH  50  74
BRANCH  62  85
ATOM     85  C   UNL A   1      44.428  27.905  34.421  1.00  0.00     0.023 A 
ATOM     86  C   UNL A   1      45.685  28.540  34.385  1.00  0.00     0.012 A 
ATOM     87  C   UNL A   1      44.265  26.735  35.189  1.00  0.00     0.148 A 
ATOM     88  C   UNL A   1      46.769  28.004  35.080  1.00  0.00     0.002 A 
ATOM     89  C   UNL A   1      45.338  26.233  35.915  1.00  0.00     0.091 A 
ATOM     90  F   UNL A   1      43.065  26.135  35.194  1.00  0.00    -0.205 F 
ATOM     91  C   UNL A   1      46.593  26.859  35.854  1.00  0.00     0.022 A 
BRANCH  89  92
ATOM     92  S   UNL A   1      45.177  24.817  37.010  1.00  0.00     0.127 S 
ATOM     93  O   UNL A   1      44.778  23.763  36.080  1.00  0.00    -0.237 OA
ATOM     94  O   UNL A   1      46.534  24.679  37.543  1.00  0.00    -0.237 OA
ATOM     95  O   UNL A   1      44.179  25.190  38.002  1.00  0.00    -0.744 OA
ENDBRANCH  89  92
ENDBRANCH  62  85
ENDBRANCH  36  37
ENDBRANCH  28  31
ENDBRANCH  26  27
ENDBRANCH   1  26
TORSDOF 16
ENDMDL
MODEL 3
REMARK VINA RESULT:     -12.3      5.480      8.976
REMARK SMILES CC1(C)C[C@@H](Nc2ccc(Cl)c(C(=O)NCCCCNC(=O)c3ccc(-c4c5nc(c(-c6cccc(S(=O)(=O)[O-])c6F)c6ccc([nH]6)c(-c6cccc(S(=O)(=O)[O-])c6F)c6nc(c(-c7cccc(S(=O)(=O)[O-])c7F)c7ccc4[nH]7)C=C6)C=C5)cc3)c2)C(C)(C)O1
REMARK SMILES IDX 18 1 17 2 16 3 15 4 13 5 14 6 12 8 7 9 8 10 86 11 9 12 10 13
REMARK SMILES IDX 11 14 6 15 5 17 1 18 2 19 3 20 4 21 90 22 87 23 88 24 89 25
REMARK SMILES IDX 19 26 20 27 21 28 22 30 23 31 24 32 85 33 25 34 84 35 26 36
REMARK SMILES IDX 27 37 28 38 78 39 29 40 83 41 77 42 79 43 30 44 82 45 76 46
REMARK SMILES IDX 75 47 31 49 63 50 43 51 62 52 44 53 47 54 61 55 80 56 45 57
REMARK SMILES IDX 46 58 60 60 81 61 48 62 32 63 33 64 41 65 34 66 36 67 42 68
REMARK SMILES IDX 35 69 37 70 38 71 39 72 40 73 64 74 65 75 73 76 66 77 68 78
REMARK SMILES IDX 74 79 67 80 69 81 70 82 71 83 72 84 49 85 50 86 58 87 51 88
REMARK SMILES IDX 53 89 59 90 52 91 54 92 55 93 56 94 57 95
REMARK H PARENT 15 7 6 16 20 29 79 48 47 59
REMARK Flexibility Score: inf
ROOT
ATOM      1  C   UNL A   1      35.745  21.285  25.321  1.00  0.00     0.023 C 
ENDROOT
BRANCH   1   2
ATOM      2  C   UNL A   1      35.195  22.056  26.520  1.00  0.00     0.023 C 
BRANCH   2   3
ATOM      3  C   UNL A   1      34.048  21.404  27.283  1.00  0.00     0.116 C 
BRANCH   3   4
ATOM      4  N   UNL A   1      32.958  22.295  27.634  1.00  0.00    -0.352 N 
ATOM      5  C   UNL A   1      32.199  23.122  26.838  1.00  0.00     0.252 C 
ATOM      6  O   UNL A   1      31.273  23.753  27.345  1.00  0.00    -0.269 OA
ATOM      7  H   UNL A   1      32.725  22.310  28.590  1.00  0.00     0.163 HD
BRANCH   5   8
ATOM      8  C   UNL A   1      32.515  23.365  25.408  1.00  0.00     0.060 A 
ATOM      9  C   UNL A   1      32.990  25.077  23.720  1.00  0.00     0.035 A 
ATOM     10  C   UNL A   1      33.161  24.059  22.779  1.00  0.00     0.027 A 
ATOM     11  C   UNL A   1      32.734  24.712  25.047  1.00  0.00     0.041 A 
ATOM     12  C   UNL A   1      32.901  22.732  23.109  1.00  0.00     0.023 A 
ATOM     13  C   UNL A   1      32.495  22.395  24.401  1.00  0.00     0.053 A 
ATOM     14  Cl  UNL A   1      31.827  20.815  24.595  1.00  0.00    -0.083 Cl
BRANCH   9  15
ATOM     15  N   UNL A   1      32.911  26.412  23.330  1.00  0.00    -0.379 N 
ATOM     16  H   UNL A   1      33.672  26.860  22.895  1.00  0.00     0.160 HD
BRANCH  15  17
ATOM     17  C   UNL A   1      31.659  27.125  23.586  1.00  0.00     0.113 C 
ATOM     18  C   UNL A   1      29.821  29.866  21.903  1.00  0.00     0.042 C 
ATOM     19  C   UNL A   1      30.072  28.721  22.880  1.00  0.00     0.065 C 
ATOM     20  C   UNL A   1      28.736  28.076  23.273  1.00  0.00     0.042 C 
ATOM     21  C   UNL A   1      31.070  27.709  22.322  1.00  0.00     0.062 C 
ATOM     22  O   UNL A   1      30.676  29.253  24.077  1.00  0.00    -0.367 OA
ATOM     23  C   UNL A   1      31.743  28.363  24.509  1.00  0.00     0.083 C 
ATOM     24  C   UNL A   1      33.044  29.164  24.406  1.00  0.00     0.044 C 
ATOM     25  C   UNL A   1      31.479  27.992  25.969  1.00  0.00     0.044 C 
ENDBRANCH  15  17
ENDBRANCH   9  15
ENDBRANCH   5   8
ENDBRANCH   3   4
ENDBRANCH   2   3
ENDBRANCH   1   2
BRANCH   1  26
ATOM     26  C   UNL A   1      37.170  21.611  24.879  1.00  0.00     0.116 C 
BRANCH  26  27
ATOM     27  N   UNL A   1      38.168  20.640  25.309  1.00  0.00    -0.352 N 
ATOM     28  C   UNL A   1      39.316  20.810  26.049  1.00  0.00     0.251 C 
ATOM     29  H   UNL A   1      37.993  19.714  25.024  1.00  0.00     0.163 HD
ATOM     30  O   UNL A   1      40.055  19.849  26.253  1.00  0.00    -0.269 OA
BRANCH  28  31
ATOM     31  C   UNL A   1      39.692  22.147  26.561  1.00  0.00     0.039 A 
ATOM     32  C   UNL A   1      40.726  22.240  27.498  1.00  0.00     0.014 A 
ATOM     33  C   UNL A   1      39.058  23.305  26.107  1.00  0.00     0.014 A 
ATOM     34  C   UNL A   1      41.195  23.496  27.895  1.00  0.00     0.010 A 
ATOM     35  C   UNL A   1      39.578  24.554  26.442  1.00  0.00     0.010 A 
ATOM     36  C   UNL A   1      40.664  24.664  27.325  1.00  0.00    -0.014 A 
BRANCH  36  37
ATOM     37  C   UNL A   1      41.264  26.001  27.588  1.00  0.00     0.031 A 
ATOM     38  C   UNL A   1      42.676  26.303  27.167  1.00  0.00     0.074 A 
ATOM     39  C   UNL A   1      40.574  26.905  28.314  1.00  0.00     0.049 A 
ATOM     40  N   UNL A   1      43.391  27.376  27.392  1.00  0.00    -0.248 NA
ATOM     41  C   UNL A   1      43.391  25.253  26.422  1.00  0.00     0.031 C 
ATOM     42  C   UNL A   1      39.231  26.702  28.865  1.00  0.00     0.029 A 
ATOM     43  N   UNL A   1      40.919  28.162  28.747  1.00  0.00    -0.354 N 
ATOM     44  C   UNL A   1      44.648  27.116  26.859  1.00  0.00     0.074 A 
ATOM     45  C   UNL A   1      44.607  25.774  26.319  1.00  0.00     0.031 C 
ATOM     46  C   UNL A   1      38.869  27.790  29.563  1.00  0.00     0.029 A 
ATOM     47  C   UNL A   1      39.960  28.759  29.535  1.00  0.00     0.049 A 
ATOM     48  H   UNL A   1      41.771  28.596  28.515  1.00  0.00     0.167 HD
ATOM     49  C   UNL A   1      45.729  27.929  26.797  1.00  0.00     0.034 A 
ATOM     50  C   UNL A   1      39.961  29.946  30.174  1.00  0.00     0.034 A 
ATOM     51  C   UNL A   1      45.749  29.284  27.278  1.00  0.00     0.049 A 
ATOM     52  C   UNL A   1      41.153  30.854  30.032  1.00  0.00     0.074 A 
ATOM     53  C   UNL A   1      46.759  30.223  27.156  1.00  0.00     0.029 A 
ATOM     54  N   UNL A   1      44.719  29.895  27.973  1.00  0.00    -0.354 N 
ATOM     55  N   UNL A   1      42.263  30.658  29.364  1.00  0.00    -0.248 NA
ATOM     56  C   UNL A   1      41.079  32.161  30.703  1.00  0.00     0.031 C 
ATOM     57  C   UNL A   1      46.345  31.397  27.792  1.00  0.00     0.029 A 
ATOM     58  C   UNL A   1      45.070  31.194  28.296  1.00  0.00     0.049 A 
ATOM     59  H   UNL A   1      43.863  29.467  28.203  1.00  0.00     0.167 HD
ATOM     60  C   UNL A   1      43.005  31.825  29.507  1.00  0.00     0.074 A 
ATOM     61  C   UNL A   1      42.206  32.733  30.303  1.00  0.00     0.031 C 
ATOM     62  C   UNL A   1      44.244  32.111  29.037  1.00  0.00     0.034 A 
BRANCH  49  63
ATOM     63  C   UNL A   1      46.968  27.403  26.122  1.00  0.00     0.023 A 
ATOM     64  C   UNL A   1      47.181  27.681  24.756  1.00  0.00     0.012 A 
ATOM     65  C   UNL A   1      47.954  26.708  26.849  1.00  0.00     0.148 A 
ATOM     66  C   UNL A   1      48.343  27.253  24.117  1.00  0.00     0.002 A 
ATOM     67  C   UNL A   1      49.129  26.319  26.214  1.00  0.00     0.091 A 
ATOM     68  F   UNL A   1      47.724  26.437  28.142  1.00  0.00    -0.205 F 
ATOM     69  C   UNL A   1      49.321  26.583  24.848  1.00  0.00     0.022 A 
BRANCH  67  70
ATOM     70  S   UNL A   1      50.483  25.519  27.083  1.00  0.00     0.127 S 
ATOM     71  O   UNL A   1      51.432  25.284  25.997  1.00  0.00    -0.237 OA
ATOM     72  O   UNL A   1      50.891  26.553  28.036  1.00  0.00    -0.237 OA
ATOM     73  O   UNL A   1      49.919  24.322  27.690  1.00  0.00    -0.744 OA
ENDBRANCH  67  70
ENDBRANCH  49  63
BRANCH  50  74
ATOM     74  C   UNL A   1      38.764  30.376  30.952  1.00  0.00     0.023 A 
ATOM     75  C   UNL A   1      38.701  30.098  32.331  1.00  0.00     0.012 A 
ATOM     76  C   UNL A   1      37.702  31.074  30.345  1.00  0.00     0.148 A 
ATOM     77  C   UNL A   1      37.590  30.474  33.085  1.00  0.00     0.002 A 
ATOM     78  C   UNL A   1      36.622  31.495  31.112  1.00  0.00     0.091 A 
ATOM     79  F   UNL A   1      37.770  31.316  29.028  1.00  0.00    -0.205 F 
ATOM     80  C   UNL A   1      36.554  31.181  32.478  1.00  0.00     0.022 A 
BRANCH  78  81
ATOM     81  S   UNL A   1      35.315  32.527  30.436  1.00  0.00     0.127 S 
ATOM     82  O   UNL A   1      36.039  33.752  30.110  1.00  0.00    -0.237 OA
ATOM     83  O   UNL A   1      34.876  31.746  29.278  1.00  0.00    -0.237 OA
ATOM     84  O   UNL A   1      34.321  32.632  31.494  1.00  0.00    -0.744 OA
ENDBRANCH  78  81
ENDBRANCH  50  74
BRANCH  62  85
ATOM     85  C   UNL A   1      44.813  33.471  29.345  1.00  0.00     0.023 A 
ATOM     86  C   UNL A   1      45.494  33.681  30.559  1.00  0.00     0.012 A 
ATOM     87  C   UNL A   1      44.746  34.513  28.398  1.00  0.00     0.148 A 
ATOM     88  C   UNL A   1      46.075  34.917  30.841  1.00  0.00     0.002 A 
ATOM     89  C   UNL A   1      45.368  35.726  28.666  1.00  0.00     0.091 A 
ATOM     90  F   UNL A   1      44.077  34.298  27.256  1.00  0.00    -0.205 F 
ATOM     91  C   UNL A   1      46.023  35.934  29.890  1.00  0.00     0.022 A 
BRANCH  89  92
ATOM     92  S   UNL A   1      45.430  37.059  27.463  1.00  0.00     0.127 S 
ATOM     93  O   UNL A   1      44.016  37.405  27.326  1.00  0.00    -0.237 OA
ATOM     94  O   UNL A   1      46.240  38.065  28.153  1.00  0.00    -0.237 OA
ATOM     95  O   UNL A   1      46.056  36.497  26.275  1.00  0.00    -0.744 OA
ENDBRANCH  89  92
ENDBRANCH  62  85
ENDBRANCH  36  37
ENDBRANCH  28  31
ENDBRANCH  26  27
ENDBRANCH   1  26
TORSDOF 16
ENDMDL
