MODEL 1
REMARK VINA RESULT:     -12.7      0.000      0.000
REMARK SMILES Cc1ccc(C(=O)NCCCCNC(=O)c2ccc(-c3c4nc(c(-c5cccc(S(=O)(=O)[O-])c5F)c5ccc([nH]5)c(-c5cccc(S(=O)(=O)[O-])c5F)c5nc(c(-c6cccc(S(=O)(=O)[O-])c6F)c6ccc3[nH]6)C=C5)C=C4)cc2)c(Oc2cccc(F)c2C(N)=O)c1
REMARK SMILES IDX 10 1 9 2 8 3 6 4 7 5 5 7 1 8 2 9 3 10 91 11 4 12 79 13 80 14
REMARK SMILES IDX 81 15 82 16 87 17 83 18 85 19 84 20 86 21 88 22 89 23 90 24
REMARK SMILES IDX 11 27 12 28 13 29 14 30 15 32 16 33 17 34 78 35 18 36 77 37
REMARK SMILES IDX 19 38 20 39 21 40 71 41 22 42 76 43 70 44 72 45 23 46 75 47
REMARK SMILES IDX 69 48 68 49 24 51 56 52 36 53 55 54 37 55 40 56 54 57 73 58
REMARK SMILES IDX 38 59 39 60 53 62 74 63 41 64 25 65 26 66 34 67 27 68 29 69
REMARK SMILES IDX 35 70 28 71 30 72 31 73 32 74 33 75 57 76 58 77 66 78 59 79
REMARK SMILES IDX 61 80 67 81 60 82 62 83 63 84 64 85 65 86 42 87 43 88 51 89
REMARK SMILES IDX 44 90 46 91 52 92 45 93 47 94 48 95 49 96 50 97
REMARK H PARENT 8 6 89 25 89 26 13 31 72 50 40 61
REMARK Flexibility Score: inf
ROOT
ATOM      1  C   UNL A   1      36.311  23.636  24.737  1.00  0.00     0.023 C 
ENDROOT
BRANCH   1   2
ATOM      2  C   UNL A   1      34.946  24.219  25.098  1.00  0.00     0.116 C 
BRANCH   2   3
ATOM      3  N   UNL A   1      34.329  23.734  26.309  1.00  0.00    -0.352 N 
ATOM      4  C   UNL A   1      33.865  22.491  26.683  1.00  0.00     0.255 C 
ATOM      5  O   UNL A   1      33.505  22.374  27.858  1.00  0.00    -0.269 OA
ATOM      6  H   UNL A   1      34.218  24.424  27.003  1.00  0.00     0.163 HD
BRANCH   4   7
ATOM      7  C   UNL A   1      33.647  21.314  25.771  1.00  0.00     0.082 A 
ATOM      8  C   UNL A   1      33.487  17.711  23.354  1.00  0.00     0.044 C 
ATOM      9  C   UNL A   1      33.573  18.973  24.157  1.00  0.00    -0.047 A 
ATOM     10  C   UNL A   1      34.733  19.316  24.846  1.00  0.00     0.004 A 
ATOM     11  C   UNL A   1      32.486  19.844  24.205  1.00  0.00     0.051 A 
ATOM     12  C   UNL A   1      34.771  20.474  25.630  1.00  0.00     0.018 A 
ATOM     13  C   UNL A   1      32.501  20.982  25.030  1.00  0.00     0.140 A 
BRANCH  13  14
ATOM     14  O   UNL A   1      31.418  21.812  25.019  1.00  0.00    -0.456 OA
BRANCH  14  15
ATOM     15  C   UNL A   1      31.469  23.059  24.419  1.00  0.00     0.143 A 
ATOM     16  C   UNL A   1      31.995  22.949  23.116  1.00  0.00     0.048 A 
ATOM     17  C   UNL A   1      31.177  24.336  24.950  1.00  0.00     0.117 A 
ATOM     18  C   UNL A   1      32.193  24.068  22.315  1.00  0.00     0.007 A 
ATOM     19  C   UNL A   1      31.409  25.450  24.121  1.00  0.00     0.139 A 
ATOM     20  C   UNL A   1      31.900  25.324  22.821  1.00  0.00     0.040 A 
ATOM     21  F   UNL A   1      31.197  26.699  24.565  1.00  0.00    -0.206 F 
BRANCH  17  22
ATOM     22  C   UNL A   1      30.595  24.694  26.277  1.00  0.00     0.255 C 
ATOM     23  N   UNL A   1      29.267  24.974  26.418  1.00  0.00    -0.365 N 
ATOM     24  O   UNL A   1      31.297  24.723  27.284  1.00  0.00    -0.269 OA
ATOM     25  H   UNL A   1      28.674  24.960  25.632  1.00  0.00     0.159 HD
ATOM     26  H   UNL A   1      28.900  25.188  27.306  1.00  0.00     0.159 HD
ENDBRANCH  17  22
ENDBRANCH  14  15
ENDBRANCH  13  14
ENDBRANCH   4   7
ENDBRANCH   2   3
ENDBRANCH   1   2
BRANCH   1  27
ATOM     27  C   UNL A   1      37.285  23.397  25.879  1.00  0.00     0.023 C 
BRANCH  27  28
ATOM     28  C   UNL A   1      38.357  22.383  25.553  1.00  0.00     0.116 C 
BRANCH  28  29
ATOM     29  N   UNL A   1      39.277  22.086  26.625  1.00  0.00    -0.352 N 
ATOM     30  C   UNL A   1      40.075  22.954  27.355  1.00  0.00     0.251 C 
ATOM     31  H   UNL A   1      39.349  21.136  26.870  1.00  0.00     0.163 HD
ATOM     32  O   UNL A   1      40.946  22.459  28.046  1.00  0.00    -0.269 OA
BRANCH  30  33
ATOM     33  C   UNL A   1      39.769  24.420  27.437  1.00  0.00     0.039 A 
ATOM     34  C   UNL A   1      40.487  25.280  26.592  1.00  0.00     0.014 A 
ATOM     35  C   UNL A   1      39.053  24.972  28.491  1.00  0.00     0.014 A 
ATOM     36  C   UNL A   1      40.715  26.597  26.976  1.00  0.00     0.010 A 
ATOM     37  C   UNL A   1      39.383  26.212  28.951  1.00  0.00     0.010 A 
ATOM     38  C   UNL A   1      40.285  26.985  28.229  1.00  0.00    -0.014 A 
BRANCH  38  39
ATOM     39  C   UNL A   1      40.624  28.205  28.921  1.00  0.00     0.031 A 
ATOM     40  C   UNL A   1      39.723  29.348  28.742  1.00  0.00     0.074 A 
ATOM     41  C   UNL A   1      41.396  28.011  30.013  1.00  0.00     0.049 A 
ATOM     42  N   UNL A   1      39.839  30.451  29.382  1.00  0.00    -0.248 NA
ATOM     43  C   UNL A   1      38.585  29.321  27.820  1.00  0.00     0.031 C 
ATOM     44  C   UNL A   1      41.402  28.721  31.285  1.00  0.00     0.029 A 
ATOM     45  N   UNL A   1      42.469  27.127  30.121  1.00  0.00    -0.354 N 
ATOM     46  C   UNL A   1      38.642  31.113  29.234  1.00  0.00     0.074 A 
ATOM     47  C   UNL A   1      37.972  30.464  28.140  1.00  0.00     0.031 C 
ATOM     48  C   UNL A   1      42.557  28.452  31.926  1.00  0.00     0.029 A 
ATOM     49  C   UNL A   1      43.399  27.734  30.981  1.00  0.00     0.049 A 
ATOM     50  H   UNL A   1      42.558  26.251  29.681  1.00  0.00     0.167 HD
ATOM     51  C   UNL A   1      38.300  32.016  30.190  1.00  0.00     0.034 A 
ATOM     52  C   UNL A   1      44.550  28.241  30.430  1.00  0.00     0.034 A 
ATOM     53  C   UNL A   1      39.454  32.288  31.060  1.00  0.00     0.049 A 
ATOM     54  C   UNL A   1      44.619  29.758  30.512  1.00  0.00     0.074 A 
ATOM     55  C   UNL A   1      39.792  31.881  32.338  1.00  0.00     0.029 A 
ATOM     56  N   UNL A   1      40.624  32.791  30.486  1.00  0.00    -0.354 N 
ATOM     57  N   UNL A   1      43.592  30.530  30.746  1.00  0.00    -0.248 NA
ATOM     58  C   UNL A   1      45.859  30.517  30.395  1.00  0.00     0.031 C 
ATOM     59  C   UNL A   1      41.210  31.996  32.464  1.00  0.00     0.029 A 
ATOM     60  C   UNL A   1      41.722  32.522  31.288  1.00  0.00     0.049 A 
ATOM     61  H   UNL A   1      40.662  33.270  29.627  1.00  0.00     0.167 HD
ATOM     62  C   UNL A   1      43.971  31.843  30.737  1.00  0.00     0.074 A 
ATOM     63  C   UNL A   1      45.415  31.777  30.566  1.00  0.00     0.031 C 
ATOM     64  C   UNL A   1      43.069  32.871  30.836  1.00  0.00     0.034 A 
BRANCH  51  65
ATOM     65  C   UNL A   1      36.897  32.516  30.480  1.00  0.00     0.023 A 
ATOM     66  C   UNL A   1      36.358  32.184  31.741  1.00  0.00     0.012 A 
ATOM     67  C   UNL A   1      36.023  33.190  29.587  1.00  0.00     0.148 A 
ATOM     68  C   UNL A   1      35.043  32.498  32.102  1.00  0.00     0.002 A 
ATOM     69  C   UNL A   1      34.732  33.567  29.973  1.00  0.00     0.091 A 
ATOM     70  F   UNL A   1      36.380  33.392  28.316  1.00  0.00    -0.205 F 
ATOM     71  C   UNL A   1      34.233  33.207  31.226  1.00  0.00     0.022 A 
BRANCH  69  72
ATOM     72  S   UNL A   1      33.644  34.541  28.911  1.00  0.00     0.127 S 
ATOM     73  O   UNL A   1      32.621  34.995  29.851  1.00  0.00    -0.237 OA
ATOM     74  O   UNL A   1      34.539  35.595  28.430  1.00  0.00    -0.237 OA
ATOM     75  O   UNL A   1      33.173  33.635  27.870  1.00  0.00    -0.744 OA
ENDBRANCH  69  72
ENDBRANCH  51  65
BRANCH  52  76
ATOM     76  C   UNL A   1      45.022  27.389  29.278  1.00  0.00     0.023 A 
ATOM     77  C   UNL A   1      45.265  26.021  29.577  1.00  0.00     0.012 A 
ATOM     78  C   UNL A   1      44.757  27.744  27.941  1.00  0.00     0.148 A 
ATOM     79  C   UNL A   1      45.016  25.026  28.630  1.00  0.00     0.002 A 
ATOM     80  C   UNL A   1      44.558  26.740  26.988  1.00  0.00     0.091 A 
ATOM     81  F   UNL A   1      44.644  29.041  27.630  1.00  0.00    -0.205 F 
ATOM     82  C   UNL A   1      44.613  25.385  27.350  1.00  0.00     0.022 A 
BRANCH  80  83
ATOM     83  S   UNL A   1      44.143  27.130  25.281  1.00  0.00     0.127 S 
ATOM     84  O   UNL A   1      43.640  25.845  24.802  1.00  0.00    -0.237 OA
ATOM     85  O   UNL A   1      43.121  28.169  25.416  1.00  0.00    -0.237 OA
ATOM     86  O   UNL A   1      45.388  27.597  24.687  1.00  0.00    -0.744 OA
ENDBRANCH  80  83
ENDBRANCH  52  76
BRANCH  64  87
ATOM     87  C   UNL A   1      43.390  34.320  30.515  1.00  0.00     0.023 A 
ATOM     88  C   UNL A   1      43.776  35.239  31.510  1.00  0.00     0.012 A 
ATOM     89  C   UNL A   1      43.467  34.773  29.172  1.00  0.00     0.148 A 
ATOM     90  C   UNL A   1      44.127  36.559  31.209  1.00  0.00     0.002 A 
ATOM     91  C   UNL A   1      43.938  36.047  28.868  1.00  0.00     0.091 A 
ATOM     92  F   UNL A   1      43.065  33.976  28.170  1.00  0.00    -0.205 F 
ATOM     93  C   UNL A   1      44.229  36.958  29.886  1.00  0.00     0.022 A 
BRANCH  91  94
ATOM     94  S   UNL A   1      44.344  36.519  27.181  1.00  0.00     0.127 S 
ATOM     95  O   UNL A   1      43.019  36.722  26.598  1.00  0.00    -0.237 OA
ATOM     96  O   UNL A   1      45.117  37.747  27.379  1.00  0.00    -0.237 OA
ATOM     97  O   UNL A   1      45.118  35.410  26.642  1.00  0.00    -0.744 OA
ENDBRANCH  91  94
ENDBRANCH  64  87
ENDBRANCH  38  39
ENDBRANCH  30  33
ENDBRANCH  28  29
ENDBRANCH  27  28
ENDBRANCH   1  27
TORSDOF 17
ENDMDL
MODEL 2
REMARK VINA RESULT:     -12.5      3.986      8.837
REMARK SMILES Cc1ccc(C(=O)NCCCCNC(=O)c2ccc(-c3c4nc(c(-c5cccc(S(=O)(=O)[O-])c5F)c5ccc([nH]5)c(-c5cccc(S(=O)(=O)[O-])c5F)c5nc(c(-c6cccc(S(=O)(=O)[O-])c6F)c6ccc3[nH]6)C=C5)C=C4)cc2)c(Oc2cccc(F)c2C(N)=O)c1
REMARK SMILES IDX 10 1 9 2 8 3 6 4 7 5 5 7 1 8 2 9 3 10 91 11 4 12 79 13 80 14
REMARK SMILES IDX 81 15 82 16 87 17 83 18 85 19 84 20 86 21 88 22 89 23 90 24
REMARK SMILES IDX 11 27 12 28 13 29 14 30 15 32 16 33 17 34 78 35 18 36 77 37
REMARK SMILES IDX 19 38 20 39 21 40 71 41 22 42 76 43 70 44 72 45 23 46 75 47
REMARK SMILES IDX 69 48 68 49 24 51 56 52 36 53 55 54 37 55 40 56 54 57 73 58
REMARK SMILES IDX 38 59 39 60 53 62 74 63 41 64 25 65 26 66 34 67 27 68 29 69
REMARK SMILES IDX 35 70 28 71 30 72 31 73 32 74 33 75 57 76 58 77 66 78 59 79
REMARK SMILES IDX 61 80 67 81 60 82 62 83 63 84 64 85 65 86 42 87 43 88 51 89
REMARK SMILES IDX 44 90 46 91 52 92 45 93 47 94 48 95 49 96 50 97
REMARK H PARENT 8 6 89 25 89 26 13 31 72 50 40 61
REMARK Flexibility Score: inf
ROOT
ATOM      1  C   UNL A   1      33.603  27.572  26.451  1.00  0.00     0.023 C 
ENDROOT
BRANCH   1   2
ATOM      2  C   UNL A   1      32.078  27.556  26.544  1.00  0.00     0.116 C 
BRANCH   2   3
ATOM      3  N   UNL A   1      31.457  26.294  26.865  1.00  0.00    -0.352 N 
ATOM      4  C   UNL A   1      31.820  24.988  26.609  1.00  0.00     0.255 C 
ATOM      5  O   UNL A   1      31.126  24.116  27.142  1.00  0.00    -0.269 OA
ATOM      6  H   UNL A   1      30.612  26.381  27.362  1.00  0.00     0.163 HD
BRANCH   4   7
ATOM      7  C   UNL A   1      32.891  24.535  25.656  1.00  0.00     0.082 A 
ATOM      8  C   UNL A   1      36.241  23.011  23.352  1.00  0.00     0.044 C 
ATOM      9  C   UNL A   1      35.112  23.575  24.159  1.00  0.00    -0.047 A 
ATOM     10  C   UNL A   1      35.175  23.637  25.548  1.00  0.00     0.004 A 
ATOM     11  C   UNL A   1      33.979  24.074  23.519  1.00  0.00     0.051 A 
ATOM     12  C   UNL A   1      34.086  24.120  26.283  1.00  0.00     0.018 A 
ATOM     13  C   UNL A   1      32.863  24.514  24.252  1.00  0.00     0.140 A 
BRANCH  13  14
ATOM     14  O   UNL A   1      31.790  25.014  23.573  1.00  0.00    -0.456 OA
BRANCH  14  15
ATOM     15  C   UNL A   1      31.689  26.363  23.275  1.00  0.00     0.143 A 
ATOM     16  C   UNL A   1      32.947  26.870  22.888  1.00  0.00     0.048 A 
ATOM     17  C   UNL A   1      30.588  27.241  23.399  1.00  0.00     0.117 A 
ATOM     18  C   UNL A   1      33.125  28.214  22.579  1.00  0.00     0.007 A 
ATOM     19  C   UNL A   1      30.808  28.600  23.100  1.00  0.00     0.139 A 
ATOM     20  C   UNL A   1      32.051  29.083  22.688  1.00  0.00     0.040 A 
ATOM     21  F   UNL A   1      29.826  29.505  23.233  1.00  0.00    -0.206 F 
BRANCH  17  22
ATOM     22  C   UNL A   1      29.173  26.934  23.761  1.00  0.00     0.255 C 
ATOM     23  N   UNL A   1      28.864  25.909  24.606  1.00  0.00    -0.365 N 
ATOM     24  O   UNL A   1      28.250  27.616  23.323  1.00  0.00    -0.269 OA
ATOM     25  H   UNL A   1      29.578  25.342  24.976  1.00  0.00     0.159 HD
ATOM     26  H   UNL A   1      27.925  25.736  24.848  1.00  0.00     0.159 HD
ENDBRANCH  17  22
ENDBRANCH  14  15
ENDBRANCH  13  14
ENDBRANCH   4   7
ENDBRANCH   2   3
ENDBRANCH   1   2
BRANCH   1  27
ATOM     27  C   UNL A   1      34.270  28.922  26.243  1.00  0.00     0.023 C 
BRANCH  27  28
ATOM     28  C   UNL A   1      33.742  30.002  27.160  1.00  0.00     0.116 C 
BRANCH  28  29
ATOM     29  N   UNL A   1      34.588  31.161  27.306  1.00  0.00    -0.352 N 
ATOM     30  C   UNL A   1      35.856  31.250  27.860  1.00  0.00     0.251 C 
ATOM     31  H   UNL A   1      34.213  32.005  26.966  1.00  0.00     0.163 HD
ATOM     32  O   UNL A   1      36.282  32.366  28.095  1.00  0.00    -0.269 OA
BRANCH  30  33
ATOM     33  C   UNL A   1      36.739  30.047  27.998  1.00  0.00     0.039 A 
ATOM     34  C   UNL A   1      36.763  29.400  29.244  1.00  0.00     0.014 A 
ATOM     35  C   UNL A   1      37.729  29.740  27.073  1.00  0.00     0.014 A 
ATOM     36  C   UNL A   1      37.901  28.709  29.644  1.00  0.00     0.010 A 
ATOM     37  C   UNL A   1      38.901  29.192  27.502  1.00  0.00     0.010 A 
ATOM     38  C   UNL A   1      39.006  28.757  28.818  1.00  0.00    -0.014 A 
BRANCH  38  39
ATOM     39  C   UNL A   1      40.346  28.330  29.139  1.00  0.00     0.031 A 
ATOM     40  C   UNL A   1      40.658  26.909  28.957  1.00  0.00     0.074 A 
ATOM     41  C   UNL A   1      41.261  29.323  29.069  1.00  0.00     0.049 A 
ATOM     42  N   UNL A   1      41.831  26.415  29.095  1.00  0.00    -0.248 NA
ATOM     43  C   UNL A   1      39.646  25.920  28.577  1.00  0.00     0.031 C 
ATOM     44  C   UNL A   1      42.653  29.275  28.642  1.00  0.00     0.029 A 
ATOM     45  N   UNL A   1      41.094  30.634  29.514  1.00  0.00    -0.354 N 
ATOM     46  C   UNL A   1      41.803  25.176  28.499  1.00  0.00     0.074 A 
ATOM     47  C   UNL A   1      40.411  24.850  28.345  1.00  0.00     0.031 C 
ATOM     48  C   UNL A   1      43.279  30.385  29.081  1.00  0.00     0.029 A 
ATOM     49  C   UNL A   1      42.351  31.060  29.976  1.00  0.00     0.049 A 
ATOM     50  H   UNL A   1      40.261  31.158  29.505  1.00  0.00     0.167 HD
ATOM     51  C   UNL A   1      42.979  24.669  28.045  1.00  0.00     0.034 A 
ATOM     52  C   UNL A   1      42.531  31.178  31.332  1.00  0.00     0.034 A 
ATOM     53  C   UNL A   1      44.102  25.473  28.554  1.00  0.00     0.049 A 
ATOM     54  C   UNL A   1      43.514  30.157  31.883  1.00  0.00     0.074 A 
ATOM     55  C   UNL A   1      44.920  26.428  27.977  1.00  0.00     0.029 A 
ATOM     56  N   UNL A   1      44.267  25.597  29.934  1.00  0.00    -0.354 N 
ATOM     57  N   UNL A   1      43.887  29.078  31.249  1.00  0.00    -0.248 NA
ATOM     58  C   UNL A   1      44.198  30.304  33.163  1.00  0.00     0.031 C 
ATOM     59  C   UNL A   1      45.450  27.232  29.030  1.00  0.00     0.029 A 
ATOM     60  C   UNL A   1      45.001  26.731  30.244  1.00  0.00     0.049 A 
ATOM     61  H   UNL A   1      43.909  24.964  30.598  1.00  0.00     0.167 HD
ATOM     62  C   UNL A   1      44.759  28.354  32.013  1.00  0.00     0.074 A 
ATOM     63  C   UNL A   1      44.964  29.196  33.182  1.00  0.00     0.031 C 
ATOM     64  C   UNL A   1      45.214  27.115  31.639  1.00  0.00     0.034 A 
BRANCH  51  65
ATOM     65  C   UNL A   1      43.135  23.583  26.998  1.00  0.00     0.023 A 
ATOM     66  C   UNL A   1      43.781  23.952  25.798  1.00  0.00     0.012 A 
ATOM     67  C   UNL A   1      42.611  22.264  27.043  1.00  0.00     0.148 A 
ATOM     68  C   UNL A   1      43.905  23.077  24.713  1.00  0.00     0.002 A 
ATOM     69  C   UNL A   1      42.798  21.366  25.986  1.00  0.00     0.091 A 
ATOM     70  F   UNL A   1      41.836  21.880  28.061  1.00  0.00    -0.205 F 
ATOM     71  C   UNL A   1      43.431  21.776  24.812  1.00  0.00     0.022 A 
BRANCH  69  72
ATOM     72  S   UNL A   1      42.263  19.644  26.065  1.00  0.00     0.127 S 
ATOM     73  O   UNL A   1      42.709  19.242  27.398  1.00  0.00    -0.237 OA
ATOM     74  O   UNL A   1      40.811  19.760  25.920  1.00  0.00    -0.237 OA
ATOM     75  O   UNL A   1      42.922  18.961  24.958  1.00  0.00    -0.744 OA
ENDBRANCH  69  72
ENDBRANCH  51  65
BRANCH  52  76
ATOM     76  C   UNL A   1      41.270  31.655  32.008  1.00  0.00     0.023 A 
ATOM     77  C   UNL A   1      40.745  32.891  31.543  1.00  0.00     0.012 A 
ATOM     78  C   UNL A   1      40.396  30.759  32.655  1.00  0.00     0.148 A 
ATOM     79  C   UNL A   1      39.368  33.116  31.509  1.00  0.00     0.002 A 
ATOM     80  C   UNL A   1      39.022  31.018  32.659  1.00  0.00     0.091 A 
ATOM     81  F   UNL A   1      40.903  29.646  33.200  1.00  0.00    -0.205 F 
ATOM     82  C   UNL A   1      38.504  32.156  32.021  1.00  0.00     0.022 A 
BRANCH  80  83
ATOM     83  S   UNL A   1      37.849  29.873  33.403  1.00  0.00     0.127 S 
ATOM     84  O   UNL A   1      36.607  30.253  32.733  1.00  0.00    -0.237 OA
ATOM     85  O   UNL A   1      38.370  28.563  33.015  1.00  0.00    -0.237 OA
ATOM     86  O   UNL A   1      37.917  30.140  34.833  1.00  0.00    -0.744 OA
ENDBRANCH  80  83
ENDBRANCH  52  76
BRANCH  64  87
ATOM     87  C   UNL A   1      45.916  26.147  32.575  1.00  0.00     0.023 A 
ATOM     88  C   UNL A   1      47.314  26.151  32.745  1.00  0.00     0.012 A 
ATOM     89  C   UNL A   1      45.176  25.298  33.439  1.00  0.00     0.148 A 
ATOM     90  C   UNL A   1      47.956  25.299  33.648  1.00  0.00     0.002 A 
ATOM     91  C   UNL A   1      45.810  24.546  34.424  1.00  0.00     0.091 A 
ATOM     92  F   UNL A   1      43.845  25.197  33.304  1.00  0.00    -0.205 F 
ATOM     93  C   UNL A   1      47.204  24.511  34.503  1.00  0.00     0.022 A 
BRANCH  91  94
ATOM     94  S   UNL A   1      44.876  23.723  35.722  1.00  0.00     0.127 S 
ATOM     95  O   UNL A   1      45.934  23.334  36.653  1.00  0.00    -0.237 OA
ATOM     96  O   UNL A   1      44.004  24.796  36.205  1.00  0.00    -0.237 OA
ATOM     97  O   UNL A   1      44.170  22.633  35.063  1.00  0.00    -0.744 OA
ENDBRANCH  91  94
ENDBRANCH  64  87
ENDBRANCH  38  39
ENDBRANCH  30  33
ENDBRANCH  28  29
ENDBRANCH  27  28
ENDBRANCH   1  27
TORSDOF 17
ENDMDL
MODEL 3
REMARK VINA RESULT:     -12.1      1.368      2.387
REMARK SMILES Cc1ccc(C(=O)NCCCCNC(=O)c2ccc(-c3c4nc(c(-c5cccc(S(=O)(=O)[O-])c5F)c5ccc([nH]5)c(-c5cccc(S(=O)(=O)[O-])c5F)c5nc(c(-c6cccc(S(=O)(=O)[O-])c6F)c6ccc3[nH]6)C=C5)C=C4)cc2)c(Oc2cccc(F)c2C(N)=O)c1
REMARK SMILES IDX 10 1 9 2 8 3 6 4 7 5 5 7 1 8 2 9 3 10 91 11 4 12 79 13 80 14
REMARK SMILES IDX 81 15 82 16 87 17 83 18 85 19 84 20 86 21 88 22 89 23 90 24
REMARK SMILES IDX 11 27 12 28 13 29 14 30 15 32 16 33 17 34 78 35 18 36 77 37
REMARK SMILES IDX 19 38 20 39 21 40 71 41 22 42 76 43 70 44 72 45 23 46 75 47
REMARK SMILES IDX 69 48 68 49 24 51 56 52 36 53 55 54 37 55 40 56 54 57 73 58
REMARK SMILES IDX 38 59 39 60 53 62 74 63 41 64 25 65 26 66 34 67 27 68 29 69
REMARK SMILES IDX 35 70 28 71 30 72 31 73 32 74 33 75 57 76 58 77 66 78 59 79
REMARK SMILES IDX 61 80 67 81 60 82 62 83 63 84 64 85 65 86 42 87 43 88 51 89
REMARK SMILES IDX 44 90 46 91 52 92 45 93 47 94 48 95 49 96 50 97
REMARK H PARENT 8 6 89 25 89 26 13 31 72 50 40 61
REMARK Flexibility Score: inf
ROOT
ATOM      1  C   UNL A   1      35.638  22.121  25.152  1.00  0.00     0.023 C 
ENDROOT
BRANCH   1   2
ATOM      2  C   UNL A   1      34.761  22.742  26.238  1.00  0.00     0.116 C 
BRANCH   2   3
ATOM      3  N   UNL A   1      33.365  22.379  26.236  1.00  0.00    -0.352 N 
ATOM      4  C   UNL A   1      32.367  22.529  25.297  1.00  0.00     0.255 C 
ATOM      5  O   UNL A   1      31.289  21.984  25.555  1.00  0.00    -0.269 OA
ATOM      6  H   UNL A   1      33.067  21.940  27.065  1.00  0.00     0.163 HD
BRANCH   4   7
ATOM      7  C   UNL A   1      32.432  23.385  24.062  1.00  0.00     0.082 A 
ATOM      8  C   UNL A   1      32.767  25.392  20.226  1.00  0.00     0.044 C 
ATOM      9  C   UNL A   1      32.698  24.703  21.555  1.00  0.00    -0.047 A 
ATOM     10  C   UNL A   1      33.211  23.420  21.733  1.00  0.00     0.004 A 
ATOM     11  C   UNL A   1      32.136  25.355  22.650  1.00  0.00     0.051 A 
ATOM     12  C   UNL A   1      33.089  22.778  22.971  1.00  0.00     0.018 A 
ATOM     13  C   UNL A   1      31.966  24.698  23.881  1.00  0.00     0.140 A 
BRANCH  13  14
ATOM     14  O   UNL A   1      31.431  25.393  24.925  1.00  0.00    -0.456 OA
BRANCH  14  15
ATOM     15  C   UNL A   1      31.552  26.770  25.016  1.00  0.00     0.143 A 
ATOM     16  C   UNL A   1      32.536  27.108  25.967  1.00  0.00     0.048 A 
ATOM     17  C   UNL A   1      30.799  27.792  24.394  1.00  0.00     0.117 A 
ATOM     18  C   UNL A   1      32.820  28.433  26.280  1.00  0.00     0.007 A 
ATOM     19  C   UNL A   1      31.097  29.122  24.750  1.00  0.00     0.139 A 
ATOM     20  C   UNL A   1      32.095  29.444  25.670  1.00  0.00     0.040 A 
ATOM     21  F   UNL A   1      30.400  30.147  24.236  1.00  0.00    -0.206 F 
BRANCH  17  22
ATOM     22  C   UNL A   1      29.739  27.679  23.350  1.00  0.00     0.255 C 
ATOM     23  N   UNL A   1      28.530  27.110  23.624  1.00  0.00    -0.365 N 
ATOM     24  O   UNL A   1      29.922  28.121  22.218  1.00  0.00    -0.269 OA
ATOM     25  H   UNL A   1      28.349  26.745  24.521  1.00  0.00     0.159 HD
ATOM     26  H   UNL A   1      27.837  27.063  22.926  1.00  0.00     0.159 HD
ENDBRANCH  17  22
ENDBRANCH  14  15
ENDBRANCH  13  14
ENDBRANCH   4   7
ENDBRANCH   2   3
ENDBRANCH   1   2
BRANCH   1  27
ATOM     27  C   UNL A   1      36.953  21.500  25.594  1.00  0.00     0.023 C 
BRANCH  27  28
ATOM     28  C   UNL A   1      38.091  22.492  25.670  1.00  0.00     0.116 C 
BRANCH  28  29
ATOM     29  N   UNL A   1      39.102  22.203  26.658  1.00  0.00    -0.352 N 
ATOM     30  C   UNL A   1      39.947  23.079  27.322  1.00  0.00     0.251 C 
ATOM     31  H   UNL A   1      39.205  21.254  26.893  1.00  0.00     0.163 HD
ATOM     32  O   UNL A   1      40.880  22.593  27.934  1.00  0.00    -0.269 OA
BRANCH  30  33
ATOM     33  C   UNL A   1      39.632  24.540  27.436  1.00  0.00     0.039 A 
ATOM     34  C   UNL A   1      40.311  25.419  26.579  1.00  0.00     0.014 A 
ATOM     35  C   UNL A   1      38.948  25.071  28.523  1.00  0.00     0.014 A 
ATOM     36  C   UNL A   1      40.541  26.733  26.973  1.00  0.00     0.010 A 
ATOM     37  C   UNL A   1      39.284  26.307  28.988  1.00  0.00     0.010 A 
ATOM     38  C   UNL A   1      40.152  27.099  28.246  1.00  0.00    -0.014 A 
BRANCH  38  39
ATOM     39  C   UNL A   1      40.504  28.313  28.942  1.00  0.00     0.031 A 
ATOM     40  C   UNL A   1      39.609  29.462  28.777  1.00  0.00     0.074 A 
ATOM     41  C   UNL A   1      41.283  28.107  30.027  1.00  0.00     0.049 A 
ATOM     42  N   UNL A   1      39.738  30.561  29.423  1.00  0.00    -0.248 NA
ATOM     43  C   UNL A   1      38.465  29.449  27.864  1.00  0.00     0.031 C 
ATOM     44  C   UNL A   1      41.304  28.808  31.303  1.00  0.00     0.029 A 
ATOM     45  N   UNL A   1      42.352  27.215  30.121  1.00  0.00    -0.354 N 
ATOM     46  C   UNL A   1      38.544  31.232  29.288  1.00  0.00     0.074 A 
ATOM     47  C   UNL A   1      37.861  30.594  28.195  1.00  0.00     0.031 C 
ATOM     48  C   UNL A   1      42.462  28.528  31.934  1.00  0.00     0.029 A 
ATOM     49  C   UNL A   1      43.292  27.811  30.978  1.00  0.00     0.049 A 
ATOM     50  H   UNL A   1      42.431  26.341  29.675  1.00  0.00     0.167 HD
ATOM     51  C   UNL A   1      38.215  32.131  30.252  1.00  0.00     0.034 A 
ATOM     52  C   UNL A   1      44.442  28.313  30.421  1.00  0.00     0.034 A 
ATOM     53  C   UNL A   1      39.379  32.390  31.115  1.00  0.00     0.049 A 
ATOM     54  C   UNL A   1      44.522  29.829  30.512  1.00  0.00     0.074 A 
ATOM     55  C   UNL A   1      39.724  31.973  32.388  1.00  0.00     0.029 A 
ATOM     56  N   UNL A   1      40.547  32.888  30.535  1.00  0.00    -0.354 N 
ATOM     57  N   UNL A   1      43.501  30.606  30.759  1.00  0.00    -0.248 NA
ATOM     58  C   UNL A   1      45.766  30.581  30.389  1.00  0.00     0.031 C 
ATOM     59  C   UNL A   1      41.143  32.077  32.504  1.00  0.00     0.029 A 
ATOM     60  C   UNL A   1      41.650  32.608  31.327  1.00  0.00     0.049 A 
ATOM     61  H   UNL A   1      40.581  33.373  29.679  1.00  0.00     0.167 HD
ATOM     62  C   UNL A   1      43.889  31.917  30.754  1.00  0.00     0.074 A 
ATOM     63  C   UNL A   1      45.331  31.843  30.572  1.00  0.00     0.031 C 
ATOM     64  C   UNL A   1      42.995  32.951  30.867  1.00  0.00     0.034 A 
BRANCH  51  65
ATOM     65  C   UNL A   1      36.819  32.638  30.556  1.00  0.00     0.023 A 
ATOM     66  C   UNL A   1      36.297  32.324  31.830  1.00  0.00     0.012 A 
ATOM     67  C   UNL A   1      35.933  33.303  29.667  1.00  0.00     0.148 A 
ATOM     68  C   UNL A   1      34.988  32.646  32.205  1.00  0.00     0.002 A 
ATOM     69  C   UNL A   1      34.649  33.688  30.067  1.00  0.00     0.091 A 
ATOM     70  F   UNL A   1      36.272  33.487  28.389  1.00  0.00    -0.205 F 
ATOM     71  C   UNL A   1      34.167  33.346  31.332  1.00  0.00     0.022 A 
BRANCH  69  72
ATOM     72  S   UNL A   1      33.548  34.651  29.009  1.00  0.00     0.127 S 
ATOM     73  O   UNL A   1      33.090  33.651  28.047  1.00  0.00    -0.237 OA
ATOM     74  O   UNL A   1      32.523  35.102  29.952  1.00  0.00    -0.237 OA
ATOM     75  O   UNL A   1      34.359  35.726  28.448  1.00  0.00    -0.744 OA
ENDBRANCH  69  72
ENDBRANCH  51  65
BRANCH  52  76
ATOM     76  C   UNL A   1      44.899  27.465  29.260  1.00  0.00     0.023 A 
ATOM     77  C   UNL A   1      45.162  26.100  29.555  1.00  0.00     0.012 A 
ATOM     78  C   UNL A   1      44.605  27.817  27.929  1.00  0.00     0.148 A 
ATOM     79  C   UNL A   1      44.904  25.102  28.613  1.00  0.00     0.002 A 
ATOM     80  C   UNL A   1      44.397  26.811  26.981  1.00  0.00     0.091 A 
ATOM     81  F   UNL A   1      44.473  29.113  27.620  1.00  0.00    -0.205 F 
ATOM     82  C   UNL A   1      44.473  25.456  27.341  1.00  0.00     0.022 A 
BRANCH  80  83
ATOM     83  S   UNL A   1      43.944  27.196  25.281  1.00  0.00     0.127 S 
ATOM     84  O   UNL A   1      45.239  27.552  24.707  1.00  0.00    -0.237 OA
ATOM     85  O   UNL A   1      43.389  25.935  24.791  1.00  0.00    -0.237 OA
ATOM     86  O   UNL A   1      42.968  28.273  25.386  1.00  0.00    -0.744 OA
ENDBRANCH  80  83
ENDBRANCH  52  76
BRANCH  64  87
ATOM     87  C   UNL A   1      43.323  34.399  30.552  1.00  0.00     0.023 A 
ATOM     88  C   UNL A   1      43.782  35.293  31.539  1.00  0.00     0.012 A 
ATOM     89  C   UNL A   1      43.331  34.875  29.215  1.00  0.00     0.148 A 
ATOM     90  C   UNL A   1      44.139  36.613  31.240  1.00  0.00     0.002 A 
ATOM     91  C   UNL A   1      43.807  36.146  28.906  1.00  0.00     0.091 A 
ATOM     92  F   UNL A   1      42.858  34.102  28.225  1.00  0.00    -0.205 F 
ATOM     93  C   UNL A   1      44.172  37.033  29.921  1.00  0.00     0.022 A 
BRANCH  91  94
ATOM     94  S   UNL A   1      44.123  36.641  27.206  1.00  0.00     0.127 S 
ATOM     95  O   UNL A   1      45.192  37.624  27.373  1.00  0.00    -0.237 OA
ATOM     96  O   UNL A   1      44.543  35.382  26.588  1.00  0.00    -0.237 OA
ATOM     97  O   UNL A   1      42.854  37.154  26.708  1.00  0.00    -0.744 OA
ENDBRANCH  91  94
ENDBRANCH  64  87
ENDBRANCH  38  39
ENDBRANCH  30  33
ENDBRANCH  28  29
ENDBRANCH  27  28
ENDBRANCH   1  27
TORSDOF 17
ENDMDL
