MODEL 1
REMARK VINA RESULT:     -12.0      0.000      0.000
REMARK SMILES O=C(CCC[N@@H+]1CCC[C@]2(CCC(=O)N(CCc3ccccc3)C2)C1)NCCCCNC(=O)c1ccc(-c2c3nc(c(-c4cccc(S(=O)(=O)[O-])c4F)c4ccc([nH]4)c(-c4cccc(S(=O)(=O)[O-])c4F)c4nc(c(-c5cccc(S(=O)(=O)[O-])c5F)c5ccc2[nH]5)C=C4)C=C3)cc1
REMARK SMILES IDX 27 1 26 2 1 3 2 4 3 6 4 7 5 8 6 9 7 10 25 11 8 13 10 14 9 15
REMARK SMILES IDX 11 16 24 17 12 18 15 19 13 20 14 21 16 22 17 23 18 24 19 25
REMARK SMILES IDX 23 26 20 27 22 28 21 29 28 30 29 31 30 32 31 33 32 34 33 36
REMARK SMILES IDX 34 37 35 38 96 39 36 40 95 41 37 42 38 43 39 44 89 45 40 46
REMARK SMILES IDX 94 47 88 48 90 49 41 50 93 51 87 52 86 53 42 55 74 56 54 57
REMARK SMILES IDX 73 58 55 59 58 60 72 61 91 62 56 63 57 64 71 66 92 67 59 68
REMARK SMILES IDX 43 69 44 70 52 71 45 72 47 73 53 74 46 75 48 76 49 77 50 78
REMARK SMILES IDX 51 79 75 80 76 81 84 82 77 83 79 84 85 85 78 86 80 87 81 88
REMARK SMILES IDX 82 89 83 90 60 91 61 92 69 93 62 94 64 95 70 96 63 97 65 98
REMARK SMILES IDX 66 99 67 100 68 101
REMARK H PARENT 26 5 6 12 31 35 90 54 58 65
REMARK Flexibility Score: inf
ROOT
ATOM      1  C   UNL A   1      30.564  31.048  25.006  1.00  0.00     0.116 C 
ENDROOT
BRANCH   1   2
ATOM      2  N   UNL A   1      30.675  29.808  24.279  1.00  0.00    -0.356 N 
ATOM      3  O   UNL A   1      29.184  30.359  22.617  1.00  0.00    -0.275 OA
ATOM      4  C   UNL A   1      30.029  29.604  23.086  1.00  0.00     0.220 C 
ATOM      5  H   UNL A   1      31.231  29.085  24.651  1.00  0.00     0.163 HD
BRANCH   4   6
ATOM      6  C   UNL A   1      30.542  28.399  22.341  1.00  0.00     0.106 C 
BRANCH   6   7
ATOM      7  C   UNL A   1      31.996  28.148  22.735  1.00  0.00     0.071 C 
BRANCH   7   8
ATOM      8  C   UNL A   1      32.257  26.878  23.574  1.00  0.00     0.262 C 
BRANCH   8   9
ATOM      9  N   UNL A   1      31.616  25.642  23.110  1.00  0.00    -0.334 N 
ATOM     10  C   UNL A   1      30.539  25.191  24.012  1.00  0.00     0.262 C 
ATOM     11  C   UNL A   1      32.502  24.511  22.796  1.00  0.00     0.271 C 
ATOM     12  H   UNL A   1      31.228  25.934  22.213  1.00  0.00     0.348 HD
ATOM     13  C   UNL A   1      31.024  24.439  25.259  1.00  0.00     0.062 C 
ATOM     14  C   UNL A   1      33.135  23.737  23.995  1.00  0.00     0.038 C 
ATOM     15  C   UNL A   1      31.976  23.288  24.916  1.00  0.00     0.020 C 
ATOM     16  C   UNL A   1      34.155  24.627  24.761  1.00  0.00     0.024 C 
ATOM     17  C   UNL A   1      33.876  22.499  23.398  1.00  0.00     0.132 C 
ATOM     18  C   UNL A   1      35.115  23.856  25.643  1.00  0.00     0.101 C 
ATOM     19  N   UNL A   1      34.924  21.937  24.240  1.00  0.00    -0.342 N 
ATOM     20  C   UNL A   1      35.816  22.859  24.764  1.00  0.00     0.222 C 
ATOM     21  O   UNL A   1      37.005  22.912  24.476  1.00  0.00    -0.275 OA
BRANCH  19  22
ATOM     22  C   UNL A   1      34.689  20.679  24.952  1.00  0.00     0.124 C 
BRANCH  22  23
ATOM     23  C   UNL A   1      33.350  19.974  24.637  1.00  0.00     0.057 C 
BRANCH  23  24
ATOM     24  C   UNL A   1      33.321  18.458  24.688  1.00  0.00    -0.046 A 
ATOM     25  C   UNL A   1      34.037  17.730  23.725  1.00  0.00     0.004 A 
ATOM     26  C   UNL A   1      32.627  17.749  25.678  1.00  0.00     0.004 A 
ATOM     27  C   UNL A   1      34.130  16.339  23.802  1.00  0.00     0.000 A 
ATOM     28  C   UNL A   1      32.742  16.359  25.770  1.00  0.00     0.000 A 
ATOM     29  C   UNL A   1      33.501  15.656  24.838  1.00  0.00     0.000 A 
ENDBRANCH  23  24
ENDBRANCH  22  23
ENDBRANCH  19  22
ENDBRANCH   8   9
ENDBRANCH   7   8
ENDBRANCH   6   7
ENDBRANCH   4   6
ENDBRANCH   1   2
BRANCH   1  30
ATOM     30  C   UNL A   1      31.622  31.165  26.094  1.00  0.00     0.023 C 
BRANCH  30  31
ATOM     31  C   UNL A   1      31.479  32.391  27.003  1.00  0.00     0.023 C 
BRANCH  31  32
ATOM     32  C   UNL A   1      32.790  33.055  27.414  1.00  0.00     0.116 C 
BRANCH  32  33
ATOM     33  N   UNL A   1      32.591  34.412  27.904  1.00  0.00    -0.352 N 
ATOM     34  C   UNL A   1      33.175  35.059  28.964  1.00  0.00     0.251 C 
ATOM     35  H   UNL A   1      31.936  34.946  27.398  1.00  0.00     0.163 HD
ATOM     36  O   UNL A   1      32.718  36.140  29.341  1.00  0.00    -0.269 OA
BRANCH  34  37
ATOM     37  C   UNL A   1      34.336  34.467  29.664  1.00  0.00     0.039 A 
ATOM     38  C   UNL A   1      34.119  33.755  30.848  1.00  0.00     0.014 A 
ATOM     39  C   UNL A   1      35.635  34.631  29.177  1.00  0.00     0.014 A 
ATOM     40  C   UNL A   1      35.197  33.155  31.506  1.00  0.00     0.010 A 
ATOM     41  C   UNL A   1      36.696  33.969  29.792  1.00  0.00     0.010 A 
ATOM     42  C   UNL A   1      36.491  33.225  30.965  1.00  0.00    -0.014 A 
BRANCH  42  43
ATOM     43  C   UNL A   1      37.632  32.513  31.599  1.00  0.00     0.031 A 
ATOM     44  C   UNL A   1      38.191  32.983  32.916  1.00  0.00     0.074 A 
ATOM     45  C   UNL A   1      38.222  31.491  30.948  1.00  0.00     0.049 A 
ATOM     46  N   UNL A   1      39.214  32.520  33.588  1.00  0.00    -0.248 NA
ATOM     47  C   UNL A   1      37.535  34.139  33.547  1.00  0.00     0.031 C 
ATOM     48  C   UNL A   1      37.822  30.983  29.634  1.00  0.00     0.029 A 
ATOM     49  N   UNL A   1      39.299  30.710  31.291  1.00  0.00    -0.354 N 
ATOM     50  C   UNL A   1      39.347  33.346  34.699  1.00  0.00     0.074 A 
ATOM     51  C   UNL A   1      38.318  34.359  34.593  1.00  0.00     0.031 C 
ATOM     52  C   UNL A   1      38.636  29.973  29.286  1.00  0.00     0.029 A 
ATOM     53  C   UNL A   1      39.638  29.784  30.331  1.00  0.00     0.049 A 
ATOM     54  H   UNL A   1      39.784  30.805  32.142  1.00  0.00     0.167 HD
ATOM     55  C   UNL A   1      40.227  33.257  35.724  1.00  0.00     0.034 A 
ATOM     56  C   UNL A   1      40.646  28.891  30.289  1.00  0.00     0.034 A 
ATOM     57  C   UNL A   1      41.225  32.229  35.846  1.00  0.00     0.049 A 
ATOM     58  C   UNL A   1      41.594  28.799  31.452  1.00  0.00     0.074 A 
ATOM     59  C   UNL A   1      42.101  32.001  36.893  1.00  0.00     0.029 A 
ATOM     60  N   UNL A   1      41.492  31.265  34.887  1.00  0.00    -0.354 N 
ATOM     61  N   UNL A   1      41.606  29.492  32.565  1.00  0.00    -0.248 NA
ATOM     62  C   UNL A   1      42.651  27.779  31.370  1.00  0.00     0.031 C 
ATOM     63  C   UNL A   1      42.925  30.925  36.550  1.00  0.00     0.029 A 
ATOM     64  C   UNL A   1      42.532  30.454  35.308  1.00  0.00     0.049 A 
ATOM     65  H   UNL A   1      41.013  31.171  34.032  1.00  0.00     0.167 HD
ATOM     66  C   UNL A   1      42.640  28.965  33.331  1.00  0.00     0.074 A 
ATOM     67  C   UNL A   1      43.221  27.884  32.562  1.00  0.00     0.031 C 
ATOM     68  C   UNL A   1      43.074  29.350  34.557  1.00  0.00     0.034 A 
BRANCH  55  69
ATOM     69  C   UNL A   1      40.132  34.287  36.822  1.00  0.00     0.023 A 
ATOM     70  C   UNL A   1      40.570  35.606  36.588  1.00  0.00     0.012 A 
ATOM     71  C   UNL A   1      39.551  33.964  38.065  1.00  0.00     0.148 A 
ATOM     72  C   UNL A   1      40.468  36.578  37.582  1.00  0.00     0.002 A 
ATOM     73  C   UNL A   1      39.408  34.949  39.035  1.00  0.00     0.091 A 
ATOM     74  F   UNL A   1      39.158  32.700  38.279  1.00  0.00    -0.205 F 
ATOM     75  C   UNL A   1      39.877  36.252  38.801  1.00  0.00     0.022 A 
BRANCH  73  76
ATOM     76  S   UNL A   1      38.587  34.651  40.604  1.00  0.00     0.127 S 
ATOM     77  O   UNL A   1      38.141  35.997  40.962  1.00  0.00    -0.237 OA
ATOM     78  O   UNL A   1      37.514  33.735  40.220  1.00  0.00    -0.237 OA
ATOM     79  O   UNL A   1      39.595  34.074  41.482  1.00  0.00    -0.744 OA
ENDBRANCH  73  76
ENDBRANCH  55  69
BRANCH  56  80
ATOM     80  C   UNL A   1      40.779  27.972  29.123  1.00  0.00     0.023 A 
ATOM     81  C   UNL A   1      40.009  26.794  29.077  1.00  0.00     0.012 A 
ATOM     82  C   UNL A   1      41.648  28.267  28.055  1.00  0.00     0.148 A 
ATOM     83  C   UNL A   1      40.127  25.908  28.005  1.00  0.00     0.002 A 
ATOM     84  C   UNL A   1      41.719  27.409  26.963  1.00  0.00     0.091 A 
ATOM     85  F   UNL A   1      42.378  29.389  28.122  1.00  0.00    -0.205 F 
ATOM     86  C   UNL A   1      40.975  26.220  26.945  1.00  0.00     0.022 A 
BRANCH  84  87
ATOM     87  S   UNL A   1      42.683  27.793  25.498  1.00  0.00     0.127 S 
ATOM     88  O   UNL A   1      42.530  26.573  24.710  1.00  0.00    -0.237 OA
ATOM     89  O   UNL A   1      41.977  28.962  24.972  1.00  0.00    -0.237 OA
ATOM     90  O   UNL A   1      44.032  28.071  25.974  1.00  0.00    -0.744 OA
ENDBRANCH  84  87
ENDBRANCH  56  80
BRANCH  68  91
ATOM     91  C   UNL A   1      44.209  28.573  35.174  1.00  0.00     0.023 A 
ATOM     92  C   UNL A   1      45.543  28.886  34.846  1.00  0.00     0.012 A 
ATOM     93  C   UNL A   1      43.951  27.576  36.136  1.00  0.00     0.148 A 
ATOM     94  C   UNL A   1      46.600  28.196  35.439  1.00  0.00     0.002 A 
ATOM     95  C   UNL A   1      45.010  26.931  36.763  1.00  0.00     0.091 A 
ATOM     96  F   UNL A   1      42.675  27.279  36.423  1.00  0.00    -0.205 F 
ATOM     97  C   UNL A   1      46.335  27.228  36.404  1.00  0.00     0.022 A 
BRANCH  95  98
ATOM     98  S   UNL A   1      44.767  25.742  38.088  1.00  0.00     0.127 S 
ATOM     99  O   UNL A   1      44.105  24.645  37.387  1.00  0.00    -0.237 OA
ATOM    100  O   UNL A   1      46.141  25.461  38.505  1.00  0.00    -0.237 OA
ATOM    101  O   UNL A   1      43.958  26.420  39.092  1.00  0.00    -0.744 OA
ENDBRANCH  95  98
ENDBRANCH  68  91
ENDBRANCH  42  43
ENDBRANCH  34  37
ENDBRANCH  32  33
ENDBRANCH  31  32
ENDBRANCH  30  31
ENDBRANCH   1  30
TORSDOF 20
ENDMDL
MODEL 2
REMARK VINA RESULT:     -11.9      5.298     10.426
REMARK SMILES O=C(CCC[N@@H+]1CCC[C@]2(CCC(=O)N(CCc3ccccc3)C2)C1)NCCCCNC(=O)c1ccc(-c2c3nc(c(-c4cccc(S(=O)(=O)[O-])c4F)c4ccc([nH]4)c(-c4cccc(S(=O)(=O)[O-])c4F)c4nc(c(-c5cccc(S(=O)(=O)[O-])c5F)c5ccc2[nH]5)C=C4)C=C3)cc1
REMARK SMILES IDX 27 1 26 2 1 3 2 4 3 6 4 7 5 8 6 9 7 10 25 11 8 13 10 14 9 15
REMARK SMILES IDX 11 16 24 17 12 18 15 19 13 20 14 21 16 22 17 23 18 24 19 25
REMARK SMILES IDX 23 26 20 27 22 28 21 29 28 30 29 31 30 32 31 33 32 34 33 36
REMARK SMILES IDX 34 37 35 38 96 39 36 40 95 41 37 42 38 43 39 44 89 45 40 46
REMARK SMILES IDX 94 47 88 48 90 49 41 50 93 51 87 52 86 53 42 55 74 56 54 57
REMARK SMILES IDX 73 58 55 59 58 60 72 61 91 62 56 63 57 64 71 66 92 67 59 68
REMARK SMILES IDX 43 69 44 70 52 71 45 72 47 73 53 74 46 75 48 76 49 77 50 78
REMARK SMILES IDX 51 79 75 80 76 81 84 82 77 83 79 84 85 85 78 86 80 87 81 88
REMARK SMILES IDX 82 89 83 90 60 91 61 92 69 93 62 94 64 95 70 96 63 97 65 98
REMARK SMILES IDX 66 99 67 100 68 101
REMARK H PARENT 26 5 6 12 31 35 90 54 58 65
REMARK Flexibility Score: inf
ROOT
ATOM      1  C   UNL A   1      36.540  19.935  24.985  1.00  0.00     0.116 C 
ENDROOT
BRANCH   1   2
ATOM      2  N   UNL A   1      35.115  20.141  25.052  1.00  0.00    -0.356 N 
ATOM      3  O   UNL A   1      34.526  18.068  24.250  1.00  0.00    -0.275 OA
ATOM      4  C   UNL A   1      34.222  19.144  24.753  1.00  0.00     0.220 C 
ATOM      5  H   UNL A   1      34.773  21.025  25.320  1.00  0.00     0.163 HD
BRANCH   4   6
ATOM      6  C   UNL A   1      32.821  19.458  25.209  1.00  0.00     0.106 C 
BRANCH   6   7
ATOM      7  C   UNL A   1      32.291  20.651  24.417  1.00  0.00     0.071 C 
BRANCH   7   8
ATOM      8  C   UNL A   1      31.747  21.828  25.255  1.00  0.00     0.262 C 
BRANCH   8   9
ATOM      9  N   UNL A   1      32.743  22.731  25.843  1.00  0.00    -0.334 N 
ATOM     10  C   UNL A   1      32.161  23.631  26.857  1.00  0.00     0.262 C 
ATOM     11  C   UNL A   1      33.570  23.509  24.909  1.00  0.00     0.271 C 
ATOM     12  H   UNL A   1      33.386  22.071  26.283  1.00  0.00     0.348 HD
ATOM     13  C   UNL A   1      31.434  24.855  26.281  1.00  0.00     0.062 C 
ATOM     14  C   UNL A   1      32.897  24.718  24.187  1.00  0.00     0.038 C 
ATOM     15  C   UNL A   1      32.297  25.632  25.280  1.00  0.00     0.020 C 
ATOM     16  C   UNL A   1      31.806  24.237  23.188  1.00  0.00     0.024 C 
ATOM     17  C   UNL A   1      34.023  25.464  23.402  1.00  0.00     0.132 C 
ATOM     18  C   UNL A   1      31.412  25.269  22.151  1.00  0.00     0.101 C 
ATOM     19  N   UNL A   1      33.564  26.287  22.291  1.00  0.00    -0.342 N 
ATOM     20  C   UNL A   1      32.669  25.672  21.431  1.00  0.00     0.222 C 
ATOM     21  O   UNL A   1      32.904  25.406  20.260  1.00  0.00    -0.275 OA
BRANCH  19  22
ATOM     22  C   UNL A   1      33.544  27.746  22.426  1.00  0.00     0.124 C 
BRANCH  22  23
ATOM     23  C   UNL A   1      34.262  28.310  23.674  1.00  0.00     0.057 C 
BRANCH  23  24
ATOM     24  C   UNL A   1      33.401  28.863  24.794  1.00  0.00    -0.046 A 
ATOM     25  C   UNL A   1      33.926  28.916  26.094  1.00  0.00     0.004 A 
ATOM     26  C   UNL A   1      32.105  29.350  24.579  1.00  0.00     0.004 A 
ATOM     27  C   UNL A   1      33.211  29.520  27.131  1.00  0.00     0.000 A 
ATOM     28  C   UNL A   1      31.401  29.978  25.611  1.00  0.00     0.000 A 
ATOM     29  C   UNL A   1      31.958  30.071  26.884  1.00  0.00     0.000 A 
ENDBRANCH  23  24
ENDBRANCH  22  23
ENDBRANCH  19  22
ENDBRANCH   8   9
ENDBRANCH   7   8
ENDBRANCH   6   7
ENDBRANCH   4   6
ENDBRANCH   1   2
BRANCH   1  30
ATOM     30  C   UNL A   1      37.278  21.200  24.569  1.00  0.00     0.023 C 
BRANCH  30  31
ATOM     31  C   UNL A   1      36.899  22.457  25.361  1.00  0.00     0.023 C 
BRANCH  31  32
ATOM     32  C   UNL A   1      38.042  23.109  26.135  1.00  0.00     0.116 C 
BRANCH  32  33
ATOM     33  N   UNL A   1      39.157  22.197  26.346  1.00  0.00    -0.352 N 
ATOM     34  C   UNL A   1      40.468  22.465  26.652  1.00  0.00     0.251 C 
ATOM     35  H   UNL A   1      38.937  21.242  26.254  1.00  0.00     0.163 HD
ATOM     36  O   UNL A   1      41.303  21.562  26.585  1.00  0.00    -0.269 OA
BRANCH  34  37
ATOM     37  C   UNL A   1      40.887  23.828  27.047  1.00  0.00     0.039 A 
ATOM     38  C   UNL A   1      40.835  24.852  26.097  1.00  0.00     0.014 A 
ATOM     39  C   UNL A   1      41.356  24.095  28.336  1.00  0.00     0.014 A 
ATOM     40  C   UNL A   1      41.191  26.155  26.458  1.00  0.00     0.010 A 
ATOM     41  C   UNL A   1      41.638  25.407  28.714  1.00  0.00     0.010 A 
ATOM     42  C   UNL A   1      41.561  26.452  27.780  1.00  0.00    -0.014 A 
BRANCH  42  43
ATOM     43  C   UNL A   1      41.851  27.847  28.205  1.00  0.00     0.031 A 
ATOM     44  C   UNL A   1      43.263  28.369  28.211  1.00  0.00     0.074 A 
ATOM     45  C   UNL A   1      40.850  28.622  28.669  1.00  0.00     0.049 A 
ATOM     46  N   UNL A   1      43.709  29.536  28.600  1.00  0.00    -0.248 NA
ATOM     47  C   UNL A   1      44.316  27.453  27.744  1.00  0.00     0.031 C 
ATOM     48  C   UNL A   1      39.448  28.213  28.782  1.00  0.00     0.029 A 
ATOM     49  N   UNL A   1      40.860  29.907  29.154  1.00  0.00    -0.354 N 
ATOM     50  C   UNL A   1      45.091  29.484  28.460  1.00  0.00     0.074 A 
ATOM     51  C   UNL A   1      45.413  28.157  27.981  1.00  0.00     0.031 C 
ATOM     52  C   UNL A   1      38.733  29.227  29.294  1.00  0.00     0.029 A 
ATOM     53  C   UNL A   1      39.628  30.345  29.582  1.00  0.00     0.049 A 
ATOM     54  H   UNL A   1      41.671  30.462  29.192  1.00  0.00     0.167 HD
ATOM     55  C   UNL A   1      46.006  30.456  28.688  1.00  0.00     0.034 A 
ATOM     56  C   UNL A   1      39.258  31.509  30.152  1.00  0.00     0.034 A 
ATOM     57  C   UNL A   1      45.680  31.785  29.130  1.00  0.00     0.049 A 
ATOM     58  C   UNL A   1      40.291  32.580  30.370  1.00  0.00     0.074 A 
ATOM     59  C   UNL A   1      46.528  32.866  29.300  1.00  0.00     0.029 A 
ATOM     60  N   UNL A   1      44.411  32.214  29.486  1.00  0.00    -0.354 N 
ATOM     61  N   UNL A   1      41.571  32.562  30.087  1.00  0.00    -0.248 NA
ATOM     62  C   UNL A   1      39.825  33.844  30.958  1.00  0.00     0.031 C 
ATOM     63  C   UNL A   1      45.778  33.937  29.798  1.00  0.00     0.029 A 
ATOM     64  C   UNL A   1      44.456  33.536  29.896  1.00  0.00     0.049 A 
ATOM     65  H   UNL A   1      43.599  31.660  29.454  1.00  0.00     0.167 HD
ATOM     66  C   UNL A   1      42.053  33.823  30.422  1.00  0.00     0.074 A 
ATOM     67  C   UNL A   1      40.923  34.585  30.914  1.00  0.00     0.031 C 
ATOM     68  C   UNL A   1      43.319  34.302  30.339  1.00  0.00     0.034 A 
BRANCH  55  69
ATOM     69  C   UNL A   1      47.456  30.130  28.431  1.00  0.00     0.023 A 
ATOM     70  C   UNL A   1      48.066  30.543  27.229  1.00  0.00     0.012 A 
ATOM     71  C   UNL A   1      48.230  29.469  29.406  1.00  0.00     0.148 A 
ATOM     72  C   UNL A   1      49.412  30.272  26.984  1.00  0.00     0.002 A 
ATOM     73  C   UNL A   1      49.582  29.245  29.176  1.00  0.00     0.091 A 
ATOM     74  F   UNL A   1      47.629  29.066  30.534  1.00  0.00    -0.205 F 
ATOM     75  C   UNL A   1      50.171  29.633  27.961  1.00  0.00     0.022 A 
BRANCH  73  76
ATOM     76  S   UNL A   1      50.664  28.505  30.403  1.00  0.00     0.127 S 
ATOM     77  O   UNL A   1      51.877  29.306  30.246  1.00  0.00    -0.237 OA
ATOM     78  O   UNL A   1      49.930  28.747  31.645  1.00  0.00    -0.237 OA
ATOM     79  O   UNL A   1      50.790  27.102  30.035  1.00  0.00    -0.744 OA
ENDBRANCH  73  76
ENDBRANCH  55  69
BRANCH  56  80
ATOM     80  C   UNL A   1      37.830  31.745  30.507  1.00  0.00     0.023 A 
ATOM     81  C   UNL A   1      37.335  31.277  31.740  1.00  0.00     0.012 A 
ATOM     82  C   UNL A   1      36.967  32.444  29.641  1.00  0.00     0.148 A 
ATOM     83  C   UNL A   1      35.998  31.471  32.089  1.00  0.00     0.002 A 
ATOM     84  C   UNL A   1      35.651  32.684  30.020  1.00  0.00     0.091 A 
ATOM     85  F   UNL A   1      37.456  32.874  28.469  1.00  0.00    -0.205 F 
ATOM     86  C   UNL A   1      35.160  32.181  31.234  1.00  0.00     0.022 A 
BRANCH  84  87
ATOM     87  S   UNL A   1      34.537  33.698  29.043  1.00  0.00     0.127 S 
ATOM     88  O   UNL A   1      35.428  34.758  28.577  1.00  0.00    -0.237 OA
ATOM     89  O   UNL A   1      34.103  32.757  28.010  1.00  0.00    -0.237 OA
ATOM     90  O   UNL A   1      33.482  34.118  29.955  1.00  0.00    -0.744 OA
ENDBRANCH  84  87
ENDBRANCH  56  80
BRANCH  68  91
ATOM     91  C   UNL A   1      43.554  35.734  30.746  1.00  0.00     0.023 A 
ATOM     92  C   UNL A   1      43.948  36.040  32.064  1.00  0.00     0.012 A 
ATOM     93  C   UNL A   1      43.454  36.772  29.798  1.00  0.00     0.148 A 
ATOM     94  C   UNL A   1      44.203  37.359  32.440  1.00  0.00     0.002 A 
ATOM     95  C   UNL A   1      43.762  38.075  30.165  1.00  0.00     0.091 A 
ATOM     96  F   UNL A   1      43.062  36.463  28.553  1.00  0.00    -0.205 F 
ATOM     97  C   UNL A   1      44.121  38.373  31.490  1.00  0.00     0.022 A 
BRANCH  95  98
ATOM     98  S   UNL A   1      43.782  39.431  28.987  1.00  0.00     0.127 S 
ATOM     99  O   UNL A   1      44.762  38.962  28.010  1.00  0.00    -0.237 OA
ATOM    100  O   UNL A   1      42.399  39.443  28.507  1.00  0.00    -0.237 OA
ATOM    101  O   UNL A   1      44.170  40.615  29.742  1.00  0.00    -0.744 OA
ENDBRANCH  95  98
ENDBRANCH  68  91
ENDBRANCH  42  43
ENDBRANCH  34  37
ENDBRANCH  32  33
ENDBRANCH  31  32
ENDBRANCH  30  31
ENDBRANCH   1  30
TORSDOF 20
ENDMDL
MODEL 3
REMARK VINA RESULT:     -11.8      0.572      7.528
REMARK SMILES O=C(CCC[N@@H+]1CCC[C@]2(CCC(=O)N(CCc3ccccc3)C2)C1)NCCCCNC(=O)c1ccc(-c2c3nc(c(-c4cccc(S(=O)(=O)[O-])c4F)c4ccc([nH]4)c(-c4cccc(S(=O)(=O)[O-])c4F)c4nc(c(-c5cccc(S(=O)(=O)[O-])c5F)c5ccc2[nH]5)C=C4)C=C3)cc1
REMARK SMILES IDX 27 1 26 2 1 3 2 4 3 6 4 7 5 8 6 9 7 10 25 11 8 13 10 14 9 15
REMARK SMILES IDX 11 16 24 17 12 18 15 19 13 20 14 21 16 22 17 23 18 24 19 25
REMARK SMILES IDX 23 26 20 27 22 28 21 29 28 30 29 31 30 32 31 33 32 34 33 36
REMARK SMILES IDX 34 37 35 38 96 39 36 40 95 41 37 42 38 43 39 44 89 45 40 46
REMARK SMILES IDX 94 47 88 48 90 49 41 50 93 51 87 52 86 53 42 55 74 56 54 57
REMARK SMILES IDX 73 58 55 59 58 60 72 61 91 62 56 63 57 64 71 66 92 67 59 68
REMARK SMILES IDX 43 69 44 70 52 71 45 72 47 73 53 74 46 75 48 76 49 77 50 78
REMARK SMILES IDX 51 79 75 80 76 81 84 82 77 83 79 84 85 85 78 86 80 87 81 88
REMARK SMILES IDX 82 89 83 90 60 91 61 92 69 93 62 94 64 95 70 96 63 97 65 98
REMARK SMILES IDX 66 99 67 100 68 101
REMARK H PARENT 26 5 6 12 31 35 90 54 58 65
REMARK Flexibility Score: inf
ROOT
ATOM      1  C   UNL A   1      30.456  31.184  24.980  1.00  0.00     0.116 C 
ENDROOT
BRANCH   1   2
ATOM      2  N   UNL A   1      30.631  29.954  24.249  1.00  0.00    -0.356 N 
ATOM      3  O   UNL A   1      28.695  30.121  23.018  1.00  0.00    -0.275 OA
ATOM      4  C   UNL A   1      29.763  29.570  23.257  1.00  0.00     0.220 C 
ATOM      5  H   UNL A   1      31.395  29.373  24.467  1.00  0.00     0.163 HD
BRANCH   4   6
ATOM      6  C   UNL A   1      30.307  28.452  22.406  1.00  0.00     0.106 C 
BRANCH   6   7
ATOM      7  C   UNL A   1      31.811  28.333  22.637  1.00  0.00     0.071 C 
BRANCH   7   8
ATOM      8  C   UNL A   1      32.279  27.074  23.399  1.00  0.00     0.262 C 
BRANCH   8   9
ATOM      9  N   UNL A   1      31.518  25.841  23.160  1.00  0.00    -0.334 N 
ATOM     10  C   UNL A   1      30.592  25.526  24.265  1.00  0.00     0.262 C 
ATOM     11  C   UNL A   1      32.290  24.641  22.806  1.00  0.00     0.271 C 
ATOM     12  H   UNL A   1      30.995  26.081  22.318  1.00  0.00     0.348 HD
ATOM     13  C   UNL A   1      31.252  24.851  25.476  1.00  0.00     0.062 C 
ATOM     14  C   UNL A   1      33.086  23.933  23.947  1.00  0.00     0.038 C 
ATOM     15  C   UNL A   1      32.084  23.625  25.084  1.00  0.00     0.020 C 
ATOM     16  C   UNL A   1      34.257  24.824  24.450  1.00  0.00     0.024 C 
ATOM     17  C   UNL A   1      33.663  22.612  23.348  1.00  0.00     0.132 C 
ATOM     18  C   UNL A   1      35.321  24.075  25.226  1.00  0.00     0.101 C 
ATOM     19  N   UNL A   1      34.815  22.062  24.050  1.00  0.00    -0.342 N 
ATOM     20  C   UNL A   1      35.821  22.973  24.334  1.00  0.00     0.222 C 
ATOM     21  O   UNL A   1      36.944  22.937  23.850  1.00  0.00    -0.275 OA
BRANCH  19  22
ATOM     22  C   UNL A   1      34.653  20.881  24.901  1.00  0.00     0.124 C 
BRANCH  22  23
ATOM     23  C   UNL A   1      33.328  20.105  24.721  1.00  0.00     0.057 C 
BRANCH  23  24
ATOM     24  C   UNL A   1      33.390  18.590  24.734  1.00  0.00    -0.046 A 
ATOM     25  C   UNL A   1      32.646  17.886  25.693  1.00  0.00     0.004 A 
ATOM     26  C   UNL A   1      34.142  17.857  23.806  1.00  0.00     0.004 A 
ATOM     27  C   UNL A   1      32.585  16.490  25.670  1.00  0.00     0.000 A 
ATOM     28  C   UNL A   1      34.060  16.461  23.767  1.00  0.00     0.000 A 
ATOM     29  C   UNL A   1      33.274  15.780  24.693  1.00  0.00     0.000 A 
ENDBRANCH  23  24
ENDBRANCH  22  23
ENDBRANCH  19  22
ENDBRANCH   8   9
ENDBRANCH   7   8
ENDBRANCH   6   7
ENDBRANCH   4   6
ENDBRANCH   1   2
BRANCH   1  30
ATOM     30  C   UNL A   1      31.417  31.285  26.157  1.00  0.00     0.023 C 
BRANCH  30  31
ATOM     31  C   UNL A   1      31.407  32.635  26.883  1.00  0.00     0.023 C 
BRANCH  31  32
ATOM     32  C   UNL A   1      32.780  33.178  27.272  1.00  0.00     0.116 C 
BRANCH  32  33
ATOM     33  N   UNL A   1      32.698  34.484  27.909  1.00  0.00    -0.352 N 
ATOM     34  C   UNL A   1      33.371  34.977  28.998  1.00  0.00     0.251 C 
ATOM     35  H   UNL A   1      32.060  35.110  27.495  1.00  0.00     0.163 HD
ATOM     36  O   UNL A   1      33.007  36.038  29.507  1.00  0.00    -0.269 OA
BRANCH  34  37
ATOM     37  C   UNL A   1      34.518  34.240  29.573  1.00  0.00     0.039 A 
ATOM     38  C   UNL A   1      35.799  34.487  29.074  1.00  0.00     0.014 A 
ATOM     39  C   UNL A   1      34.334  33.289  30.581  1.00  0.00     0.014 A 
ATOM     40  C   UNL A   1      36.902  33.830  29.627  1.00  0.00     0.010 A 
ATOM     41  C   UNL A   1      35.441  32.692  31.183  1.00  0.00     0.010 A 
ATOM     42  C   UNL A   1      36.737  32.953  30.712  1.00  0.00    -0.014 A 
BRANCH  42  43
ATOM     43  C   UNL A   1      37.907  32.318  31.376  1.00  0.00     0.031 A 
ATOM     44  C   UNL A   1      38.623  31.164  30.727  1.00  0.00     0.074 A 
ATOM     45  C   UNL A   1      38.276  32.727  32.606  1.00  0.00     0.049 A 
ATOM     46  N   UNL A   1      39.624  30.454  31.182  1.00  0.00    -0.248 NA
ATOM     47  C   UNL A   1      38.135  30.731  29.407  1.00  0.00     0.031 C 
ATOM     48  C   UNL A   1      37.621  33.788  33.375  1.00  0.00     0.029 A 
ATOM     49  N   UNL A   1      39.275  32.284  33.438  1.00  0.00    -0.354 N 
ATOM     50  C   UNL A   1      39.863  29.473  30.226  1.00  0.00     0.074 A 
ATOM     51  C   UNL A   1      38.880  29.659  29.180  1.00  0.00     0.031 C 
ATOM     52  C   UNL A   1      38.240  33.920  34.559  1.00  0.00     0.029 A 
ATOM     53  C   UNL A   1      39.309  32.930  34.652  1.00  0.00     0.049 A 
ATOM     54  H   UNL A   1      39.907  31.572  33.189  1.00  0.00     0.167 HD
ATOM     55  C   UNL A   1      40.825  28.519  30.208  1.00  0.00     0.034 A 
ATOM     56  C   UNL A   1      40.102  32.741  35.726  1.00  0.00     0.034 A 
ATOM     57  C   UNL A   1      41.823  28.359  31.231  1.00  0.00     0.049 A 
ATOM     58  C   UNL A   1      41.178  31.692  35.669  1.00  0.00     0.074 A 
ATOM     59  C   UNL A   1      42.894  27.483  31.257  1.00  0.00     0.029 A 
ATOM     60  N   UNL A   1      41.868  29.079  32.415  1.00  0.00    -0.354 N 
ATOM     61  N   UNL A   1      41.483  30.875  34.690  1.00  0.00    -0.248 NA
ATOM     62  C   UNL A   1      42.040  31.557  36.852  1.00  0.00     0.031 C 
ATOM     63  C   UNL A   1      43.563  27.645  32.474  1.00  0.00     0.029 A 
ATOM     64  C   UNL A   1      42.935  28.652  33.187  1.00  0.00     0.049 A 
ATOM     65  H   UNL A   1      41.235  29.788  32.669  1.00  0.00     0.167 HD
ATOM     66  C   UNL A   1      42.596  30.161  35.121  1.00  0.00     0.074 A 
ATOM     67  C   UNL A   1      42.920  30.654  36.444  1.00  0.00     0.031 C 
ATOM     68  C   UNL A   1      43.280  29.180  34.483  1.00  0.00     0.034 A 
BRANCH  55  69
ATOM     69  C   UNL A   1      40.867  27.587  29.024  1.00  0.00     0.023 A 
ATOM     70  C   UNL A   1      39.964  26.507  28.947  1.00  0.00     0.012 A 
ATOM     71  C   UNL A   1      41.759  27.818  27.957  1.00  0.00     0.148 A 
ATOM     72  C   UNL A   1      39.972  25.649  27.848  1.00  0.00     0.002 A 
ATOM     73  C   UNL A   1      41.728  26.988  26.842  1.00  0.00     0.091 A 
ATOM     74  F   UNL A   1      42.624  28.837  28.055  1.00  0.00    -0.205 F 
ATOM     75  C   UNL A   1      40.846  25.896  26.792  1.00  0.00     0.022 A 
BRANCH  73  76
ATOM     76  S   UNL A   1      42.755  27.269  25.397  1.00  0.00     0.127 S 
ATOM     77  O   UNL A   1      44.073  27.451  26.003  1.00  0.00    -0.237 OA
ATOM     78  O   UNL A   1      42.592  26.019  24.655  1.00  0.00    -0.237 OA
ATOM     79  O   UNL A   1      42.206  28.445  24.736  1.00  0.00    -0.744 OA
ENDBRANCH  73  76
ENDBRANCH  55  69
BRANCH  56  80
ATOM     80  C   UNL A   1      39.945  33.605  36.930  1.00  0.00     0.023 A 
ATOM     81  C   UNL A   1      40.526  34.888  36.945  1.00  0.00     0.012 A 
ATOM     82  C   UNL A   1      39.210  33.171  38.050  1.00  0.00     0.148 A 
ATOM     83  C   UNL A   1      40.408  35.710  38.066  1.00  0.00     0.002 A 
ATOM     84  C   UNL A   1      39.047  34.018  39.141  1.00  0.00     0.091 A 
ATOM     85  F   UNL A   1      38.671  31.944  38.019  1.00  0.00    -0.205 F 
ATOM     86  C   UNL A   1      39.661  35.279  39.159  1.00  0.00     0.022 A 
BRANCH  84  87
ATOM     87  S   UNL A   1      37.998  33.598  40.537  1.00  0.00     0.127 S 
ATOM     88  O   UNL A   1      38.009  34.841  41.304  1.00  0.00    -0.237 OA
ATOM     89  O   UNL A   1      36.729  33.291  39.876  1.00  0.00    -0.237 OA
ATOM     90  O   UNL A   1      38.632  32.455  41.179  1.00  0.00    -0.744 OA
ENDBRANCH  84  87
ENDBRANCH  56  80
BRANCH  68  91
ATOM     91  C   UNL A   1      44.481  28.595  35.181  1.00  0.00     0.023 A 
ATOM     92  C   UNL A   1      45.737  29.225  35.077  1.00  0.00     0.012 A 
ATOM     93  C   UNL A   1      44.346  27.457  36.002  1.00  0.00     0.148 A 
ATOM     94  C   UNL A   1      46.846  28.712  35.748  1.00  0.00     0.002 A 
ATOM     95  C   UNL A   1      45.443  26.983  36.711  1.00  0.00     0.091 A 
ATOM     96  F   UNL A   1      43.147  26.861  36.076  1.00  0.00    -0.205 F 
ATOM     97  C   UNL A   1      46.697  27.600  36.574  1.00  0.00     0.022 A 
BRANCH  95  98
ATOM     98  S   UNL A   1      45.323  25.619  37.874  1.00  0.00     0.127 S 
ATOM     99  O   UNL A   1      46.141  26.102  38.984  1.00  0.00    -0.237 OA
ATOM    100  O   UNL A   1      43.887  25.573  38.148  1.00  0.00    -0.237 OA
ATOM    101  O   UNL A   1      45.844  24.450  37.177  1.00  0.00    -0.744 OA
ENDBRANCH  95  98
ENDBRANCH  68  91
ENDBRANCH  42  43
ENDBRANCH  34  37
ENDBRANCH  32  33
ENDBRANCH  31  32
ENDBRANCH  30  31
ENDBRANCH   1  30
TORSDOF 20
ENDMDL
