MODEL 1
REMARK VINA RESULT:     -11.6      0.000      0.000
REMARK SMILES Cc1nsc(N(C)S(=O)(=O)c2cn[nH]c2C)c1C(=O)NCCCCNC(=O)c1ccc(-c2c3nc(c(-c4cccc(S(=O)(=O)[O-])c4F)c4ccc([nH]4)c(-c4cccc(S(=O)(=O)[O-])c4F)c4nc(c(-c5cccc(S(=O)(=O)[O-])c5F)c5ccc2[nH]5)C=C4)C=C3)cc1
REMARK SMILES IDX 22 1 21 2 20 3 18 4 19 5 17 7 1 8 2 9 3 10 4 11 5 12 6 13
REMARK SMILES IDX 7 14 8 15 9 16 10 17 11 18 12 19 15 20 13 21 14 22 16 23
REMARK SMILES IDX 23 25 24 26 25 27 26 28 27 30 28 31 29 32 90 33 30 34 89 35
REMARK SMILES IDX 31 36 32 37 33 38 83 39 34 40 88 41 82 42 84 43 35 44 87 45
REMARK SMILES IDX 81 46 80 47 36 49 68 50 48 51 67 52 49 53 52 54 66 55 85 56
REMARK SMILES IDX 50 57 51 58 65 60 86 61 53 62 37 63 38 64 46 65 39 66 41 67
REMARK SMILES IDX 47 68 40 69 42 70 43 71 44 72 45 73 69 74 70 75 78 76 71 77
REMARK SMILES IDX 73 78 79 79 72 80 74 81 75 82 76 83 77 84 54 85 55 86 63 87
REMARK SMILES IDX 56 88 58 89 64 90 57 91 59 92 60 93 61 94 62 95
REMARK H PARENT 20 6 14 24 25 29 84 48 52 59
REMARK Flexibility Score: inf
ROOT
ATOM      1  C   UNL A   1      38.909  22.307  26.233  1.00  0.00     0.023 C 
ENDROOT
BRANCH   1   2
ATOM      2  C   UNL A   1      37.682  23.073  25.733  1.00  0.00     0.116 C 
BRANCH   2   3
ATOM      3  N   UNL A   1      37.370  22.926  24.326  1.00  0.00    -0.352 N 
ATOM      4  C   UNL A   1      36.175  22.752  23.653  1.00  0.00     0.256 C 
ATOM      5  O   UNL A   1      36.190  23.090  22.475  1.00  0.00    -0.269 OA
ATOM      6  H   UNL A   1      38.158  22.956  23.737  1.00  0.00     0.163 HD
BRANCH   4   7
ATOM      7  C   UNL A   1      34.966  22.253  24.312  1.00  0.00     0.098 A 
ATOM      8  C   UNL A   1      35.959  19.885  25.000  1.00  0.00     0.069 C 
ATOM      9  C   UNL A   1      34.869  20.898  24.861  1.00  0.00     0.066 A 
ATOM     10  N   UNL A   1      33.677  20.511  25.303  1.00  0.00    -0.195 NA
ATOM     11  S   UNL A   1      32.656  21.782  25.234  1.00  0.00    -0.017 S 
ATOM     12  C   UNL A   1      33.820  22.976  24.718  1.00  0.00     0.138 A 
BRANCH  12  13
ATOM     13  N   UNL A   1      33.392  24.402  24.728  1.00  0.00    -0.258 N 
ATOM     14  C   UNL A   1      34.218  25.343  25.531  1.00  0.00     0.165 C 
BRANCH  13  15
ATOM     15  S   UNL A   1      32.790  25.061  23.273  1.00  0.00     0.268 S 
ATOM     16  O   UNL A   1      33.934  25.552  22.529  1.00  0.00    -0.201 OA
ATOM     17  O   UNL A   1      31.799  24.139  22.771  1.00  0.00    -0.201 OA
BRANCH  15  18
ATOM     18  C   UNL A   1      31.875  26.527  23.424  1.00  0.00     0.128 A 
ATOM     19  C   UNL A   1      31.758  27.621  22.553  1.00  0.00     0.157 A 
ATOM     20  C   UNL A   1      30.947  26.792  24.422  1.00  0.00     0.053 A 
ATOM     21  N   UNL A   1      30.859  28.525  22.963  1.00  0.00    -0.183 NA
ATOM     22  N   UNL A   1      30.338  27.963  24.068  1.00  0.00    -0.281 N 
ATOM     23  C   UNL A   1      30.521  26.029  25.621  1.00  0.00     0.067 C 
ATOM     24  H   UNL A   1      29.590  28.356  24.573  1.00  0.00     0.190 HD
ENDBRANCH  15  18
ENDBRANCH  13  15
ENDBRANCH  12  13
ENDBRANCH   4   7
ENDBRANCH   2   3
ENDBRANCH   1   2
BRANCH   1  25
ATOM     25  C   UNL A   1      39.377  21.078  25.446  1.00  0.00     0.023 C 
BRANCH  25  26
ATOM     26  C   UNL A   1      39.749  19.848  26.265  1.00  0.00     0.116 C 
BRANCH  26  27
ATOM     27  N   UNL A   1      40.911  19.124  25.760  1.00  0.00    -0.352 N 
ATOM     28  C   UNL A   1      42.216  19.580  25.702  1.00  0.00     0.251 C 
ATOM     29  H   UNL A   1      40.748  18.213  25.425  1.00  0.00     0.163 HD
ATOM     30  O   UNL A   1      43.049  19.002  25.011  1.00  0.00    -0.269 OA
BRANCH  28  31
ATOM     31  C   UNL A   1      42.582  20.797  26.455  1.00  0.00     0.039 A 
ATOM     32  C   UNL A   1      43.097  21.907  25.782  1.00  0.00     0.014 A 
ATOM     33  C   UNL A   1      42.338  20.850  27.827  1.00  0.00     0.014 A 
ATOM     34  C   UNL A   1      43.262  23.104  26.477  1.00  0.00     0.010 A 
ATOM     35  C   UNL A   1      42.408  22.061  28.491  1.00  0.00     0.010 A 
ATOM     36  C   UNL A   1      42.876  23.194  27.827  1.00  0.00    -0.014 A 
BRANCH  36  37
ATOM     37  C   UNL A   1      42.803  24.516  28.462  1.00  0.00     0.031 A 
ATOM     38  C   UNL A   1      41.563  25.287  28.154  1.00  0.00     0.074 A 
ATOM     39  C   UNL A   1      43.631  24.962  29.434  1.00  0.00     0.049 A 
ATOM     40  N   UNL A   1      41.461  26.392  27.488  1.00  0.00    -0.248 NA
ATOM     41  C   UNL A   1      40.269  24.699  28.535  1.00  0.00     0.031 C 
ATOM     42  C   UNL A   1      44.671  24.190  30.123  1.00  0.00     0.029 A 
ATOM     43  N   UNL A   1      43.621  26.147  30.124  1.00  0.00    -0.354 N 
ATOM     44  C   UNL A   1      40.120  26.766  27.599  1.00  0.00     0.074 A 
ATOM     45  C   UNL A   1      39.412  25.603  28.056  1.00  0.00     0.031 C 
ATOM     46  C   UNL A   1      44.986  24.804  31.283  1.00  0.00     0.029 A 
ATOM     47  C   UNL A   1      44.321  26.093  31.324  1.00  0.00     0.049 A 
ATOM     48  H   UNL A   1      43.162  26.956  29.800  1.00  0.00     0.167 HD
ATOM     49  C   UNL A   1      39.762  28.081  27.601  1.00  0.00     0.034 A 
ATOM     50  C   UNL A   1      44.349  27.019  32.309  1.00  0.00     0.034 A 
ATOM     51  C   UNL A   1      40.858  28.922  27.199  1.00  0.00     0.049 A 
ATOM     52  C   UNL A   1      43.987  28.328  31.727  1.00  0.00     0.074 A 
ATOM     53  C   UNL A   1      41.500  29.297  26.042  1.00  0.00     0.029 A 
ATOM     54  N   UNL A   1      41.643  29.306  28.250  1.00  0.00    -0.354 N 
ATOM     55  N   UNL A   1      44.726  28.962  30.859  1.00  0.00    -0.248 NA
ATOM     56  C   UNL A   1      42.648  28.868  31.928  1.00  0.00     0.031 C 
ATOM     57  C   UNL A   1      42.770  29.814  26.442  1.00  0.00     0.029 A 
ATOM     58  C   UNL A   1      42.863  29.749  27.831  1.00  0.00     0.049 A 
ATOM     59  H   UNL A   1      41.363  29.266  29.193  1.00  0.00     0.167 HD
ATOM     60  C   UNL A   1      43.813  29.672  30.106  1.00  0.00     0.074 A 
ATOM     61  C   UNL A   1      42.608  29.740  30.919  1.00  0.00     0.031 C 
ATOM     62  C   UNL A   1      43.973  29.810  28.759  1.00  0.00     0.034 A 
BRANCH  49  63
ATOM     63  C   UNL A   1      38.633  28.701  28.417  1.00  0.00     0.023 A 
ATOM     64  C   UNL A   1      37.768  29.590  27.729  1.00  0.00     0.012 A 
ATOM     65  C   UNL A   1      38.567  28.728  29.828  1.00  0.00     0.148 A 
ATOM     66  C   UNL A   1      36.941  30.496  28.403  1.00  0.00     0.002 A 
ATOM     67  C   UNL A   1      37.687  29.578  30.494  1.00  0.00     0.091 A 
ATOM     68  F   UNL A   1      39.446  28.035  30.556  1.00  0.00    -0.205 F 
ATOM     69  C   UNL A   1      36.897  30.488  29.789  1.00  0.00     0.022 A 
BRANCH  67  70
ATOM     70  S   UNL A   1      37.557  29.581  32.288  1.00  0.00     0.127 S 
ATOM     71  O   UNL A   1      38.782  30.278  32.668  1.00  0.00    -0.237 OA
ATOM     72  O   UNL A   1      36.321  30.335  32.499  1.00  0.00    -0.237 OA
ATOM     73  O   UNL A   1      37.468  28.176  32.671  1.00  0.00    -0.744 OA
ENDBRANCH  67  70
ENDBRANCH  49  63
BRANCH  50  74
ATOM     74  C   UNL A   1      44.580  26.859  33.762  1.00  0.00     0.023 A 
ATOM     75  C   UNL A   1      45.803  27.282  34.320  1.00  0.00     0.012 A 
ATOM     76  C   UNL A   1      43.517  26.547  34.637  1.00  0.00     0.148 A 
ATOM     77  C   UNL A   1      45.950  27.434  35.703  1.00  0.00     0.002 A 
ATOM     78  C   UNL A   1      43.673  26.690  36.014  1.00  0.00     0.091 A 
ATOM     79  F   UNL A   1      42.334  26.197  34.115  1.00  0.00    -0.205 F 
ATOM     80  C   UNL A   1      44.883  27.148  36.549  1.00  0.00     0.022 A 
BRANCH  78  81
ATOM     81  S   UNL A   1      42.340  26.343  37.168  1.00  0.00     0.127 S 
ATOM     82  O   UNL A   1      43.022  26.441  38.460  1.00  0.00    -0.237 OA
ATOM     83  O   UNL A   1      41.406  27.429  36.887  1.00  0.00    -0.237 OA
ATOM     84  O   UNL A   1      41.884  25.000  36.837  1.00  0.00    -0.744 OA
ENDBRANCH  78  81
ENDBRANCH  50  74
BRANCH  62  85
ATOM     85  C   UNL A   1      45.361  29.793  28.201  1.00  0.00     0.023 A 
ATOM     86  C   UNL A   1      46.203  30.920  28.195  1.00  0.00     0.012 A 
ATOM     87  C   UNL A   1      45.865  28.561  27.748  1.00  0.00     0.148 A 
ATOM     88  C   UNL A   1      47.516  30.823  27.726  1.00  0.00     0.002 A 
ATOM     89  C   UNL A   1      47.183  28.456  27.330  1.00  0.00     0.091 A 
ATOM     90  F   UNL A   1      45.042  27.501  27.741  1.00  0.00    -0.205 F 
ATOM     91  C   UNL A   1      48.011  29.588  27.307  1.00  0.00     0.022 A 
BRANCH  89  92
ATOM     92  S   UNL A   1      47.892  26.865  26.903  1.00  0.00     0.127 S 
ATOM     93  O   UNL A   1      47.153  26.512  25.693  1.00  0.00    -0.237 OA
ATOM     94  O   UNL A   1      49.303  27.192  26.685  1.00  0.00    -0.237 OA
ATOM     95  O   UNL A   1      47.659  26.009  28.061  1.00  0.00    -0.744 OA
ENDBRANCH  89  92
ENDBRANCH  62  85
ENDBRANCH  36  37
ENDBRANCH  28  31
ENDBRANCH  26  27
ENDBRANCH  25  26
ENDBRANCH   1  25
TORSDOF 17
ENDMDL
MODEL 2
REMARK VINA RESULT:     -11.6      2.053      3.702
REMARK SMILES Cc1nsc(N(C)S(=O)(=O)c2cn[nH]c2C)c1C(=O)NCCCCNC(=O)c1ccc(-c2c3nc(c(-c4cccc(S(=O)(=O)[O-])c4F)c4ccc([nH]4)c(-c4cccc(S(=O)(=O)[O-])c4F)c4nc(c(-c5cccc(S(=O)(=O)[O-])c5F)c5ccc2[nH]5)C=C4)C=C3)cc1
REMARK SMILES IDX 22 1 21 2 20 3 18 4 19 5 17 7 1 8 2 9 3 10 4 11 5 12 6 13
REMARK SMILES IDX 7 14 8 15 9 16 10 17 11 18 12 19 15 20 13 21 14 22 16 23
REMARK SMILES IDX 23 25 24 26 25 27 26 28 27 30 28 31 29 32 90 33 30 34 89 35
REMARK SMILES IDX 31 36 32 37 33 38 83 39 34 40 88 41 82 42 84 43 35 44 87 45
REMARK SMILES IDX 81 46 80 47 36 49 68 50 48 51 67 52 49 53 52 54 66 55 85 56
REMARK SMILES IDX 50 57 51 58 65 60 86 61 53 62 37 63 38 64 46 65 39 66 41 67
REMARK SMILES IDX 47 68 40 69 42 70 43 71 44 72 45 73 69 74 70 75 78 76 71 77
REMARK SMILES IDX 73 78 79 79 72 80 74 81 75 82 76 83 77 84 54 85 55 86 63 87
REMARK SMILES IDX 56 88 58 89 64 90 57 91 59 92 60 93 61 94 62 95
REMARK H PARENT 20 6 14 24 25 29 84 48 52 59
REMARK Flexibility Score: inf
ROOT
ATOM      1  C   UNL A   1      38.628  22.321  25.984  1.00  0.00     0.023 C 
ENDROOT
BRANCH   1   2
ATOM      2  C   UNL A   1      37.333  23.018  25.559  1.00  0.00     0.116 C 
BRANCH   2   3
ATOM      3  N   UNL A   1      36.289  23.088  26.562  1.00  0.00    -0.352 N 
ATOM      4  C   UNL A   1      34.920  22.910  26.491  1.00  0.00     0.256 C 
ATOM      5  O   UNL A   1      34.382  22.610  27.550  1.00  0.00    -0.269 OA
ATOM      6  H   UNL A   1      36.618  23.303  27.465  1.00  0.00     0.163 HD
BRANCH   4   7
ATOM      7  C   UNL A   1      34.177  23.017  25.234  1.00  0.00     0.098 A 
ATOM      8  C   UNL A   1      34.414  25.651  24.972  1.00  0.00     0.069 C 
ATOM      9  C   UNL A   1      33.894  24.303  24.592  1.00  0.00     0.066 A 
ATOM     10  N   UNL A   1      33.088  24.285  23.535  1.00  0.00    -0.195 NA
ATOM     11  S   UNL A   1      32.754  22.732  23.159  1.00  0.00    -0.017 S 
ATOM     12  C   UNL A   1      33.801  21.986  24.341  1.00  0.00     0.138 A 
BRANCH  12  13
ATOM     13  N   UNL A   1      34.015  20.517  24.238  1.00  0.00    -0.258 N 
ATOM     14  C   UNL A   1      35.190  19.960  24.960  1.00  0.00     0.165 C 
BRANCH  13  15
ATOM     15  S   UNL A   1      32.636  19.510  24.258  1.00  0.00     0.268 S 
ATOM     16  O   UNL A   1      31.785  19.984  25.331  1.00  0.00    -0.201 OA
ATOM     17  O   UNL A   1      32.229  19.327  22.886  1.00  0.00    -0.201 OA
BRANCH  15  18
ATOM     18  C   UNL A   1      32.897  17.876  24.778  1.00  0.00     0.128 A 
ATOM     19  C   UNL A   1      32.400  17.185  25.894  1.00  0.00     0.157 A 
ATOM     20  C   UNL A   1      33.558  16.898  24.046  1.00  0.00     0.053 A 
ATOM     21  N   UNL A   1      32.732  15.887  25.899  1.00  0.00    -0.183 NA
ATOM     22  N   UNL A   1      33.382  15.730  24.732  1.00  0.00    -0.281 N 
ATOM     23  C   UNL A   1      34.264  16.930  22.741  1.00  0.00     0.067 C 
ATOM     24  H   UNL A   1      33.699  14.857  24.404  1.00  0.00     0.190 HD
ENDBRANCH  15  18
ENDBRANCH  13  15
ENDBRANCH  12  13
ENDBRANCH   4   7
ENDBRANCH   2   3
ENDBRANCH   1   2
BRANCH   1  25
ATOM     25  C   UNL A   1      38.953  20.948  25.385  1.00  0.00     0.023 C 
BRANCH  25  26
ATOM     26  C   UNL A   1      39.433  19.879  26.358  1.00  0.00     0.116 C 
BRANCH  26  27
ATOM     27  N   UNL A   1      40.560  19.091  25.870  1.00  0.00    -0.352 N 
ATOM     28  C   UNL A   1      41.876  19.502  25.754  1.00  0.00     0.251 C 
ATOM     29  H   UNL A   1      40.362  18.168  25.592  1.00  0.00     0.163 HD
ATOM     30  O   UNL A   1      42.674  18.859  25.079  1.00  0.00    -0.269 OA
BRANCH  28  31
ATOM     31  C   UNL A   1      42.298  20.748  26.426  1.00  0.00     0.039 A 
ATOM     32  C   UNL A   1      42.531  21.902  25.675  1.00  0.00     0.014 A 
ATOM     33  C   UNL A   1      42.386  20.778  27.817  1.00  0.00     0.014 A 
ATOM     34  C   UNL A   1      42.746  23.110  26.338  1.00  0.00     0.010 A 
ATOM     35  C   UNL A   1      42.499  21.989  28.473  1.00  0.00     0.010 A 
ATOM     36  C   UNL A   1      42.688  23.162  27.742  1.00  0.00    -0.014 A 
BRANCH  36  37
ATOM     37  C   UNL A   1      42.647  24.472  28.407  1.00  0.00     0.031 A 
ATOM     38  C   UNL A   1      41.423  25.276  28.122  1.00  0.00     0.074 A 
ATOM     39  C   UNL A   1      43.489  24.878  29.384  1.00  0.00     0.049 A 
ATOM     40  N   UNL A   1      41.342  26.397  27.482  1.00  0.00    -0.248 NA
ATOM     41  C   UNL A   1      40.118  24.708  28.497  1.00  0.00     0.031 C 
ATOM     42  C   UNL A   1      44.515  24.068  30.051  1.00  0.00     0.029 A 
ATOM     43  N   UNL A   1      43.508  26.047  30.100  1.00  0.00    -0.354 N 
ATOM     44  C   UNL A   1      40.010  26.798  27.607  1.00  0.00     0.074 A 
ATOM     45  C   UNL A   1      39.278  25.641  28.042  1.00  0.00     0.031 C 
ATOM     46  C   UNL A   1      44.849  24.649  31.222  1.00  0.00     0.029 A 
ATOM     47  C   UNL A   1      44.212  25.951  31.295  1.00  0.00     0.049 A 
ATOM     48  H   UNL A   1      43.066  26.873  29.797  1.00  0.00     0.167 HD
ATOM     49  C   UNL A   1      39.682  28.120  27.640  1.00  0.00     0.034 A 
ATOM     50  C   UNL A   1      44.265  26.854  32.300  1.00  0.00     0.034 A 
ATOM     51  C   UNL A   1      40.794  28.945  27.251  1.00  0.00     0.049 A 
ATOM     52  C   UNL A   1      43.929  28.184  31.749  1.00  0.00     0.074 A 
ATOM     53  C   UNL A   1      41.439  29.332  26.099  1.00  0.00     0.029 A 
ATOM     54  N   UNL A   1      41.591  29.289  28.306  1.00  0.00    -0.354 N 
ATOM     55  N   UNL A   1      44.678  28.820  30.891  1.00  0.00    -0.248 NA
ATOM     56  C   UNL A   1      42.603  28.748  31.968  1.00  0.00     0.031 C 
ATOM     57  C   UNL A   1      42.721  29.812  26.504  1.00  0.00     0.029 A 
ATOM     58  C   UNL A   1      42.819  29.715  27.890  1.00  0.00     0.049 A 
ATOM     59  H   UNL A   1      41.315  29.234  29.249  1.00  0.00     0.167 HD
ATOM     60  C   UNL A   1      43.778  29.567  30.158  1.00  0.00     0.074 A 
ATOM     61  C   UNL A   1      42.578  29.643  30.979  1.00  0.00     0.031 C 
ATOM     62  C   UNL A   1      43.934  29.730  28.814  1.00  0.00     0.034 A 
BRANCH  49  63
ATOM     63  C   UNL A   1      38.570  28.746  28.475  1.00  0.00     0.023 A 
ATOM     64  C   UNL A   1      37.701  29.644  27.803  1.00  0.00     0.012 A 
ATOM     65  C   UNL A   1      38.526  28.771  29.887  1.00  0.00     0.148 A 
ATOM     66  C   UNL A   1      36.891  30.554  28.491  1.00  0.00     0.002 A 
ATOM     67  C   UNL A   1      37.664  29.626  30.569  1.00  0.00     0.091 A 
ATOM     68  F   UNL A   1      39.413  28.071  30.599  1.00  0.00    -0.205 F 
ATOM     69  C   UNL A   1      36.869  30.543  29.878  1.00  0.00     0.022 A 
BRANCH  67  70
ATOM     70  S   UNL A   1      37.563  29.627  32.364  1.00  0.00     0.127 S 
ATOM     71  O   UNL A   1      38.799  30.313  32.726  1.00  0.00    -0.237 OA
ATOM     72  O   UNL A   1      36.337  30.391  32.596  1.00  0.00    -0.237 OA
ATOM     73  O   UNL A   1      37.468  28.222  32.746  1.00  0.00    -0.744 OA
ENDBRANCH  67  70
ENDBRANCH  49  63
BRANCH  50  74
ATOM     74  C   UNL A   1      44.500  26.658  33.748  1.00  0.00     0.023 A 
ATOM     75  C   UNL A   1      45.762  26.965  34.294  1.00  0.00     0.012 A 
ATOM     76  C   UNL A   1      43.424  26.430  34.634  1.00  0.00     0.148 A 
ATOM     77  C   UNL A   1      45.939  27.087  35.677  1.00  0.00     0.002 A 
ATOM     78  C   UNL A   1      43.609  26.542  36.010  1.00  0.00     0.091 A 
ATOM     79  F   UNL A   1      42.208  26.192  34.124  1.00  0.00    -0.205 F 
ATOM     80  C   UNL A   1      44.861  26.886  36.534  1.00  0.00     0.022 A 
BRANCH  78  81
ATOM     81  S   UNL A   1      42.266  26.300  37.178  1.00  0.00     0.127 S 
ATOM     82  O   UNL A   1      41.792  24.960  36.827  1.00  0.00    -0.237 OA
ATOM     83  O   UNL A   1      42.961  26.385  38.459  1.00  0.00    -0.237 OA
ATOM     84  O   UNL A   1      41.311  27.362  36.893  1.00  0.00    -0.744 OA
ENDBRANCH  78  81
ENDBRANCH  50  74
BRANCH  62  85
ATOM     85  C   UNL A   1      45.320  29.695  28.249  1.00  0.00     0.023 A 
ATOM     86  C   UNL A   1      45.953  28.509  27.837  1.00  0.00     0.012 A 
ATOM     87  C   UNL A   1      45.968  30.925  28.042  1.00  0.00     0.148 A 
ATOM     88  C   UNL A   1      47.221  28.550  27.249  1.00  0.00     0.002 A 
ATOM     89  C   UNL A   1      47.204  30.966  27.414  1.00  0.00     0.091 A 
ATOM     90  F   UNL A   1      45.358  32.045  28.460  1.00  0.00    -0.205 F 
ATOM     91  C   UNL A   1      47.841  29.779  27.023  1.00  0.00     0.022 A 
BRANCH  89  92
ATOM     92  S   UNL A   1      47.975  32.531  26.995  1.00  0.00     0.127 S 
ATOM     93  O   UNL A   1      48.102  33.172  28.300  1.00  0.00    -0.237 OA
ATOM     94  O   UNL A   1      49.242  32.111  26.392  1.00  0.00    -0.237 OA
ATOM     95  O   UNL A   1      47.064  33.177  26.057  1.00  0.00    -0.744 OA
ENDBRANCH  89  92
ENDBRANCH  62  85
ENDBRANCH  36  37
ENDBRANCH  28  31
ENDBRANCH  26  27
ENDBRANCH  25  26
ENDBRANCH   1  25
TORSDOF 17
ENDMDL
MODEL 3
REMARK VINA RESULT:     -11.3      2.980      8.035
REMARK SMILES Cc1nsc(N(C)S(=O)(=O)c2cn[nH]c2C)c1C(=O)NCCCCNC(=O)c1ccc(-c2c3nc(c(-c4cccc(S(=O)(=O)[O-])c4F)c4ccc([nH]4)c(-c4cccc(S(=O)(=O)[O-])c4F)c4nc(c(-c5cccc(S(=O)(=O)[O-])c5F)c5ccc2[nH]5)C=C4)C=C3)cc1
REMARK SMILES IDX 22 1 21 2 20 3 18 4 19 5 17 7 1 8 2 9 3 10 4 11 5 12 6 13
REMARK SMILES IDX 7 14 8 15 9 16 10 17 11 18 12 19 15 20 13 21 14 22 16 23
REMARK SMILES IDX 23 25 24 26 25 27 26 28 27 30 28 31 29 32 90 33 30 34 89 35
REMARK SMILES IDX 31 36 32 37 33 38 83 39 34 40 88 41 82 42 84 43 35 44 87 45
REMARK SMILES IDX 81 46 80 47 36 49 68 50 48 51 67 52 49 53 52 54 66 55 85 56
REMARK SMILES IDX 50 57 51 58 65 60 86 61 53 62 37 63 38 64 46 65 39 66 41 67
REMARK SMILES IDX 47 68 40 69 42 70 43 71 44 72 45 73 69 74 70 75 78 76 71 77
REMARK SMILES IDX 73 78 79 79 72 80 74 81 75 82 76 83 77 84 54 85 55 86 63 87
REMARK SMILES IDX 56 88 58 89 64 90 57 91 59 92 60 93 61 94 62 95
REMARK H PARENT 20 6 14 24 25 29 84 48 52 59
REMARK Flexibility Score: inf
ROOT
ATOM      1  C   UNL A   1      32.234  29.358  26.971  1.00  0.00     0.023 C 
ENDROOT
BRANCH   1   2
ATOM      2  C   UNL A   1      32.124  30.059  25.615  1.00  0.00     0.116 C 
BRANCH   2   3
ATOM      3  N   UNL A   1      32.738  29.376  24.494  1.00  0.00    -0.352 N 
ATOM      4  C   UNL A   1      32.205  28.671  23.431  1.00  0.00     0.256 C 
ATOM      5  O   UNL A   1      32.930  28.591  22.447  1.00  0.00    -0.269 OA
ATOM      6  H   UNL A   1      33.721  29.423  24.488  1.00  0.00     0.163 HD
BRANCH   4   7
ATOM      7  C   UNL A   1      30.852  28.110  23.458  1.00  0.00     0.098 A 
ATOM      8  C   UNL A   1      29.714  30.010  21.989  1.00  0.00     0.069 C 
ATOM      9  C   UNL A   1      29.705  28.786  22.847  1.00  0.00     0.066 A 
ATOM     10  N   UNL A   1      28.507  28.253  23.062  1.00  0.00    -0.195 NA
ATOM     11  S   UNL A   1      28.697  26.845  23.863  1.00  0.00    -0.017 S 
ATOM     12  C   UNL A   1      30.443  26.814  23.849  1.00  0.00     0.138 A 
BRANCH  12  13
ATOM     13  N   UNL A   1      31.111  25.559  24.291  1.00  0.00    -0.258 N 
ATOM     14  C   UNL A   1      31.650  24.676  23.221  1.00  0.00     0.165 C 
BRANCH  13  15
ATOM     15  S   UNL A   1      32.072  25.624  25.700  1.00  0.00     0.268 S 
ATOM     16  O   UNL A   1      33.335  26.224  25.319  1.00  0.00    -0.201 OA
ATOM     17  O   UNL A   1      31.219  26.078  26.772  1.00  0.00    -0.201 OA
BRANCH  15  18
ATOM     18  C   UNL A   1      32.633  24.099  26.307  1.00  0.00     0.128 A 
ATOM     19  C   UNL A   1      33.927  23.674  26.647  1.00  0.00     0.157 A 
ATOM     20  C   UNL A   1      31.819  23.050  26.715  1.00  0.00     0.053 A 
ATOM     21  N   UNL A   1      33.952  22.454  27.198  1.00  0.00    -0.183 NA
ATOM     22  N   UNL A   1      32.650  22.127  27.283  1.00  0.00    -0.281 N 
ATOM     23  C   UNL A   1      30.347  22.861  26.698  1.00  0.00     0.067 C 
ATOM     24  H   UNL A   1      32.327  21.302  27.713  1.00  0.00     0.190 HD
ENDBRANCH  15  18
ENDBRANCH  13  15
ENDBRANCH  12  13
ENDBRANCH   4   7
ENDBRANCH   2   3
ENDBRANCH   1   2
BRANCH   1  25
ATOM     25  C   UNL A   1      33.621  29.186  27.599  1.00  0.00     0.023 C 
BRANCH  25  26
ATOM     26  C   UNL A   1      34.602  30.335  27.402  1.00  0.00     0.116 C 
BRANCH  26  27
ATOM     27  N   UNL A   1      34.575  31.332  28.467  1.00  0.00    -0.352 N 
ATOM     28  C   UNL A   1      35.521  31.516  29.459  1.00  0.00     0.251 C 
ATOM     29  H   UNL A   1      33.800  31.939  28.480  1.00  0.00     0.163 HD
ATOM     30  O   UNL A   1      35.261  32.189  30.452  1.00  0.00    -0.269 OA
BRANCH  28  31
ATOM     31  C   UNL A   1      36.836  30.859  29.325  1.00  0.00     0.039 A 
ATOM     32  C   UNL A   1      38.008  31.585  29.551  1.00  0.00     0.014 A 
ATOM     33  C   UNL A   1      36.892  29.493  29.046  1.00  0.00     0.014 A 
ATOM     34  C   UNL A   1      39.225  30.908  29.602  1.00  0.00     0.010 A 
ATOM     35  C   UNL A   1      38.084  28.809  29.195  1.00  0.00     0.010 A 
ATOM     36  C   UNL A   1      39.260  29.509  29.465  1.00  0.00    -0.014 A 
BRANCH  36  37
ATOM     37  C   UNL A   1      40.500  28.790  29.788  1.00  0.00     0.031 A 
ATOM     38  C   UNL A   1      40.828  28.738  31.243  1.00  0.00     0.074 A 
ATOM     39  C   UNL A   1      41.203  28.021  28.926  1.00  0.00     0.049 A 
ATOM     40  N   UNL A   1      41.831  29.285  31.850  1.00  0.00    -0.248 NA
ATOM     41  C   UNL A   1      39.863  28.092  32.148  1.00  0.00     0.031 C 
ATOM     42  C   UNL A   1      40.816  27.657  27.559  1.00  0.00     0.029 A 
ATOM     43  N   UNL A   1      42.333  27.275  29.134  1.00  0.00    -0.354 N 
ATOM     44  C   UNL A   1      41.758  28.828  33.168  1.00  0.00     0.074 A 
ATOM     45  C   UNL A   1      40.437  28.289  33.337  1.00  0.00     0.031 C 
ATOM     46  C   UNL A   1      41.517  26.571  27.172  1.00  0.00     0.029 A 
ATOM     47  C   UNL A   1      42.526  26.286  28.175  1.00  0.00     0.049 A 
ATOM     48  H   UNL A   1      42.948  27.424  29.889  1.00  0.00     0.167 HD
ATOM     49  C   UNL A   1      42.889  28.654  33.907  1.00  0.00     0.034 A 
ATOM     50  C   UNL A   1      43.429  25.280  28.193  1.00  0.00     0.034 A 
ATOM     51  C   UNL A   1      44.029  29.255  33.269  1.00  0.00     0.049 A 
ATOM     52  C   UNL A   1      44.544  25.670  29.082  1.00  0.00     0.074 A 
ATOM     53  C   UNL A   1      44.571  30.506  33.088  1.00  0.00     0.029 A 
ATOM     54  N   UNL A   1      44.662  28.403  32.407  1.00  0.00    -0.354 N 
ATOM     55  N   UNL A   1      45.366  26.649  28.821  1.00  0.00    -0.248 NA
ATOM     56  C   UNL A   1      44.630  25.116  30.427  1.00  0.00     0.031 C 
ATOM     57  C   UNL A   1      45.473  30.393  31.988  1.00  0.00     0.029 A 
ATOM     58  C   UNL A   1      45.465  29.076  31.534  1.00  0.00     0.049 A 
ATOM     59  H   UNL A   1      44.550  27.425  32.414  1.00  0.00     0.167 HD
ATOM     60  C   UNL A   1      45.734  27.110  30.069  1.00  0.00     0.074 A 
ATOM     61  C   UNL A   1      45.427  26.026  30.990  1.00  0.00     0.031 C 
ATOM     62  C   UNL A   1      45.893  28.443  30.304  1.00  0.00     0.034 A 
BRANCH  49  63
ATOM     63  C   UNL A   1      43.128  27.550  34.931  1.00  0.00     0.023 A 
ATOM     64  C   UNL A   1      43.458  27.966  36.247  1.00  0.00     0.012 A 
ATOM     65  C   UNL A   1      43.369  26.192  34.625  1.00  0.00     0.148 A 
ATOM     66  C   UNL A   1      44.052  27.103  37.175  1.00  0.00     0.002 A 
ATOM     67  C   UNL A   1      43.891  25.318  35.575  1.00  0.00     0.091 A 
ATOM     68  F   UNL A   1      43.230  25.751  33.372  1.00  0.00    -0.205 F 
ATOM     69  C   UNL A   1      44.266  25.775  36.840  1.00  0.00     0.022 A 
BRANCH  67  70
ATOM     70  S   UNL A   1      44.150  23.576  35.211  1.00  0.00     0.127 S 
ATOM     71  O   UNL A   1      42.799  23.144  34.870  1.00  0.00    -0.237 OA
ATOM     72  O   UNL A   1      45.084  23.640  34.086  1.00  0.00    -0.237 OA
ATOM     73  O   UNL A   1      44.723  23.008  36.426  1.00  0.00    -0.744 OA
ENDBRANCH  67  70
ENDBRANCH  49  63
BRANCH  50  74
ATOM     74  C   UNL A   1      43.376  23.940  27.567  1.00  0.00     0.023 A 
ATOM     75  C   UNL A   1      42.256  23.114  27.789  1.00  0.00     0.012 A 
ATOM     76  C   UNL A   1      44.283  23.578  26.547  1.00  0.00     0.148 A 
ATOM     77  C   UNL A   1      42.020  21.989  26.991  1.00  0.00     0.002 A 
ATOM     78  C   UNL A   1      44.048  22.451  25.763  1.00  0.00     0.091 A 
ATOM     79  F   UNL A   1      45.321  24.386  26.290  1.00  0.00    -0.205 F 
ATOM     80  C   UNL A   1      42.909  21.664  25.972  1.00  0.00     0.022 A 
BRANCH  78  81
ATOM     81  S   UNL A   1      45.149  21.968  24.427  1.00  0.00     0.127 S 
ATOM     82  O   UNL A   1      45.104  23.143  23.555  1.00  0.00    -0.237 OA
ATOM     83  O   UNL A   1      46.413  21.779  25.131  1.00  0.00    -0.237 OA
ATOM     84  O   UNL A   1      44.550  20.774  23.848  1.00  0.00    -0.744 OA
ENDBRANCH  78  81
ENDBRANCH  50  74
BRANCH  62  85
ATOM     85  C   UNL A   1      46.312  29.321  29.167  1.00  0.00     0.023 A 
ATOM     86  C   UNL A   1      47.624  29.353  28.661  1.00  0.00     0.012 A 
ATOM     87  C   UNL A   1      45.314  30.077  28.527  1.00  0.00     0.148 A 
ATOM     88  C   UNL A   1      47.937  30.141  27.549  1.00  0.00     0.002 A 
ATOM     89  C   UNL A   1      45.617  30.818  27.395  1.00  0.00     0.091 A 
ATOM     90  F   UNL A   1      44.072  30.051  29.035  1.00  0.00    -0.205 F 
ATOM     91  C   UNL A   1      46.931  30.862  26.907  1.00  0.00     0.022 A 
BRANCH  89  92
ATOM     92  S   UNL A   1      44.330  31.658  26.469  1.00  0.00     0.127 S 
ATOM     93  O   UNL A   1      43.869  32.662  27.423  1.00  0.00    -0.237 OA
ATOM     94  O   UNL A   1      45.061  32.194  25.319  1.00  0.00    -0.237 OA
ATOM     95  O   UNL A   1      43.362  30.624  26.120  1.00  0.00    -0.744 OA
ENDBRANCH  89  92
ENDBRANCH  62  85
ENDBRANCH  36  37
ENDBRANCH  28  31
ENDBRANCH  26  27
ENDBRANCH  25  26
ENDBRANCH   1  25
TORSDOF 17
ENDMDL
