MODEL 1
REMARK VINA RESULT:      -9.6      0.000      0.000
REMARK SMILES Cc1ccc(N2C(=O)/C(=C\c3ccccc3O[C@H](C)C(=O)NCCCCNC(=O)c3ccc(-c4c5nc(c(-c6cccc(S(=O)(=O)[O-])c6F)c6ccc([nH]6)c(-c6cccc(S(=O)(=O)[O-])c6F)c6nc(c(-c7cccc(S(=O)(=O)[O-])c7F)c7ccc4[nH]7)C=C6)C=C5)cc3)SC2=S)c(C)c1
REMARK SMILES IDX 24 1 23 2 22 3 20 4 21 5 18 7 19 8 17 9 16 10 11 11 12 12
REMARK SMILES IDX 13 13 15 14 14 15 10 16 6 17 7 18 94 19 8 20 9 21 93 22
REMARK SMILES IDX 95 23 5 24 1 25 2 26 3 27 98 28 4 29 96 30 97 31 25 32 26 33
REMARK SMILES IDX 27 34 28 35 29 37 30 38 31 39 92 40 32 41 91 42 33 43 34 44
REMARK SMILES IDX 35 45 85 46 36 47 90 48 84 49 86 50 37 51 89 52 83 53 82 54
REMARK SMILES IDX 38 56 70 57 50 58 69 59 51 60 54 61 68 62 87 63 52 64 53 65
REMARK SMILES IDX 67 67 88 68 55 69 39 70 40 71 48 72 41 73 43 74 49 75 42 76
REMARK SMILES IDX 44 77 45 78 46 79 47 80 71 81 72 82 80 83 73 84 75 85 81 86
REMARK SMILES IDX 74 87 76 88 77 89 78 90 79 91 56 92 57 93 65 94 58 95 60 96
REMARK SMILES IDX 66 97 59 98 61 99 62 100 63 101 64 102
REMARK H PARENT 22 6 27 36 86 55 54 66
REMARK Flexibility Score: inf
ROOT
ATOM      1  C   UNL A   1      43.774  22.763  24.868  1.00  0.00     0.023 C 
ENDROOT
BRANCH   1   2
ATOM      2  C   UNL A   1      42.689  22.178  25.767  1.00  0.00     0.116 C 
BRANCH   2   3
ATOM      3  N   UNL A   1      42.616  22.831  27.065  1.00  0.00    -0.353 N 
ATOM      4  C   UNL A   1      41.628  23.640  27.574  1.00  0.00     0.260 C 
ATOM      5  O   UNL A   1      41.724  24.014  28.746  1.00  0.00    -0.271 OA
ATOM      6  H   UNL A   1      43.381  22.670  27.663  1.00  0.00     0.163 HD
BRANCH   4   7
ATOM      7  C   UNL A   1      40.455  24.087  26.685  1.00  0.00     0.258 C 
ATOM      8  C   UNL A   1      39.308  23.099  26.873  1.00  0.00     0.064 C 
BRANCH   7   9
ATOM      9  O   UNL A   1      40.251  25.437  27.084  1.00  0.00    -0.480 OA
BRANCH   9  10
ATOM     10  C   UNL A   1      40.923  26.525  26.626  1.00  0.00     0.127 A 
ATOM     11  C   UNL A   1      40.928  27.623  27.517  1.00  0.00     0.018 A 
ATOM     12  C   UNL A   1      41.464  28.851  27.112  1.00  0.00     0.012 A 
ATOM     13  C   UNL A   1      42.037  28.976  25.849  1.00  0.00     0.001 A 
ATOM     14  C   UNL A   1      41.550  26.645  25.392  1.00  0.00     0.047 A 
ATOM     15  C   UNL A   1      42.097  27.871  25.001  1.00  0.00     0.004 A 
BRANCH  11  16
ATOM     16  C   UNL A   1      40.397  27.505  28.888  1.00  0.00     0.033 C 
ATOM     17  N   UNL A   1      37.718  29.919  29.552  1.00  0.00    -0.261 N 
ATOM     18  C   UNL A   1      38.601  29.298  28.672  1.00  0.00     0.270 C 
ATOM     19  C   UNL A   1      37.691  29.432  30.849  1.00  0.00     0.152 C 
ATOM     20  O   UNL A   1      38.721  29.542  27.477  1.00  0.00    -0.268 OA
ATOM     21  C   UNL A   1      39.399  28.255  29.387  1.00  0.00     0.081 C 
ATOM     22  S   UNL A   1      38.880  28.140  31.025  1.00  0.00    -0.054 SA
ATOM     23  S   UNL A   1      36.662  29.824  32.110  1.00  0.00    -0.051 S 
BRANCH  17  24
ATOM     24  C   UNL A   1      36.940  31.026  29.093  1.00  0.00     0.054 A 
ATOM     25  C   UNL A   1      34.277  34.256  28.001  1.00  0.00     0.044 C 
ATOM     26  C   UNL A   1      35.203  33.129  28.350  1.00  0.00    -0.051 A 
ATOM     27  C   UNL A   1      34.881  31.808  28.042  1.00  0.00     0.005 A 
ATOM     28  C   UNL A   1      36.406  33.396  29.013  1.00  0.00     0.009 A 
ATOM     29  C   UNL A   1      35.738  30.768  28.413  1.00  0.00     0.027 A 
ATOM     30  C   UNL A   1      37.292  32.363  29.376  1.00  0.00    -0.027 A 
ATOM     31  C   UNL A   1      38.575  32.768  30.051  1.00  0.00     0.046 C 
ENDBRANCH  17  24
ENDBRANCH  11  16
ENDBRANCH   9  10
ENDBRANCH   7   9
ENDBRANCH   4   7
ENDBRANCH   2   3
ENDBRANCH   1   2
BRANCH   1  32
ATOM     32  C   UNL A   1      45.195  22.335  25.221  1.00  0.00     0.023 C 
BRANCH  32  33
ATOM     33  C   UNL A   1      46.055  23.408  25.880  1.00  0.00     0.116 C 
BRANCH  33  34
ATOM     34  N   UNL A   1      46.898  24.134  24.939  1.00  0.00    -0.352 N 
ATOM     35  C   UNL A   1      47.140  25.486  24.864  1.00  0.00     0.251 C 
ATOM     36  H   UNL A   1      47.357  23.582  24.264  1.00  0.00     0.163 HD
ATOM     37  O   UNL A   1      47.797  25.948  23.937  1.00  0.00    -0.269 OA
BRANCH  35  38
ATOM     38  C   UNL A   1      46.568  26.380  25.893  1.00  0.00     0.039 A 
ATOM     39  C   UNL A   1      45.183  26.417  26.064  1.00  0.00     0.014 A 
ATOM     40  C   UNL A   1      47.404  27.135  26.720  1.00  0.00     0.014 A 
ATOM     41  C   UNL A   1      44.638  27.146  27.125  1.00  0.00     0.010 A 
ATOM     42  C   UNL A   1      46.866  27.799  27.818  1.00  0.00     0.010 A 
ATOM     43  C   UNL A   1      45.480  27.805  28.037  1.00  0.00    -0.014 A 
BRANCH  43  44
ATOM     44  C   UNL A   1      44.942  28.475  29.248  1.00  0.00     0.031 A 
ATOM     45  C   UNL A   1      44.728  27.690  30.513  1.00  0.00     0.074 A 
ATOM     46  C   UNL A   1      44.539  29.759  29.174  1.00  0.00     0.049 A 
ATOM     47  N   UNL A   1      44.174  28.070  31.634  1.00  0.00    -0.248 NA
ATOM     48  C   UNL A   1      45.172  26.287  30.508  1.00  0.00     0.031 C 
ATOM     49  C   UNL A   1      44.623  30.605  27.981  1.00  0.00     0.029 A 
ATOM     50  N   UNL A   1      43.943  30.568  30.110  1.00  0.00    -0.354 N 
ATOM     51  C   UNL A   1      44.166  26.948  32.453  1.00  0.00     0.074 A 
ATOM     52  C   UNL A   1      44.745  25.864  31.690  1.00  0.00     0.031 C 
ATOM     53  C   UNL A   1      44.095  31.810  28.256  1.00  0.00     0.029 A 
ATOM     54  C   UNL A   1      43.605  31.811  29.631  1.00  0.00     0.049 A 
ATOM     55  H   UNL A   1      43.776  30.284  31.038  1.00  0.00     0.167 HD
ATOM     56  C   UNL A   1      43.742  26.835  33.734  1.00  0.00     0.034 A 
ATOM     57  C   UNL A   1      42.956  32.834  30.223  1.00  0.00     0.034 A 
ATOM     58  C   UNL A   1      43.206  27.926  34.504  1.00  0.00     0.049 A 
ATOM     59  C   UNL A   1      42.514  32.688  31.655  1.00  0.00     0.074 A 
ATOM     60  C   UNL A   1      42.839  27.936  35.839  1.00  0.00     0.029 A 
ATOM     61  N   UNL A   1      42.952  29.195  34.010  1.00  0.00    -0.354 N 
ATOM     62  N   UNL A   1      42.667  31.669  32.465  1.00  0.00    -0.248 NA
ATOM     63  C   UNL A   1      41.837  33.844  32.263  1.00  0.00     0.031 C 
ATOM     64  C   UNL A   1      42.339  29.206  36.144  1.00  0.00     0.029 A 
ATOM     65  C   UNL A   1      42.418  29.993  35.006  1.00  0.00     0.049 A 
ATOM     66  H   UNL A   1      43.126  29.487  33.086  1.00  0.00     0.167 HD
ATOM     67  C   UNL A   1      42.132  32.070  33.685  1.00  0.00     0.074 A 
ATOM     68  C   UNL A   1      41.676  33.434  33.514  1.00  0.00     0.031 C 
ATOM     69  C   UNL A   1      42.012  31.365  34.837  1.00  0.00     0.034 A 
BRANCH  56  70
ATOM     70  C   UNL A   1      43.891  25.496  34.406  1.00  0.00     0.023 A 
ATOM     71  C   UNL A   1      42.806  24.596  34.407  1.00  0.00     0.012 A 
ATOM     72  C   UNL A   1      45.117  25.102  34.976  1.00  0.00     0.148 A 
ATOM     73  C   UNL A   1      42.926  23.338  34.997  1.00  0.00     0.002 A 
ATOM     74  C   UNL A   1      45.242  23.830  35.523  1.00  0.00     0.091 A 
ATOM     75  F   UNL A   1      46.132  25.978  34.984  1.00  0.00    -0.205 F 
ATOM     76  C   UNL A   1      44.146  22.952  35.544  1.00  0.00     0.022 A 
BRANCH  74  77
ATOM     77  S   UNL A   1      46.793  23.205  36.184  1.00  0.00     0.127 S 
ATOM     78  O   UNL A   1      47.232  24.327  37.012  1.00  0.00    -0.237 OA
ATOM     79  O   UNL A   1      46.355  22.028  36.934  1.00  0.00    -0.237 OA
ATOM     80  O   UNL A   1      47.631  22.912  35.030  1.00  0.00    -0.744 OA
ENDBRANCH  74  77
ENDBRANCH  56  70
BRANCH  57  81
ATOM     81  C   UNL A   1      42.730  34.107  29.480  1.00  0.00     0.023 A 
ATOM     82  C   UNL A   1      41.440  34.404  29.001  1.00  0.00     0.012 A 
ATOM     83  C   UNL A   1      43.773  35.030  29.267  1.00  0.00     0.148 A 
ATOM     84  C   UNL A   1      41.197  35.584  28.296  1.00  0.00     0.002 A 
ATOM     85  C   UNL A   1      43.511  36.229  28.613  1.00  0.00     0.091 A 
ATOM     86  F   UNL A   1      44.996  34.723  29.719  1.00  0.00    -0.205 F 
ATOM     87  C   UNL A   1      42.230  36.500  28.111  1.00  0.00     0.022 A 
BRANCH  85  88
ATOM     88  S   UNL A   1      44.746  37.522  28.447  1.00  0.00     0.127 S 
ATOM     89  O   UNL A   1      45.811  36.829  27.727  1.00  0.00    -0.237 OA
ATOM     90  O   UNL A   1      44.028  38.529  27.665  1.00  0.00    -0.237 OA
ATOM     91  O   UNL A   1      45.065  37.937  29.806  1.00  0.00    -0.744 OA
ENDBRANCH  85  88
ENDBRANCH  57  81
BRANCH  69  92
ATOM     92  C   UNL A   1      41.381  32.057  36.017  1.00  0.00     0.023 A 
ATOM     93  C   UNL A   1      42.159  32.916  36.818  1.00  0.00     0.012 A 
ATOM     94  C   UNL A   1      40.004  31.920  36.283  1.00  0.00     0.148 A 
ATOM     95  C   UNL A   1      41.583  33.607  37.884  1.00  0.00     0.002 A 
ATOM     96  C   UNL A   1      39.427  32.648  37.317  1.00  0.00     0.091 A 
ATOM     97  F   UNL A   1      39.285  31.085  35.519  1.00  0.00    -0.205 F 
ATOM     98  C   UNL A   1      40.216  33.482  38.125  1.00  0.00     0.022 A 
BRANCH  96  99
ATOM     99  S   UNL A   1      37.660  32.625  37.645  1.00  0.00     0.127 S 
ATOM    100  O   UNL A   1      37.407  31.194  37.807  1.00  0.00    -0.237 OA
ATOM    101  O   UNL A   1      37.564  33.405  38.878  1.00  0.00    -0.237 OA
ATOM    102  O   UNL A   1      37.028  33.243  36.487  1.00  0.00    -0.744 OA
ENDBRANCH  96  99
ENDBRANCH  69  92
ENDBRANCH  43  44
ENDBRANCH  35  38
ENDBRANCH  33  34
ENDBRANCH  32  33
ENDBRANCH   1  32
TORSDOF 18
ENDMDL
MODEL 2
REMARK VINA RESULT:      -9.5      7.161     13.924
REMARK SMILES Cc1ccc(N2C(=O)/C(=C\c3ccccc3O[C@H](C)C(=O)NCCCCNC(=O)c3ccc(-c4c5nc(c(-c6cccc(S(=O)(=O)[O-])c6F)c6ccc([nH]6)c(-c6cccc(S(=O)(=O)[O-])c6F)c6nc(c(-c7cccc(S(=O)(=O)[O-])c7F)c7ccc4[nH]7)C=C6)C=C5)cc3)SC2=S)c(C)c1
REMARK SMILES IDX 24 1 23 2 22 3 20 4 21 5 18 7 19 8 17 9 16 10 11 11 12 12
REMARK SMILES IDX 13 13 15 14 14 15 10 16 6 17 7 18 94 19 8 20 9 21 93 22
REMARK SMILES IDX 95 23 5 24 1 25 2 26 3 27 98 28 4 29 96 30 97 31 25 32 26 33
REMARK SMILES IDX 27 34 28 35 29 37 30 38 31 39 92 40 32 41 91 42 33 43 34 44
REMARK SMILES IDX 35 45 85 46 36 47 90 48 84 49 86 50 37 51 89 52 83 53 82 54
REMARK SMILES IDX 38 56 70 57 50 58 69 59 51 60 54 61 68 62 87 63 52 64 53 65
REMARK SMILES IDX 67 67 88 68 55 69 39 70 40 71 48 72 41 73 43 74 49 75 42 76
REMARK SMILES IDX 44 77 45 78 46 79 47 80 71 81 72 82 80 83 73 84 75 85 81 86
REMARK SMILES IDX 74 87 76 88 77 89 78 90 79 91 56 92 57 93 65 94 58 95 60 96
REMARK SMILES IDX 66 97 59 98 61 99 62 100 63 101 64 102
REMARK H PARENT 22 6 27 36 86 55 54 66
REMARK Flexibility Score: inf
ROOT
ATOM      1  C   UNL A   1      44.870  39.473  27.715  1.00  0.00     0.023 C 
ENDROOT
BRANCH   1   2
ATOM      2  C   UNL A   1      44.421  40.092  26.396  1.00  0.00     0.116 C 
BRANCH   2   3
ATOM      3  N   UNL A   1      45.528  40.371  25.494  1.00  0.00    -0.353 N 
ATOM      4  C   UNL A   1      45.937  41.574  24.969  1.00  0.00     0.260 C 
ATOM      5  O   UNL A   1      46.970  41.598  24.295  1.00  0.00    -0.271 OA
ATOM      6  H   UNL A   1      46.060  39.588  25.223  1.00  0.00     0.163 HD
BRANCH   4   7
ATOM      7  C   UNL A   1      45.102  42.845  25.198  1.00  0.00     0.258 C 
ATOM      8  C   UNL A   1      45.905  43.793  26.084  1.00  0.00     0.064 C 
BRANCH   7   9
ATOM      9  O   UNL A   1      44.792  43.264  23.874  1.00  0.00    -0.480 OA
BRANCH   9  10
ATOM     10  C   UNL A   1      43.677  42.946  23.167  1.00  0.00     0.127 A 
ATOM     11  C   UNL A   1      43.916  42.664  21.802  1.00  0.00     0.018 A 
ATOM     12  C   UNL A   1      42.840  42.458  20.931  1.00  0.00     0.012 A 
ATOM     13  C   UNL A   1      41.536  42.482  21.419  1.00  0.00     0.001 A 
ATOM     14  C   UNL A   1      42.377  42.908  23.653  1.00  0.00     0.047 A 
ATOM     15  C   UNL A   1      41.308  42.686  22.780  1.00  0.00     0.004 A 
BRANCH  11  16
ATOM     16  C   UNL A   1      45.286  42.557  21.265  1.00  0.00     0.033 C 
ATOM     17  N   UNL A   1      46.187  45.434  19.179  1.00  0.00    -0.261 N 
ATOM     18  C   UNL A   1      45.312  44.797  20.054  1.00  0.00     0.270 C 
ATOM     19  C   UNL A   1      47.394  44.796  18.936  1.00  0.00     0.152 C 
ATOM     20  O   UNL A   1      44.233  45.233  20.442  1.00  0.00    -0.268 OA
ATOM     21  C   UNL A   1      45.875  43.481  20.487  1.00  0.00     0.081 C 
ATOM     22  S   UNL A   1      47.444  43.265  19.811  1.00  0.00    -0.054 SA
ATOM     23  S   UNL A   1      48.727  45.335  18.079  1.00  0.00    -0.051 S 
BRANCH  17  24
ATOM     24  C   UNL A   1      45.787  46.658  18.559  1.00  0.00     0.054 A 
ATOM     25  C   UNL A   1      44.153  50.234  16.754  1.00  0.00     0.044 C 
ATOM     26  C   UNL A   1      44.736  48.990  17.355  1.00  0.00    -0.051 A 
ATOM     27  C   UNL A   1      44.596  47.752  16.731  1.00  0.00     0.005 A 
ATOM     28  C   UNL A   1      45.421  49.061  18.574  1.00  0.00     0.009 A 
ATOM     29  C   UNL A   1      45.112  46.598  17.328  1.00  0.00     0.027 A 
ATOM     30  C   UNL A   1      45.966  47.912  19.179  1.00  0.00    -0.027 A 
ATOM     31  C   UNL A   1      46.715  48.110  20.471  1.00  0.00     0.046 C 
ENDBRANCH  17  24
ENDBRANCH  11  16
ENDBRANCH   9  10
ENDBRANCH   7   9
ENDBRANCH   4   7
ENDBRANCH   2   3
ENDBRANCH   1   2
BRANCH   1  32
ATOM     32  C   UNL A   1      43.838  38.568  28.380  1.00  0.00     0.023 C 
BRANCH  32  33
ATOM     33  C   UNL A   1      44.361  37.723  29.537  1.00  0.00     0.116 C 
BRANCH  33  34
ATOM     34  N   UNL A   1      45.803  37.823  29.721  1.00  0.00    -0.352 N 
ATOM     35  C   UNL A   1      46.745  36.820  29.710  1.00  0.00     0.251 C 
ATOM     36  H   UNL A   1      46.151  38.731  29.875  1.00  0.00     0.163 HD
ATOM     37  O   UNL A   1      47.914  37.065  29.990  1.00  0.00    -0.269 OA
BRANCH  35  38
ATOM     38  C   UNL A   1      46.326  35.439  29.393  1.00  0.00     0.039 A 
ATOM     39  C   UNL A   1      46.443  34.453  30.375  1.00  0.00     0.014 A 
ATOM     40  C   UNL A   1      45.768  35.135  28.148  1.00  0.00     0.014 A 
ATOM     41  C   UNL A   1      45.919  33.179  30.139  1.00  0.00     0.010 A 
ATOM     42  C   UNL A   1      45.183  33.890  27.943  1.00  0.00     0.010 A 
ATOM     43  C   UNL A   1      45.244  32.902  28.938  1.00  0.00    -0.014 A 
BRANCH  43  44
ATOM     44  C   UNL A   1      44.561  31.603  28.711  1.00  0.00     0.031 A 
ATOM     45  C   UNL A   1      45.215  30.545  27.865  1.00  0.00     0.074 A 
ATOM     46  C   UNL A   1      43.308  31.422  29.171  1.00  0.00     0.049 A 
ATOM     47  N   UNL A   1      44.734  29.396  27.468  1.00  0.00    -0.248 NA
ATOM     48  C   UNL A   1      46.575  30.827  27.381  1.00  0.00     0.031 C 
ATOM     49  C   UNL A   1      42.537  32.403  29.939  1.00  0.00     0.029 A 
ATOM     50  N   UNL A   1      42.443  30.364  29.026  1.00  0.00    -0.354 N 
ATOM     51  C   UNL A   1      45.713  28.836  26.657  1.00  0.00     0.074 A 
ATOM     52  C   UNL A   1      46.805  29.783  26.596  1.00  0.00     0.031 C 
ATOM     53  C   UNL A   1      41.316  31.903  30.194  1.00  0.00     0.029 A 
ATOM     54  C   UNL A   1      41.204  30.584  29.579  1.00  0.00     0.049 A 
ATOM     55  H   UNL A   1      42.690  29.527  28.571  1.00  0.00     0.167 HD
ATOM     56  C   UNL A   1      45.718  27.629  26.042  1.00  0.00     0.034 A 
ATOM     57  C   UNL A   1      40.094  29.819  29.577  1.00  0.00     0.034 A 
ATOM     58  C   UNL A   1      44.649  26.671  26.141  1.00  0.00     0.049 A 
ATOM     59  C   UNL A   1      40.134  28.474  28.904  1.00  0.00     0.074 A 
ATOM     60  C   UNL A   1      44.601  25.384  25.634  1.00  0.00     0.029 A 
ATOM     61  N   UNL A   1      43.439  26.896  26.778  1.00  0.00    -0.354 N 
ATOM     62  N   UNL A   1      41.130  27.892  28.283  1.00  0.00    -0.248 NA
ATOM     63  C   UNL A   1      38.905  27.667  28.957  1.00  0.00     0.031 C 
ATOM     64  C   UNL A   1      43.351  24.839  25.945  1.00  0.00     0.029 A 
ATOM     65  C   UNL A   1      42.630  25.779  26.665  1.00  0.00     0.049 A 
ATOM     66  H   UNL A   1      43.192  27.728  27.243  1.00  0.00     0.167 HD
ATOM     67  C   UNL A   1      40.660  26.642  27.896  1.00  0.00     0.074 A 
ATOM     68  C   UNL A   1      39.298  26.541  28.377  1.00  0.00     0.031 C 
ATOM     69  C   UNL A   1      41.293  25.672  27.190  1.00  0.00     0.034 A 
BRANCH  56  70
ATOM     70  C   UNL A   1      46.942  27.251  25.251  1.00  0.00     0.023 A 
ATOM     71  C   UNL A   1      47.883  26.365  25.813  1.00  0.00     0.012 A 
ATOM     72  C   UNL A   1      47.131  27.719  23.937  1.00  0.00     0.148 A 
ATOM     73  C   UNL A   1      49.012  25.976  25.092  1.00  0.00     0.002 A 
ATOM     74  C   UNL A   1      48.237  27.293  23.209  1.00  0.00     0.091 A 
ATOM     75  F   UNL A   1      46.237  28.577  23.427  1.00  0.00    -0.205 F 
ATOM     76  C   UNL A   1      49.183  26.431  23.788  1.00  0.00     0.022 A 
BRANCH  74  77
ATOM     77  S   UNL A   1      48.508  27.758  21.494  1.00  0.00     0.127 S 
ATOM     78  O   UNL A   1      47.151  28.084  21.059  1.00  0.00    -0.237 OA
ATOM     79  O   UNL A   1      49.400  28.911  21.626  1.00  0.00    -0.237 OA
ATOM     80  O   UNL A   1      49.109  26.597  20.854  1.00  0.00    -0.744 OA
ENDBRANCH  74  77
ENDBRANCH  56  70
BRANCH  57  81
ATOM     81  C   UNL A   1      38.864  30.285  30.281  1.00  0.00     0.023 A 
ATOM     82  C   UNL A   1      38.749  30.085  31.670  1.00  0.00     0.012 A 
ATOM     83  C   UNL A   1      37.825  30.941  29.593  1.00  0.00     0.148 A 
ATOM     84  C   UNL A   1      37.609  30.503  32.358  1.00  0.00     0.002 A 
ATOM     85  C   UNL A   1      36.717  31.404  30.293  1.00  0.00     0.091 A 
ATOM     86  F   UNL A   1      37.947  31.109  28.269  1.00  0.00    -0.205 F 
ATOM     87  C   UNL A   1      36.598  31.171  31.671  1.00  0.00     0.022 A 
BRANCH  85  88
ATOM     88  S   UNL A   1      35.431  32.389  29.516  1.00  0.00     0.127 S 
ATOM     89  O   UNL A   1      34.915  31.466  28.508  1.00  0.00    -0.237 OA
ATOM     90  O   UNL A   1      34.527  32.646  30.637  1.00  0.00    -0.237 OA
ATOM     91  O   UNL A   1      36.103  33.576  29.004  1.00  0.00    -0.744 OA
ENDBRANCH  85  88
ENDBRANCH  57  81
BRANCH  69  92
ATOM     92  C   UNL A   1      40.532  24.404  26.908  1.00  0.00     0.023 A 
ATOM     93  C   UNL A   1      39.255  24.474  26.316  1.00  0.00     0.012 A 
ATOM     94  C   UNL A   1      41.113  23.143  27.152  1.00  0.00     0.148 A 
ATOM     95  C   UNL A   1      38.555  23.311  25.999  1.00  0.00     0.002 A 
ATOM     96  C   UNL A   1      40.430  21.989  26.789  1.00  0.00     0.091 A 
ATOM     97  F   UNL A   1      42.322  23.097  27.730  1.00  0.00    -0.205 F 
ATOM     98  C   UNL A   1      39.147  22.070  26.224  1.00  0.00     0.022 A 
BRANCH  96  99
ATOM     99  S   UNL A   1      41.149  20.350  26.953  1.00  0.00     0.127 S 
ATOM    100  O   UNL A   1      40.908  20.059  28.366  1.00  0.00    -0.237 OA
ATOM    101  O   UNL A   1      40.341  19.562  26.022  1.00  0.00    -0.237 OA
ATOM    102  O   UNL A   1      42.549  20.485  26.574  1.00  0.00    -0.744 OA
ENDBRANCH  96  99
ENDBRANCH  69  92
ENDBRANCH  43  44
ENDBRANCH  35  38
ENDBRANCH  33  34
ENDBRANCH  32  33
ENDBRANCH   1  32
TORSDOF 18
ENDMDL
MODEL 3
REMARK VINA RESULT:      -9.3      3.922      9.047
REMARK SMILES Cc1ccc(N2C(=O)/C(=C\c3ccccc3O[C@H](C)C(=O)NCCCCNC(=O)c3ccc(-c4c5nc(c(-c6cccc(S(=O)(=O)[O-])c6F)c6ccc([nH]6)c(-c6cccc(S(=O)(=O)[O-])c6F)c6nc(c(-c7cccc(S(=O)(=O)[O-])c7F)c7ccc4[nH]7)C=C6)C=C5)cc3)SC2=S)c(C)c1
REMARK SMILES IDX 24 1 23 2 22 3 20 4 21 5 18 7 19 8 17 9 16 10 11 11 12 12
REMARK SMILES IDX 13 13 15 14 14 15 10 16 6 17 7 18 94 19 8 20 9 21 93 22
REMARK SMILES IDX 95 23 5 24 1 25 2 26 3 27 98 28 4 29 96 30 97 31 25 32 26 33
REMARK SMILES IDX 27 34 28 35 29 37 30 38 31 39 92 40 32 41 91 42 33 43 34 44
REMARK SMILES IDX 35 45 85 46 36 47 90 48 84 49 86 50 37 51 89 52 83 53 82 54
REMARK SMILES IDX 38 56 70 57 50 58 69 59 51 60 54 61 68 62 87 63 52 64 53 65
REMARK SMILES IDX 67 67 88 68 55 69 39 70 40 71 48 72 41 73 43 74 49 75 42 76
REMARK SMILES IDX 44 77 45 78 46 79 47 80 71 81 72 82 80 83 73 84 75 85 81 86
REMARK SMILES IDX 74 87 76 88 77 89 78 90 79 91 56 92 57 93 65 94 58 95 60 96
REMARK SMILES IDX 66 97 59 98 61 99 62 100 63 101 64 102
REMARK H PARENT 22 6 27 36 86 55 54 66
REMARK Flexibility Score: inf
ROOT
ATOM      1  C   UNL A   1      40.362  20.585  26.441  1.00  0.00     0.023 C 
ENDROOT
BRANCH   1   2
ATOM      2  C   UNL A   1      40.998  21.926  26.088  1.00  0.00     0.116 C 
BRANCH   2   3
ATOM      3  N   UNL A   1      41.312  22.731  27.258  1.00  0.00    -0.353 N 
ATOM      4  C   UNL A   1      40.796  23.947  27.639  1.00  0.00     0.260 C 
ATOM      5  O   UNL A   1      41.137  24.412  28.729  1.00  0.00    -0.271 OA
ATOM      6  H   UNL A   1      41.990  22.351  27.862  1.00  0.00     0.163 HD
BRANCH   4   7
ATOM      7  C   UNL A   1      39.843  24.712  26.705  1.00  0.00     0.258 C 
ATOM      8  C   UNL A   1      38.470  24.051  26.776  1.00  0.00     0.064 C 
BRANCH   7   9
ATOM      9  O   UNL A   1      39.965  26.055  27.157  1.00  0.00    -0.480 OA
BRANCH   9  10
ATOM     10  C   UNL A   1      40.961  26.925  26.844  1.00  0.00     0.127 A 
ATOM     11  C   UNL A   1      41.247  27.870  27.855  1.00  0.00     0.018 A 
ATOM     12  C   UNL A   1      42.152  28.908  27.608  1.00  0.00     0.012 A 
ATOM     13  C   UNL A   1      42.808  28.981  26.381  1.00  0.00     0.001 A 
ATOM     14  C   UNL A   1      41.665  26.973  25.647  1.00  0.00     0.047 A 
ATOM     15  C   UNL A   1      42.580  28.004  25.413  1.00  0.00     0.004 A 
BRANCH  11  16
ATOM     16  C   UNL A   1      40.626  27.781  29.191  1.00  0.00     0.033 C 
ATOM     17  N   UNL A   1      37.910  30.205  29.624  1.00  0.00    -0.261 N 
ATOM     18  C   UNL A   1      38.849  29.567  28.819  1.00  0.00     0.270 C 
ATOM     19  C   UNL A   1      37.797  29.746  30.928  1.00  0.00     0.152 C 
ATOM     20  O   UNL A   1      39.048  29.784  27.629  1.00  0.00    -0.268 OA
ATOM     21  C   UNL A   1      39.598  28.540  29.607  1.00  0.00     0.081 C 
ATOM     22  S   UNL A   1      38.972  28.460  31.209  1.00  0.00    -0.054 SA
ATOM     23  S   UNL A   1      36.687  30.164  32.109  1.00  0.00    -0.051 S 
BRANCH  17  24
ATOM     24  C   UNL A   1      37.164  31.301  29.092  1.00  0.00     0.054 A 
ATOM     25  C   UNL A   1      34.596  34.528  27.784  1.00  0.00     0.044 C 
ATOM     26  C   UNL A   1      35.488  33.400  28.209  1.00  0.00    -0.051 A 
ATOM     27  C   UNL A   1      35.123  32.071  27.997  1.00  0.00     0.005 A 
ATOM     28  C   UNL A   1      36.703  33.675  28.846  1.00  0.00     0.009 A 
ATOM     29  C   UNL A   1      35.950  31.034  28.437  1.00  0.00     0.027 A 
ATOM     30  C   UNL A   1      37.559  32.643  29.277  1.00  0.00    -0.027 A 
ATOM     31  C   UNL A   1      38.858  33.054  29.917  1.00  0.00     0.046 C 
ENDBRANCH  17  24
ENDBRANCH  11  16
ENDBRANCH   9  10
ENDBRANCH   7   9
ENDBRANCH   4   7
ENDBRANCH   2   3
ENDBRANCH   1   2
BRANCH   1  32
ATOM     32  C   UNL A   1      41.220  19.366  26.115  1.00  0.00     0.023 C 
BRANCH  32  33
ATOM     33  C   UNL A   1      42.726  19.603  26.139  1.00  0.00     0.116 C 
BRANCH  33  34
ATOM     34  N   UNL A   1      43.358  19.439  24.836  1.00  0.00    -0.352 N 
ATOM     35  C   UNL A   1      44.157  20.323  24.149  1.00  0.00     0.251 C 
ATOM     36  H   UNL A   1      43.192  18.578  24.387  1.00  0.00     0.163 HD
ATOM     37  O   UNL A   1      44.525  20.067  23.007  1.00  0.00    -0.269 OA
BRANCH  35  38
ATOM     38  C   UNL A   1      44.537  21.601  24.788  1.00  0.00     0.039 A 
ATOM     39  C   UNL A   1      45.447  21.584  25.847  1.00  0.00     0.014 A 
ATOM     40  C   UNL A   1      44.038  22.812  24.303  1.00  0.00     0.014 A 
ATOM     41  C   UNL A   1      45.924  22.791  26.365  1.00  0.00     0.010 A 
ATOM     42  C   UNL A   1      44.569  24.010  24.770  1.00  0.00     0.010 A 
ATOM     43  C   UNL A   1      45.523  24.012  25.799  1.00  0.00    -0.014 A 
BRANCH  43  44
ATOM     44  C   UNL A   1      46.112  25.304  26.236  1.00  0.00     0.031 A 
ATOM     45  C   UNL A   1      47.363  25.823  25.582  1.00  0.00     0.074 A 
ATOM     46  C   UNL A   1      45.586  25.949  27.295  1.00  0.00     0.049 A 
ATOM     47  N   UNL A   1      48.082  26.869  25.894  1.00  0.00    -0.248 NA
ATOM     48  C   UNL A   1      47.890  25.049  24.447  1.00  0.00     0.031 C 
ATOM     49  C   UNL A   1      44.418  25.507  28.062  1.00  0.00     0.029 A 
ATOM     50  N   UNL A   1      45.986  27.096  27.937  1.00  0.00    -0.354 N 
ATOM     51  C   UNL A   1      49.163  26.860  25.023  1.00  0.00     0.074 A 
ATOM     52  C   UNL A   1      49.023  25.687  24.187  1.00  0.00     0.031 C 
ATOM     53  C   UNL A   1      44.201  26.369  29.070  1.00  0.00     0.029 A 
ATOM     54  C   UNL A   1      45.231  27.403  29.044  1.00  0.00     0.049 A 
ATOM     55  H   UNL A   1      46.743  27.647  27.631  1.00  0.00     0.167 HD
ATOM     56  C   UNL A   1      50.168  27.760  24.908  1.00  0.00     0.034 A 
ATOM     57  C   UNL A   1      45.361  28.394  29.948  1.00  0.00     0.034 A 
ATOM     58  C   UNL A   1      50.282  28.948  25.711  1.00  0.00     0.049 A 
ATOM     59  C   UNL A   1      46.475  29.393  29.783  1.00  0.00     0.074 A 
ATOM     60  C   UNL A   1      51.208  29.970  25.606  1.00  0.00     0.029 A 
ATOM     61  N   UNL A   1      49.450  29.269  26.772  1.00  0.00    -0.354 N 
ATOM     62  N   UNL A   1      47.392  29.458  28.850  1.00  0.00    -0.248 NA
ATOM     63  C   UNL A   1      46.554  30.471  30.781  1.00  0.00     0.031 C 
ATOM     64  C   UNL A   1      50.951  30.898  26.621  1.00  0.00     0.029 A 
ATOM     65  C   UNL A   1      49.850  30.465  27.342  1.00  0.00     0.049 A 
ATOM     66  H   UNL A   1      48.687  28.726  27.076  1.00  0.00     0.167 HD
ATOM     67  C   UNL A   1      48.139  30.598  29.129  1.00  0.00     0.074 A 
ATOM     68  C   UNL A   1      47.549  31.206  30.303  1.00  0.00     0.031 C 
ATOM     69  C   UNL A   1      49.226  31.086  28.482  1.00  0.00     0.034 A 
BRANCH  56  70
ATOM     70  C   UNL A   1      51.199  27.525  23.835  1.00  0.00     0.023 A 
ATOM     71  C   UNL A   1      52.425  26.918  24.173  1.00  0.00     0.012 A 
ATOM     72  C   UNL A   1      50.933  27.845  22.489  1.00  0.00     0.148 A 
ATOM     73  C   UNL A   1      53.386  26.663  23.195  1.00  0.00     0.002 A 
ATOM     74  C   UNL A   1      51.878  27.547  21.513  1.00  0.00     0.091 A 
ATOM     75  F   UNL A   1      49.770  28.440  22.189  1.00  0.00    -0.205 F 
ATOM     76  C   UNL A   1      53.107  26.967  21.865  1.00  0.00     0.022 A 
BRANCH  74  77
ATOM     77  S   UNL A   1      51.586  27.828  19.762  1.00  0.00     0.127 S 
ATOM     78  O   UNL A   1      51.343  29.269  19.732  1.00  0.00    -0.237 OA
ATOM     79  O   UNL A   1      52.857  27.411  19.168  1.00  0.00    -0.237 OA
ATOM     80  O   UNL A   1      50.448  26.992  19.407  1.00  0.00    -0.744 OA
ENDBRANCH  74  77
ENDBRANCH  56  70
BRANCH  57  81
ATOM     81  C   UNL A   1      44.378  28.523  31.062  1.00  0.00     0.023 A 
ATOM     82  C   UNL A   1      43.344  29.473  30.962  1.00  0.00     0.012 A 
ATOM     83  C   UNL A   1      44.446  27.699  32.203  1.00  0.00     0.148 A 
ATOM     84  C   UNL A   1      42.412  29.624  31.989  1.00  0.00     0.002 A 
ATOM     85  C   UNL A   1      43.482  27.816  33.198  1.00  0.00     0.091 A 
ATOM     86  F   UNL A   1      45.445  26.810  32.287  1.00  0.00    -0.205 F 
ATOM     87  C   UNL A   1      42.475  28.789  33.102  1.00  0.00     0.022 A 
BRANCH  85  88
ATOM     88  S   UNL A   1      43.408  26.696  34.601  1.00  0.00     0.127 S 
ATOM     89  O   UNL A   1      43.606  25.399  33.959  1.00  0.00    -0.237 OA
ATOM     90  O   UNL A   1      44.530  27.158  35.418  1.00  0.00    -0.237 OA
ATOM     91  O   UNL A   1      42.100  26.912  35.205  1.00  0.00    -0.744 OA
ENDBRANCH  85  88
ENDBRANCH  57  81
BRANCH  69  92
ATOM     92  C   UNL A   1      49.844  32.353  29.012  1.00  0.00     0.023 A 
ATOM     93  C   UNL A   1      50.877  32.277  29.968  1.00  0.00     0.012 A 
ATOM     94  C   UNL A   1      49.460  33.611  28.506  1.00  0.00     0.148 A 
ATOM     95  C   UNL A   1      51.498  33.436  30.433  1.00  0.00     0.002 A 
ATOM     96  C   UNL A   1      50.116  34.757  28.939  1.00  0.00     0.091 A 
ATOM     97  F   UNL A   1      48.463  33.662  27.610  1.00  0.00    -0.205 F 
ATOM     98  C   UNL A   1      51.126  34.672  29.910  1.00  0.00     0.022 A 
BRANCH  96  99
ATOM     99  S   UNL A   1      49.772  36.383  28.256  1.00  0.00     0.127 S 
ATOM    100  O   UNL A   1      50.798  37.200  28.902  1.00  0.00    -0.237 OA
ATOM    101  O   UNL A   1      49.976  36.166  26.823  1.00  0.00    -0.237 OA
ATOM    102  O   UNL A   1      48.399  36.694  28.631  1.00  0.00    -0.744 OA
ENDBRANCH  96  99
ENDBRANCH  69  92
ENDBRANCH  43  44
ENDBRANCH  35  38
ENDBRANCH  33  34
ENDBRANCH  32  33
ENDBRANCH   1  32
TORSDOF 18
ENDMDL
