MODEL 1
REMARK VINA RESULT:     -11.4      0.000      0.000
REMARK SMILES O=C(CCC(=O)N1Cc2[nH]cnc2C[C@H]1C(=O)NCc1ccccc1)NCCCCNC(=O)c1ccc(-c2c3nc(c(-c4cccc(S(=O)(=O)[O-])c4F)c4ccc([nH]4)c(-c4cccc(S(=O)(=O)[O-])c4F)c4nc(c(-c5cccc(S(=O)(=O)[O-])c5F)c5ccc2[nH]5)C=C4)C=C3)cc1
REMARK SMILES IDX 27 1 26 2 1 3 2 4 3 6 4 7 5 8 6 9 7 10 8 11 15 12 9 13 14 14
REMARK SMILES IDX 10 15 13 16 11 17 12 19 16 20 17 21 18 22 19 24 20 25 21 26
REMARK SMILES IDX 25 27 22 28 24 29 23 30 28 31 29 32 30 33 31 34 32 35 33 37
REMARK SMILES IDX 34 38 35 39 96 40 36 41 95 42 37 43 38 44 39 45 89 46 40 47
REMARK SMILES IDX 94 48 88 49 90 50 41 51 93 52 87 53 86 54 42 56 74 57 54 58
REMARK SMILES IDX 73 59 55 60 58 61 72 62 91 63 56 64 57 65 71 67 92 68 59 69
REMARK SMILES IDX 43 70 44 71 52 72 45 73 47 74 53 75 46 76 48 77 49 78 50 79
REMARK SMILES IDX 51 80 75 81 76 82 84 83 77 84 79 85 85 86 78 87 80 88 81 89
REMARK SMILES IDX 82 90 83 91 60 92 61 93 69 94 62 95 64 96 70 97 63 98 65 99
REMARK SMILES IDX 66 100 67 101 68 102
REMARK H PARENT 26 5 10 18 18 23 31 36 90 55 58 66
REMARK Flexibility Score: inf
ROOT
ATOM      1  C   UNL A   1      35.949  20.768  25.760  1.00  0.00     0.116 C 
ENDROOT
BRANCH   1   2
ATOM      2  N   UNL A   1      34.550  20.466  25.476  1.00  0.00    -0.356 N 
ATOM      3  O   UNL A   1      33.763  22.183  26.791  1.00  0.00    -0.275 OA
ATOM      4  C   UNL A   1      33.551  21.329  25.934  1.00  0.00     0.220 C 
ATOM      5  H   UNL A   1      34.311  19.658  24.966  1.00  0.00     0.163 HD
BRANCH   4   6
ATOM      6  C   UNL A   1      32.191  21.201  25.247  1.00  0.00     0.110 C 
BRANCH   6   7
ATOM      7  C   UNL A   1      32.256  20.693  23.799  1.00  0.00     0.110 C 
BRANCH   7   8
ATOM      8  C   UNL A   1      32.169  21.798  22.757  1.00  0.00     0.224 C 
ATOM      9  O   UNL A   1      32.180  21.506  21.562  1.00  0.00    -0.275 OA
BRANCH   8  10
ATOM     10  N   UNL A   1      32.113  23.112  23.212  1.00  0.00    -0.324 N 
ATOM     11  C   UNL A   1      30.768  23.705  23.444  1.00  0.00     0.176 C 
ATOM     12  C   UNL A   1      33.287  24.020  23.042  1.00  0.00     0.180 C 
ATOM     13  C   UNL A   1      30.832  25.144  23.106  1.00  0.00     0.058 A 
ATOM     14  C   UNL A   1      33.012  25.083  21.986  1.00  0.00     0.093 C 
ATOM     15  N   UNL A   1      30.107  26.160  23.645  1.00  0.00    -0.347 N 
ATOM     16  C   UNL A   1      31.807  25.777  22.385  1.00  0.00     0.066 A 
ATOM     17  C   UNL A   1      30.706  27.326  23.231  1.00  0.00     0.197 A 
ATOM     18  H   UNL A   1      29.311  26.076  24.218  1.00  0.00     0.167 HD
ATOM     19  N   UNL A   1      31.699  27.124  22.400  1.00  0.00    -0.242 NA
BRANCH  12  20
ATOM     20  C   UNL A   1      34.311  24.345  24.154  1.00  0.00     0.243 C 
ATOM     21  O   UNL A   1      35.462  23.890  24.073  1.00  0.00    -0.273 OA
ATOM     22  N   UNL A   1      34.098  25.093  25.259  1.00  0.00    -0.350 N 
ATOM     23  H   UNL A   1      34.924  25.442  25.666  1.00  0.00     0.163 HD
BRANCH  22  24
ATOM     24  C   UNL A   1      32.898  25.479  25.959  1.00  0.00     0.151 C 
BRANCH  24  25
ATOM     25  C   UNL A   1      32.884  26.928  26.370  1.00  0.00    -0.029 A 
ATOM     26  C   UNL A   1      31.735  27.473  26.971  1.00  0.00     0.005 A 
ATOM     27  C   UNL A   1      33.983  27.771  26.165  1.00  0.00     0.005 A 
ATOM     28  C   UNL A   1      31.683  28.828  27.309  1.00  0.00     0.000 A 
ATOM     29  C   UNL A   1      33.929  29.113  26.507  1.00  0.00     0.000 A 
ATOM     30  C   UNL A   1      32.778  29.649  27.066  1.00  0.00     0.000 A 
ENDBRANCH  24  25
ENDBRANCH  22  24
ENDBRANCH  12  20
ENDBRANCH   8  10
ENDBRANCH   7   8
ENDBRANCH   6   7
ENDBRANCH   4   6
ENDBRANCH   1   2
BRANCH   1  31
ATOM     31  C   UNL A   1      37.029  20.606  24.662  1.00  0.00     0.023 C 
BRANCH  31  32
ATOM     32  C   UNL A   1      38.130  19.535  24.729  1.00  0.00     0.023 C 
BRANCH  32  33
ATOM     33  C   UNL A   1      39.245  19.607  25.791  1.00  0.00     0.116 C 
BRANCH  33  34
ATOM     34  N   UNL A   1      40.545  19.005  25.530  1.00  0.00    -0.352 N 
ATOM     35  C   UNL A   1      41.836  19.488  25.790  1.00  0.00     0.251 C 
ATOM     36  H   UNL A   1      40.513  18.117  25.104  1.00  0.00     0.163 HD
ATOM     37  O   UNL A   1      42.781  18.798  25.399  1.00  0.00    -0.269 OA
BRANCH  35  38
ATOM     38  C   UNL A   1      42.142  20.759  26.550  1.00  0.00     0.039 A 
ATOM     39  C   UNL A   1      41.899  20.866  27.943  1.00  0.00     0.014 A 
ATOM     40  C   UNL A   1      42.618  21.890  25.930  1.00  0.00     0.014 A 
ATOM     41  C   UNL A   1      42.003  22.106  28.647  1.00  0.00     0.010 A 
ATOM     42  C   UNL A   1      42.613  23.110  26.596  1.00  0.00     0.010 A 
ATOM     43  C   UNL A   1      42.308  23.276  27.957  1.00  0.00    -0.014 A 
BRANCH  43  44
ATOM     44  C   UNL A   1      42.497  24.660  28.505  1.00  0.00     0.031 A 
ATOM     45  C   UNL A   1      41.299  25.519  28.263  1.00  0.00     0.074 A 
ATOM     46  C   UNL A   1      43.438  25.172  29.348  1.00  0.00     0.049 A 
ATOM     47  N   UNL A   1      41.172  26.402  27.318  1.00  0.00    -0.248 NA
ATOM     48  C   UNL A   1      40.048  25.266  29.001  1.00  0.00     0.031 C 
ATOM     49  C   UNL A   1      44.668  24.558  29.850  1.00  0.00     0.029 A 
ATOM     50  N   UNL A   1      43.389  26.330  30.107  1.00  0.00    -0.354 N 
ATOM     51  C   UNL A   1      39.913  26.940  27.548  1.00  0.00     0.074 A 
ATOM     52  C   UNL A   1      39.172  25.934  28.248  1.00  0.00     0.031 C 
ATOM     53  C   UNL A   1      45.035  25.133  31.023  1.00  0.00     0.029 A 
ATOM     54  C   UNL A   1      44.212  26.305  31.243  1.00  0.00     0.049 A 
ATOM     55  H   UNL A   1      42.827  27.103  29.869  1.00  0.00     0.167 HD
ATOM     56  C   UNL A   1      39.730  28.286  27.650  1.00  0.00     0.034 A 
ATOM     57  C   UNL A   1      44.274  27.205  32.259  1.00  0.00     0.034 A 
ATOM     58  C   UNL A   1      40.890  29.012  27.202  1.00  0.00     0.049 A 
ATOM     59  C   UNL A   1      43.965  28.521  31.671  1.00  0.00     0.074 A 
ATOM     60  C   UNL A   1      41.565  29.240  26.025  1.00  0.00     0.029 A 
ATOM     61  N   UNL A   1      41.716  29.387  28.223  1.00  0.00    -0.354 N 
ATOM     62  N   UNL A   1      44.764  29.120  30.833  1.00  0.00    -0.248 NA
ATOM     63  C   UNL A   1      42.657  29.133  31.854  1.00  0.00     0.031 C 
ATOM     64  C   UNL A   1      42.866  29.701  26.385  1.00  0.00     0.029 A 
ATOM     65  C   UNL A   1      42.954  29.749  27.773  1.00  0.00     0.049 A 
ATOM     66  H   UNL A   1      41.452  29.395  29.171  1.00  0.00     0.167 HD
ATOM     67  C   UNL A   1      43.898  29.842  30.044  1.00  0.00     0.074 A 
ATOM     68  C   UNL A   1      42.689  30.000  30.839  1.00  0.00     0.031 C 
ATOM     69  C   UNL A   1      44.066  29.855  28.692  1.00  0.00     0.034 A 
BRANCH  56  70
ATOM     70  C   UNL A   1      38.733  28.970  28.583  1.00  0.00     0.023 A 
ATOM     71  C   UNL A   1      37.834  29.878  27.983  1.00  0.00     0.012 A 
ATOM     72  C   UNL A   1      38.776  28.983  30.000  1.00  0.00     0.148 A 
ATOM     73  C   UNL A   1      37.046  30.752  28.741  1.00  0.00     0.002 A 
ATOM     74  C   UNL A   1      37.915  29.776  30.751  1.00  0.00     0.091 A 
ATOM     75  F   UNL A   1      39.751  28.361  30.661  1.00  0.00    -0.205 F 
ATOM     76  C   UNL A   1      37.070  30.687  30.128  1.00  0.00     0.022 A 
BRANCH  74  77
ATOM     77  S   UNL A   1      37.891  29.658  32.547  1.00  0.00     0.127 S 
ATOM     78  O   UNL A   1      36.873  30.660  32.883  1.00  0.00    -0.237 OA
ATOM     79  O   UNL A   1      37.470  28.264  32.745  1.00  0.00    -0.237 OA
ATOM     80  O   UNL A   1      39.240  29.939  32.973  1.00  0.00    -0.744 OA
ENDBRANCH  74  77
ENDBRANCH  56  70
BRANCH  57  81
ATOM     81  C   UNL A   1      44.692  27.167  33.683  1.00  0.00     0.023 A 
ATOM     82  C   UNL A   1      45.754  27.986  34.127  1.00  0.00     0.012 A 
ATOM     83  C   UNL A   1      43.836  26.609  34.655  1.00  0.00     0.148 A 
ATOM     84  C   UNL A   1      45.934  28.278  35.484  1.00  0.00     0.002 A 
ATOM     85  C   UNL A   1      44.021  26.904  36.010  1.00  0.00     0.091 A 
ATOM     86  F   UNL A   1      42.817  25.844  34.234  1.00  0.00    -0.205 F 
ATOM     87  C   UNL A   1      45.059  27.750  36.424  1.00  0.00     0.022 A 
BRANCH  85  88
ATOM     88  S   UNL A   1      42.915  26.309  37.300  1.00  0.00     0.127 S 
ATOM     89  O   UNL A   1      42.914  24.871  37.035  1.00  0.00    -0.237 OA
ATOM     90  O   UNL A   1      43.609  26.698  38.526  1.00  0.00    -0.237 OA
ATOM     91  O   UNL A   1      41.650  26.990  37.064  1.00  0.00    -0.744 OA
ENDBRANCH  85  88
ENDBRANCH  57  81
BRANCH  69  92
ATOM     92  C   UNL A   1      45.460  29.745  28.150  1.00  0.00     0.023 A 
ATOM     93  C   UNL A   1      46.040  28.529  27.739  1.00  0.00     0.012 A 
ATOM     94  C   UNL A   1      46.185  30.937  27.977  1.00  0.00     0.148 A 
ATOM     95  C   UNL A   1      47.323  28.503  27.185  1.00  0.00     0.002 A 
ATOM     96  C   UNL A   1      47.436  30.914  27.378  1.00  0.00     0.091 A 
ATOM     97  F   UNL A   1      45.632  32.084  28.401  1.00  0.00    -0.205 F 
ATOM     98  C   UNL A   1      48.015  29.697  26.990  1.00  0.00     0.022 A 
BRANCH  96  99
ATOM     99  S   UNL A   1      48.305  32.435  26.993  1.00  0.00     0.127 S 
ATOM    100  O   UNL A   1      48.503  33.018  28.317  1.00  0.00    -0.237 OA
ATOM    101  O   UNL A   1      49.526  31.948  26.349  1.00  0.00    -0.237 OA
ATOM    102  O   UNL A   1      47.421  33.175  26.100  1.00  0.00    -0.744 OA
ENDBRANCH  96  99
ENDBRANCH  69  92
ENDBRANCH  43  44
ENDBRANCH  35  38
ENDBRANCH  33  34
ENDBRANCH  32  33
ENDBRANCH  31  32
ENDBRANCH   1  31
TORSDOF 20
ENDMDL
MODEL 2
REMARK VINA RESULT:     -11.1      3.274      7.297
REMARK SMILES O=C(CCC(=O)N1Cc2[nH]cnc2C[C@H]1C(=O)NCc1ccccc1)NCCCCNC(=O)c1ccc(-c2c3nc(c(-c4cccc(S(=O)(=O)[O-])c4F)c4ccc([nH]4)c(-c4cccc(S(=O)(=O)[O-])c4F)c4nc(c(-c5cccc(S(=O)(=O)[O-])c5F)c5ccc2[nH]5)C=C4)C=C3)cc1
REMARK SMILES IDX 27 1 26 2 1 3 2 4 3 6 4 7 5 8 6 9 7 10 8 11 15 12 9 13 14 14
REMARK SMILES IDX 10 15 13 16 11 17 12 19 16 20 17 21 18 22 19 24 20 25 21 26
REMARK SMILES IDX 25 27 22 28 24 29 23 30 28 31 29 32 30 33 31 34 32 35 33 37
REMARK SMILES IDX 34 38 35 39 96 40 36 41 95 42 37 43 38 44 39 45 89 46 40 47
REMARK SMILES IDX 94 48 88 49 90 50 41 51 93 52 87 53 86 54 42 56 74 57 54 58
REMARK SMILES IDX 73 59 55 60 58 61 72 62 91 63 56 64 57 65 71 67 92 68 59 69
REMARK SMILES IDX 43 70 44 71 52 72 45 73 47 74 53 75 46 76 48 77 49 78 50 79
REMARK SMILES IDX 51 80 75 81 76 82 84 83 77 84 79 85 85 86 78 87 80 88 81 89
REMARK SMILES IDX 82 90 83 91 60 92 61 93 69 94 62 95 64 96 70 97 63 98 65 99
REMARK SMILES IDX 66 100 67 101 68 102
REMARK H PARENT 26 5 10 18 18 23 31 36 90 55 58 66
REMARK Flexibility Score: inf
ROOT
ATOM      1  C   UNL A   1      36.598  21.523  24.338  1.00  0.00     0.116 C 
ENDROOT
BRANCH   1   2
ATOM      2  N   UNL A   1      35.378  22.315  24.222  1.00  0.00    -0.356 N 
ATOM      3  O   UNL A   1      34.011  20.560  24.812  1.00  0.00    -0.275 OA
ATOM      4  C   UNL A   1      34.158  21.765  24.621  1.00  0.00     0.220 C 
ATOM      5  H   UNL A   1      35.415  23.231  23.863  1.00  0.00     0.163 HD
BRANCH   4   6
ATOM      6  C   UNL A   1      33.028  22.763  24.884  1.00  0.00     0.110 C 
BRANCH   6   7
ATOM      7  C   UNL A   1      32.529  23.500  23.633  1.00  0.00     0.110 C 
BRANCH   7   8
ATOM      8  C   UNL A   1      33.177  24.860  23.422  1.00  0.00     0.224 C 
ATOM      9  O   UNL A   1      34.199  24.945  22.744  1.00  0.00    -0.275 OA
BRANCH   8  10
ATOM     10  N   UNL A   1      32.589  25.959  24.043  1.00  0.00    -0.324 N 
ATOM     11  C   UNL A   1      33.489  27.041  24.527  1.00  0.00     0.176 C 
ATOM     12  C   UNL A   1      31.207  25.859  24.602  1.00  0.00     0.180 C 
ATOM     13  C   UNL A   1      32.906  27.609  25.763  1.00  0.00     0.058 A 
ATOM     14  C   UNL A   1      31.229  25.857  26.125  1.00  0.00     0.093 C 
ATOM     15  N   UNL A   1      33.018  28.881  26.229  1.00  0.00    -0.347 N 
ATOM     16  C   UNL A   1      31.928  27.054  26.542  1.00  0.00     0.066 A 
ATOM     17  C   UNL A   1      32.089  29.008  27.235  1.00  0.00     0.197 A 
ATOM     18  H   UNL A   1      33.640  29.573  25.909  1.00  0.00     0.167 HD
ATOM     19  N   UNL A   1      31.464  27.888  27.498  1.00  0.00    -0.242 NA
BRANCH  12  20
ATOM     20  C   UNL A   1      29.935  26.378  23.892  1.00  0.00     0.243 C 
ATOM     21  O   UNL A   1      29.100  25.564  23.470  1.00  0.00    -0.273 OA
ATOM     22  N   UNL A   1      29.608  27.666  23.655  1.00  0.00    -0.350 N 
ATOM     23  H   UNL A   1      28.647  27.807  23.489  1.00  0.00     0.163 HD
BRANCH  22  24
ATOM     24  C   UNL A   1      30.390  28.877  23.597  1.00  0.00     0.151 C 
BRANCH  24  25
ATOM     25  C   UNL A   1      29.635  30.052  23.030  1.00  0.00    -0.029 A 
ATOM     26  C   UNL A   1      29.216  31.089  23.882  1.00  0.00     0.005 A 
ATOM     27  C   UNL A   1      29.320  30.148  21.669  1.00  0.00     0.005 A 
ATOM     28  C   UNL A   1      28.468  32.160  23.385  1.00  0.00     0.000 A 
ATOM     29  C   UNL A   1      28.583  31.215  21.180  1.00  0.00     0.000 A 
ATOM     30  C   UNL A   1      28.143  32.215  22.035  1.00  0.00     0.000 A 
ENDBRANCH  24  25
ENDBRANCH  22  24
ENDBRANCH  12  20
ENDBRANCH   8  10
ENDBRANCH   7   8
ENDBRANCH   6   7
ENDBRANCH   4   6
ENDBRANCH   1   2
BRANCH   1  31
ATOM     31  C   UNL A   1      37.703  21.921  25.347  1.00  0.00     0.023 C 
BRANCH  31  32
ATOM     32  C   UNL A   1      38.948  21.057  25.602  1.00  0.00     0.023 C 
BRANCH  32  33
ATOM     33  C   UNL A   1      39.905  21.367  26.770  1.00  0.00     0.116 C 
BRANCH  33  34
ATOM     34  N   UNL A   1      41.341  21.443  26.541  1.00  0.00    -0.352 N 
ATOM     35  C   UNL A   1      42.237  22.503  26.749  1.00  0.00     0.251 C 
ATOM     36  H   UNL A   1      41.748  20.620  26.183  1.00  0.00     0.163 HD
ATOM     37  O   UNL A   1      43.407  22.323  26.399  1.00  0.00    -0.269 OA
BRANCH  35  38
ATOM     38  C   UNL A   1      41.879  23.816  27.407  1.00  0.00     0.039 A 
ATOM     39  C   UNL A   1      40.750  24.567  26.995  1.00  0.00     0.014 A 
ATOM     40  C   UNL A   1      42.653  24.378  28.396  1.00  0.00     0.014 A 
ATOM     41  C   UNL A   1      40.495  25.892  27.469  1.00  0.00     0.010 A 
ATOM     42  C   UNL A   1      42.460  25.702  28.769  1.00  0.00     0.010 A 
ATOM     43  C   UNL A   1      41.397  26.510  28.331  1.00  0.00    -0.014 A 
BRANCH  43  44
ATOM     44  C   UNL A   1      41.302  27.866  28.965  1.00  0.00     0.031 A 
ATOM     45  C   UNL A   1      42.206  28.852  28.300  1.00  0.00     0.074 A 
ATOM     46  C   UNL A   1      40.403  28.383  29.851  1.00  0.00     0.049 A 
ATOM     47  N   UNL A   1      43.370  29.232  28.735  1.00  0.00    -0.248 NA
ATOM     48  C   UNL A   1      41.903  29.333  26.940  1.00  0.00     0.031 C 
ATOM     49  C   UNL A   1      39.340  27.708  30.595  1.00  0.00     0.029 A 
ATOM     50  N   UNL A   1      40.130  29.710  30.139  1.00  0.00    -0.354 N 
ATOM     51  C   UNL A   1      43.775  30.168  27.791  1.00  0.00     0.074 A 
ATOM     52  C   UNL A   1      43.083  29.838  26.581  1.00  0.00     0.031 C 
ATOM     53  C   UNL A   1      38.369  28.593  30.933  1.00  0.00     0.029 A 
ATOM     54  C   UNL A   1      38.840  29.933  30.642  1.00  0.00     0.049 A 
ATOM     55  H   UNL A   1      40.785  30.433  30.005  1.00  0.00     0.167 HD
ATOM     56  C   UNL A   1      44.188  31.411  28.165  1.00  0.00     0.034 A 
ATOM     57  C   UNL A   1      38.218  31.118  30.873  1.00  0.00     0.034 A 
ATOM     58  C   UNL A   1      44.422  31.486  29.584  1.00  0.00     0.049 A 
ATOM     59  C   UNL A   1      39.272  32.076  31.255  1.00  0.00     0.074 A 
ATOM     60  C   UNL A   1      45.302  30.967  30.506  1.00  0.00     0.029 A 
ATOM     61  N   UNL A   1      43.362  31.997  30.277  1.00  0.00    -0.354 N 
ATOM     62  N   UNL A   1      39.931  31.982  32.375  1.00  0.00    -0.248 NA
ATOM     63  C   UNL A   1      39.759  33.068  30.309  1.00  0.00     0.031 C 
ATOM     64  C   UNL A   1      44.689  31.124  31.785  1.00  0.00     0.029 A 
ATOM     65  C   UNL A   1      43.453  31.738  31.616  1.00  0.00     0.049 A 
ATOM     66  H   UNL A   1      42.620  32.494  29.862  1.00  0.00     0.167 HD
ATOM     67  C   UNL A   1      41.159  32.515  32.055  1.00  0.00     0.074 A 
ATOM     68  C   UNL A   1      40.925  33.357  30.892  1.00  0.00     0.031 C 
ATOM     69  C   UNL A   1      42.297  31.891  32.471  1.00  0.00     0.034 A 
BRANCH  56  70
ATOM     70  C   UNL A   1      43.931  32.696  27.381  1.00  0.00     0.023 A 
ATOM     71  C   UNL A   1      44.184  32.644  25.993  1.00  0.00     0.012 A 
ATOM     72  C   UNL A   1      43.710  33.986  27.924  1.00  0.00     0.148 A 
ATOM     73  C   UNL A   1      44.233  33.800  25.204  1.00  0.00     0.002 A 
ATOM     74  C   UNL A   1      43.653  35.120  27.119  1.00  0.00     0.091 A 
ATOM     75  F   UNL A   1      43.713  34.183  29.242  1.00  0.00    -0.205 F 
ATOM     76  C   UNL A   1      43.946  35.038  25.763  1.00  0.00     0.022 A 
BRANCH  74  77
ATOM     77  S   UNL A   1      43.222  36.721  27.819  1.00  0.00     0.127 S 
ATOM     78  O   UNL A   1      42.766  37.439  26.624  1.00  0.00    -0.237 OA
ATOM     79  O   UNL A   1      42.155  36.354  28.760  1.00  0.00    -0.237 OA
ATOM     80  O   UNL A   1      44.427  37.208  28.446  1.00  0.00    -0.744 OA
ENDBRANCH  74  77
ENDBRANCH  56  70
BRANCH  57  81
ATOM     81  C   UNL A   1      36.808  31.576  30.954  1.00  0.00     0.023 A 
ATOM     82  C   UNL A   1      36.266  31.966  32.199  1.00  0.00     0.012 A 
ATOM     83  C   UNL A   1      36.122  31.962  29.784  1.00  0.00     0.148 A 
ATOM     84  C   UNL A   1      35.108  32.749  32.279  1.00  0.00     0.002 A 
ATOM     85  C   UNL A   1      34.966  32.745  29.870  1.00  0.00     0.091 A 
ATOM     86  F   UNL A   1      36.645  31.606  28.600  1.00  0.00    -0.205 F 
ATOM     87  C   UNL A   1      34.467  33.151  31.115  1.00  0.00     0.022 A 
BRANCH  85  88
ATOM     88  S   UNL A   1      34.090  33.357  28.421  1.00  0.00     0.127 S 
ATOM     89  O   UNL A   1      33.564  32.114  27.858  1.00  0.00    -0.237 OA
ATOM     90  O   UNL A   1      33.076  34.233  29.003  1.00  0.00    -0.237 OA
ATOM     91  O   UNL A   1      35.101  34.030  27.618  1.00  0.00    -0.744 OA
ENDBRANCH  85  88
ENDBRANCH  57  81
BRANCH  69  92
ATOM     92  C   UNL A   1      42.261  31.144  33.772  1.00  0.00     0.023 A 
ATOM     93  C   UNL A   1      42.297  31.774  35.030  1.00  0.00     0.012 A 
ATOM     94  C   UNL A   1      42.104  29.749  33.713  1.00  0.00     0.148 A 
ATOM     95  C   UNL A   1      42.199  31.023  36.206  1.00  0.00     0.002 A 
ATOM     96  C   UNL A   1      41.953  29.012  34.879  1.00  0.00     0.091 A 
ATOM     97  F   UNL A   1      42.101  29.159  32.507  1.00  0.00    -0.205 F 
ATOM     98  C   UNL A   1      42.011  29.644  36.130  1.00  0.00     0.022 A 
BRANCH  96  99
ATOM     99  S   UNL A   1      41.582  27.259  34.824  1.00  0.00     0.127 S 
ATOM    100  O   UNL A   1      42.841  26.694  34.345  1.00  0.00    -0.237 OA
ATOM    101  O   UNL A   1      41.268  26.957  36.222  1.00  0.00    -0.237 OA
ATOM    102  O   UNL A   1      40.444  27.127  33.922  1.00  0.00    -0.744 OA
ENDBRANCH  96  99
ENDBRANCH  69  92
ENDBRANCH  43  44
ENDBRANCH  35  38
ENDBRANCH  33  34
ENDBRANCH  32  33
ENDBRANCH  31  32
ENDBRANCH   1  31
TORSDOF 20
ENDMDL
MODEL 3
REMARK VINA RESULT:     -10.9      3.075      7.426
REMARK SMILES O=C(CCC(=O)N1Cc2[nH]cnc2C[C@H]1C(=O)NCc1ccccc1)NCCCCNC(=O)c1ccc(-c2c3nc(c(-c4cccc(S(=O)(=O)[O-])c4F)c4ccc([nH]4)c(-c4cccc(S(=O)(=O)[O-])c4F)c4nc(c(-c5cccc(S(=O)(=O)[O-])c5F)c5ccc2[nH]5)C=C4)C=C3)cc1
REMARK SMILES IDX 27 1 26 2 1 3 2 4 3 6 4 7 5 8 6 9 7 10 8 11 15 12 9 13 14 14
REMARK SMILES IDX 10 15 13 16 11 17 12 19 16 20 17 21 18 22 19 24 20 25 21 26
REMARK SMILES IDX 25 27 22 28 24 29 23 30 28 31 29 32 30 33 31 34 32 35 33 37
REMARK SMILES IDX 34 38 35 39 96 40 36 41 95 42 37 43 38 44 39 45 89 46 40 47
REMARK SMILES IDX 94 48 88 49 90 50 41 51 93 52 87 53 86 54 42 56 74 57 54 58
REMARK SMILES IDX 73 59 55 60 58 61 72 62 91 63 56 64 57 65 71 67 92 68 59 69
REMARK SMILES IDX 43 70 44 71 52 72 45 73 47 74 53 75 46 76 48 77 49 78 50 79
REMARK SMILES IDX 51 80 75 81 76 82 84 83 77 84 79 85 85 86 78 87 80 88 81 89
REMARK SMILES IDX 82 90 83 91 60 92 61 93 69 94 62 95 64 96 70 97 63 98 65 99
REMARK SMILES IDX 66 100 67 101 68 102
REMARK H PARENT 26 5 10 18 18 23 31 36 90 55 58 66
REMARK Flexibility Score: inf
ROOT
ATOM      1  C   UNL A   1      38.021  23.813  26.054  1.00  0.00     0.116 C 
ENDROOT
BRANCH   1   2
ATOM      2  N   UNL A   1      36.671  23.294  26.246  1.00  0.00    -0.356 N 
ATOM      3  O   UNL A   1      36.988  21.533  24.798  1.00  0.00    -0.275 OA
ATOM      4  C   UNL A   1      36.316  22.069  25.676  1.00  0.00     0.220 C 
ATOM      5  H   UNL A   1      36.015  23.803  26.774  1.00  0.00     0.163 HD
BRANCH   4   6
ATOM      6  C   UNL A   1      35.077  21.392  26.264  1.00  0.00     0.110 C 
BRANCH   6   7
ATOM      7  C   UNL A   1      34.241  20.602  25.246  1.00  0.00     0.110 C 
BRANCH   7   8
ATOM      8  C   UNL A   1      32.789  21.050  25.166  1.00  0.00     0.224 C 
ATOM      9  O   UNL A   1      31.900  20.206  25.070  1.00  0.00    -0.275 OA
BRANCH   8  10
ATOM     10  N   UNL A   1      32.534  22.418  25.173  1.00  0.00    -0.324 N 
ATOM     11  C   UNL A   1      31.622  22.945  26.224  1.00  0.00     0.176 C 
ATOM     12  C   UNL A   1      32.780  23.237  23.948  1.00  0.00     0.180 C 
ATOM     13  C   UNL A   1      30.856  24.072  25.649  1.00  0.00     0.058 A 
ATOM     14  C   UNL A   1      31.469  23.677  23.309  1.00  0.00     0.093 C 
ATOM     15  N   UNL A   1      30.364  25.162  26.296  1.00  0.00    -0.347 N 
ATOM     16  C   UNL A   1      30.716  24.382  24.324  1.00  0.00     0.066 A 
ATOM     17  C   UNL A   1      29.985  26.054  25.321  1.00  0.00     0.197 A 
ATOM     18  H   UNL A   1      30.293  25.287  27.270  1.00  0.00     0.167 HD
ATOM     19  N   UNL A   1      30.119  25.574  24.109  1.00  0.00    -0.242 NA
BRANCH  12  20
ATOM     20  C   UNL A   1      34.034  24.112  23.716  1.00  0.00     0.243 C 
ATOM     21  O   UNL A   1      34.842  23.795  22.830  1.00  0.00    -0.273 OA
ATOM     22  N   UNL A   1      34.381  25.228  24.394  1.00  0.00    -0.350 N 
ATOM     23  H   UNL A   1      35.015  25.805  23.909  1.00  0.00     0.163 HD
BRANCH  22  24
ATOM     24  C   UNL A   1      34.005  25.739  25.690  1.00  0.00     0.151 C 
BRANCH  24  25
ATOM     25  C   UNL A   1      33.407  27.121  25.638  1.00  0.00    -0.029 A 
ATOM     26  C   UNL A   1      32.968  27.737  26.823  1.00  0.00     0.005 A 
ATOM     27  C   UNL A   1      33.259  27.824  24.436  1.00  0.00     0.005 A 
ATOM     28  C   UNL A   1      32.362  28.995  26.790  1.00  0.00     0.000 A 
ATOM     29  C   UNL A   1      32.662  29.074  24.408  1.00  0.00     0.000 A 
ATOM     30  C   UNL A   1      32.200  29.658  25.578  1.00  0.00     0.000 A 
ENDBRANCH  24  25
ENDBRANCH  22  24
ENDBRANCH  12  20
ENDBRANCH   8  10
ENDBRANCH   7   8
ENDBRANCH   6   7
ENDBRANCH   4   6
ENDBRANCH   1   2
BRANCH   1  31
ATOM     31  C   UNL A   1      38.966  24.020  27.264  1.00  0.00     0.023 C 
BRANCH  31  32
ATOM     32  C   UNL A   1      40.258  23.210  27.458  1.00  0.00     0.023 C 
BRANCH  32  33
ATOM     33  C   UNL A   1      40.835  22.348  26.318  1.00  0.00     0.116 C 
BRANCH  33  34
ATOM     34  N   UNL A   1      42.147  22.649  25.764  1.00  0.00    -0.352 N 
ATOM     35  C   UNL A   1      42.906  23.828  25.819  1.00  0.00     0.251 C 
ATOM     36  H   UNL A   1      42.570  21.907  25.273  1.00  0.00     0.163 HD
ATOM     37  O   UNL A   1      43.971  23.838  25.195  1.00  0.00    -0.269 OA
BRANCH  35  38
ATOM     38  C   UNL A   1      42.532  25.055  26.619  1.00  0.00     0.039 A 
ATOM     39  C   UNL A   1      41.677  26.054  26.088  1.00  0.00     0.014 A 
ATOM     40  C   UNL A   1      43.040  25.298  27.874  1.00  0.00     0.014 A 
ATOM     41  C   UNL A   1      41.457  27.305  26.745  1.00  0.00     0.010 A 
ATOM     42  C   UNL A   1      42.908  26.554  28.453  1.00  0.00     0.010 A 
ATOM     43  C   UNL A   1      42.131  27.599  27.927  1.00  0.00    -0.014 A 
BRANCH  43  44
ATOM     44  C   UNL A   1      42.019  28.826  28.784  1.00  0.00     0.031 A 
ATOM     45  C   UNL A   1      43.000  29.877  28.378  1.00  0.00     0.074 A 
ATOM     46  C   UNL A   1      41.064  29.214  29.677  1.00  0.00     0.049 A 
ATOM     47  N   UNL A   1      44.133  30.127  28.961  1.00  0.00    -0.248 NA
ATOM     48  C   UNL A   1      42.822  30.601  27.106  1.00  0.00     0.031 C 
ATOM     49  C   UNL A   1      39.925  28.461  30.205  1.00  0.00     0.029 A 
ATOM     50  N   UNL A   1      40.802  30.479  30.176  1.00  0.00    -0.354 N 
ATOM     51  C   UNL A   1      44.638  31.198  28.234  1.00  0.00     0.074 A 
ATOM     52  C   UNL A   1      44.040  31.114  26.935  1.00  0.00     0.031 C 
ATOM     53  C   UNL A   1      38.953  29.311  30.620  1.00  0.00     0.029 A 
ATOM     54  C   UNL A   1      39.481  30.661  30.610  1.00  0.00     0.049 A 
ATOM     55  H   UNL A   1      41.484  31.188  30.223  1.00  0.00     0.167 HD
ATOM     56  C   UNL A   1      45.050  32.338  28.854  1.00  0.00     0.034 A 
ATOM     57  C   UNL A   1      38.872  31.812  31.001  1.00  0.00     0.034 A 
ATOM     58  C   UNL A   1      45.169  32.152  30.277  1.00  0.00     0.049 A 
ATOM     59  C   UNL A   1      39.915  32.644  31.628  1.00  0.00     0.074 A 
ATOM     60  C   UNL A   1      45.956  31.445  31.156  1.00  0.00     0.029 A 
ATOM     61  N   UNL A   1      44.069  32.576  30.967  1.00  0.00    -0.354 N 
ATOM     62  N   UNL A   1      40.478  32.328  32.760  1.00  0.00    -0.248 NA
ATOM     63  C   UNL A   1      40.504  33.767  30.914  1.00  0.00     0.031 C 
ATOM     64  C   UNL A   1      45.245  31.398  32.392  1.00  0.00     0.029 A 
ATOM     65  C   UNL A   1      44.042  32.082  32.241  1.00  0.00     0.049 A 
ATOM     66  H   UNL A   1      43.377  33.167  30.592  1.00  0.00     0.167 HD
ATOM     67  C   UNL A   1      41.741  32.860  32.635  1.00  0.00     0.074 A 
ATOM     68  C   UNL A   1      41.625  33.903  31.627  1.00  0.00     0.031 C 
ATOM     69  C   UNL A   1      42.824  32.128  33.019  1.00  0.00     0.034 A 
BRANCH  56  70
ATOM     70  C   UNL A   1      44.892  33.750  28.294  1.00  0.00     0.023 A 
ATOM     71  C   UNL A   1      43.573  34.176  28.031  1.00  0.00     0.012 A 
ATOM     72  C   UNL A   1      45.925  34.575  27.783  1.00  0.00     0.148 A 
ATOM     73  C   UNL A   1      43.299  35.333  27.292  1.00  0.00     0.002 A 
ATOM     74  C   UNL A   1      45.650  35.779  27.142  1.00  0.00     0.091 A 
ATOM     75  F   UNL A   1      47.187  34.150  27.749  1.00  0.00    -0.205 F 
ATOM     76  C   UNL A   1      44.339  36.149  26.865  1.00  0.00     0.022 A 
BRANCH  74  77
ATOM     77  S   UNL A   1      46.986  36.876  26.638  1.00  0.00     0.127 S 
ATOM     78  O   UNL A   1      46.231  38.041  26.162  1.00  0.00    -0.237 OA
ATOM     79  O   UNL A   1      47.695  37.079  27.908  1.00  0.00    -0.237 OA
ATOM     80  O   UNL A   1      47.737  36.143  25.647  1.00  0.00    -0.744 OA
ENDBRANCH  74  77
ENDBRANCH  56  70
BRANCH  57  81
ATOM     81  C   UNL A   1      37.472  32.303  31.055  1.00  0.00     0.023 A 
ATOM     82  C   UNL A   1      37.047  33.097  32.143  1.00  0.00     0.012 A 
ATOM     83  C   UNL A   1      36.676  32.296  29.890  1.00  0.00     0.148 A 
ATOM     84  C   UNL A   1      35.896  33.889  32.064  1.00  0.00     0.002 A 
ATOM     85  C   UNL A   1      35.527  33.090  29.817  1.00  0.00     0.091 A 
ATOM     86  F   UNL A   1      37.089  31.556  28.849  1.00  0.00    -0.205 F 
ATOM     87  C   UNL A   1      35.144  33.898  30.896  1.00  0.00     0.022 A 
BRANCH  85  88
ATOM     88  S   UNL A   1      34.514  33.209  28.334  1.00  0.00     0.127 S 
ATOM     89  O   UNL A   1      35.455  33.815  27.392  1.00  0.00    -0.237 OA
ATOM     90  O   UNL A   1      34.192  31.811  28.050  1.00  0.00    -0.237 OA
ATOM     91  O   UNL A   1      33.380  34.040  28.709  1.00  0.00    -0.744 OA
ENDBRANCH  85  88
ENDBRANCH  57  81
BRANCH  69  92
ATOM     92  C   UNL A   1      42.662  31.165  34.158  1.00  0.00     0.023 A 
ATOM     93  C   UNL A   1      42.677  31.554  35.512  1.00  0.00     0.012 A 
ATOM     94  C   UNL A   1      42.405  29.821  33.839  1.00  0.00     0.148 A 
ATOM     95  C   UNL A   1      42.459  30.615  36.525  1.00  0.00     0.002 A 
ATOM     96  C   UNL A   1      42.136  28.903  34.844  1.00  0.00     0.091 A 
ATOM     97  F   UNL A   1      42.424  29.459  32.547  1.00  0.00    -0.205 F 
ATOM     98  C   UNL A   1      42.173  29.293  36.191  1.00  0.00     0.022 A 
BRANCH  96  99
ATOM     99  S   UNL A   1      41.639  27.224  34.455  1.00  0.00     0.127 S 
ATOM    100  O   UNL A   1      41.358  26.673  35.778  1.00  0.00    -0.237 OA
ATOM    101  O   UNL A   1      40.459  27.430  33.613  1.00  0.00    -0.237 OA
ATOM    102  O   UNL A   1      42.771  26.634  33.750  1.00  0.00    -0.744 OA
ENDBRANCH  96  99
ENDBRANCH  69  92
ENDBRANCH  43  44
ENDBRANCH  35  38
ENDBRANCH  33  34
ENDBRANCH  32  33
ENDBRANCH  31  32
ENDBRANCH   1  31
TORSDOF 20
ENDMDL
