MODEL 1
REMARK VINA RESULT:     -13.0      0.000      0.000
REMARK SMILES Cc1cc(NC(=O)c2cccnc2)cc(C(=O)NCCCCNC(=O)c2ccc(-c3c4nc(c(-c5cccc(S(=O)(=O)[O-])c5F)c5ccc([nH]5)c(-c5cccc(S(=O)(=O)[O-])c5F)c5nc(c(-c6cccc(S(=O)(=O)[O-])c6F)c6ccc3[nH]6)C=C5)C=C4)cc2)c1O
REMARK SMILES IDX 21 1 20 2 19 3 18 4 16 5 17 6 15 8 1 9 2 10 3 11 89 12 4 13
REMARK SMILES IDX 14 14 90 15 5 17 6 18 7 20 8 21 9 22 13 23 10 24 12 25 11 26
REMARK SMILES IDX 22 27 23 28 24 29 25 31 26 32 27 33 88 34 28 35 87 36 29 37
REMARK SMILES IDX 30 38 31 39 81 40 32 41 86 42 80 43 82 44 33 45 85 46 79 47
REMARK SMILES IDX 78 48 34 50 66 51 46 52 65 53 47 54 50 55 64 56 83 57 48 58
REMARK SMILES IDX 49 59 63 61 84 62 51 63 35 64 36 65 44 66 37 67 39 68 45 69
REMARK SMILES IDX 38 70 40 71 41 72 42 73 43 74 67 75 68 76 76 77 69 78 71 79
REMARK SMILES IDX 77 80 70 81 72 82 73 83 74 84 75 85 52 86 53 87 61 88 54 89
REMARK SMILES IDX 56 90 62 91 55 92 57 93 58 94 59 95 60 96
REMARK H PARENT 18 7 90 16 5 19 23 30 82 49 50 60
REMARK Flexibility Score: inf
ROOT
ATOM      1  C   UNL A   1      31.767  29.384  26.889  1.00  0.00     0.023 C 
ENDROOT
BRANCH   1   2
ATOM      2  C   UNL A   1      32.192  27.992  27.363  1.00  0.00     0.023 C 
BRANCH   2   3
ATOM      3  C   UNL A   1      32.068  26.889  26.306  1.00  0.00     0.116 C 
BRANCH   3   4
ATOM      4  N   UNL A   1      31.092  25.894  26.708  1.00  0.00    -0.352 N 
ATOM      5  C   UNL A   1      30.835  24.602  26.318  1.00  0.00     0.255 C 
ATOM      6  O   UNL A   1      29.860  24.059  26.841  1.00  0.00    -0.269 OA
ATOM      7  H   UNL A   1      30.483  26.214  27.413  1.00  0.00     0.163 HD
BRANCH   5   8
ATOM      8  C   UNL A   1      31.623  23.848  25.287  1.00  0.00     0.083 A 
ATOM      9  C   UNL A   1      32.774  20.217  24.816  1.00  0.00     0.048 C 
ATOM     10  C   UNL A   1      32.506  21.672  24.558  1.00  0.00    -0.006 A 
ATOM     11  C   UNL A   1      32.770  22.216  23.300  1.00  0.00     0.033 A 
ATOM     12  C   UNL A   1      31.987  22.511  25.554  1.00  0.00     0.131 A 
ATOM     13  C   UNL A   1      32.525  23.567  23.037  1.00  0.00     0.042 A 
ATOM     14  C   UNL A   1      31.886  24.353  24.004  1.00  0.00     0.044 A 
BRANCH  12  15
ATOM     15  O   UNL A   1      31.898  21.994  26.819  1.00  0.00    -0.507 OA
ATOM     16  H   UNL A   1      31.589  21.119  26.948  1.00  0.00     0.293 HD
ENDBRANCH  12  15
BRANCH  13  17
ATOM     17  N   UNL A   1      32.890  24.027  21.760  1.00  0.00    -0.322 N 
ATOM     18  C   UNL A   1      32.765  25.252  21.153  1.00  0.00     0.257 C 
ATOM     19  H   UNL A   1      33.314  23.341  21.195  1.00  0.00     0.170 HD
ATOM     20  O   UNL A   1      32.907  25.342  19.935  1.00  0.00    -0.269 OA
BRANCH  18  21
ATOM     21  C   UNL A   1      32.580  26.488  21.928  1.00  0.00     0.058 A 
ATOM     22  C   UNL A   1      33.643  27.196  22.497  1.00  0.00     0.017 A 
ATOM     23  C   UNL A   1      31.309  27.032  22.013  1.00  0.00     0.124 A 
ATOM     24  C   UNL A   1      33.384  28.395  23.161  1.00  0.00     0.021 A 
ATOM     25  N   UNL A   1      31.028  28.172  22.689  1.00  0.00    -0.264 NA
ATOM     26  C   UNL A   1      32.073  28.839  23.231  1.00  0.00     0.111 A 
ENDBRANCH  18  21
ENDBRANCH  13  17
ENDBRANCH   5   8
ENDBRANCH   3   4
ENDBRANCH   2   3
ENDBRANCH   1   2
BRANCH   1  27
ATOM     27  C   UNL A   1      32.905  30.313  26.469  1.00  0.00     0.116 C 
BRANCH  27  28
ATOM     28  N   UNL A   1      32.797  31.680  26.961  1.00  0.00    -0.352 N 
ATOM     29  C   UNL A   1      33.710  32.372  27.733  1.00  0.00     0.251 C 
ATOM     30  H   UNL A   1      31.977  32.167  26.714  1.00  0.00     0.163 HD
ATOM     31  O   UNL A   1      33.482  33.498  28.146  1.00  0.00    -0.269 OA
BRANCH  29  32
ATOM     32  C   UNL A   1      34.983  31.706  28.084  1.00  0.00     0.039 A 
ATOM     33  C   UNL A   1      36.149  32.472  28.154  1.00  0.00     0.014 A 
ATOM     34  C   UNL A   1      35.001  30.349  28.414  1.00  0.00     0.014 A 
ATOM     35  C   UNL A   1      37.315  31.898  28.664  1.00  0.00     0.010 A 
ATOM     36  C   UNL A   1      36.145  29.798  28.981  1.00  0.00     0.010 A 
ATOM     37  C   UNL A   1      37.303  30.573  29.134  1.00  0.00    -0.014 A 
BRANCH  37  38
ATOM     38  C   UNL A   1      38.462  30.008  29.869  1.00  0.00     0.031 A 
ATOM     39  C   UNL A   1      38.806  30.494  31.247  1.00  0.00     0.074 A 
ATOM     40  C   UNL A   1      39.277  29.142  29.233  1.00  0.00     0.049 A 
ATOM     41  N   UNL A   1      39.813  30.158  32.009  1.00  0.00    -0.248 NA
ATOM     42  C   UNL A   1      37.920  31.513  31.835  1.00  0.00     0.031 C 
ATOM     43  C   UNL A   1      39.106  28.677  27.853  1.00  0.00     0.029 A 
ATOM     44  N   UNL A   1      40.429  28.523  29.648  1.00  0.00    -0.354 N 
ATOM     45  C   UNL A   1      39.705  30.944  33.149  1.00  0.00     0.074 A 
ATOM     46  C   UNL A   1      38.550  31.797  32.966  1.00  0.00     0.031 C 
ATOM     47  C   UNL A   1      40.110  27.843  27.540  1.00  0.00     0.029 A 
ATOM     48  C   UNL A   1      41.008  27.729  28.685  1.00  0.00     0.049 A 
ATOM     49  H   UNL A   1      40.805  28.635  30.551  1.00  0.00     0.167 HD
ATOM     50  C   UNL A   1      40.478  30.933  34.260  1.00  0.00     0.034 A 
ATOM     51  C   UNL A   1      42.134  26.989  28.720  1.00  0.00     0.034 A 
ATOM     52  C   UNL A   1      41.594  30.047  34.457  1.00  0.00     0.049 A 
ATOM     53  C   UNL A   1      42.930  26.937  29.996  1.00  0.00     0.074 A 
ATOM     54  C   UNL A   1      42.382  29.891  35.583  1.00  0.00     0.029 A 
ATOM     55  N   UNL A   1      42.081  29.167  33.503  1.00  0.00    -0.354 N 
ATOM     56  N   UNL A   1      42.707  27.554  31.131  1.00  0.00    -0.248 NA
ATOM     57  C   UNL A   1      44.108  26.058  30.010  1.00  0.00     0.031 C 
ATOM     58  C   UNL A   1      43.349  28.919  35.308  1.00  0.00     0.029 A 
ATOM     59  C   UNL A   1      43.157  28.463  34.013  1.00  0.00     0.049 A 
ATOM     60  H   UNL A   1      41.714  29.058  32.596  1.00  0.00     0.167 HD
ATOM     61  C   UNL A   1      43.692  27.111  32.005  1.00  0.00     0.074 A 
ATOM     62  C   UNL A   1      44.503  26.160  31.273  1.00  0.00     0.031 C 
ATOM     63  C   UNL A   1      43.912  27.471  33.293  1.00  0.00     0.034 A 
BRANCH  50  64
ATOM     64  C   UNL A   1      40.097  31.861  35.383  1.00  0.00     0.023 A 
ATOM     65  C   UNL A   1      40.723  33.120  35.476  1.00  0.00     0.012 A 
ATOM     66  C   UNL A   1      39.093  31.518  36.308  1.00  0.00     0.148 A 
ATOM     67  C   UNL A   1      40.381  34.012  36.491  1.00  0.00     0.002 A 
ATOM     68  C   UNL A   1      38.729  32.428  37.296  1.00  0.00     0.091 A 
ATOM     69  F   UNL A   1      38.524  30.307  36.220  1.00  0.00    -0.205 F 
ATOM     70  C   UNL A   1      39.379  33.671  37.394  1.00  0.00     0.022 A 
BRANCH  68  71
ATOM     71  S   UNL A   1      37.401  32.106  38.461  1.00  0.00     0.127 S 
ATOM     72  O   UNL A   1      36.330  32.949  37.929  1.00  0.00    -0.237 OA
ATOM     73  O   UNL A   1      37.183  30.668  38.297  1.00  0.00    -0.237 OA
ATOM     74  O   UNL A   1      37.916  32.491  39.767  1.00  0.00    -0.744 OA
ENDBRANCH  68  71
ENDBRANCH  50  64
BRANCH  51  75
ATOM     75  C   UNL A   1      42.512  26.160  27.542  1.00  0.00     0.023 A 
ATOM     76  C   UNL A   1      43.329  26.723  26.542  1.00  0.00     0.012 A 
ATOM     77  C   UNL A   1      42.114  24.815  27.425  1.00  0.00     0.148 A 
ATOM     78  C   UNL A   1      43.719  25.972  25.433  1.00  0.00     0.002 A 
ATOM     79  C   UNL A   1      42.548  24.056  26.343  1.00  0.00     0.091 A 
ATOM     80  F   UNL A   1      41.327  24.298  28.380  1.00  0.00    -0.205 F 
ATOM     81  C   UNL A   1      43.338  24.636  25.338  1.00  0.00     0.022 A 
BRANCH  79  82
ATOM     82  S   UNL A   1      42.212  22.295  26.213  1.00  0.00     0.127 S 
ATOM     83  O   UNL A   1      40.756  22.275  26.106  1.00  0.00    -0.237 OA
ATOM     84  O   UNL A   1      42.926  21.936  24.987  1.00  0.00    -0.237 OA
ATOM     85  O   UNL A   1      42.772  21.705  27.422  1.00  0.00    -0.744 OA
ENDBRANCH  79  82
ENDBRANCH  51  75
BRANCH  63  86
ATOM     86  C   UNL A   1      45.058  26.815  34.016  1.00  0.00     0.023 A 
ATOM     87  C   UNL A   1      46.350  27.367  33.918  1.00  0.00     0.012 A 
ATOM     88  C   UNL A   1      44.837  25.712  34.864  1.00  0.00     0.148 A 
ATOM     89  C   UNL A   1      47.410  26.819  34.638  1.00  0.00     0.002 A 
ATOM     90  C   UNL A   1      45.889  25.197  35.611  1.00  0.00     0.091 A 
ATOM     91  F   UNL A   1      43.604  25.187  34.924  1.00  0.00    -0.205 F 
ATOM     92  C   UNL A   1      47.178  25.744  35.493  1.00  0.00     0.022 A 
BRANCH  90  93
ATOM     93  S   UNL A   1      45.659  23.874  36.805  1.00  0.00     0.127 S 
ATOM     94  O   UNL A   1      44.665  24.454  37.705  1.00  0.00    -0.237 OA
ATOM     95  O   UNL A   1      45.159  22.781  35.968  1.00  0.00    -0.237 OA
ATOM     96  O   UNL A   1      46.971  23.631  37.388  1.00  0.00    -0.744 OA
ENDBRANCH  90  93
ENDBRANCH  63  86
ENDBRANCH  37  38
ENDBRANCH  29  32
ENDBRANCH  27  28
ENDBRANCH   1  27
TORSDOF 17
ENDMDL
MODEL 2
REMARK VINA RESULT:     -12.9      1.618      3.304
REMARK SMILES Cc1cc(NC(=O)c2cccnc2)cc(C(=O)NCCCCNC(=O)c2ccc(-c3c4nc(c(-c5cccc(S(=O)(=O)[O-])c5F)c5ccc([nH]5)c(-c5cccc(S(=O)(=O)[O-])c5F)c5nc(c(-c6cccc(S(=O)(=O)[O-])c6F)c6ccc3[nH]6)C=C5)C=C4)cc2)c1O
REMARK SMILES IDX 21 1 20 2 19 3 18 4 16 5 17 6 15 8 1 9 2 10 3 11 89 12 4 13
REMARK SMILES IDX 14 14 90 15 5 17 6 18 7 20 8 21 9 22 13 23 10 24 12 25 11 26
REMARK SMILES IDX 22 27 23 28 24 29 25 31 26 32 27 33 88 34 28 35 87 36 29 37
REMARK SMILES IDX 30 38 31 39 81 40 32 41 86 42 80 43 82 44 33 45 85 46 79 47
REMARK SMILES IDX 78 48 34 50 66 51 46 52 65 53 47 54 50 55 64 56 83 57 48 58
REMARK SMILES IDX 49 59 63 61 84 62 51 63 35 64 36 65 44 66 37 67 39 68 45 69
REMARK SMILES IDX 38 70 40 71 41 72 42 73 43 74 67 75 68 76 76 77 69 78 71 79
REMARK SMILES IDX 77 80 70 81 72 82 73 83 74 84 75 85 52 86 53 87 61 88 54 89
REMARK SMILES IDX 56 90 62 91 55 92 57 93 58 94 59 95 60 96
REMARK H PARENT 18 7 90 16 5 19 23 30 82 49 50 60
REMARK Flexibility Score: inf
ROOT
ATOM      1  C   UNL A   1      32.285  29.470  24.975  1.00  0.00     0.023 C 
ENDROOT
BRANCH   1   2
ATOM      2  C   UNL A   1      33.565  29.012  24.272  1.00  0.00     0.023 C 
BRANCH   2   3
ATOM      3  C   UNL A   1      33.538  29.136  22.744  1.00  0.00     0.116 C 
BRANCH   3   4
ATOM      4  N   UNL A   1      33.719  27.841  22.117  1.00  0.00    -0.352 N 
ATOM      5  C   UNL A   1      33.224  26.584  22.370  1.00  0.00     0.255 C 
ATOM      6  O   UNL A   1      33.653  25.676  21.655  1.00  0.00    -0.269 OA
ATOM      7  H   UNL A   1      34.329  27.867  21.344  1.00  0.00     0.163 HD
BRANCH   5   8
ATOM      8  C   UNL A   1      32.253  26.253  23.464  1.00  0.00     0.083 A 
ATOM      9  C   UNL A   1      28.436  26.328  23.874  1.00  0.00     0.048 C 
ATOM     10  C   UNL A   1      29.894  26.087  24.143  1.00  0.00    -0.006 A 
ATOM     11  C   UNL A   1      30.284  25.357  25.268  1.00  0.00     0.033 A 
ATOM     12  C   UNL A   1      30.890  26.574  23.284  1.00  0.00     0.131 A 
ATOM     13  C   UNL A   1      31.635  25.119  25.535  1.00  0.00     0.042 A 
ATOM     14  C   UNL A   1      32.601  25.501  24.598  1.00  0.00     0.044 A 
BRANCH  12  15
ATOM     15  O   UNL A   1      30.491  27.425  22.287  1.00  0.00    -0.507 OA
ATOM     16  H   UNL A   1      31.119  27.970  21.857  1.00  0.00     0.293 HD
ENDBRANCH  12  15
BRANCH  13  17
ATOM     17  N   UNL A   1      31.919  24.434  26.729  1.00  0.00    -0.322 N 
ATOM     18  C   UNL A   1      32.208  23.116  26.987  1.00  0.00     0.257 C 
ATOM     19  H   UNL A   1      31.908  25.005  27.530  1.00  0.00     0.170 HD
ATOM     20  O   UNL A   1      32.151  22.698  28.142  1.00  0.00    -0.269 OA
BRANCH  18  21
ATOM     21  C   UNL A   1      32.700  22.209  25.939  1.00  0.00     0.058 A 
ATOM     22  C   UNL A   1      34.049  22.119  25.582  1.00  0.00     0.017 A 
ATOM     23  C   UNL A   1      31.805  21.332  25.349  1.00  0.00     0.124 A 
ATOM     24  C   UNL A   1      34.437  21.184  24.623  1.00  0.00     0.021 A 
ATOM     25  N   UNL A   1      32.153  20.446  24.384  1.00  0.00    -0.264 NA
ATOM     26  C   UNL A   1      33.463  20.377  24.057  1.00  0.00     0.111 A 
ENDBRANCH  18  21
ENDBRANCH  13  17
ENDBRANCH   5   8
ENDBRANCH   3   4
ENDBRANCH   2   3
ENDBRANCH   1   2
BRANCH   1  27
ATOM     27  C   UNL A   1      32.440  29.848  26.447  1.00  0.00     0.116 C 
BRANCH  27  28
ATOM     28  N   UNL A   1      32.286  31.267  26.737  1.00  0.00    -0.352 N 
ATOM     29  C   UNL A   1      33.188  32.099  27.371  1.00  0.00     0.251 C 
ATOM     30  H   UNL A   1      31.441  31.681  26.447  1.00  0.00     0.163 HD
ATOM     31  O   UNL A   1      32.924  33.265  27.621  1.00  0.00    -0.269 OA
BRANCH  29  32
ATOM     32  C   UNL A   1      34.497  31.541  27.776  1.00  0.00     0.039 A 
ATOM     33  C   UNL A   1      35.560  32.415  28.014  1.00  0.00     0.014 A 
ATOM     34  C   UNL A   1      34.642  30.168  27.991  1.00  0.00     0.014 A 
ATOM     35  C   UNL A   1      36.739  31.922  28.575  1.00  0.00     0.010 A 
ATOM     36  C   UNL A   1      35.792  29.690  28.609  1.00  0.00     0.010 A 
ATOM     37  C   UNL A   1      36.840  30.565  28.928  1.00  0.00    -0.014 A 
BRANCH  37  38
ATOM     38  C   UNL A   1      37.993  30.059  29.713  1.00  0.00     0.031 A 
ATOM     39  C   UNL A   1      38.240  30.545  31.112  1.00  0.00     0.074 A 
ATOM     40  C   UNL A   1      38.888  29.251  29.108  1.00  0.00     0.049 A 
ATOM     41  N   UNL A   1      39.228  30.258  31.919  1.00  0.00    -0.248 NA
ATOM     42  C   UNL A   1      37.268  31.502  31.667  1.00  0.00     0.031 C 
ATOM     43  C   UNL A   1      38.812  28.796  27.717  1.00  0.00     0.029 A 
ATOM     44  N   UNL A   1      40.054  28.695  29.573  1.00  0.00    -0.354 N 
ATOM     45  C   UNL A   1      39.018  31.020  33.061  1.00  0.00     0.074 A 
ATOM     46  C   UNL A   1      37.824  31.806  32.831  1.00  0.00     0.031 C 
ATOM     47  C   UNL A   1      39.878  28.028  27.445  1.00  0.00     0.029 A 
ATOM     48  C   UNL A   1      40.724  27.951  28.630  1.00  0.00     0.049 A 
ATOM     49  H   UNL A   1      40.378  28.816  30.494  1.00  0.00     0.167 HD
ATOM     50  C   UNL A   1      39.736  31.039  34.208  1.00  0.00     0.034 A 
ATOM     51  C   UNL A   1      41.889  27.277  28.712  1.00  0.00     0.034 A 
ATOM     52  C   UNL A   1      40.891  30.218  34.450  1.00  0.00     0.049 A 
ATOM     53  C   UNL A   1      42.624  27.255  30.025  1.00  0.00     0.074 A 
ATOM     54  C   UNL A   1      41.632  30.092  35.612  1.00  0.00     0.029 A 
ATOM     55  N   UNL A   1      41.475  29.381  33.511  1.00  0.00    -0.354 N 
ATOM     56  N   UNL A   1      42.310  27.841  31.155  1.00  0.00    -0.248 NA
ATOM     57  C   UNL A   1      43.850  26.446  30.087  1.00  0.00     0.031 C 
ATOM     58  C   UNL A   1      42.667  29.182  35.373  1.00  0.00     0.029 A 
ATOM     59  C   UNL A   1      42.565  28.734  34.066  1.00  0.00     0.049 A 
ATOM     60  H   UNL A   1      41.159  29.264  32.586  1.00  0.00     0.167 HD
ATOM     61  C   UNL A   1      43.276  27.444  32.071  1.00  0.00     0.074 A 
ATOM     62  C   UNL A   1      44.177  26.553  31.369  1.00  0.00     0.031 C 
ATOM     63  C   UNL A   1      43.412  27.799  33.372  1.00  0.00     0.034 A 
BRANCH  50  64
ATOM     64  C   UNL A   1      39.246  31.927  35.322  1.00  0.00     0.023 A 
ATOM     65  C   UNL A   1      38.289  31.427  36.227  1.00  0.00     0.012 A 
ATOM     66  C   UNL A   1      39.762  33.224  35.506  1.00  0.00     0.148 A 
ATOM     67  C   UNL A   1      37.827  32.215  37.280  1.00  0.00     0.002 A 
ATOM     68  C   UNL A   1      39.325  33.991  36.581  1.00  0.00     0.091 A 
ATOM     69  F   UNL A   1      40.653  33.692  34.621  1.00  0.00    -0.205 F 
ATOM     70  C   UNL A   1      38.351  33.491  37.463  1.00  0.00     0.022 A 
BRANCH  68  71
ATOM     71  S   UNL A   1      39.993  35.619  36.938  1.00  0.00     0.127 S 
ATOM     72  O   UNL A   1      39.305  35.954  38.185  1.00  0.00    -0.237 OA
ATOM     73  O   UNL A   1      41.423  35.345  37.086  1.00  0.00    -0.237 OA
ATOM     74  O   UNL A   1      39.654  36.448  35.790  1.00  0.00    -0.744 OA
ENDBRANCH  68  71
ENDBRANCH  50  64
BRANCH  51  75
ATOM     75  C   UNL A   1      42.372  26.489  27.545  1.00  0.00     0.023 A 
ATOM     76  C   UNL A   1      43.203  27.112  26.594  1.00  0.00     0.012 A 
ATOM     77  C   UNL A   1      42.059  25.125  27.393  1.00  0.00     0.148 A 
ATOM     78  C   UNL A   1      43.690  26.401  25.497  1.00  0.00     0.002 A 
ATOM     79  C   UNL A   1      42.589  24.408  26.325  1.00  0.00     0.091 A 
ATOM     80  F   UNL A   1      41.257  24.550  28.301  1.00  0.00    -0.205 F 
ATOM     81  C   UNL A   1      43.393  25.047  25.368  1.00  0.00     0.022 A 
BRANCH  79  82
ATOM     82  S   UNL A   1      42.364  22.633  26.158  1.00  0.00     0.127 S 
ATOM     83  O   UNL A   1      40.909  22.517  26.132  1.00  0.00    -0.237 OA
ATOM     84  O   UNL A   1      43.028  22.357  24.884  1.00  0.00    -0.237 OA
ATOM     85  O   UNL A   1      43.030  22.048  27.315  1.00  0.00    -0.744 OA
ENDBRANCH  79  82
ENDBRANCH  51  75
BRANCH  63  86
ATOM     86  C   UNL A   1      44.559  27.201  34.144  1.00  0.00     0.023 A 
ATOM     87  C   UNL A   1      45.778  27.899  34.230  1.00  0.00     0.012 A 
ATOM     88  C   UNL A   1      44.396  25.997  34.858  1.00  0.00     0.148 A 
ATOM     89  C   UNL A   1      46.827  27.399  34.999  1.00  0.00     0.002 A 
ATOM     90  C   UNL A   1      45.430  25.526  35.656  1.00  0.00     0.091 A 
ATOM     91  F   UNL A   1      43.234  25.336  34.742  1.00  0.00    -0.205 F 
ATOM     92  C   UNL A   1      46.650  26.221  35.722  1.00  0.00     0.022 A 
BRANCH  90  93
ATOM     93  S   UNL A   1      45.254  24.068  36.691  1.00  0.00     0.127 S 
ATOM     94  O   UNL A   1      46.635  23.822  37.099  1.00  0.00    -0.237 OA
ATOM     95  O   UNL A   1      44.378  24.548  37.762  1.00  0.00    -0.237 OA
ATOM     96  O   UNL A   1      44.657  23.047  35.841  1.00  0.00    -0.744 OA
ENDBRANCH  90  93
ENDBRANCH  63  86
ENDBRANCH  37  38
ENDBRANCH  29  32
ENDBRANCH  27  28
ENDBRANCH   1  27
TORSDOF 17
ENDMDL
MODEL 3
REMARK VINA RESULT:     -12.9      5.194     10.075
REMARK SMILES Cc1cc(NC(=O)c2cccnc2)cc(C(=O)NCCCCNC(=O)c2ccc(-c3c4nc(c(-c5cccc(S(=O)(=O)[O-])c5F)c5ccc([nH]5)c(-c5cccc(S(=O)(=O)[O-])c5F)c5nc(c(-c6cccc(S(=O)(=O)[O-])c6F)c6ccc3[nH]6)C=C5)C=C4)cc2)c1O
REMARK SMILES IDX 21 1 20 2 19 3 18 4 16 5 17 6 15 8 1 9 2 10 3 11 89 12 4 13
REMARK SMILES IDX 14 14 90 15 5 17 6 18 7 20 8 21 9 22 13 23 10 24 12 25 11 26
REMARK SMILES IDX 22 27 23 28 24 29 25 31 26 32 27 33 88 34 28 35 87 36 29 37
REMARK SMILES IDX 30 38 31 39 81 40 32 41 86 42 80 43 82 44 33 45 85 46 79 47
REMARK SMILES IDX 78 48 34 50 66 51 46 52 65 53 47 54 50 55 64 56 83 57 48 58
REMARK SMILES IDX 49 59 63 61 84 62 51 63 35 64 36 65 44 66 37 67 39 68 45 69
REMARK SMILES IDX 38 70 40 71 41 72 42 73 43 74 67 75 68 76 76 77 69 78 71 79
REMARK SMILES IDX 77 80 70 81 72 82 73 83 74 84 75 85 52 86 53 87 61 88 54 89
REMARK SMILES IDX 56 90 62 91 55 92 57 93 58 94 59 95 60 96
REMARK H PARENT 18 7 90 16 5 19 23 30 82 49 50 60
REMARK Flexibility Score: inf
ROOT
ATOM      1  C   UNL A   1      35.699  22.498  24.257  1.00  0.00     0.023 C 
ENDROOT
BRANCH   1   2
ATOM      2  C   UNL A   1      35.374  23.977  24.040  1.00  0.00     0.023 C 
BRANCH   2   3
ATOM      3  C   UNL A   1      33.902  24.273  23.731  1.00  0.00     0.116 C 
BRANCH   3   4
ATOM      4  N   UNL A   1      33.762  24.902  22.432  1.00  0.00    -0.352 N 
ATOM      5  C   UNL A   1      33.008  25.948  21.959  1.00  0.00     0.255 C 
ATOM      6  O   UNL A   1      33.092  26.178  20.750  1.00  0.00    -0.269 OA
ATOM      7  H   UNL A   1      34.330  24.491  21.740  1.00  0.00     0.163 HD
BRANCH   5   8
ATOM      8  C   UNL A   1      32.078  26.777  22.794  1.00  0.00     0.083 A 
ATOM      9  C   UNL A   1      32.433  29.800  25.134  1.00  0.00     0.048 C 
ATOM     10  C   UNL A   1      31.829  28.706  24.300  1.00  0.00    -0.006 A 
ATOM     11  C   UNL A   1      30.445  28.640  24.133  1.00  0.00     0.033 A 
ATOM     12  C   UNL A   1      32.625  27.737  23.672  1.00  0.00     0.131 A 
ATOM     13  C   UNL A   1      29.862  27.632  23.360  1.00  0.00     0.042 A 
ATOM     14  C   UNL A   1      30.682  26.757  22.638  1.00  0.00     0.044 A 
BRANCH  12  15
ATOM     15  O   UNL A   1      33.958  27.725  23.990  1.00  0.00    -0.507 OA
ATOM     16  H   UNL A   1      34.445  26.927  23.935  1.00  0.00     0.293 HD
ENDBRANCH  12  15
BRANCH  13  17
ATOM     17  N   UNL A   1      28.458  27.619  23.314  1.00  0.00    -0.322 N 
ATOM     18  C   UNL A   1      27.531  28.628  23.217  1.00  0.00     0.257 C 
ATOM     19  H   UNL A   1      28.065  26.718  23.360  1.00  0.00     0.170 HD
ATOM     20  O   UNL A   1      26.351  28.393  23.471  1.00  0.00    -0.269 OA
BRANCH  18  21
ATOM     21  C   UNL A   1      27.884  29.961  22.705  1.00  0.00     0.058 A 
ATOM     22  C   UNL A   1      28.226  30.198  21.371  1.00  0.00     0.017 A 
ATOM     23  C   UNL A   1      27.774  31.047  23.558  1.00  0.00     0.124 A 
ATOM     24  C   UNL A   1      28.484  31.504  20.957  1.00  0.00     0.021 A 
ATOM     25  N   UNL A   1      28.061  32.319  23.188  1.00  0.00    -0.264 NA
ATOM     26  C   UNL A   1      28.389  32.523  21.892  1.00  0.00     0.111 A 
ENDBRANCH  18  21
ENDBRANCH  13  17
ENDBRANCH   5   8
ENDBRANCH   3   4
ENDBRANCH   2   3
ENDBRANCH   1   2
BRANCH   1  27
ATOM     27  C   UNL A   1      36.382  22.160  25.581  1.00  0.00     0.116 C 
BRANCH  27  28
ATOM     28  N   UNL A   1      37.440  21.162  25.490  1.00  0.00    -0.352 N 
ATOM     29  C   UNL A   1      38.760  21.297  25.873  1.00  0.00     0.251 C 
ATOM     30  H   UNL A   1      37.183  20.289  25.112  1.00  0.00     0.163 HD
ATOM     31  O   UNL A   1      39.579  20.410  25.687  1.00  0.00    -0.269 OA
BRANCH  29  32
ATOM     32  C   UNL A   1      39.185  22.567  26.500  1.00  0.00     0.039 A 
ATOM     33  C   UNL A   1      40.236  22.548  27.420  1.00  0.00     0.014 A 
ATOM     34  C   UNL A   1      38.596  23.774  26.116  1.00  0.00     0.014 A 
ATOM     35  C   UNL A   1      40.769  23.756  27.875  1.00  0.00     0.010 A 
ATOM     36  C   UNL A   1      39.169  24.975  26.520  1.00  0.00     0.010 A 
ATOM     37  C   UNL A   1      40.275  24.976  27.382  1.00  0.00    -0.014 A 
BRANCH  37  38
ATOM     38  C   UNL A   1      40.957  26.259  27.685  1.00  0.00     0.031 A 
ATOM     39  C   UNL A   1      42.377  26.491  27.258  1.00  0.00     0.074 A 
ATOM     40  C   UNL A   1      40.325  27.165  28.458  1.00  0.00     0.049 A 
ATOM     41  N   UNL A   1      43.146  27.522  27.488  1.00  0.00    -0.248 NA
ATOM     42  C   UNL A   1      43.030  25.411  26.498  1.00  0.00     0.031 C 
ATOM     43  C   UNL A   1      38.982  27.006  29.024  1.00  0.00     0.029 A 
ATOM     44  N   UNL A   1      40.738  28.386  28.931  1.00  0.00    -0.354 N 
ATOM     45  C   UNL A   1      44.380  27.207  26.935  1.00  0.00     0.074 A 
ATOM     46  C   UNL A   1      44.267  25.873  26.383  1.00  0.00     0.031 C 
ATOM     47  C   UNL A   1      38.681  28.087  29.759  1.00  0.00     0.029 A 
ATOM     48  C   UNL A   1      39.813  29.008  29.736  1.00  0.00     0.049 A 
ATOM     49  H   UNL A   1      41.613  28.780  28.712  1.00  0.00     0.167 HD
ATOM     50  C   UNL A   1      45.496  27.970  26.865  1.00  0.00     0.034 A 
ATOM     51  C   UNL A   1      39.867  30.190  30.383  1.00  0.00     0.034 A 
ATOM     52  C   UNL A   1      45.586  29.313  27.370  1.00  0.00     0.049 A 
ATOM     53  C   UNL A   1      41.091  31.050  30.222  1.00  0.00     0.074 A 
ATOM     54  C   UNL A   1      46.639  30.205  27.264  1.00  0.00     0.029 A 
ATOM     55  N   UNL A   1      44.584  29.960  28.077  1.00  0.00    -0.354 N 
ATOM     56  N   UNL A   1      42.184  30.807  29.540  1.00  0.00    -0.248 NA
ATOM     57  C   UNL A   1      41.074  32.362  30.885  1.00  0.00     0.031 C 
ATOM     58  C   UNL A   1      46.274  31.390  27.912  1.00  0.00     0.029 A 
ATOM     59  C   UNL A   1      44.991  31.239  28.414  1.00  0.00     0.049 A 
ATOM     60  H   UNL A   1      43.711  29.567  28.306  1.00  0.00     0.167 HD
ATOM     61  C   UNL A   1      42.968  31.948  29.659  1.00  0.00     0.074 A 
ATOM     62  C   UNL A   1      42.217  32.889  30.465  1.00  0.00     0.031 C 
ATOM     63  C   UNL A   1      44.205  32.187  29.159  1.00  0.00     0.034 A 
BRANCH  50  64
ATOM     64  C   UNL A   1      46.690  27.394  26.150  1.00  0.00     0.023 A 
ATOM     65  C   UNL A   1      46.781  27.526  24.750  1.00  0.00     0.012 A 
ATOM     66  C   UNL A   1      47.739  26.775  26.856  1.00  0.00     0.148 A 
ATOM     67  C   UNL A   1      47.881  27.022  24.057  1.00  0.00     0.002 A 
ATOM     68  C   UNL A   1      48.851  26.308  26.163  1.00  0.00     0.091 A 
ATOM     69  F   UNL A   1      47.625  26.636  28.184  1.00  0.00    -0.205 F 
ATOM     70  C   UNL A   1      48.919  26.423  24.764  1.00  0.00     0.022 A 
BRANCH  68  71
ATOM     71  S   UNL A   1      50.270  25.584  26.994  1.00  0.00     0.127 S 
ATOM     72  O   UNL A   1      49.687  24.375  27.575  1.00  0.00    -0.237 OA
ATOM     73  O   UNL A   1      51.193  25.343  25.884  1.00  0.00    -0.237 OA
ATOM     74  O   UNL A   1      50.724  26.585  27.948  1.00  0.00    -0.744 OA
ENDBRANCH  68  71
ENDBRANCH  50  64
BRANCH  51  75
ATOM     75  C   UNL A   1      38.685  30.667  31.153  1.00  0.00     0.023 A 
ATOM     76  C   UNL A   1      38.667  30.502  32.553  1.00  0.00     0.012 A 
ATOM     77  C   UNL A   1      37.608  31.321  30.526  1.00  0.00     0.148 A 
ATOM     78  C   UNL A   1      37.586  30.953  33.309  1.00  0.00     0.002 A 
ATOM     79  C   UNL A   1      36.557  31.815  31.292  1.00  0.00     0.091 A 
ATOM     80  F   UNL A   1      37.636  31.460  29.193  1.00  0.00    -0.205 F 
ATOM     81  C   UNL A   1      36.537  31.619  32.682  1.00  0.00     0.022 A 
BRANCH  79  82
ATOM     82  S   UNL A   1      35.232  32.798  30.580  1.00  0.00     0.127 S 
ATOM     83  O   UNL A   1      35.944  34.005  30.168  1.00  0.00    -0.237 OA
ATOM     84  O   UNL A   1      34.774  31.947  29.482  1.00  0.00    -0.237 OA
ATOM     85  O   UNL A   1      34.258  32.966  31.651  1.00  0.00    -0.744 OA
ENDBRANCH  79  82
ENDBRANCH  51  75
BRANCH  63  86
ATOM     86  C   UNL A   1      44.823  33.532  29.435  1.00  0.00     0.023 A 
ATOM     87  C   UNL A   1      45.563  33.728  30.616  1.00  0.00     0.012 A 
ATOM     88  C   UNL A   1      44.749  34.567  28.482  1.00  0.00     0.148 A 
ATOM     89  C   UNL A   1      46.205  34.942  30.857  1.00  0.00     0.002 A 
ATOM     90  C   UNL A   1      45.426  35.759  28.708  1.00  0.00     0.091 A 
ATOM     91  F   UNL A   1      44.019  34.367  27.374  1.00  0.00    -0.205 F 
ATOM     92  C   UNL A   1      46.147  35.952  29.898  1.00  0.00     0.022 A 
BRANCH  90  93
ATOM     93  S   UNL A   1      45.480  37.076  27.487  1.00  0.00     0.127 S 
ATOM     94  O   UNL A   1      46.034  36.383  26.326  1.00  0.00    -0.237 OA
ATOM     95  O   UNL A   1      44.068  37.445  27.361  1.00  0.00    -0.237 OA
ATOM     96  O   UNL A   1      46.323  38.116  28.061  1.00  0.00    -0.744 OA
ENDBRANCH  90  93
ENDBRANCH  63  86
ENDBRANCH  37  38
ENDBRANCH  29  32
ENDBRANCH  27  28
ENDBRANCH   1  27
TORSDOF 17
ENDMDL
