MODEL 1
REMARK VINA RESULT:     -12.0      0.000      0.000
REMARK SMILES CC(=O)Nc1cccc(NC(=O)N[C@H](C(=O)NCCCCNC(=O)c2ccc(-c3c4nc(c(-c5cccc(S(=O)(=O)[O-])c5F)c5ccc([nH]5)c(-c5cccc(S(=O)(=O)[O-])c5F)c5nc(c(-c6cccc(S(=O)(=O)[O-])c6F)c6ccc3[nH]6)C=C5)C=C4)cc2)C(C)C)c1
REMARK SMILES IDX 19 1 18 2 17 3 15 4 16 5 14 7 13 8 10 9 11 10 12 12 9 14
REMARK SMILES IDX 5 15 6 16 91 17 7 18 8 19 4 20 1 21 2 22 3 23 88 25 89 26
REMARK SMILES IDX 90 27 20 28 21 29 22 30 23 31 24 33 25 34 26 35 87 36 27 37
REMARK SMILES IDX 86 38 28 39 29 40 30 41 80 42 31 43 85 44 79 45 81 46 32 47
REMARK SMILES IDX 84 48 78 49 77 50 33 52 65 53 45 54 64 55 46 56 49 57 63 58
REMARK SMILES IDX 82 59 47 60 48 61 62 63 83 64 50 65 34 66 35 67 43 68 36 69
REMARK SMILES IDX 38 70 44 71 37 72 39 73 40 74 41 75 42 76 66 77 67 78 75 79
REMARK SMILES IDX 68 80 70 81 76 82 69 83 71 84 72 85 73 86 74 87 51 88 52 89
REMARK SMILES IDX 60 90 53 91 55 92 61 93 54 94 56 95 57 96 58 97 59 98
REMARK H PARENT 17 6 10 11 13 13 4 24 22 32 81 51 49 62
REMARK Flexibility Score: inf
ROOT
ATOM      1  C   UNL A   1      31.394  31.051  25.817  1.00  0.00     0.023 C 
ENDROOT
BRANCH   1   2
ATOM      2  C   UNL A   1      31.571  29.810  26.690  1.00  0.00     0.116 C 
BRANCH   2   3
ATOM      3  N   UNL A   1      32.970  29.484  26.901  1.00  0.00    -0.354 N 
ATOM      4  C   UNL A   1      33.734  28.531  26.279  1.00  0.00     0.242 C 
ATOM      5  O   UNL A   1      34.824  28.276  26.793  1.00  0.00    -0.273 OA
ATOM      6  H   UNL A   1      33.434  30.022  27.583  1.00  0.00     0.163 HD
BRANCH   4   7
ATOM      7  C   UNL A   1      33.121  27.678  25.129  1.00  0.00     0.175 C 
BRANCH   7   8
ATOM      8  N   UNL A   1      33.761  27.848  23.811  1.00  0.00    -0.326 N 
ATOM      9  N   UNL A   1      32.235  28.299  22.007  1.00  0.00    -0.308 N 
ATOM     10  C   UNL A   1      33.446  28.174  22.560  1.00  0.00     0.319 C 
ATOM     11  H   UNL A   1      32.293  28.202  21.029  1.00  0.00     0.171 HD
ATOM     12  O   UNL A   1      34.412  28.233  21.785  1.00  0.00    -0.248 OA
ATOM     13  H   UNL A   1      34.726  27.659  23.877  1.00  0.00     0.166 HD
BRANCH   9  14
ATOM     14  C   UNL A   1      30.906  28.524  22.396  1.00  0.00     0.044 A 
ATOM     15  C   UNL A   1      29.123  30.155  22.785  1.00  0.00     0.043 A 
ATOM     16  C   UNL A   1      28.305  29.134  23.270  1.00  0.00     0.026 A 
ATOM     17  C   UNL A   1      30.419  29.845  22.346  1.00  0.00     0.052 A 
ATOM     18  C   UNL A   1      28.783  27.834  23.339  1.00  0.00     0.004 A 
ATOM     19  C   UNL A   1      30.089  27.554  22.944  1.00  0.00     0.026 A 
BRANCH  15  20
ATOM     20  N   UNL A   1      28.604  31.454  22.877  1.00  0.00    -0.326 N 
ATOM     21  C   UNL A   1      28.097  31.991  20.505  1.00  0.00     0.114 C 
ATOM     22  C   UNL A   1      28.293  32.392  21.939  1.00  0.00     0.221 C 
ATOM     23  O   UNL A   1      28.114  33.552  22.311  1.00  0.00    -0.275 OA
ATOM     24  H   UNL A   1      28.428  31.744  23.801  1.00  0.00     0.169 HD
ENDBRANCH  15  20
ENDBRANCH   9  14
ENDBRANCH   7   8
BRANCH   7  25
ATOM     25  C   UNL A   1      32.705  26.184  25.337  1.00  0.00     0.015 C 
ATOM     26  C   UNL A   1      33.797  25.227  25.818  1.00  0.00     0.010 C 
ATOM     27  C   UNL A   1      31.529  26.092  26.329  1.00  0.00     0.010 C 
ENDBRANCH   7  25
ENDBRANCH   4   7
ENDBRANCH   2   3
ENDBRANCH   1   2
BRANCH   1  28
ATOM     28  C   UNL A   1      31.287  32.366  26.593  1.00  0.00     0.023 C 
BRANCH  28  29
ATOM     29  C   UNL A   1      32.584  32.848  27.242  1.00  0.00     0.116 C 
BRANCH  29  30
ATOM     30  N   UNL A   1      32.472  34.194  27.790  1.00  0.00    -0.352 N 
ATOM     31  C   UNL A   1      33.185  34.798  28.799  1.00  0.00     0.251 C 
ATOM     32  H   UNL A   1      31.780  34.757  27.375  1.00  0.00     0.163 HD
ATOM     33  O   UNL A   1      32.820  35.886  29.238  1.00  0.00    -0.269 OA
BRANCH  31  34
ATOM     34  C   UNL A   1      34.378  34.135  29.368  1.00  0.00     0.039 A 
ATOM     35  C   UNL A   1      35.648  34.520  28.925  1.00  0.00     0.014 A 
ATOM     36  C   UNL A   1      34.245  33.129  30.327  1.00  0.00     0.014 A 
ATOM     37  C   UNL A   1      36.786  33.948  29.502  1.00  0.00     0.010 A 
ATOM     38  C   UNL A   1      35.378  32.612  30.947  1.00  0.00     0.010 A 
ATOM     39  C   UNL A   1      36.661  33.015  30.544  1.00  0.00    -0.014 A 
BRANCH  39  40
ATOM     40  C   UNL A   1      37.845  32.446  31.238  1.00  0.00     0.031 A 
ATOM     41  C   UNL A   1      38.591  31.290  30.626  1.00  0.00     0.074 A 
ATOM     42  C   UNL A   1      38.173  32.884  32.469  1.00  0.00     0.049 A 
ATOM     43  N   UNL A   1      39.552  30.566  31.136  1.00  0.00    -0.248 NA
ATOM     44  C   UNL A   1      38.175  30.872  29.276  1.00  0.00     0.031 C 
ATOM     45  C   UNL A   1      37.485  33.949  33.201  1.00  0.00     0.029 A 
ATOM     46  N   UNL A   1      39.146  32.460  33.340  1.00  0.00    -0.354 N 
ATOM     47  C   UNL A   1      39.822  29.579  30.195  1.00  0.00     0.074 A 
ATOM     48  C   UNL A   1      38.907  29.783  29.093  1.00  0.00     0.031 C 
ATOM     49  C   UNL A   1      38.050  34.088  34.412  1.00  0.00     0.029 A 
ATOM     50  C   UNL A   1      39.119  33.105  34.556  1.00  0.00     0.049 A 
ATOM     51  H   UNL A   1      39.801  31.760  33.117  1.00  0.00     0.167 HD
ATOM     52  C   UNL A   1      40.764  28.606  30.231  1.00  0.00     0.034 A 
ATOM     53  C   UNL A   1      39.862  32.918  35.665  1.00  0.00     0.034 A 
ATOM     54  C   UNL A   1      41.714  28.445  31.298  1.00  0.00     0.049 A 
ATOM     55  C   UNL A   1      40.944  31.872  35.654  1.00  0.00     0.074 A 
ATOM     56  C   UNL A   1      42.765  27.550  31.386  1.00  0.00     0.029 A 
ATOM     57  N   UNL A   1      41.732  29.199  32.461  1.00  0.00    -0.354 N 
ATOM     58  N   UNL A   1      41.283  31.047  34.693  1.00  0.00    -0.248 NA
ATOM     59  C   UNL A   1      41.770  31.753  36.864  1.00  0.00     0.031 C 
ATOM     60  C   UNL A   1      43.416  27.759  32.607  1.00  0.00     0.029 A 
ATOM     61  C   UNL A   1      42.777  28.793  33.272  1.00  0.00     0.049 A 
ATOM     62  H   UNL A   1      41.094  29.916  32.679  1.00  0.00     0.167 HD
ATOM     63  C   UNL A   1      42.385  30.342  35.166  1.00  0.00     0.074 A 
ATOM     64  C   UNL A   1      42.666  30.848  36.494  1.00  0.00     0.031 C 
ATOM     65  C   UNL A   1      43.090  29.355  34.561  1.00  0.00     0.034 A 
BRANCH  52  66
ATOM     66  C   UNL A   1      40.857  27.677  29.049  1.00  0.00     0.023 A 
ATOM     67  C   UNL A   1      40.021  26.543  28.993  1.00  0.00     0.012 A 
ATOM     68  C   UNL A   1      41.722  27.952  27.972  1.00  0.00     0.148 A 
ATOM     69  C   UNL A   1      40.070  25.676  27.903  1.00  0.00     0.002 A 
ATOM     70  C   UNL A   1      41.734  27.107  26.867  1.00  0.00     0.091 A 
ATOM     71  F   UNL A   1      42.524  29.023  28.050  1.00  0.00    -0.205 F 
ATOM     72  C   UNL A   1      40.918  25.964  26.836  1.00  0.00     0.022 A 
BRANCH  70  73
ATOM     73  S   UNL A   1      42.732  27.434  25.410  1.00  0.00     0.127 S 
ATOM     74  O   UNL A   1      42.507  26.223  24.621  1.00  0.00    -0.237 OA
ATOM     75  O   UNL A   1      42.104  28.639  24.868  1.00  0.00    -0.237 OA
ATOM     76  O   UNL A   1      44.092  27.627  25.893  1.00  0.00    -0.744 OA
ENDBRANCH  70  73
ENDBRANCH  52  66
BRANCH  53  77
ATOM     77  C   UNL A   1      39.660  33.796  36.852  1.00  0.00     0.023 A 
ATOM     78  C   UNL A   1      40.086  35.137  36.793  1.00  0.00     0.012 A 
ATOM     79  C   UNL A   1      39.026  33.328  38.019  1.00  0.00     0.148 A 
ATOM     80  C   UNL A   1      39.913  35.989  37.885  1.00  0.00     0.002 A 
ATOM     81  C   UNL A   1      38.809  34.195  39.084  1.00  0.00     0.091 A 
ATOM     82  F   UNL A   1      38.638  32.045  38.062  1.00  0.00    -0.205 F 
ATOM     83  C   UNL A   1      39.266  35.522  39.025  1.00  0.00     0.022 A 
BRANCH  81  84
ATOM     84  S   UNL A   1      37.868  33.716  40.538  1.00  0.00     0.127 S 
ATOM     85  O   UNL A   1      38.747  32.725  41.151  1.00  0.00    -0.237 OA
ATOM     86  O   UNL A   1      37.765  34.983  41.265  1.00  0.00    -0.237 OA
ATOM     87  O   UNL A   1      36.598  33.215  40.031  1.00  0.00    -0.744 OA
ENDBRANCH  81  84
ENDBRANCH  53  77
BRANCH  65  88
ATOM     88  C   UNL A   1      44.271  28.781  35.296  1.00  0.00     0.023 A 
ATOM     89  C   UNL A   1      45.553  29.330  35.098  1.00  0.00     0.012 A 
ATOM     90  C   UNL A   1      44.093  27.763  36.254  1.00  0.00     0.148 A 
ATOM     91  C   UNL A   1      46.645  28.858  35.826  1.00  0.00     0.002 A 
ATOM     92  C   UNL A   1      45.177  27.330  37.007  1.00  0.00     0.091 A 
ATOM     93  F   UNL A   1      42.868  27.240  36.412  1.00  0.00    -0.205 F 
ATOM     94  C   UNL A   1      46.455  27.869  36.788  1.00  0.00     0.022 A 
BRANCH  92  95
ATOM     95  S   UNL A   1      45.007  26.128  38.333  1.00  0.00     0.127 S 
ATOM     96  O   UNL A   1      46.402  25.856  38.671  1.00  0.00    -0.237 OA
ATOM     97  O   UNL A   1      44.269  26.884  39.346  1.00  0.00    -0.237 OA
ATOM     98  O   UNL A   1      44.269  25.008  37.764  1.00  0.00    -0.744 OA
ENDBRANCH  92  95
ENDBRANCH  65  88
ENDBRANCH  39  40
ENDBRANCH  31  34
ENDBRANCH  29  30
ENDBRANCH  28  29
ENDBRANCH   1  28
TORSDOF 18
ENDMDL
MODEL 2
REMARK VINA RESULT:     -11.6      6.298     11.531
REMARK SMILES CC(=O)Nc1cccc(NC(=O)N[C@H](C(=O)NCCCCNC(=O)c2ccc(-c3c4nc(c(-c5cccc(S(=O)(=O)[O-])c5F)c5ccc([nH]5)c(-c5cccc(S(=O)(=O)[O-])c5F)c5nc(c(-c6cccc(S(=O)(=O)[O-])c6F)c6ccc3[nH]6)C=C5)C=C4)cc2)C(C)C)c1
REMARK SMILES IDX 19 1 18 2 17 3 15 4 16 5 14 7 13 8 10 9 11 10 12 12 9 14
REMARK SMILES IDX 5 15 6 16 91 17 7 18 8 19 4 20 1 21 2 22 3 23 88 25 89 26
REMARK SMILES IDX 90 27 20 28 21 29 22 30 23 31 24 33 25 34 26 35 87 36 27 37
REMARK SMILES IDX 86 38 28 39 29 40 30 41 80 42 31 43 85 44 79 45 81 46 32 47
REMARK SMILES IDX 84 48 78 49 77 50 33 52 65 53 45 54 64 55 46 56 49 57 63 58
REMARK SMILES IDX 82 59 47 60 48 61 62 63 83 64 50 65 34 66 35 67 43 68 36 69
REMARK SMILES IDX 38 70 44 71 37 72 39 73 40 74 41 75 42 76 66 77 67 78 75 79
REMARK SMILES IDX 68 80 70 81 76 82 69 83 71 84 72 85 73 86 74 87 51 88 52 89
REMARK SMILES IDX 60 90 53 91 55 92 61 93 54 94 56 95 57 96 58 97 59 98
REMARK H PARENT 17 6 10 11 13 13 4 24 22 32 81 51 49 62
REMARK Flexibility Score: inf
ROOT
ATOM      1  C   UNL A   1      36.051  22.835  23.456  1.00  0.00     0.023 C 
ENDROOT
BRANCH   1   2
ATOM      2  C   UNL A   1      34.676  23.370  23.058  1.00  0.00     0.116 C 
BRANCH   2   3
ATOM      3  N   UNL A   1      34.424  24.691  23.605  1.00  0.00    -0.354 N 
ATOM      4  C   UNL A   1      33.437  25.088  24.470  1.00  0.00     0.242 C 
ATOM      5  O   UNL A   1      33.276  26.303  24.601  1.00  0.00    -0.273 OA
ATOM      6  H   UNL A   1      35.046  25.397  23.317  1.00  0.00     0.163 HD
BRANCH   4   7
ATOM      7  C   UNL A   1      32.446  24.036  25.051  1.00  0.00     0.175 C 
BRANCH   7   8
ATOM      8  N   UNL A   1      32.707  23.631  26.445  1.00  0.00    -0.326 N 
ATOM      9  N   UNL A   1      32.769  21.252  26.800  1.00  0.00    -0.308 N 
ATOM     10  C   UNL A   1      32.920  22.531  27.162  1.00  0.00     0.319 C 
ATOM     11  H   UNL A   1      32.657  20.682  27.596  1.00  0.00     0.171 HD
ATOM     12  O   UNL A   1      33.157  22.737  28.362  1.00  0.00    -0.248 OA
ATOM     13  H   UNL A   1      32.728  24.423  27.028  1.00  0.00     0.166 HD
BRANCH   9  14
ATOM     14  C   UNL A   1      32.720  20.476  25.633  1.00  0.00     0.044 A 
ATOM     15  C   UNL A   1      33.363  18.394  24.517  1.00  0.00     0.043 A 
ATOM     16  C   UNL A   1      32.808  18.869  23.328  1.00  0.00     0.026 A 
ATOM     17  C   UNL A   1      33.312  19.198  25.666  1.00  0.00     0.052 A 
ATOM     18  C   UNL A   1      32.239  20.133  23.282  1.00  0.00     0.004 A 
ATOM     19  C   UNL A   1      32.242  20.935  24.421  1.00  0.00     0.026 A 
BRANCH  15  20
ATOM     20  N   UNL A   1      34.032  17.165  24.434  1.00  0.00    -0.326 N 
ATOM     21  C   UNL A   1      32.533  15.657  25.719  1.00  0.00     0.114 C 
ATOM     22  C   UNL A   1      33.846  15.969  25.059  1.00  0.00     0.221 C 
ATOM     23  O   UNL A   1      34.751  15.136  25.007  1.00  0.00    -0.275 OA
ATOM     24  H   UNL A   1      34.784  17.167  23.799  1.00  0.00     0.169 HD
ENDBRANCH  15  20
ENDBRANCH   9  14
ENDBRANCH   7   8
BRANCH   7  25
ATOM     25  C   UNL A   1      30.906  24.117  24.792  1.00  0.00     0.015 C 
ATOM     26  C   UNL A   1      30.125  25.147  25.611  1.00  0.00     0.010 C 
ATOM     27  C   UNL A   1      30.629  24.395  23.302  1.00  0.00     0.010 C 
ENDBRANCH   7  25
ENDBRANCH   4   7
ENDBRANCH   2   3
ENDBRANCH   1   2
BRANCH   1  28
ATOM     28  C   UNL A   1      36.017  21.653  24.427  1.00  0.00     0.023 C 
BRANCH  28  29
ATOM     29  C   UNL A   1      36.887  21.808  25.674  1.00  0.00     0.116 C 
BRANCH  29  30
ATOM     30  N   UNL A   1      37.891  20.757  25.794  1.00  0.00    -0.352 N 
ATOM     31  C   UNL A   1      39.220  20.842  26.133  1.00  0.00     0.251 C 
ATOM     32  H   UNL A   1      37.567  19.848  25.601  1.00  0.00     0.163 HD
ATOM     33  O   UNL A   1      39.947  19.860  26.005  1.00  0.00    -0.269 OA
BRANCH  31  34
ATOM     34  C   UNL A   1      39.780  22.114  26.637  1.00  0.00     0.039 A 
ATOM     35  C   UNL A   1      40.758  22.081  27.638  1.00  0.00     0.014 A 
ATOM     36  C   UNL A   1      39.336  23.337  26.132  1.00  0.00     0.014 A 
ATOM     37  C   UNL A   1      41.342  23.273  28.076  1.00  0.00     0.010 A 
ATOM     38  C   UNL A   1      39.968  24.515  26.520  1.00  0.00     0.010 A 
ATOM     39  C   UNL A   1      40.978  24.497  27.495  1.00  0.00    -0.014 A 
BRANCH  39  40
ATOM     40  C   UNL A   1      41.634  25.775  27.874  1.00  0.00     0.031 A 
ATOM     41  C   UNL A   1      40.852  26.833  28.606  1.00  0.00     0.074 A 
ATOM     42  C   UNL A   1      42.888  26.034  27.455  1.00  0.00     0.049 A 
ATOM     43  N   UNL A   1      41.195  28.060  28.899  1.00  0.00    -0.248 NA
ATOM     44  C   UNL A   1      39.489  26.473  29.035  1.00  0.00     0.031 C 
ATOM     45  C   UNL A   1      43.727  25.120  26.676  1.00  0.00     0.029 A 
ATOM     46  N   UNL A   1      43.663  27.160  27.591  1.00  0.00    -0.354 N 
ATOM     47  C   UNL A   1      40.080  28.634  29.497  1.00  0.00     0.074 A 
ATOM     48  C   UNL A   1      39.040  27.627  29.507  1.00  0.00     0.031 C 
ATOM     49  C   UNL A   1      44.893  25.724  26.396  1.00  0.00     0.029 A 
ATOM     50  C   UNL A   1      44.876  27.076  26.946  1.00  0.00     0.049 A 
ATOM     51  H   UNL A   1      43.378  27.952  28.100  1.00  0.00     0.167 HD
ATOM     52  C   UNL A   1      39.940  29.877  30.018  1.00  0.00     0.034 A 
ATOM     53  C   UNL A   1      45.859  27.988  26.804  1.00  0.00     0.034 A 
ATOM     54  C   UNL A   1      40.994  30.852  30.065  1.00  0.00     0.049 A 
ATOM     55  C   UNL A   1      45.702  29.339  27.447  1.00  0.00     0.074 A 
ATOM     56  C   UNL A   1      40.981  32.105  30.654  1.00  0.00     0.029 A 
ATOM     57  N   UNL A   1      42.252  30.684  29.508  1.00  0.00    -0.354 N 
ATOM     58  N   UNL A   1      44.695  29.810  28.142  1.00  0.00    -0.248 NA
ATOM     59  C   UNL A   1      46.830  30.274  27.319  1.00  0.00     0.031 C 
ATOM     60  C   UNL A   1      42.231  32.698  30.445  1.00  0.00     0.029 A 
ATOM     61  C   UNL A   1      43.026  31.808  29.740  1.00  0.00     0.049 A 
ATOM     62  H   UNL A   1      42.550  29.884  29.018  1.00  0.00     0.167 HD
ATOM     63  C   UNL A   1      45.083  31.075  28.569  1.00  0.00     0.074 A 
ATOM     64  C   UNL A   1      46.424  31.293  28.066  1.00  0.00     0.031 C 
ATOM     65  C   UNL A   1      44.385  31.981  29.297  1.00  0.00     0.034 A 
BRANCH  52  66
ATOM     66  C   UNL A   1      38.614  30.230  30.640  1.00  0.00     0.023 A 
ATOM     67  C   UNL A   1      38.348  29.839  31.969  1.00  0.00     0.012 A 
ATOM     68  C   UNL A   1      37.659  30.991  29.938  1.00  0.00     0.148 A 
ATOM     69  C   UNL A   1      37.138  30.169  32.578  1.00  0.00     0.002 A 
ATOM     70  C   UNL A   1      36.473  31.353  30.568  1.00  0.00     0.091 A 
ATOM     71  F   UNL A   1      37.919  31.336  28.670  1.00  0.00    -0.205 F 
ATOM     72  C   UNL A   1      36.206  30.934  31.882  1.00  0.00     0.022 A 
BRANCH  70  73
ATOM     73  S   UNL A   1      35.244  32.404  29.783  1.00  0.00     0.127 S 
ATOM     74  O   UNL A   1      34.775  31.546  28.696  1.00  0.00    -0.237 OA
ATOM     75  O   UNL A   1      34.275  32.605  30.861  1.00  0.00    -0.237 OA
ATOM     76  O   UNL A   1      35.952  33.608  29.374  1.00  0.00    -0.744 OA
ENDBRANCH  70  73
ENDBRANCH  52  66
BRANCH  53  77
ATOM     77  C   UNL A   1      47.113  27.624  26.086  1.00  0.00     0.023 A 
ATOM     78  C   UNL A   1      48.161  27.014  26.803  1.00  0.00     0.012 A 
ATOM     79  C   UNL A   1      47.264  27.845  24.703  1.00  0.00     0.148 A 
ATOM     80  C   UNL A   1      49.349  26.659  26.164  1.00  0.00     0.002 A 
ATOM     81  C   UNL A   1      48.430  27.441  24.062  1.00  0.00     0.091 A 
ATOM     82  F   UNL A   1      46.261  28.438  24.040  1.00  0.00    -0.205 F 
ATOM     83  C   UNL A   1      49.480  26.863  24.794  1.00  0.00     0.022 A 
BRANCH  81  84
ATOM     84  S   UNL A   1      48.632  27.544  22.280  1.00  0.00     0.127 S 
ATOM     85  O   UNL A   1      47.446  28.300  21.887  1.00  0.00    -0.237 OA
ATOM     86  O   UNL A   1      49.896  28.272  22.158  1.00  0.00    -0.237 OA
ATOM     87  O   UNL A   1      48.691  26.165  21.815  1.00  0.00    -0.744 OA
ENDBRANCH  81  84
ENDBRANCH  53  77
BRANCH  65  88
ATOM     88  C   UNL A   1      45.066  33.277  29.648  1.00  0.00     0.023 A 
ATOM     89  C   UNL A   1      45.866  33.356  30.804  1.00  0.00     0.012 A 
ATOM     90  C   UNL A   1      44.989  34.384  28.780  1.00  0.00     0.148 A 
ATOM     91  C   UNL A   1      46.562  34.527  31.104  1.00  0.00     0.002 A 
ATOM     92  C   UNL A   1      45.722  35.531  29.062  1.00  0.00     0.091 A 
ATOM     93  F   UNL A   1      44.206  34.295  27.695  1.00  0.00    -0.205 F 
ATOM     94  C   UNL A   1      46.501  35.608  30.228  1.00  0.00     0.022 A 
BRANCH  92  95
ATOM     95  S   UNL A   1      45.776  36.935  27.941  1.00  0.00     0.127 S 
ATOM     96  O   UNL A   1      46.526  37.914  28.725  1.00  0.00    -0.237 OA
ATOM     97  O   UNL A   1      46.501  36.390  26.792  1.00  0.00    -0.237 OA
ATOM     98  O   UNL A   1      44.388  37.281  27.666  1.00  0.00    -0.744 OA
ENDBRANCH  92  95
ENDBRANCH  65  88
ENDBRANCH  39  40
ENDBRANCH  31  34
ENDBRANCH  29  30
ENDBRANCH  28  29
ENDBRANCH   1  28
TORSDOF 18
ENDMDL
MODEL 3
REMARK VINA RESULT:     -11.5      5.700      8.986
REMARK SMILES CC(=O)Nc1cccc(NC(=O)N[C@H](C(=O)NCCCCNC(=O)c2ccc(-c3c4nc(c(-c5cccc(S(=O)(=O)[O-])c5F)c5ccc([nH]5)c(-c5cccc(S(=O)(=O)[O-])c5F)c5nc(c(-c6cccc(S(=O)(=O)[O-])c6F)c6ccc3[nH]6)C=C5)C=C4)cc2)C(C)C)c1
REMARK SMILES IDX 19 1 18 2 17 3 15 4 16 5 14 7 13 8 10 9 11 10 12 12 9 14
REMARK SMILES IDX 5 15 6 16 91 17 7 18 8 19 4 20 1 21 2 22 3 23 88 25 89 26
REMARK SMILES IDX 90 27 20 28 21 29 22 30 23 31 24 33 25 34 26 35 87 36 27 37
REMARK SMILES IDX 86 38 28 39 29 40 30 41 80 42 31 43 85 44 79 45 81 46 32 47
REMARK SMILES IDX 84 48 78 49 77 50 33 52 65 53 45 54 64 55 46 56 49 57 63 58
REMARK SMILES IDX 82 59 47 60 48 61 62 63 83 64 50 65 34 66 35 67 43 68 36 69
REMARK SMILES IDX 38 70 44 71 37 72 39 73 40 74 41 75 42 76 66 77 67 78 75 79
REMARK SMILES IDX 68 80 70 81 76 82 69 83 71 84 72 85 73 86 74 87 51 88 52 89
REMARK SMILES IDX 60 90 53 91 55 92 61 93 54 94 56 95 57 96 58 97 59 98
REMARK H PARENT 17 6 10 11 13 13 4 24 22 32 81 51 49 62
REMARK Flexibility Score: inf
ROOT
ATOM      1  C   UNL A   1      35.200  20.174  24.771  1.00  0.00     0.023 C 
ENDROOT
BRANCH   1   2
ATOM      2  C   UNL A   1      33.712  20.341  25.078  1.00  0.00     0.116 C 
BRANCH   2   3
ATOM      3  N   UNL A   1      32.983  20.909  23.959  1.00  0.00    -0.354 N 
ATOM      4  C   UNL A   1      32.349  22.121  23.872  1.00  0.00     0.242 C 
ATOM      5  O   UNL A   1      31.593  22.281  22.912  1.00  0.00    -0.273 OA
ATOM      6  H   UNL A   1      32.938  20.347  23.151  1.00  0.00     0.163 HD
BRANCH   4   7
ATOM      7  C   UNL A   1      32.425  23.121  25.064  1.00  0.00     0.175 C 
BRANCH   7   8
ATOM      8  N   UNL A   1      31.391  22.943  26.101  1.00  0.00    -0.326 N 
ATOM      9  N   UNL A   1      30.042  24.891  26.513  1.00  0.00    -0.308 N 
ATOM     10  C   UNL A   1      30.373  23.602  26.648  1.00  0.00     0.319 C 
ATOM     11  H   UNL A   1      29.484  25.182  27.272  1.00  0.00     0.171 HD
ATOM     12  O   UNL A   1      29.739  22.958  27.497  1.00  0.00    -0.248 OA
ATOM     13  H   UNL A   1      31.485  22.058  26.521  1.00  0.00     0.166 HD
BRANCH   9  14
ATOM     14  C   UNL A   1      30.247  25.955  25.623  1.00  0.00     0.044 A 
ATOM     15  C   UNL A   1      31.173  28.193  25.268  1.00  0.00     0.043 A 
ATOM     16  C   UNL A   1      30.621  28.210  23.987  1.00  0.00     0.026 A 
ATOM     17  C   UNL A   1      30.987  27.063  26.079  1.00  0.00     0.052 A 
ATOM     18  C   UNL A   1      29.876  27.130  23.536  1.00  0.00     0.004 A 
ATOM     19  C   UNL A   1      29.662  26.039  24.374  1.00  0.00     0.026 A 
BRANCH  15  20
ATOM     20  N   UNL A   1      31.794  29.378  25.685  1.00  0.00    -0.326 N 
ATOM     21  C   UNL A   1      34.128  28.636  26.103  1.00  0.00     0.114 C 
ATOM     22  C   UNL A   1      33.016  29.639  26.227  1.00  0.00     0.221 C 
ATOM     23  O   UNL A   1      33.198  30.735  26.757  1.00  0.00    -0.275 OA
ATOM     24  H   UNL A   1      31.238  30.181  25.558  1.00  0.00     0.169 HD
ENDBRANCH  15  20
ENDBRANCH   9  14
ENDBRANCH   7   8
BRANCH   7  25
ATOM     25  C   UNL A   1      33.786  23.522  25.723  1.00  0.00     0.015 C 
ATOM     26  C   UNL A   1      34.255  24.962  25.509  1.00  0.00     0.010 C 
ATOM     27  C   UNL A   1      33.739  23.264  27.241  1.00  0.00     0.010 C 
ENDBRANCH   7  25
ENDBRANCH   4   7
ENDBRANCH   2   3
ENDBRANCH   1   2
BRANCH   1  28
ATOM     28  C   UNL A   1      36.117  21.138  25.527  1.00  0.00     0.023 C 
BRANCH  28  29
ATOM     29  C   UNL A   1      37.537  21.256  24.974  1.00  0.00     0.116 C 
BRANCH  29  30
ATOM     30  N   UNL A   1      38.457  20.299  25.575  1.00  0.00    -0.352 N 
ATOM     31  C   UNL A   1      39.640  20.512  26.242  1.00  0.00     0.251 C 
ATOM     32  H   UNL A   1      38.191  19.355  25.491  1.00  0.00     0.163 HD
ATOM     33  O   UNL A   1      40.364  19.560  26.522  1.00  0.00    -0.269 OA
BRANCH  31  34
ATOM     34  C   UNL A   1      40.051  21.884  26.610  1.00  0.00     0.039 A 
ATOM     35  C   UNL A   1      41.029  22.063  27.595  1.00  0.00     0.014 A 
ATOM     36  C   UNL A   1      39.466  22.992  25.994  1.00  0.00     0.014 A 
ATOM     37  C   UNL A   1      41.472  23.352  27.906  1.00  0.00     0.010 A 
ATOM     38  C   UNL A   1      39.958  24.267  26.255  1.00  0.00     0.010 A 
ATOM     39  C   UNL A   1      40.967  24.462  27.212  1.00  0.00    -0.014 A 
BRANCH  39  40
ATOM     40  C   UNL A   1      41.471  25.838  27.454  1.00  0.00     0.031 A 
ATOM     41  C   UNL A   1      42.853  26.223  26.998  1.00  0.00     0.074 A 
ATOM     42  C   UNL A   1      40.741  26.699  28.190  1.00  0.00     0.049 A 
ATOM     43  N   UNL A   1      43.527  27.318  27.237  1.00  0.00    -0.248 NA
ATOM     44  C   UNL A   1      43.587  25.230  26.194  1.00  0.00     0.031 C 
ATOM     45  C   UNL A   1      39.418  26.422  28.752  1.00  0.00     0.029 A 
ATOM     46  N   UNL A   1      41.026  27.970  28.626  1.00  0.00    -0.354 N 
ATOM     47  C   UNL A   1      44.777  27.127  26.660  1.00  0.00     0.074 A 
ATOM     48  C   UNL A   1      44.777  25.801  26.079  1.00  0.00     0.031 C 
ATOM     49  C   UNL A   1      39.010  27.485  29.465  1.00  0.00     0.029 A 
ATOM     50  C   UNL A   1      40.052  28.506  29.438  1.00  0.00     0.049 A 
ATOM     51  H   UNL A   1      41.849  28.451  28.383  1.00  0.00     0.167 HD
ATOM     52  C   UNL A   1      45.823  27.986  26.596  1.00  0.00     0.034 A 
ATOM     53  C   UNL A   1      40.009  29.683  30.095  1.00  0.00     0.034 A 
ATOM     54  C   UNL A   1      45.798  29.324  27.118  1.00  0.00     0.049 A 
ATOM     55  C   UNL A   1      41.159  30.644  29.954  1.00  0.00     0.074 A 
ATOM     56  C   UNL A   1      46.771  30.304  27.022  1.00  0.00     0.029 A 
ATOM     57  N   UNL A   1      44.744  29.876  27.829  1.00  0.00    -0.354 N 
ATOM     58  N   UNL A   1      42.272  30.503  29.277  1.00  0.00    -0.248 NA
ATOM     59  C   UNL A   1      41.032  31.940  30.636  1.00  0.00     0.031 C 
ATOM     60  C   UNL A   1      46.307  31.447  27.683  1.00  0.00     0.029 A 
ATOM     61  C   UNL A   1      45.040  31.183  28.177  1.00  0.00     0.049 A 
ATOM     62  H   UNL A   1      43.909  29.407  28.056  1.00  0.00     0.167 HD
ATOM     63  C   UNL A   1      42.958  31.705  29.416  1.00  0.00     0.074 A 
ATOM     64  C   UNL A   1      42.129  32.568  30.231  1.00  0.00     0.031 C 
ATOM     65  C   UNL A   1      44.173  32.055  28.926  1.00  0.00     0.034 A 
BRANCH  52  66
ATOM     66  C   UNL A   1      47.064  27.525  25.877  1.00  0.00     0.023 A 
ATOM     67  C   UNL A   1      48.022  26.759  26.572  1.00  0.00     0.012 A 
ATOM     68  C   UNL A   1      47.257  27.797  24.508  1.00  0.00     0.148 A 
ATOM     69  C   UNL A   1      49.170  26.301  25.929  1.00  0.00     0.002 A 
ATOM     70  C   UNL A   1      48.384  27.299  23.861  1.00  0.00     0.091 A 
ATOM     71  F   UNL A   1      46.347  28.543  23.867  1.00  0.00    -0.205 F 
ATOM     72  C   UNL A   1      49.346  26.562  24.572  1.00  0.00     0.022 A 
BRANCH  70  73
ATOM     73  S   UNL A   1      48.661  27.514  22.099  1.00  0.00     0.127 S 
ATOM     74  O   UNL A   1      49.830  28.392  22.090  1.00  0.00    -0.237 OA
ATOM     75  O   UNL A   1      48.925  26.144  21.658  1.00  0.00    -0.237 OA
ATOM     76  O   UNL A   1      47.435  28.093  21.571  1.00  0.00    -0.744 OA
ENDBRANCH  70  73
ENDBRANCH  52  66
BRANCH  53  77
ATOM     77  C   UNL A   1      38.798  30.050  30.883  1.00  0.00     0.023 A 
ATOM     78  C   UNL A   1      38.672  29.578  32.204  1.00  0.00     0.012 A 
ATOM     79  C   UNL A   1      37.793  30.881  30.351  1.00  0.00     0.148 A 
ATOM     80  C   UNL A   1      37.553  29.902  32.972  1.00  0.00     0.002 A 
ATOM     81  C   UNL A   1      36.707  31.243  31.140  1.00  0.00     0.091 A 
ATOM     82  F   UNL A   1      37.925  31.310  29.088  1.00  0.00    -0.205 F 
ATOM     83  C   UNL A   1      36.577  30.742  32.445  1.00  0.00     0.022 A 
BRANCH  81  84
ATOM     84  S   UNL A   1      35.470  32.425  30.588  1.00  0.00     0.127 S 
ATOM     85  O   UNL A   1      34.954  31.779  29.384  1.00  0.00    -0.237 OA
ATOM     86  O   UNL A   1      34.544  32.447  31.721  1.00  0.00    -0.237 OA
ATOM     87  O   UNL A   1      36.190  33.674  30.382  1.00  0.00    -0.744 OA
ENDBRANCH  81  84
ENDBRANCH  53  77
BRANCH  65  88
ATOM     88  C   UNL A   1      44.670  33.448  29.207  1.00  0.00     0.023 A 
ATOM     89  C   UNL A   1      45.345  33.719  30.413  1.00  0.00     0.012 A 
ATOM     90  C   UNL A   1      44.554  34.460  28.234  1.00  0.00     0.148 A 
ATOM     91  C   UNL A   1      45.876  34.985  30.657  1.00  0.00     0.002 A 
ATOM     92  C   UNL A   1      45.125  35.705  28.465  1.00  0.00     0.091 A 
ATOM     93  F   UNL A   1      43.890  34.186  27.101  1.00  0.00    -0.205 F 
ATOM     94  C   UNL A   1      45.779  35.973  29.679  1.00  0.00     0.022 A 
BRANCH  92  95
ATOM     95  S   UNL A   1      45.130  37.005  27.224  1.00  0.00     0.127 S 
ATOM     96  O   UNL A   1      45.933  36.401  26.162  1.00  0.00    -0.237 OA
ATOM     97  O   UNL A   1      43.707  37.142  26.909  1.00  0.00    -0.237 OA
ATOM     98  O   UNL A   1      45.717  38.172  27.869  1.00  0.00    -0.744 OA
ENDBRANCH  92  95
ENDBRANCH  65  88
ENDBRANCH  39  40
ENDBRANCH  31  34
ENDBRANCH  29  30
ENDBRANCH  28  29
ENDBRANCH   1  28
TORSDOF 18
ENDMDL
