MODEL 1
REMARK VINA RESULT:     -12.8      0.000      0.000
REMARK SMILES COC(=O)c1ccc2c(c1)=N[C@H](c1cn(CCC(=O)NCCCCNC(=O)c3ccc(-c4c5nc(c(-c6cccc(S(=O)(=O)[O-])c6F)c6ccc([nH]6)c(-c6cccc(S(=O)(=O)[O-])c6F)c6nc(c(-c7cccc(S(=O)(=O)[O-])c7F)c7ccc4[nH]7)C=C6)C=C5)cc3)c3ccccc13)N=2
REMARK SMILES IDX 21 1 20 2 18 3 19 4 17 6 16 7 15 8 13 9 14 10 96 11 91 12
REMARK SMILES IDX 95 13 92 14 94 15 93 16 12 17 5 18 6 19 10 20 7 21 9 22 8 23
REMARK SMILES IDX 11 24 97 25 3 26 4 27 2 28 1 29 22 30 23 31 24 32 25 33
REMARK SMILES IDX 26 34 27 36 28 37 29 38 90 39 30 40 89 41 31 42 32 43 33 44
REMARK SMILES IDX 83 45 34 46 88 47 82 48 84 49 35 50 87 51 81 52 80 53 36 55
REMARK SMILES IDX 68 56 48 57 67 58 49 59 52 60 66 61 85 62 50 63 51 64 65 66
REMARK SMILES IDX 86 67 53 68 37 69 38 70 46 71 39 72 41 73 47 74 40 75 42 76
REMARK SMILES IDX 43 77 44 78 45 79 69 80 70 81 78 82 71 83 73 84 79 85 72 86
REMARK SMILES IDX 74 87 75 88 76 89 77 90 54 91 55 92 63 93 56 94 58 95 64 96
REMARK SMILES IDX 57 97 59 98 60 99 61 100 62 101
REMARK H PARENT 20 5 25 35 84 54 52 65
REMARK Flexibility Score: inf
ROOT
ATOM      1  C   UNL A   1      35.710  20.758  25.252  1.00  0.00     0.116 C 
ENDROOT
BRANCH   1   2
ATOM      2  N   UNL A   1      35.794  19.331  24.975  1.00  0.00    -0.356 N 
ATOM      3  C   UNL A   1      34.870  18.407  24.568  1.00  0.00     0.221 C 
ATOM      4  O   UNL A   1      35.291  17.287  24.260  1.00  0.00    -0.275 OA
ATOM      5  H   UNL A   1      36.694  18.954  25.107  1.00  0.00     0.163 HD
BRANCH   3   6
ATOM      6  C   UNL A   1      33.396  18.732  24.395  1.00  0.00     0.122 C 
BRANCH   6   7
ATOM      7  C   UNL A   1      32.880  19.787  25.412  1.00  0.00     0.132 C 
BRANCH   7   8
ATOM      8  N   UNL A   1      32.032  20.850  24.843  1.00  0.00    -0.347 N 
ATOM      9  C   UNL A   1      32.682  22.697  23.841  1.00  0.00     0.024 A 
ATOM     10  C   UNL A   1      32.333  21.364  23.603  1.00  0.00     0.094 A 
ATOM     11  C   UNL A   1      32.707  22.814  25.296  1.00  0.00     0.007 A 
ATOM     12  C   UNL A   1      31.633  21.967  25.557  1.00  0.00     0.048 A 
ATOM     13  C   UNL A   1      32.879  23.829  26.245  1.00  0.00     0.011 A 
ATOM     14  C   UNL A   1      30.422  22.572  25.940  1.00  0.00     0.027 A 
ATOM     15  C   UNL A   1      31.759  24.387  26.839  1.00  0.00     0.001 A 
ATOM     16  C   UNL A   1      30.518  23.843  26.543  1.00  0.00     0.002 A 
BRANCH   9  17
ATOM     17  C   UNL A   1      32.817  23.692  22.726  1.00  0.00     0.255 C 
ATOM     18  C   UNL A   1      31.521  28.002  22.742  1.00  0.00     0.062 A 
ATOM     19  C   UNL A   1      32.938  28.149  22.455  1.00  0.00     0.018 A 
ATOM     20  C   UNL A   1      30.948  26.793  22.838  1.00  0.00     0.046 A 
ATOM     21  C   UNL A   1      33.823  27.145  22.534  1.00  0.00     0.031 A 
ATOM     22  C   UNL A   1      31.826  25.625  22.730  1.00  0.00     0.087 A 
ATOM     23  C   UNL A   1      33.291  25.799  22.749  1.00  0.00     0.086 A 
ATOM     24  N   UNL A   1      31.497  24.389  22.617  1.00  0.00    -0.252 NA
ATOM     25  N   UNL A   1      33.915  24.680  22.865  1.00  0.00    -0.252 NA
BRANCH  18  26
ATOM     26  C   UNL A   1      30.624  29.180  22.983  1.00  0.00     0.337 C 
ATOM     27  O   UNL A   1      30.593  29.803  24.021  1.00  0.00    -0.246 OA
BRANCH  26  28
ATOM     28  O   UNL A   1      29.857  29.417  21.884  1.00  0.00    -0.465 OA
ATOM     29  C   UNL A   1      28.453  29.477  22.148  1.00  0.00     0.282 C 
ENDBRANCH  26  28
ENDBRANCH  18  26
ENDBRANCH   9  17
ENDBRANCH   7   8
ENDBRANCH   6   7
ENDBRANCH   3   6
ENDBRANCH   1   2
BRANCH   1  30
ATOM     30  C   UNL A   1      36.372  21.697  24.232  1.00  0.00     0.023 C 
BRANCH  30  31
ATOM     31  C   UNL A   1      37.349  22.794  24.704  1.00  0.00     0.023 C 
BRANCH  31  32
ATOM     32  C   UNL A   1      38.000  22.574  26.065  1.00  0.00     0.116 C 
BRANCH  32  33
ATOM     33  N   UNL A   1      39.379  22.157  25.949  1.00  0.00    -0.352 N 
ATOM     34  C   UNL A   1      40.602  22.690  26.215  1.00  0.00     0.251 C 
ATOM     35  H   UNL A   1      39.452  21.246  25.581  1.00  0.00     0.163 HD
ATOM     36  O   UNL A   1      41.558  22.000  25.844  1.00  0.00    -0.269 OA
BRANCH  34  37
ATOM     37  C   UNL A   1      40.892  23.979  26.893  1.00  0.00     0.039 A 
ATOM     38  C   UNL A   1      41.869  24.218  27.862  1.00  0.00     0.014 A 
ATOM     39  C   UNL A   1      39.993  25.017  26.571  1.00  0.00     0.014 A 
ATOM     40  C   UNL A   1      41.887  25.444  28.543  1.00  0.00     0.010 A 
ATOM     41  C   UNL A   1      40.007  26.229  27.244  1.00  0.00     0.010 A 
ATOM     42  C   UNL A   1      40.928  26.430  28.265  1.00  0.00    -0.014 A 
BRANCH  42  43
ATOM     43  C   UNL A   1      40.993  27.737  28.929  1.00  0.00     0.031 A 
ATOM     44  C   UNL A   1      42.015  28.649  28.353  1.00  0.00     0.074 A 
ATOM     45  C   UNL A   1      40.093  28.172  29.839  1.00  0.00     0.049 A 
ATOM     46  N   UNL A   1      43.069  29.122  28.932  1.00  0.00    -0.248 NA
ATOM     47  C   UNL A   1      41.922  28.964  26.919  1.00  0.00     0.031 C 
ATOM     48  C   UNL A   1      38.881  27.481  30.265  1.00  0.00     0.029 A 
ATOM     49  N   UNL A   1      39.990  29.366  30.492  1.00  0.00    -0.354 N 
ATOM     50  C   UNL A   1      43.635  29.993  28.005  1.00  0.00     0.074 A 
ATOM     51  C   UNL A   1      43.011  29.711  26.738  1.00  0.00     0.031 C 
ATOM     52  C   UNL A   1      38.061  28.328  30.924  1.00  0.00     0.029 A 
ATOM     53  C   UNL A   1      38.739  29.599  31.076  1.00  0.00     0.049 A 
ATOM     54  H   UNL A   1      40.733  30.009  30.548  1.00  0.00     0.167 HD
ATOM     55  C   UNL A   1      44.374  31.066  28.396  1.00  0.00     0.034 A 
ATOM     56  C   UNL A   1      38.279  30.767  31.599  1.00  0.00     0.034 A 
ATOM     57  C   UNL A   1      44.818  30.946  29.757  1.00  0.00     0.049 A 
ATOM     58  C   UNL A   1      39.477  31.569  31.924  1.00  0.00     0.074 A 
ATOM     59  C   UNL A   1      45.588  30.040  30.458  1.00  0.00     0.029 A 
ATOM     60  N   UNL A   1      44.125  31.664  30.698  1.00  0.00    -0.354 N 
ATOM     61  N   UNL A   1      40.347  31.230  32.833  1.00  0.00    -0.248 NA
ATOM     62  C   UNL A   1      39.927  32.542  30.944  1.00  0.00     0.031 C 
ATOM     63  C   UNL A   1      44.965  29.941  31.736  1.00  0.00     0.029 A 
ATOM     64  C   UNL A   1      43.892  30.835  31.761  1.00  0.00     0.049 A 
ATOM     65  H   UNL A   1      43.847  32.606  30.623  1.00  0.00     0.167 HD
ATOM     66  C   UNL A   1      41.568  31.581  32.278  1.00  0.00     0.074 A 
ATOM     67  C   UNL A   1      41.242  32.478  31.171  1.00  0.00     0.031 C 
ATOM     68  C   UNL A   1      42.701  30.886  32.580  1.00  0.00     0.034 A 
BRANCH  55  69
ATOM     69  C   UNL A   1      44.368  32.391  27.678  1.00  0.00     0.023 A 
ATOM     70  C   UNL A   1      45.398  32.645  26.748  1.00  0.00     0.012 A 
ATOM     71  C   UNL A   1      43.568  33.489  28.071  1.00  0.00     0.148 A 
ATOM     72  C   UNL A   1      45.627  33.933  26.247  1.00  0.00     0.002 A 
ATOM     73  C   UNL A   1      43.748  34.747  27.512  1.00  0.00     0.091 A 
ATOM     74  F   UNL A   1      42.717  33.360  29.094  1.00  0.00    -0.205 F 
ATOM     75  C   UNL A   1      44.792  34.981  26.617  1.00  0.00     0.022 A 
BRANCH  73  76
ATOM     76  S   UNL A   1      42.675  36.124  27.938  1.00  0.00     0.127 S 
ATOM     77  O   UNL A   1      43.162  36.469  29.271  1.00  0.00    -0.237 OA
ATOM     78  O   UNL A   1      42.996  37.089  26.888  1.00  0.00    -0.237 OA
ATOM     79  O   UNL A   1      41.319  35.593  27.866  1.00  0.00    -0.744 OA
ENDBRANCH  73  76
ENDBRANCH  55  69
BRANCH  56  80
ATOM     80  C   UNL A   1      36.916  31.369  31.627  1.00  0.00     0.023 A 
ATOM     81  C   UNL A   1      36.360  31.763  32.866  1.00  0.00     0.012 A 
ATOM     82  C   UNL A   1      36.291  31.840  30.451  1.00  0.00     0.148 A 
ATOM     83  C   UNL A   1      35.270  32.643  32.933  1.00  0.00     0.002 A 
ATOM     84  C   UNL A   1      35.200  32.708  30.522  1.00  0.00     0.091 A 
ATOM     85  F   UNL A   1      36.819  31.515  29.265  1.00  0.00    -0.205 F 
ATOM     86  C   UNL A   1      34.700  33.127  31.760  1.00  0.00     0.022 A 
BRANCH  84  87
ATOM     87  S   UNL A   1      34.409  33.380  29.051  1.00  0.00     0.127 S 
ATOM     88  O   UNL A   1      35.500  34.143  28.442  1.00  0.00    -0.237 OA
ATOM     89  O   UNL A   1      34.032  32.168  28.329  1.00  0.00    -0.237 OA
ATOM     90  O   UNL A   1      33.306  34.199  29.537  1.00  0.00    -0.744 OA
ENDBRANCH  84  87
ENDBRANCH  56  80
BRANCH  68  91
ATOM     91  C   UNL A   1      42.647  29.888  33.709  1.00  0.00     0.023 A 
ATOM     92  C   UNL A   1      42.229  28.554  33.514  1.00  0.00     0.012 A 
ATOM     93  C   UNL A   1      43.262  30.243  34.920  1.00  0.00     0.148 A 
ATOM     94  C   UNL A   1      42.439  27.589  34.505  1.00  0.00     0.002 A 
ATOM     95  C   UNL A   1      43.504  29.274  35.885  1.00  0.00     0.091 A 
ATOM     96  F   UNL A   1      43.661  31.514  35.072  1.00  0.00    -0.205 F 
ATOM     97  C   UNL A   1      43.093  27.946  35.684  1.00  0.00     0.022 A 
BRANCH  95  98
ATOM     98  S   UNL A   1      44.448  29.633  37.367  1.00  0.00     0.127 S 
ATOM     99  O   UNL A   1      43.629  30.659  38.011  1.00  0.00    -0.237 OA
ATOM    100  O   UNL A   1      44.454  28.338  38.047  1.00  0.00    -0.237 OA
ATOM    101  O   UNL A   1      45.760  30.084  36.918  1.00  0.00    -0.744 OA
ENDBRANCH  95  98
ENDBRANCH  68  91
ENDBRANCH  42  43
ENDBRANCH  34  37
ENDBRANCH  32  33
ENDBRANCH  31  32
ENDBRANCH  30  31
ENDBRANCH   1  30
TORSDOF 19
ENDMDL
MODEL 2
REMARK VINA RESULT:     -12.7      3.446      9.139
REMARK SMILES COC(=O)c1ccc2c(c1)=N[C@H](c1cn(CCC(=O)NCCCCNC(=O)c3ccc(-c4c5nc(c(-c6cccc(S(=O)(=O)[O-])c6F)c6ccc([nH]6)c(-c6cccc(S(=O)(=O)[O-])c6F)c6nc(c(-c7cccc(S(=O)(=O)[O-])c7F)c7ccc4[nH]7)C=C6)C=C5)cc3)c3ccccc13)N=2
REMARK SMILES IDX 21 1 20 2 18 3 19 4 17 6 16 7 15 8 13 9 14 10 96 11 91 12
REMARK SMILES IDX 95 13 92 14 94 15 93 16 12 17 5 18 6 19 10 20 7 21 9 22 8 23
REMARK SMILES IDX 11 24 97 25 3 26 4 27 2 28 1 29 22 30 23 31 24 32 25 33
REMARK SMILES IDX 26 34 27 36 28 37 29 38 90 39 30 40 89 41 31 42 32 43 33 44
REMARK SMILES IDX 83 45 34 46 88 47 82 48 84 49 35 50 87 51 81 52 80 53 36 55
REMARK SMILES IDX 68 56 48 57 67 58 49 59 52 60 66 61 85 62 50 63 51 64 65 66
REMARK SMILES IDX 86 67 53 68 37 69 38 70 46 71 39 72 41 73 47 74 40 75 42 76
REMARK SMILES IDX 43 77 44 78 45 79 69 80 70 81 78 82 71 83 73 84 79 85 72 86
REMARK SMILES IDX 74 87 75 88 76 89 77 90 54 91 55 92 63 93 56 94 58 95 64 96
REMARK SMILES IDX 57 97 59 98 60 99 61 100 62 101
REMARK H PARENT 20 5 25 35 84 54 52 65
REMARK Flexibility Score: inf
ROOT
ATOM      1  C   UNL A   1      30.865  31.432  25.759  1.00  0.00     0.116 C 
ENDROOT
BRANCH   1   2
ATOM      2  N   UNL A   1      30.093  31.512  24.526  1.00  0.00    -0.356 N 
ATOM      3  C   UNL A   1      29.604  30.561  23.673  1.00  0.00     0.221 C 
ATOM      4  O   UNL A   1      28.838  30.944  22.783  1.00  0.00    -0.275 OA
ATOM      5  H   UNL A   1      29.881  32.433  24.251  1.00  0.00     0.163 HD
BRANCH   3   6
ATOM      6  C   UNL A   1      29.888  29.077  23.837  1.00  0.00     0.122 C 
BRANCH   6   7
ATOM      7  C   UNL A   1      30.197  28.363  22.492  1.00  0.00     0.132 C 
BRANCH   7   8
ATOM      8  N   UNL A   1      31.496  27.668  22.430  1.00  0.00    -0.347 N 
ATOM      9  C   UNL A   1      31.889  25.524  22.733  1.00  0.00     0.024 A 
ATOM     10  C   UNL A   1      31.591  26.475  21.751  1.00  0.00     0.094 A 
ATOM     11  C   UNL A   1      31.782  26.255  23.992  1.00  0.00     0.007 A 
ATOM     12  C   UNL A   1      32.302  27.464  23.537  1.00  0.00     0.048 A 
ATOM     13  C   UNL A   1      32.018  26.007  25.350  1.00  0.00     0.011 A 
ATOM     14  C   UNL A   1      33.612  27.785  23.935  1.00  0.00     0.027 A 
ATOM     15  C   UNL A   1      33.205  26.441  25.915  1.00  0.00     0.001 A 
ATOM     16  C   UNL A   1      34.067  27.196  25.133  1.00  0.00     0.002 A 
BRANCH   9  17
ATOM     17  C   UNL A   1      32.344  24.139  22.382  1.00  0.00     0.255 C 
ATOM     18  C   UNL A   1      35.587  21.743  24.384  1.00  0.00     0.062 A 
ATOM     19  C   UNL A   1      34.451  20.852  24.554  1.00  0.00     0.018 A 
ATOM     20  C   UNL A   1      35.482  22.886  23.689  1.00  0.00     0.046 A 
ATOM     21  C   UNL A   1      33.184  21.201  24.289  1.00  0.00     0.031 A 
ATOM     22  C   UNL A   1      34.154  23.243  23.183  1.00  0.00     0.087 A 
ATOM     23  C   UNL A   1      32.968  22.488  23.628  1.00  0.00     0.086 A 
ATOM     24  N   UNL A   1      33.841  24.177  22.360  1.00  0.00    -0.252 NA
ATOM     25  N   UNL A   1      31.867  23.052  23.272  1.00  0.00    -0.252 NA
BRANCH  18  26
ATOM     26  C   UNL A   1      36.926  21.464  24.999  1.00  0.00     0.337 C 
ATOM     27  O   UNL A   1      37.381  22.085  25.933  1.00  0.00    -0.246 OA
BRANCH  26  28
ATOM     28  O   UNL A   1      37.537  20.439  24.344  1.00  0.00    -0.465 OA
ATOM     29  C   UNL A   1      38.128  19.460  25.203  1.00  0.00     0.282 C 
ENDBRANCH  26  28
ENDBRANCH  18  26
ENDBRANCH   9  17
ENDBRANCH   7   8
ENDBRANCH   6   7
ENDBRANCH   3   6
ENDBRANCH   1   2
BRANCH   1  30
ATOM     30  C   UNL A   1      31.996  30.393  25.797  1.00  0.00     0.023 C 
BRANCH  30  31
ATOM     31  C   UNL A   1      32.571  29.917  27.147  1.00  0.00     0.023 C 
BRANCH  31  32
ATOM     32  C   UNL A   1      34.012  30.321  27.443  1.00  0.00     0.116 C 
BRANCH  32  33
ATOM     33  N   UNL A   1      34.093  31.348  28.457  1.00  0.00    -0.352 N 
ATOM     34  C   UNL A   1      35.006  31.763  29.376  1.00  0.00     0.251 C 
ATOM     35  H   UNL A   1      33.271  31.888  28.492  1.00  0.00     0.163 HD
ATOM     36  O   UNL A   1      34.601  32.642  30.145  1.00  0.00    -0.269 OA
BRANCH  34  37
ATOM     37  C   UNL A   1      36.402  31.283  29.537  1.00  0.00     0.039 A 
ATOM     38  C   UNL A   1      37.549  32.066  29.684  1.00  0.00     0.014 A 
ATOM     39  C   UNL A   1      36.551  29.885  29.416  1.00  0.00     0.014 A 
ATOM     40  C   UNL A   1      38.814  31.463  29.632  1.00  0.00     0.010 A 
ATOM     41  C   UNL A   1      37.800  29.287  29.362  1.00  0.00     0.010 A 
ATOM     42  C   UNL A   1      38.938  30.081  29.425  1.00  0.00    -0.014 A 
BRANCH  42  43
ATOM     43  C   UNL A   1      40.260  29.444  29.440  1.00  0.00     0.031 A 
ATOM     44  C   UNL A   1      40.838  29.302  30.802  1.00  0.00     0.074 A 
ATOM     45  C   UNL A   1      40.830  28.852  28.367  1.00  0.00     0.049 A 
ATOM     46  N   UNL A   1      41.909  29.854  31.268  1.00  0.00    -0.248 NA
ATOM     47  C   UNL A   1      40.056  28.561  31.804  1.00  0.00     0.031 C 
ATOM     48  C   UNL A   1      40.230  28.671  27.050  1.00  0.00     0.029 A 
ATOM     49  N   UNL A   1      42.012  28.179  28.242  1.00  0.00    -0.354 N 
ATOM     50  C   UNL A   1      42.064  29.329  32.548  1.00  0.00     0.074 A 
ATOM     51  C   UNL A   1      40.814  28.703  32.892  1.00  0.00     0.031 C 
ATOM     52  C   UNL A   1      40.932  27.768  26.331  1.00  0.00     0.029 A 
ATOM     53  C   UNL A   1      42.107  27.391  27.088  1.00  0.00     0.049 A 
ATOM     54  H   UNL A   1      42.735  28.243  28.906  1.00  0.00     0.167 HD
ATOM     55  C   UNL A   1      43.291  29.204  33.122  1.00  0.00     0.034 A 
ATOM     56  C   UNL A   1      43.057  26.461  26.804  1.00  0.00     0.034 A 
ATOM     57  C   UNL A   1      44.278  30.017  32.465  1.00  0.00     0.049 A 
ATOM     58  C   UNL A   1      44.227  26.800  27.641  1.00  0.00     0.074 A 
ATOM     59  C   UNL A   1      44.425  31.366  32.218  1.00  0.00     0.029 A 
ATOM     60  N   UNL A   1      45.128  29.377  31.600  1.00  0.00    -0.354 N 
ATOM     61  N   UNL A   1      44.920  27.895  27.503  1.00  0.00    -0.248 NA
ATOM     62  C   UNL A   1      44.372  26.112  28.913  1.00  0.00     0.031 C 
ATOM     63  C   UNL A   1      44.990  31.440  30.912  1.00  0.00     0.029 A 
ATOM     64  C   UNL A   1      45.209  30.136  30.464  1.00  0.00     0.049 A 
ATOM     65  H   UNL A   1      45.596  28.526  31.766  1.00  0.00     0.167 HD
ATOM     66  C   UNL A   1      45.215  28.273  28.804  1.00  0.00     0.074 A 
ATOM     67  C   UNL A   1      44.949  27.088  29.617  1.00  0.00     0.031 C 
ATOM     68  C   UNL A   1      45.364  29.587  29.135  1.00  0.00     0.034 A 
BRANCH  55  69
ATOM     69  C   UNL A   1      43.679  28.061  34.025  1.00  0.00     0.023 A 
ATOM     70  C   UNL A   1      44.217  28.371  35.291  1.00  0.00     0.012 A 
ATOM     71  C   UNL A   1      43.794  26.722  33.584  1.00  0.00     0.148 A 
ATOM     72  C   UNL A   1      44.850  27.397  36.073  1.00  0.00     0.002 A 
ATOM     73  C   UNL A   1      44.352  25.743  34.396  1.00  0.00     0.091 A 
ATOM     74  F   UNL A   1      43.493  26.409  32.320  1.00  0.00    -0.205 F 
ATOM     75  C   UNL A   1      44.904  26.079  35.632  1.00  0.00     0.022 A 
BRANCH  73  76
ATOM     76  S   UNL A   1      44.417  24.024  33.880  1.00  0.00     0.127 S 
ATOM     77  O   UNL A   1      45.519  23.518  34.693  1.00  0.00    -0.237 OA
ATOM     78  O   UNL A   1      43.089  23.546  34.264  1.00  0.00    -0.237 OA
ATOM     79  O   UNL A   1      44.643  24.061  32.440  1.00  0.00    -0.744 OA
ENDBRANCH  73  76
ENDBRANCH  55  69
BRANCH  56  80
ATOM     80  C   UNL A   1      42.985  25.167  26.067  1.00  0.00     0.023 A 
ATOM     81  C   UNL A   1      43.873  24.933  24.992  1.00  0.00     0.012 A 
ATOM     82  C   UNL A   1      42.285  24.057  26.590  1.00  0.00     0.148 A 
ATOM     83  C   UNL A   1      44.104  23.640  24.501  1.00  0.00     0.002 A 
ATOM     84  C   UNL A   1      42.512  22.773  26.092  1.00  0.00     0.091 A 
ATOM     85  F   UNL A   1      41.468  24.242  27.634  1.00  0.00    -0.205 F 
ATOM     86  C   UNL A   1      43.435  22.558  25.062  1.00  0.00     0.022 A 
BRANCH  84  87
ATOM     87  S   UNL A   1      41.688  21.322  26.766  1.00  0.00     0.127 S 
ATOM     88  O   UNL A   1      42.050  20.288  25.795  1.00  0.00    -0.237 OA
ATOM     89  O   UNL A   1      42.327  21.187  28.071  1.00  0.00    -0.237 OA
ATOM     90  O   UNL A   1      40.267  21.649  26.785  1.00  0.00    -0.744 OA
ENDBRANCH  84  87
ENDBRANCH  56  80
BRANCH  68  91
ATOM     91  C   UNL A   1      45.443  30.599  28.021  1.00  0.00     0.023 A 
ATOM     92  C   UNL A   1      44.290  31.164  27.434  1.00  0.00     0.012 A 
ATOM     93  C   UNL A   1      46.698  31.164  27.743  1.00  0.00     0.148 A 
ATOM     94  C   UNL A   1      44.388  32.281  26.599  1.00  0.00     0.002 A 
ATOM     95  C   UNL A   1      46.788  32.299  26.947  1.00  0.00     0.091 A 
ATOM     96  F   UNL A   1      47.774  30.617  28.326  1.00  0.00    -0.205 F 
ATOM     97  C   UNL A   1      45.636  32.859  26.370  1.00  0.00     0.022 A 
BRANCH  95  98
ATOM     98  S   UNL A   1      48.339  33.166  26.711  1.00  0.00     0.127 S 
ATOM     99  O   UNL A   1      48.600  33.696  28.048  1.00  0.00    -0.237 OA
ATOM    100  O   UNL A   1      49.233  32.086  26.294  1.00  0.00    -0.237 OA
ATOM    101  O   UNL A   1      48.093  34.174  25.686  1.00  0.00    -0.744 OA
ENDBRANCH  95  98
ENDBRANCH  68  91
ENDBRANCH  42  43
ENDBRANCH  34  37
ENDBRANCH  32  33
ENDBRANCH  31  32
ENDBRANCH  30  31
ENDBRANCH   1  30
TORSDOF 19
ENDMDL
MODEL 3
REMARK VINA RESULT:     -12.6      1.916      2.535
REMARK SMILES COC(=O)c1ccc2c(c1)=N[C@H](c1cn(CCC(=O)NCCCCNC(=O)c3ccc(-c4c5nc(c(-c6cccc(S(=O)(=O)[O-])c6F)c6ccc([nH]6)c(-c6cccc(S(=O)(=O)[O-])c6F)c6nc(c(-c7cccc(S(=O)(=O)[O-])c7F)c7ccc4[nH]7)C=C6)C=C5)cc3)c3ccccc13)N=2
REMARK SMILES IDX 21 1 20 2 18 3 19 4 17 6 16 7 15 8 13 9 14 10 96 11 91 12
REMARK SMILES IDX 95 13 92 14 94 15 93 16 12 17 5 18 6 19 10 20 7 21 9 22 8 23
REMARK SMILES IDX 11 24 97 25 3 26 4 27 2 28 1 29 22 30 23 31 24 32 25 33
REMARK SMILES IDX 26 34 27 36 28 37 29 38 90 39 30 40 89 41 31 42 32 43 33 44
REMARK SMILES IDX 83 45 34 46 88 47 82 48 84 49 35 50 87 51 81 52 80 53 36 55
REMARK SMILES IDX 68 56 48 57 67 58 49 59 52 60 66 61 85 62 50 63 51 64 65 66
REMARK SMILES IDX 86 67 53 68 37 69 38 70 46 71 39 72 41 73 47 74 40 75 42 76
REMARK SMILES IDX 43 77 44 78 45 79 69 80 70 81 78 82 71 83 73 84 79 85 72 86
REMARK SMILES IDX 74 87 75 88 76 89 77 90 54 91 55 92 63 93 56 94 58 95 64 96
REMARK SMILES IDX 57 97 59 98 60 99 61 100 62 101
REMARK H PARENT 20 5 25 35 84 54 52 65
REMARK Flexibility Score: inf
ROOT
ATOM      1  C   UNL A   1      37.789  23.899  26.168  1.00  0.00     0.116 C 
ENDROOT
BRANCH   1   2
ATOM      2  N   UNL A   1      36.651  23.004  26.327  1.00  0.00    -0.356 N 
ATOM      3  C   UNL A   1      35.660  22.600  25.474  1.00  0.00     0.221 C 
ATOM      4  O   UNL A   1      34.917  21.693  25.864  1.00  0.00    -0.275 OA
ATOM      5  H   UNL A   1      36.580  22.611  27.227  1.00  0.00     0.163 HD
BRANCH   3   6
ATOM      6  C   UNL A   1      35.505  23.148  24.066  1.00  0.00     0.122 C 
BRANCH   6   7
ATOM      7  C   UNL A   1      34.236  22.622  23.342  1.00  0.00     0.132 C 
BRANCH   7   8
ATOM      8  N   UNL A   1      33.132  23.591  23.219  1.00  0.00    -0.347 N 
ATOM      9  C   UNL A   1      33.189  25.753  23.624  1.00  0.00     0.024 A 
ATOM     10  C   UNL A   1      33.362  24.804  22.611  1.00  0.00     0.094 A 
ATOM     11  C   UNL A   1      33.016  24.962  24.839  1.00  0.00     0.007 A 
ATOM     12  C   UNL A   1      32.290  23.920  24.268  1.00  0.00     0.048 A 
ATOM     13  C   UNL A   1      32.715  25.196  26.186  1.00  0.00     0.011 A 
ATOM     14  C   UNL A   1      30.910  23.882  24.538  1.00  0.00     0.027 A 
ATOM     15  C   UNL A   1      31.414  25.014  26.624  1.00  0.00     0.001 A 
ATOM     16  C   UNL A   1      30.485  24.505  25.729  1.00  0.00     0.002 A 
BRANCH   9  17
ATOM     17  C   UNL A   1      33.081  27.219  23.326  1.00  0.00     0.255 C 
ATOM     18  C   UNL A   1      29.319  29.671  23.016  1.00  0.00     0.062 A 
ATOM     19  C   UNL A   1      30.019  30.386  24.070  1.00  0.00     0.018 A 
ATOM     20  C   UNL A   1      29.885  28.636  22.376  1.00  0.00     0.046 A 
ATOM     21  C   UNL A   1      31.127  29.930  24.671  1.00  0.00     0.031 A 
ATOM     22  C   UNL A   1      31.203  28.200  22.844  1.00  0.00     0.087 A 
ATOM     23  C   UNL A   1      31.753  28.735  24.104  1.00  0.00     0.086 A 
ATOM     24  N   UNL A   1      32.007  27.364  22.293  1.00  0.00    -0.252 NA
ATOM     25  N   UNL A   1      32.805  28.101  24.486  1.00  0.00    -0.252 NA
BRANCH  18  26
ATOM     26  C   UNL A   1      27.919  30.017  22.604  1.00  0.00     0.337 C 
ATOM     27  O   UNL A   1      26.950  29.861  23.312  1.00  0.00    -0.246 OA
BRANCH  26  28
ATOM     28  O   UNL A   1      27.912  30.505  21.333  1.00  0.00    -0.465 OA
ATOM     29  C   UNL A   1      27.991  31.930  21.249  1.00  0.00     0.282 C 
ENDBRANCH  26  28
ENDBRANCH  18  26
ENDBRANCH   9  17
ENDBRANCH   7   8
ENDBRANCH   6   7
ENDBRANCH   3   6
ENDBRANCH   1   2
BRANCH   1  30
ATOM     30  C   UNL A   1      39.155  23.364  26.624  1.00  0.00     0.023 C 
BRANCH  30  31
ATOM     31  C   UNL A   1      39.590  21.929  26.259  1.00  0.00     0.023 C 
BRANCH  31  32
ATOM     32  C   UNL A   1      41.037  21.566  26.574  1.00  0.00     0.116 C 
BRANCH  32  33
ATOM     33  N   UNL A   1      41.955  22.067  25.577  1.00  0.00    -0.352 N 
ATOM     34  C   UNL A   1      42.608  23.234  25.327  1.00  0.00     0.251 C 
ATOM     35  H   UNL A   1      42.163  21.382  24.899  1.00  0.00     0.163 HD
ATOM     36  O   UNL A   1      43.231  23.259  24.260  1.00  0.00    -0.269 OA
BRANCH  34  37
ATOM     37  C   UNL A   1      42.650  24.443  26.189  1.00  0.00     0.039 A 
ATOM     38  C   UNL A   1      43.313  24.582  27.409  1.00  0.00     0.014 A 
ATOM     39  C   UNL A   1      41.831  25.501  25.740  1.00  0.00     0.014 A 
ATOM     40  C   UNL A   1      43.096  25.726  28.192  1.00  0.00     0.010 A 
ATOM     41  C   UNL A   1      41.612  26.631  26.513  1.00  0.00     0.010 A 
ATOM     42  C   UNL A   1      42.210  26.726  27.763  1.00  0.00    -0.014 A 
BRANCH  42  43
ATOM     43  C   UNL A   1      42.038  27.952  28.551  1.00  0.00     0.031 A 
ATOM     44  C   UNL A   1      43.018  29.019  28.217  1.00  0.00     0.074 A 
ATOM     45  C   UNL A   1      40.983  28.194  29.360  1.00  0.00     0.049 A 
ATOM     46  N   UNL A   1      43.926  29.527  28.984  1.00  0.00    -0.248 NA
ATOM     47  C   UNL A   1      43.080  29.479  26.821  1.00  0.00     0.031 C 
ATOM     48  C   UNL A   1      39.811  27.343  29.541  1.00  0.00     0.029 A 
ATOM     49  N   UNL A   1      40.660  29.293  30.103  1.00  0.00    -0.354 N 
ATOM     50  C   UNL A   1      44.507  30.546  28.235  1.00  0.00     0.074 A 
ATOM     51  C   UNL A   1      44.092  30.346  26.871  1.00  0.00     0.031 C 
ATOM     52  C   UNL A   1      38.821  28.028  30.153  1.00  0.00     0.029 A 
ATOM     53  C   UNL A   1      39.324  29.335  30.521  1.00  0.00     0.049 A 
ATOM     54  H   UNL A   1      41.311  29.996  30.326  1.00  0.00     0.167 HD
ATOM     55  C   UNL A   1      45.062  31.638  28.828  1.00  0.00     0.034 A 
ATOM     56  C   UNL A   1      38.670  30.387  31.081  1.00  0.00     0.034 A 
ATOM     57  C   UNL A   1      45.333  31.413  30.222  1.00  0.00     0.049 A 
ATOM     58  C   UNL A   1      39.715  31.263  31.650  1.00  0.00     0.074 A 
ATOM     59  C   UNL A   1      46.101  30.517  30.936  1.00  0.00     0.029 A 
ATOM     60  N   UNL A   1      44.445  31.952  31.118  1.00  0.00    -0.354 N 
ATOM     61  N   UNL A   1      40.490  30.914  32.638  1.00  0.00    -0.248 NA
ATOM     62  C   UNL A   1      40.179  32.378  30.842  1.00  0.00     0.031 C 
ATOM     63  C   UNL A   1      45.329  30.216  32.096  1.00  0.00     0.029 A 
ATOM     64  C   UNL A   1      44.168  30.991  32.052  1.00  0.00     0.049 A 
ATOM     65  H   UNL A   1      44.074  32.864  31.093  1.00  0.00     0.167 HD
ATOM     66  C   UNL A   1      41.727  31.443  32.300  1.00  0.00     0.074 A 
ATOM     67  C   UNL A   1      41.450  32.419  31.248  1.00  0.00     0.031 C 
ATOM     68  C   UNL A   1      42.881  30.834  32.693  1.00  0.00     0.034 A 
BRANCH  55  69
ATOM     69  C   UNL A   1      45.001  33.027  28.246  1.00  0.00     0.023 A 
ATOM     70  C   UNL A   1      43.735  33.632  28.105  1.00  0.00     0.012 A 
ATOM     71  C   UNL A   1      46.089  33.645  27.587  1.00  0.00     0.148 A 
ATOM     72  C   UNL A   1      43.561  34.787  27.334  1.00  0.00     0.002 A 
ATOM     73  C   UNL A   1      45.926  34.834  26.888  1.00  0.00     0.091 A 
ATOM     74  F   UNL A   1      47.266  33.015  27.510  1.00  0.00    -0.205 F 
ATOM     75  C   UNL A   1      44.659  35.397  26.738  1.00  0.00     0.022 A 
BRANCH  73  76
ATOM     76  S   UNL A   1      47.320  35.673  26.128  1.00  0.00     0.127 S 
ATOM     77  O   UNL A   1      46.715  36.941  25.732  1.00  0.00    -0.237 OA
ATOM     78  O   UNL A   1      48.264  35.754  27.241  1.00  0.00    -0.237 OA
ATOM     79  O   UNL A   1      47.752  34.799  25.043  1.00  0.00    -0.744 OA
ENDBRANCH  73  76
ENDBRANCH  55  69
BRANCH  56  80
ATOM     80  C   UNL A   1      37.256  30.845  30.971  1.00  0.00     0.023 A 
ATOM     81  C   UNL A   1      36.531  31.140  32.149  1.00  0.00     0.012 A 
ATOM     82  C   UNL A   1      36.715  31.286  29.743  1.00  0.00     0.148 A 
ATOM     83  C   UNL A   1      35.353  31.901  32.113  1.00  0.00     0.002 A 
ATOM     84  C   UNL A   1      35.537  32.035  29.711  1.00  0.00     0.091 A 
ATOM     85  F   UNL A   1      37.399  31.055  28.616  1.00  0.00    -0.205 F 
ATOM     86  C   UNL A   1      34.865  32.361  30.895  1.00  0.00     0.022 A 
BRANCH  84  87
ATOM     87  S   UNL A   1      34.843  32.668  28.176  1.00  0.00     0.127 S 
ATOM     88  O   UNL A   1      34.422  31.438  27.503  1.00  0.00    -0.237 OA
ATOM     89  O   UNL A   1      33.750  33.507  28.659  1.00  0.00    -0.237 OA
ATOM     90  O   UNL A   1      35.934  33.368  27.510  1.00  0.00    -0.744 OA
ENDBRANCH  84  87
ENDBRANCH  56  80
BRANCH  68  91
ATOM     91  C   UNL A   1      42.791  29.718  33.702  1.00  0.00     0.023 A 
ATOM     92  C   UNL A   1      42.392  28.411  33.346  1.00  0.00     0.012 A 
ATOM     93  C   UNL A   1      43.356  29.939  34.968  1.00  0.00     0.148 A 
ATOM     94  C   UNL A   1      42.570  27.344  34.232  1.00  0.00     0.002 A 
ATOM     95  C   UNL A   1      43.569  28.870  35.829  1.00  0.00     0.091 A 
ATOM     96  F   UNL A   1      43.740  31.186  35.274  1.00  0.00    -0.205 F 
ATOM     97  C   UNL A   1      43.176  27.571  35.467  1.00  0.00     0.022 A 
BRANCH  95  98
ATOM     98  S   UNL A   1      44.453  29.066  37.378  1.00  0.00     0.127 S 
ATOM     99  O   UNL A   1      45.798  29.412  36.921  1.00  0.00    -0.237 OA
ATOM    100  O   UNL A   1      43.719  30.162  38.011  1.00  0.00    -0.237 OA
ATOM    101  O   UNL A   1      44.348  27.789  38.074  1.00  0.00    -0.744 OA
ENDBRANCH  95  98
ENDBRANCH  68  91
ENDBRANCH  42  43
ENDBRANCH  34  37
ENDBRANCH  32  33
ENDBRANCH  31  32
ENDBRANCH  30  31
ENDBRANCH   1  30
TORSDOF 19
ENDMDL
