MODEL 1
REMARK VINA RESULT:     -13.3      0.000      0.000
REMARK SMILES Cc1ccc(/C=C(\NC(=O)c2cccc(C)c2)C(=O)NCCCCNC(=O)c2ccc(-c3c4nc(c(-c5cccc(S(=O)(=O)[O-])c5F)c5ccc([nH]5)c(-c5cccc(S(=O)(=O)[O-])c5F)c5nc(c(-c6cccc(S(=O)(=O)[O-])c6F)c6ccc3[nH]6)C=C5)C=C4)cc2)cc1
REMARK SMILES IDX 23 1 22 2 21 3 20 4 18 5 19 6 7 8 6 9 5 10 1 11 2 12 3 13
REMARK SMILES IDX 92 14 4 15 91 16 8 17 9 18 10 20 11 21 12 22 17 23 13 24
REMARK SMILES IDX 15 25 14 26 16 27 24 28 25 29 26 30 27 32 28 33 29 34 90 35
REMARK SMILES IDX 30 36 89 37 31 38 32 39 33 40 83 41 34 42 88 43 82 44 84 45
REMARK SMILES IDX 35 46 87 47 81 48 80 49 36 51 68 52 48 53 67 54 49 55 52 56
REMARK SMILES IDX 66 57 85 58 50 59 51 60 65 62 86 63 53 64 37 65 38 66 46 67
REMARK SMILES IDX 39 68 41 69 47 70 40 71 42 72 43 73 44 74 45 75 69 76 70 77
REMARK SMILES IDX 78 78 71 79 73 80 79 81 72 82 74 83 75 84 76 85 77 86 54 87
REMARK SMILES IDX 55 88 63 89 56 90 58 91 64 92 57 93 59 94 60 95 61 96 62 97
REMARK H PARENT 20 7 8 19 25 31 84 50 52 61
REMARK Flexibility Score: inf
ROOT
ATOM      1  C   UNL A   1      31.919  31.197  26.812  1.00  0.00     0.023 C 
ENDROOT
BRANCH   1   2
ATOM      2  C   UNL A   1      31.388  30.419  25.613  1.00  0.00     0.023 C 
BRANCH   2   3
ATOM      3  C   UNL A   1      32.191  29.198  25.180  1.00  0.00     0.116 C 
BRANCH   3   4
ATOM      4  N   UNL A   1      33.236  29.420  24.197  1.00  0.00    -0.351 N 
ATOM      5  C   UNL A   1      33.963  28.530  23.446  1.00  0.00     0.267 C 
ATOM      6  O   UNL A   1      34.711  28.990  22.579  1.00  0.00    -0.268 OA
ATOM      7  H   UNL A   1      33.460  30.366  24.042  1.00  0.00     0.163 HD
BRANCH   5   8
ATOM      8  C   UNL A   1      33.953  27.034  23.727  1.00  0.00     0.107 C 
ATOM      9  C   UNL A   1      34.088  26.656  25.020  1.00  0.00     0.040 C 
BRANCH   9  10
ATOM     10  C   UNL A   1      34.082  25.291  25.626  1.00  0.00    -0.023 A 
ATOM     11  C   UNL A   1      33.763  21.202  27.052  1.00  0.00     0.044 C 
ATOM     12  C   UNL A   1      33.862  22.631  26.617  1.00  0.00    -0.051 A 
ATOM     13  C   UNL A   1      35.075  23.110  26.130  1.00  0.00     0.004 A 
ATOM     14  C   UNL A   1      32.773  23.502  26.666  1.00  0.00     0.004 A 
ATOM     15  C   UNL A   1      35.188  24.431  25.689  1.00  0.00     0.008 A 
ATOM     16  C   UNL A   1      32.880  24.813  26.170  1.00  0.00     0.008 A 
ENDBRANCH   9  10
BRANCH   8  17
ATOM     17  N   UNL A   1      33.751  26.084  22.762  1.00  0.00    -0.317 N 
ATOM     18  C   UNL A   1      32.622  25.655  22.109  1.00  0.00     0.255 C 
ATOM     19  H   UNL A   1      34.573  25.620  22.482  1.00  0.00     0.170 HD
ATOM     20  O   UNL A   1      32.756  24.843  21.193  1.00  0.00    -0.269 OA
BRANCH  18  21
ATOM     21  C   UNL A   1      31.276  26.078  22.532  1.00  0.00     0.040 A 
ATOM     22  C   UNL A   1      30.619  25.178  23.370  1.00  0.00     0.014 A 
ATOM     23  C   UNL A   1      30.723  27.335  22.258  1.00  0.00     0.017 A 
ATOM     24  C   UNL A   1      29.512  25.606  24.078  1.00  0.00     0.001 A 
ATOM     25  C   UNL A   1      29.565  27.742  22.931  1.00  0.00    -0.050 A 
ATOM     26  C   UNL A   1      28.985  26.878  23.862  1.00  0.00     0.003 A 
ATOM     27  C   UNL A   1      28.923  29.073  22.679  1.00  0.00     0.044 C 
ENDBRANCH  18  21
ENDBRANCH   8  17
ENDBRANCH   5   8
ENDBRANCH   3   4
ENDBRANCH   2   3
ENDBRANCH   1   2
BRANCH   1  28
ATOM     28  C   UNL A   1      33.256  30.740  27.388  1.00  0.00     0.116 C 
BRANCH  28  29
ATOM     29  N   UNL A   1      34.106  31.822  27.847  1.00  0.00    -0.352 N 
ATOM     30  C   UNL A   1      35.260  31.783  28.606  1.00  0.00     0.251 C 
ATOM     31  H   UNL A   1      33.817  32.723  27.575  1.00  0.00     0.163 HD
ATOM     32  O   UNL A   1      35.617  32.833  29.147  1.00  0.00    -0.269 OA
BRANCH  30  33
ATOM     33  C   UNL A   1      36.141  30.580  28.643  1.00  0.00     0.039 A 
ATOM     34  C   UNL A   1      36.335  29.959  29.889  1.00  0.00     0.014 A 
ATOM     35  C   UNL A   1      36.943  30.198  27.573  1.00  0.00     0.014 A 
ATOM     36  C   UNL A   1      37.475  29.192  30.128  1.00  0.00     0.010 A 
ATOM     37  C   UNL A   1      38.101  29.492  27.815  1.00  0.00     0.010 A 
ATOM     38  C   UNL A   1      38.409  29.070  29.112  1.00  0.00    -0.014 A 
BRANCH  38  39
ATOM     39  C   UNL A   1      39.781  28.619  29.282  1.00  0.00     0.031 A 
ATOM     40  C   UNL A   1      40.140  27.226  28.982  1.00  0.00     0.074 A 
ATOM     41  C   UNL A   1      40.738  29.571  29.329  1.00  0.00     0.049 A 
ATOM     42  N   UNL A   1      41.334  26.766  29.107  1.00  0.00    -0.248 NA
ATOM     43  C   UNL A   1      39.167  26.222  28.564  1.00  0.00     0.031 C 
ATOM     44  C   UNL A   1      42.099  29.491  28.806  1.00  0.00     0.029 A 
ATOM     45  N   UNL A   1      40.686  30.816  29.954  1.00  0.00    -0.354 N 
ATOM     46  C   UNL A   1      41.355  25.535  28.504  1.00  0.00     0.074 A 
ATOM     47  C   UNL A   1      39.970  25.179  28.326  1.00  0.00     0.031 C 
ATOM     48  C   UNL A   1      42.812  30.521  29.283  1.00  0.00     0.029 A 
ATOM     49  C   UNL A   1      41.998  31.177  30.290  1.00  0.00     0.049 A 
ATOM     50  H   UNL A   1      39.875  31.346  30.128  1.00  0.00     0.167 HD
ATOM     51  C   UNL A   1      42.552  25.036  28.098  1.00  0.00     0.034 A 
ATOM     52  C   UNL A   1      42.397  31.460  31.561  1.00  0.00     0.034 A 
ATOM     53  C   UNL A   1      43.668  25.831  28.638  1.00  0.00     0.049 A 
ATOM     54  C   UNL A   1      43.411  30.448  32.063  1.00  0.00     0.074 A 
ATOM     55  C   UNL A   1      44.542  26.748  28.086  1.00  0.00     0.029 A 
ATOM     56  N   UNL A   1      43.821  25.931  30.022  1.00  0.00    -0.354 N 
ATOM     57  N   UNL A   1      43.823  29.418  31.371  1.00  0.00    -0.248 NA
ATOM     58  C   UNL A   1      44.029  30.495  33.384  1.00  0.00     0.031 C 
ATOM     59  C   UNL A   1      45.126  27.491  29.155  1.00  0.00     0.029 A 
ATOM     60  C   UNL A   1      44.657  26.987  30.358  1.00  0.00     0.049 A 
ATOM     61  H   UNL A   1      43.392  25.332  30.674  1.00  0.00     0.167 HD
ATOM     62  C   UNL A   1      44.575  28.592  32.157  1.00  0.00     0.074 A 
ATOM     63  C   UNL A   1      44.758  29.364  33.376  1.00  0.00     0.031 C 
ATOM     64  C   UNL A   1      44.908  27.320  31.764  1.00  0.00     0.034 A 
BRANCH  51  65
ATOM     65  C   UNL A   1      42.735  23.923  27.083  1.00  0.00     0.023 A 
ATOM     66  C   UNL A   1      43.421  24.245  25.890  1.00  0.00     0.012 A 
ATOM     67  C   UNL A   1      42.200  22.611  27.156  1.00  0.00     0.148 A 
ATOM     68  C   UNL A   1      43.576  23.325  24.845  1.00  0.00     0.002 A 
ATOM     69  C   UNL A   1      42.424  21.668  26.147  1.00  0.00     0.091 A 
ATOM     70  F   UNL A   1      41.370  22.276  28.149  1.00  0.00    -0.205 F 
ATOM     71  C   UNL A   1      43.098  22.029  24.981  1.00  0.00     0.022 A 
BRANCH  69  72
ATOM     72  S   UNL A   1      41.884  19.954  26.297  1.00  0.00     0.127 S 
ATOM     73  O   UNL A   1      40.438  20.068  26.114  1.00  0.00    -0.237 OA
ATOM     74  O   UNL A   1      42.589  19.302  25.193  1.00  0.00    -0.237 OA
ATOM     75  O   UNL A   1      42.312  19.510  27.620  1.00  0.00    -0.744 OA
ENDBRANCH  69  72
ENDBRANCH  51  65
BRANCH  52  76
ATOM     76  C   UNL A   1      41.342  32.158  32.353  1.00  0.00     0.023 A 
ATOM     77  C   UNL A   1      41.008  33.464  31.917  1.00  0.00     0.012 A 
ATOM     78  C   UNL A   1      40.400  31.432  33.105  1.00  0.00     0.148 A 
ATOM     79  C   UNL A   1      39.719  33.972  32.092  1.00  0.00     0.002 A 
ATOM     80  C   UNL A   1      39.106  31.936  33.252  1.00  0.00     0.091 A 
ATOM     81  F   UNL A   1      40.738  30.213  33.543  1.00  0.00    -0.205 F 
ATOM     82  C   UNL A   1      38.758  33.189  32.719  1.00  0.00     0.022 A 
BRANCH  80  83
ATOM     83  S   UNL A   1      37.773  30.933  33.925  1.00  0.00     0.127 S 
ATOM     84  O   UNL A   1      36.627  31.405  33.156  1.00  0.00    -0.237 OA
ATOM     85  O   UNL A   1      38.214  29.575  33.607  1.00  0.00    -0.237 OA
ATOM     86  O   UNL A   1      37.761  31.232  35.349  1.00  0.00    -0.744 OA
ENDBRANCH  80  83
ENDBRANCH  52  76
BRANCH  64  87
ATOM     87  C   UNL A   1      45.482  26.262  32.693  1.00  0.00     0.023 A 
ATOM     88  C   UNL A   1      46.866  26.016  32.792  1.00  0.00     0.012 A 
ATOM     89  C   UNL A   1      44.654  25.573  33.616  1.00  0.00     0.148 A 
ATOM     90  C   UNL A   1      47.398  25.085  33.690  1.00  0.00     0.002 A 
ATOM     91  C   UNL A   1      45.199  24.739  34.591  1.00  0.00     0.091 A 
ATOM     92  F   UNL A   1      43.321  25.705  33.549  1.00  0.00    -0.205 F 
ATOM     93  C   UNL A   1      46.567  24.462  34.607  1.00  0.00     0.022 A 
BRANCH  91  94
ATOM     94  S   UNL A   1      44.192  24.139  35.956  1.00  0.00     0.127 S 
ATOM     95  O   UNL A   1      45.165  23.390  36.748  1.00  0.00    -0.237 OA
ATOM     96  O   UNL A   1      43.727  25.381  36.578  1.00  0.00    -0.237 OA
ATOM     97  O   UNL A   1      43.135  23.361  35.323  1.00  0.00    -0.744 OA
ENDBRANCH  91  94
ENDBRANCH  64  87
ENDBRANCH  38  39
ENDBRANCH  30  33
ENDBRANCH  28  29
ENDBRANCH   1  28
TORSDOF 17
ENDMDL
MODEL 2
REMARK VINA RESULT:     -13.0      3.768      9.067
REMARK SMILES Cc1ccc(/C=C(\NC(=O)c2cccc(C)c2)C(=O)NCCCCNC(=O)c2ccc(-c3c4nc(c(-c5cccc(S(=O)(=O)[O-])c5F)c5ccc([nH]5)c(-c5cccc(S(=O)(=O)[O-])c5F)c5nc(c(-c6cccc(S(=O)(=O)[O-])c6F)c6ccc3[nH]6)C=C5)C=C4)cc2)cc1
REMARK SMILES IDX 23 1 22 2 21 3 20 4 18 5 19 6 7 8 6 9 5 10 1 11 2 12 3 13
REMARK SMILES IDX 92 14 4 15 91 16 8 17 9 18 10 20 11 21 12 22 17 23 13 24
REMARK SMILES IDX 15 25 14 26 16 27 24 28 25 29 26 30 27 32 28 33 29 34 90 35
REMARK SMILES IDX 30 36 89 37 31 38 32 39 33 40 83 41 34 42 88 43 82 44 84 45
REMARK SMILES IDX 35 46 87 47 81 48 80 49 36 51 68 52 48 53 67 54 49 55 52 56
REMARK SMILES IDX 66 57 85 58 50 59 51 60 65 62 86 63 53 64 37 65 38 66 46 67
REMARK SMILES IDX 39 68 41 69 47 70 40 71 42 72 43 73 44 74 45 75 69 76 70 77
REMARK SMILES IDX 78 78 71 79 73 80 79 81 72 82 74 83 75 84 76 85 77 86 54 87
REMARK SMILES IDX 55 88 63 89 56 90 58 91 64 92 57 93 59 94 60 95 61 96 62 97
REMARK H PARENT 20 7 8 19 25 31 84 50 52 61
REMARK Flexibility Score: inf
ROOT
ATOM      1  C   UNL A   1      37.472  20.906  24.996  1.00  0.00     0.023 C 
ENDROOT
BRANCH   1   2
ATOM      2  C   UNL A   1      35.953  20.780  25.035  1.00  0.00     0.023 C 
BRANCH   2   3
ATOM      3  C   UNL A   1      35.164  22.070  25.217  1.00  0.00     0.116 C 
BRANCH   3   4
ATOM      4  N   UNL A   1      33.717  21.952  25.249  1.00  0.00    -0.351 N 
ATOM      5  C   UNL A   1      32.736  22.880  25.002  1.00  0.00     0.267 C 
ATOM      6  O   UNL A   1      31.568  22.483  24.972  1.00  0.00    -0.268 OA
ATOM      7  H   UNL A   1      33.384  21.056  25.487  1.00  0.00     0.163 HD
BRANCH   5   8
ATOM      8  C   UNL A   1      33.039  24.367  24.880  1.00  0.00     0.107 C 
ATOM      9  C   UNL A   1      32.775  25.133  25.965  1.00  0.00     0.040 C 
BRANCH   9  10
ATOM     10  C   UNL A   1      32.989  26.595  26.180  1.00  0.00    -0.023 A 
ATOM     11  C   UNL A   1      33.508  30.770  27.255  1.00  0.00     0.044 C 
ATOM     12  C   UNL A   1      33.293  29.348  26.838  1.00  0.00    -0.051 A 
ATOM     13  C   UNL A   1      34.376  28.603  26.384  1.00  0.00     0.004 A 
ATOM     14  C   UNL A   1      32.042  28.733  26.907  1.00  0.00     0.004 A 
ATOM     15  C   UNL A   1      34.211  27.265  26.018  1.00  0.00     0.008 A 
ATOM     16  C   UNL A   1      31.894  27.372  26.588  1.00  0.00     0.008 A 
ENDBRANCH   9  10
BRANCH   8  17
ATOM     17  N   UNL A   1      33.613  24.934  23.774  1.00  0.00    -0.317 N 
ATOM     18  C   UNL A   1      33.200  25.932  22.927  1.00  0.00     0.255 C 
ATOM     19  H   UNL A   1      34.490  24.552  23.541  1.00  0.00     0.170 HD
ATOM     20  O   UNL A   1      33.984  26.318  22.060  1.00  0.00    -0.269 OA
BRANCH  18  21
ATOM     21  C   UNL A   1      31.834  26.481  22.986  1.00  0.00     0.040 A 
ATOM     22  C   UNL A   1      30.827  25.525  23.115  1.00  0.00     0.014 A 
ATOM     23  C   UNL A   1      31.537  27.848  23.058  1.00  0.00     0.017 A 
ATOM     24  C   UNL A   1      29.564  25.929  23.502  1.00  0.00     0.001 A 
ATOM     25  C   UNL A   1      30.240  28.256  23.390  1.00  0.00    -0.050 A 
ATOM     26  C   UNL A   1      29.268  27.284  23.639  1.00  0.00     0.003 A 
ATOM     27  C   UNL A   1      29.858  29.703  23.479  1.00  0.00     0.044 C 
ENDBRANCH  18  21
ENDBRANCH   8  17
ENDBRANCH   5   8
ENDBRANCH   3   4
ENDBRANCH   2   3
ENDBRANCH   1   2
BRANCH   1  28
ATOM     28  C   UNL A   1      38.064  22.214  25.513  1.00  0.00     0.116 C 
BRANCH  28  29
ATOM     29  N   UNL A   1      39.295  22.053  26.264  1.00  0.00    -0.352 N 
ATOM     30  C   UNL A   1      40.191  23.004  26.714  1.00  0.00     0.251 C 
ATOM     31  H   UNL A   1      39.527  21.123  26.488  1.00  0.00     0.163 HD
ATOM     32  O   UNL A   1      41.318  22.613  27.032  1.00  0.00    -0.269 OA
BRANCH  30  33
ATOM     33  C   UNL A   1      39.781  24.414  26.974  1.00  0.00     0.039 A 
ATOM     34  C   UNL A   1      40.404  25.418  26.212  1.00  0.00     0.014 A 
ATOM     35  C   UNL A   1      39.008  24.787  28.068  1.00  0.00     0.014 A 
ATOM     36  C   UNL A   1      40.484  26.725  26.693  1.00  0.00     0.010 A 
ATOM     37  C   UNL A   1      39.131  26.060  28.580  1.00  0.00     0.010 A 
ATOM     38  C   UNL A   1      39.944  27.000  27.939  1.00  0.00    -0.014 A 
BRANCH  38  39
ATOM     39  C   UNL A   1      40.230  28.182  28.736  1.00  0.00     0.031 A 
ATOM     40  C   UNL A   1      39.305  29.323  28.717  1.00  0.00     0.074 A 
ATOM     41  C   UNL A   1      41.111  28.040  29.749  1.00  0.00     0.049 A 
ATOM     42  N   UNL A   1      39.497  30.395  29.401  1.00  0.00    -0.248 NA
ATOM     43  C   UNL A   1      38.109  29.370  27.882  1.00  0.00     0.031 C 
ATOM     44  C   UNL A   1      41.086  28.704  31.049  1.00  0.00     0.029 A 
ATOM     45  N   UNL A   1      42.289  27.295  29.771  1.00  0.00    -0.354 N 
ATOM     46  C   UNL A   1      38.334  31.119  29.349  1.00  0.00     0.074 A 
ATOM     47  C   UNL A   1      37.570  30.527  28.280  1.00  0.00     0.031 C 
ATOM     48  C   UNL A   1      42.262  28.508  31.663  1.00  0.00     0.029 A 
ATOM     49  C   UNL A   1      43.154  27.895  30.696  1.00  0.00     0.049 A 
ATOM     50  H   UNL A   1      42.480  26.493  29.232  1.00  0.00     0.167 HD
ATOM     51  C   UNL A   1      38.104  32.040  30.322  1.00  0.00     0.034 A 
ATOM     52  C   UNL A   1      44.399  28.345  30.378  1.00  0.00     0.034 A 
ATOM     53  C   UNL A   1      39.315  32.273  31.127  1.00  0.00     0.049 A 
ATOM     54  C   UNL A   1      44.501  29.852  30.532  1.00  0.00     0.074 A 
ATOM     55  C   UNL A   1      39.698  31.905  32.403  1.00  0.00     0.029 A 
ATOM     56  N   UNL A   1      40.464  32.757  30.500  1.00  0.00    -0.354 N 
ATOM     57  N   UNL A   1      43.507  30.620  30.893  1.00  0.00    -0.248 NA
ATOM     58  C   UNL A   1      45.714  30.621  30.275  1.00  0.00     0.031 C 
ATOM     59  C   UNL A   1      41.114  32.051  32.491  1.00  0.00     0.029 A 
ATOM     60  C   UNL A   1      41.586  32.565  31.293  1.00  0.00     0.049 A 
ATOM     61  H   UNL A   1      40.477  33.178  29.610  1.00  0.00     0.167 HD
ATOM     62  C   UNL A   1      43.850  31.935  30.750  1.00  0.00     0.074 A 
ATOM     63  C   UNL A   1      45.275  31.879  30.460  1.00  0.00     0.031 C 
ATOM     64  C   UNL A   1      42.918  32.939  30.804  1.00  0.00     0.034 A 
BRANCH  51  65
ATOM     65  C   UNL A   1      36.748  32.629  30.663  1.00  0.00     0.023 A 
ATOM     66  C   UNL A   1      36.194  32.285  31.916  1.00  0.00     0.012 A 
ATOM     67  C   UNL A   1      35.925  33.413  29.813  1.00  0.00     0.148 A 
ATOM     68  C   UNL A   1      34.912  32.698  32.305  1.00  0.00     0.002 A 
ATOM     69  C   UNL A   1      34.680  33.891  30.234  1.00  0.00     0.091 A 
ATOM     70  F   UNL A   1      36.275  33.620  28.540  1.00  0.00    -0.205 F 
ATOM     71  C   UNL A   1      34.163  33.520  31.475  1.00  0.00     0.022 A 
BRANCH  69  72
ATOM     72  S   UNL A   1      33.691  35.014  29.226  1.00  0.00     0.127 S 
ATOM     73  O   UNL A   1      33.284  36.026  30.200  1.00  0.00    -0.237 OA
ATOM     74  O   UNL A   1      34.657  35.480  28.231  1.00  0.00    -0.237 OA
ATOM     75  O   UNL A   1      32.607  34.209  28.672  1.00  0.00    -0.744 OA
ENDBRANCH  69  72
ENDBRANCH  51  65
BRANCH  52  76
ATOM     76  C   UNL A   1      45.079  27.488  29.364  1.00  0.00     0.023 A 
ATOM     77  C   UNL A   1      45.421  26.182  29.791  1.00  0.00     0.012 A 
ATOM     78  C   UNL A   1      44.925  27.732  27.987  1.00  0.00     0.148 A 
ATOM     79  C   UNL A   1      45.457  25.116  28.889  1.00  0.00     0.002 A 
ATOM     80  C   UNL A   1      44.935  26.658  27.095  1.00  0.00     0.091 A 
ATOM     81  F   UNL A   1      44.636  28.979  27.590  1.00  0.00    -0.205 F 
ATOM     82  C   UNL A   1      45.170  25.349  27.550  1.00  0.00     0.022 A 
BRANCH  80  83
ATOM     83  S   UNL A   1      44.438  26.852  25.377  1.00  0.00     0.127 S 
ATOM     84  O   UNL A   1      45.712  27.150  24.730  1.00  0.00    -0.237 OA
ATOM     85  O   UNL A   1      43.879  25.537  25.064  1.00  0.00    -0.237 OA
ATOM     86  O   UNL A   1      43.455  27.925  25.390  1.00  0.00    -0.744 OA
ENDBRANCH  80  83
ENDBRANCH  52  76
BRANCH  64  87
ATOM     87  C   UNL A   1      43.180  34.372  30.369  1.00  0.00     0.023 A 
ATOM     88  C   UNL A   1      43.479  35.397  31.290  1.00  0.00     0.012 A 
ATOM     89  C   UNL A   1      43.281  34.712  28.996  1.00  0.00     0.148 A 
ATOM     90  C   UNL A   1      43.780  36.702  30.884  1.00  0.00     0.002 A 
ATOM     91  C   UNL A   1      43.701  35.980  28.596  1.00  0.00     0.091 A 
ATOM     92  F   UNL A   1      42.955  33.812  28.057  1.00  0.00    -0.205 F 
ATOM     93  C   UNL A   1      43.913  36.990  29.536  1.00  0.00     0.022 A 
BRANCH  91  94
ATOM     94  S   UNL A   1      44.149  36.303  26.884  1.00  0.00     0.127 S 
ATOM     95  O   UNL A   1      45.166  35.283  26.635  1.00  0.00    -0.237 OA
ATOM     96  O   UNL A   1      42.884  36.085  26.178  1.00  0.00    -0.237 OA
ATOM     97  O   UNL A   1      44.603  37.687  26.873  1.00  0.00    -0.744 OA
ENDBRANCH  91  94
ENDBRANCH  64  87
ENDBRANCH  38  39
ENDBRANCH  30  33
ENDBRANCH  28  29
ENDBRANCH   1  28
TORSDOF 17
ENDMDL
MODEL 3
REMARK VINA RESULT:     -12.4      4.251      9.580
REMARK SMILES Cc1ccc(/C=C(\NC(=O)c2cccc(C)c2)C(=O)NCCCCNC(=O)c2ccc(-c3c4nc(c(-c5cccc(S(=O)(=O)[O-])c5F)c5ccc([nH]5)c(-c5cccc(S(=O)(=O)[O-])c5F)c5nc(c(-c6cccc(S(=O)(=O)[O-])c6F)c6ccc3[nH]6)C=C5)C=C4)cc2)cc1
REMARK SMILES IDX 23 1 22 2 21 3 20 4 18 5 19 6 7 8 6 9 5 10 1 11 2 12 3 13
REMARK SMILES IDX 92 14 4 15 91 16 8 17 9 18 10 20 11 21 12 22 17 23 13 24
REMARK SMILES IDX 15 25 14 26 16 27 24 28 25 29 26 30 27 32 28 33 29 34 90 35
REMARK SMILES IDX 30 36 89 37 31 38 32 39 33 40 83 41 34 42 88 43 82 44 84 45
REMARK SMILES IDX 35 46 87 47 81 48 80 49 36 51 68 52 48 53 67 54 49 55 52 56
REMARK SMILES IDX 66 57 85 58 50 59 51 60 65 62 86 63 53 64 37 65 38 66 46 67
REMARK SMILES IDX 39 68 41 69 47 70 40 71 42 72 43 73 44 74 45 75 69 76 70 77
REMARK SMILES IDX 78 78 71 79 73 80 79 81 72 82 74 83 75 84 76 85 77 86 54 87
REMARK SMILES IDX 55 88 63 89 56 90 58 91 64 92 57 93 59 94 60 95 61 96 62 97
REMARK H PARENT 20 7 8 19 25 31 84 50 52 61
REMARK Flexibility Score: inf
ROOT
ATOM      1  C   UNL A   1      37.711  22.607  25.126  1.00  0.00     0.023 C 
ENDROOT
BRANCH   1   2
ATOM      2  C   UNL A   1      36.941  21.304  24.941  1.00  0.00     0.023 C 
BRANCH   2   3
ATOM      3  C   UNL A   1      35.481  21.306  25.375  1.00  0.00     0.116 C 
BRANCH   3   4
ATOM      4  N   UNL A   1      35.219  21.551  26.782  1.00  0.00    -0.351 N 
ATOM      5  C   UNL A   1      34.361  22.431  27.393  1.00  0.00     0.267 C 
ATOM      6  O   UNL A   1      34.234  22.349  28.619  1.00  0.00    -0.268 OA
ATOM      7  H   UNL A   1      35.742  20.992  27.400  1.00  0.00     0.163 HD
BRANCH   5   8
ATOM      8  C   UNL A   1      33.668  23.551  26.629  1.00  0.00     0.107 C 
ATOM      9  C   UNL A   1      34.456  24.354  25.877  1.00  0.00     0.040 C 
BRANCH   9  10
ATOM     10  C   UNL A   1      34.091  25.501  24.993  1.00  0.00    -0.023 A 
ATOM     11  C   UNL A   1      33.445  29.015  22.526  1.00  0.00     0.044 C 
ATOM     12  C   UNL A   1      33.613  27.813  23.403  1.00  0.00    -0.051 A 
ATOM     13  C   UNL A   1      33.680  26.552  22.820  1.00  0.00     0.004 A 
ATOM     14  C   UNL A   1      33.725  27.913  24.791  1.00  0.00     0.004 A 
ATOM     15  C   UNL A   1      33.867  25.416  23.611  1.00  0.00     0.008 A 
ATOM     16  C   UNL A   1      33.967  26.772  25.574  1.00  0.00     0.008 A 
ENDBRANCH   9  10
BRANCH   8  17
ATOM     17  N   UNL A   1      32.310  23.733  26.619  1.00  0.00    -0.317 N 
ATOM     18  C   UNL A   1      31.296  23.085  25.959  1.00  0.00     0.255 C 
ATOM     19  H   UNL A   1      32.004  24.468  27.197  1.00  0.00     0.170 HD
ATOM     20  O   UNL A   1      30.136  23.400  26.227  1.00  0.00    -0.269 OA
BRANCH  18  21
ATOM     21  C   UNL A   1      31.568  22.100  24.898  1.00  0.00     0.040 A 
ATOM     22  C   UNL A   1      31.593  22.626  23.607  1.00  0.00     0.014 A 
ATOM     23  C   UNL A   1      31.925  20.766  25.134  1.00  0.00     0.017 A 
ATOM     24  C   UNL A   1      32.150  21.878  22.588  1.00  0.00     0.001 A 
ATOM     25  C   UNL A   1      32.431  19.991  24.085  1.00  0.00    -0.050 A 
ATOM     26  C   UNL A   1      32.566  20.569  22.820  1.00  0.00     0.003 A 
ATOM     27  C   UNL A   1      32.825  18.557  24.272  1.00  0.00     0.044 C 
ENDBRANCH  18  21
ENDBRANCH   8  17
ENDBRANCH   5   8
ENDBRANCH   3   4
ENDBRANCH   2   3
ENDBRANCH   1   2
BRANCH   1  28
ATOM     28  C   UNL A   1      38.837  22.598  26.155  1.00  0.00     0.116 C 
BRANCH  28  29
ATOM     29  N   UNL A   1      39.604  21.368  26.187  1.00  0.00    -0.352 N 
ATOM     30  C   UNL A   1      40.973  21.174  26.202  1.00  0.00     0.251 C 
ATOM     31  H   UNL A   1      39.067  20.543  26.200  1.00  0.00     0.163 HD
ATOM     32  O   UNL A   1      41.389  20.054  25.894  1.00  0.00    -0.269 OA
BRANCH  30  33
ATOM     33  C   UNL A   1      41.909  22.207  26.731  1.00  0.00     0.039 A 
ATOM     34  C   UNL A   1      41.974  22.368  28.126  1.00  0.00     0.014 A 
ATOM     35  C   UNL A   1      42.527  23.153  25.919  1.00  0.00     0.014 A 
ATOM     36  C   UNL A   1      42.393  23.576  28.681  1.00  0.00     0.010 A 
ATOM     37  C   UNL A   1      42.887  24.371  26.454  1.00  0.00     0.010 A 
ATOM     38  C   UNL A   1      42.731  24.610  27.824  1.00  0.00    -0.014 A 
BRANCH  38  39
ATOM     39  C   UNL A   1      42.851  26.010  28.201  1.00  0.00     0.031 A 
ATOM     40  C   UNL A   1      41.653  26.858  28.271  1.00  0.00     0.074 A 
ATOM     41  C   UNL A   1      43.980  26.377  28.844  1.00  0.00     0.049 A 
ATOM     42  N   UNL A   1      41.690  28.100  28.602  1.00  0.00    -0.248 NA
ATOM     43  C   UNL A   1      40.317  26.385  27.922  1.00  0.00     0.031 C 
ATOM     44  C   UNL A   1      44.118  27.376  29.899  1.00  0.00     0.029 A 
ATOM     45  N   UNL A   1      45.287  25.953  28.604  1.00  0.00    -0.354 N 
ATOM     46  C   UNL A   1      40.396  28.498  28.813  1.00  0.00     0.074 A 
ATOM     47  C   UNL A   1      39.582  27.459  28.233  1.00  0.00     0.031 C 
ATOM     48  C   UNL A   1      45.420  27.640  30.084  1.00  0.00     0.029 A 
ATOM     49  C   UNL A   1      46.148  26.979  29.016  1.00  0.00     0.049 A 
ATOM     50  H   UNL A   1      45.556  25.090  28.214  1.00  0.00     0.167 HD
ATOM     51  C   UNL A   1      40.176  29.593  29.587  1.00  0.00     0.034 A 
ATOM     52  C   UNL A   1      47.051  27.577  28.193  1.00  0.00     0.034 A 
ATOM     53  C   UNL A   1      41.431  30.319  29.845  1.00  0.00     0.049 A 
ATOM     54  C   UNL A   1      46.724  29.044  27.980  1.00  0.00     0.074 A 
ATOM     55  C   UNL A   1      42.251  30.445  30.951  1.00  0.00     0.029 A 
ATOM     56  N   UNL A   1      42.150  30.835  28.766  1.00  0.00    -0.354 N 
ATOM     57  N   UNL A   1      45.685  29.645  28.499  1.00  0.00    -0.248 NA
ATOM     58  C   UNL A   1      47.517  29.950  27.156  1.00  0.00     0.031 C 
ATOM     59  C   UNL A   1      43.518  30.921  30.500  1.00  0.00     0.029 A 
ATOM     60  C   UNL A   1      43.452  31.144  29.133  1.00  0.00     0.049 A 
ATOM     61  H   UNL A   1      41.782  30.962  27.862  1.00  0.00     0.167 HD
ATOM     62  C   UNL A   1      45.552  30.898  27.972  1.00  0.00     0.074 A 
ATOM     63  C   UNL A   1      46.782  31.076  27.215  1.00  0.00     0.031 C 
ATOM     64  C   UNL A   1      44.410  31.640  28.139  1.00  0.00     0.034 A 
BRANCH  51  65
ATOM     65  C   UNL A   1      38.858  29.941  30.254  1.00  0.00     0.023 A 
ATOM     66  C   UNL A   1      38.482  29.174  31.378  1.00  0.00     0.012 A 
ATOM     67  C   UNL A   1      37.907  30.895  29.807  1.00  0.00     0.148 A 
ATOM     68  C   UNL A   1      37.250  29.345  32.023  1.00  0.00     0.002 A 
ATOM     69  C   UNL A   1      36.713  31.121  30.499  1.00  0.00     0.091 A 
ATOM     70  F   UNL A   1      38.081  31.525  28.641  1.00  0.00    -0.205 F 
ATOM     71  C   UNL A   1      36.373  30.334  31.599  1.00  0.00     0.022 A 
BRANCH  69  72
ATOM     72  S   UNL A   1      35.566  32.434  30.033  1.00  0.00     0.127 S 
ATOM     73  O   UNL A   1      35.113  31.995  28.714  1.00  0.00    -0.237 OA
ATOM     74  O   UNL A   1      34.551  32.355  31.084  1.00  0.00    -0.237 OA
ATOM     75  O   UNL A   1      36.342  33.670  30.047  1.00  0.00    -0.744 OA
ENDBRANCH  69  72
ENDBRANCH  51  65
BRANCH  52  76
ATOM     76  C   UNL A   1      47.648  26.629  27.207  1.00  0.00     0.023 A 
ATOM     77  C   UNL A   1      46.929  26.464  25.998  1.00  0.00     0.012 A 
ATOM     78  C   UNL A   1      49.024  26.336  27.223  1.00  0.00     0.148 A 
ATOM     79  C   UNL A   1      47.590  26.167  24.804  1.00  0.00     0.002 A 
ATOM     80  C   UNL A   1      49.681  26.067  26.021  1.00  0.00     0.091 A 
ATOM     81  F   UNL A   1      49.688  26.461  28.380  1.00  0.00    -0.205 F 
ATOM     82  C   UNL A   1      48.970  26.013  24.810  1.00  0.00     0.022 A 
BRANCH  80  83
ATOM     83  S   UNL A   1      51.476  25.992  25.922  1.00  0.00     0.127 S 
ATOM     84  O   UNL A   1      51.862  27.235  26.582  1.00  0.00    -0.237 OA
ATOM     85  O   UNL A   1      51.779  24.774  26.673  1.00  0.00    -0.237 OA
ATOM     86  O   UNL A   1      51.770  25.899  24.500  1.00  0.00    -0.744 OA
ENDBRANCH  80  83
ENDBRANCH  52  76
BRANCH  64  87
ATOM     87  C   UNL A   1      44.085  32.897  27.349  1.00  0.00     0.023 A 
ATOM     88  C   UNL A   1      44.060  32.917  25.939  1.00  0.00     0.012 A 
ATOM     89  C   UNL A   1      43.645  34.077  28.001  1.00  0.00     0.148 A 
ATOM     90  C   UNL A   1      43.702  34.058  25.214  1.00  0.00     0.002 A 
ATOM     91  C   UNL A   1      43.172  35.169  27.275  1.00  0.00     0.091 A 
ATOM     92  F   UNL A   1      43.695  34.162  29.339  1.00  0.00    -0.205 F 
ATOM     93  C   UNL A   1      43.235  35.179  25.881  1.00  0.00     0.022 A 
BRANCH  91  94
ATOM     94  S   UNL A   1      42.310  36.517  28.098  1.00  0.00     0.127 S 
ATOM     95  O   UNL A   1      41.227  35.815  28.783  1.00  0.00    -0.237 OA
ATOM     96  O   UNL A   1      43.341  37.059  28.986  1.00  0.00    -0.237 OA
ATOM     97  O   UNL A   1      41.919  37.419  27.023  1.00  0.00    -0.744 OA
ENDBRANCH  91  94
ENDBRANCH  64  87
ENDBRANCH  38  39
ENDBRANCH  30  33
ENDBRANCH  28  29
ENDBRANCH   1  28
TORSDOF 17
ENDMDL
