MODEL 1
REMARK VINA RESULT:     -12.5      0.000      0.000
REMARK SMILES O=C(NCCCCNC(=O)[C@@H]1C=C[C@@H](NS(=O)(=O)c2ccc(F)c(F)c2F)C1)c1ccc(-c2c3nc(c(-c4cccc(S(=O)(=O)[O-])c4F)c4ccc([nH]4)c(-c4cccc(S(=O)(=O)[O-])c4F)c4nc(c(-c5cccc(S(=O)(=O)[O-])c5F)c5ccc2[nH]5)C=C4)C=C3)cc1
REMARK SMILES IDX 5 1 4 2 3 3 1 4 2 5 29 7 30 8 91 9 31 10 90 11 32 12 33 13
REMARK SMILES IDX 34 14 84 15 35 16 89 17 83 18 85 19 36 20 88 21 82 22 81 23
REMARK SMILES IDX 37 25 69 26 49 27 68 28 50 29 53 30 67 31 86 32 51 33 52 34
REMARK SMILES IDX 66 36 87 37 54 38 38 39 39 40 47 41 40 42 42 43 48 44 41 45
REMARK SMILES IDX 43 46 44 47 45 48 46 49 70 50 71 51 79 52 72 53 74 54 80 55
REMARK SMILES IDX 73 56 75 57 76 58 77 59 78 60 55 61 56 62 64 63 57 64 59 65
REMARK SMILES IDX 65 66 58 67 60 68 61 69 62 70 63 71 6 72 7 73 8 74 9 75
REMARK SMILES IDX 10 77 11 78 12 79 28 80 13 81 14 82 15 83 16 85 17 86 18 87
REMARK SMILES IDX 19 88 20 89 26 90 21 91 24 92 27 93 22 94 25 95 23 96
REMARK H PARENT 3 6 85 24 53 35 8 76 15 84
REMARK Flexibility Score: inf
ROOT
ATOM      1  C   UNL A   1      37.949  19.884  24.973  1.00  0.00     0.023 C 
ENDROOT
BRANCH   1   2
ATOM      2  C   UNL A   1      39.120  20.266  25.864  1.00  0.00     0.116 C 
BRANCH   2   3
ATOM      3  N   UNL A   1      40.138  19.232  25.956  1.00  0.00    -0.352 N 
ATOM      4  O   UNL A   1      42.243  18.438  26.124  1.00  0.00    -0.269 OA
ATOM      5  C   UNL A   1      41.487  19.401  26.180  1.00  0.00     0.251 C 
ATOM      6  H   UNL A   1      39.828  18.304  25.845  1.00  0.00     0.163 HD
BRANCH   5   7
ATOM      7  C   UNL A   1      41.996  20.765  26.430  1.00  0.00     0.039 A 
ATOM      8  C   UNL A   1      42.178  21.218  27.740  1.00  0.00     0.014 A 
ATOM      9  C   UNL A   1      42.217  21.619  25.348  1.00  0.00     0.014 A 
ATOM     10  C   UNL A   1      42.436  22.562  27.970  1.00  0.00     0.010 A 
ATOM     11  C   UNL A   1      42.559  22.953  25.582  1.00  0.00     0.010 A 
ATOM     12  C   UNL A   1      42.635  23.444  26.895  1.00  0.00    -0.014 A 
BRANCH  12  13
ATOM     13  C   UNL A   1      42.997  24.855  27.173  1.00  0.00     0.031 A 
ATOM     14  C   UNL A   1      42.035  25.795  27.845  1.00  0.00     0.074 A 
ATOM     15  C   UNL A   1      44.223  25.281  26.810  1.00  0.00     0.049 A 
ATOM     16  N   UNL A   1      42.211  27.048  28.174  1.00  0.00    -0.248 NA
ATOM     17  C   UNL A   1      40.704  25.269  28.189  1.00  0.00     0.031 C 
ATOM     18  C   UNL A   1      45.220  24.466  26.111  1.00  0.00     0.029 A 
ATOM     19  N   UNL A   1      44.839  26.494  26.973  1.00  0.00    -0.354 N 
ATOM     20  C   UNL A   1      41.008  27.475  28.722  1.00  0.00     0.074 A 
ATOM     21  C   UNL A   1      40.104  26.345  28.684  1.00  0.00     0.031 C 
ATOM     22  C   UNL A   1      46.331  25.192  25.927  1.00  0.00     0.029 A 
ATOM     23  C   UNL A   1      46.109  26.536  26.448  1.00  0.00     0.049 A 
ATOM     24  H   UNL A   1      44.415  27.259  27.423  1.00  0.00     0.167 HD
ATOM     25  C   UNL A   1      40.692  28.694  29.223  1.00  0.00     0.034 A 
ATOM     26  C   UNL A   1      46.996  27.547  26.378  1.00  0.00     0.034 A 
ATOM     27  C   UNL A   1      41.612  29.800  29.298  1.00  0.00     0.049 A 
ATOM     28  C   UNL A   1      46.628  28.873  26.977  1.00  0.00     0.074 A 
ATOM     29  C   UNL A   1      41.406  31.053  29.849  1.00  0.00     0.029 A 
ATOM     30  N   UNL A   1      42.907  29.789  28.805  1.00  0.00    -0.354 N 
ATOM     31  N   UNL A   1      45.532  29.215  27.607  1.00  0.00    -0.248 NA
ATOM     32  C   UNL A   1      47.628  29.944  26.879  1.00  0.00     0.031 C 
ATOM     33  C   UNL A   1      42.575  31.803  29.680  1.00  0.00     0.029 A 
ATOM     34  C   UNL A   1      43.512  31.014  29.034  1.00  0.00     0.049 A 
ATOM     35  H   UNL A   1      43.334  29.023  28.358  1.00  0.00     0.167 HD
ATOM     36  C   UNL A   1      45.714  30.534  27.997  1.00  0.00     0.074 A 
ATOM     37  C   UNL A   1      47.041  30.920  27.561  1.00  0.00     0.031 C 
ATOM     38  C   UNL A   1      44.851  31.362  28.637  1.00  0.00     0.034 A 
BRANCH  25  39
ATOM     39  C   UNL A   1      39.308  28.896  29.780  1.00  0.00     0.023 A 
ATOM     40  C   UNL A   1      39.021  28.465  31.090  1.00  0.00     0.012 A 
ATOM     41  C   UNL A   1      38.325  29.593  29.050  1.00  0.00     0.148 A 
ATOM     42  C   UNL A   1      37.772  28.712  31.662  1.00  0.00     0.002 A 
ATOM     43  C   UNL A   1      37.094  29.865  29.638  1.00  0.00     0.091 A 
ATOM     44  F   UNL A   1      38.610  29.976  27.797  1.00  0.00    -0.205 F 
ATOM     45  C   UNL A   1      36.814  29.421  30.940  1.00  0.00     0.022 A 
BRANCH  43  46
ATOM     46  S   UNL A   1      35.820  30.830  28.816  1.00  0.00     0.127 S 
ATOM     47  O   UNL A   1      35.095  29.795  28.080  1.00  0.00    -0.237 OA
ATOM     48  O   UNL A   1      35.085  31.402  29.946  1.00  0.00    -0.237 OA
ATOM     49  O   UNL A   1      36.524  31.806  27.996  1.00  0.00    -0.744 OA
ENDBRANCH  43  46
ENDBRANCH  25  39
BRANCH  26  50
ATOM     50  C   UNL A   1      48.329  27.312  25.760  1.00  0.00     0.023 A 
ATOM     51  C   UNL A   1      49.375  26.795  26.546  1.00  0.00     0.012 A 
ATOM     52  C   UNL A   1      48.546  27.533  24.386  1.00  0.00     0.148 A 
ATOM     53  C   UNL A   1      50.620  26.519  25.978  1.00  0.00     0.002 A 
ATOM     54  C   UNL A   1      49.769  27.198  23.815  1.00  0.00     0.091 A 
ATOM     55  F   UNL A   1      47.546  28.048  23.655  1.00  0.00    -0.205 F 
ATOM     56  C   UNL A   1      50.812  26.704  24.611  1.00  0.00     0.022 A 
BRANCH  54  57
ATOM     57  S   UNL A   1      50.022  27.261  22.038  1.00  0.00     0.127 S 
ATOM     58  O   UNL A   1      51.386  26.755  21.910  1.00  0.00    -0.237 OA
ATOM     59  O   UNL A   1      48.981  26.360  21.542  1.00  0.00    -0.237 OA
ATOM     60  O   UNL A   1      49.817  28.658  21.677  1.00  0.00    -0.744 OA
ENDBRANCH  54  57
ENDBRANCH  26  50
BRANCH  38  61
ATOM     61  C   UNL A   1      45.321  32.763  28.915  1.00  0.00     0.023 A 
ATOM     62  C   UNL A   1      46.038  33.030  30.099  1.00  0.00     0.012 A 
ATOM     63  C   UNL A   1      45.106  33.798  27.986  1.00  0.00     0.148 A 
ATOM     64  C   UNL A   1      46.513  34.313  30.364  1.00  0.00     0.002 A 
ATOM     65  C   UNL A   1      45.618  35.065  28.238  1.00  0.00     0.091 A 
ATOM     66  F   UNL A   1      44.399  33.529  26.878  1.00  0.00    -0.205 F 
ATOM     67  C   UNL A   1      46.312  35.328  29.430  1.00  0.00     0.022 A 
BRANCH  65  68
ATOM     68  S   UNL A   1      45.475  36.404  27.049  1.00  0.00     0.127 S 
ATOM     69  O   UNL A   1      46.209  37.477  27.716  1.00  0.00    -0.237 OA
ATOM     70  O   UNL A   1      46.143  35.850  25.870  1.00  0.00    -0.237 OA
ATOM     71  O   UNL A   1      44.046  36.628  26.876  1.00  0.00    -0.744 OA
ENDBRANCH  65  68
ENDBRANCH  38  61
ENDBRANCH  12  13
ENDBRANCH   5   7
ENDBRANCH   2   3
ENDBRANCH   1   2
BRANCH   1  72
ATOM     72  C   UNL A   1      36.975  21.024  24.686  1.00  0.00     0.023 C 
BRANCH  72  73
ATOM     73  C   UNL A   1      35.544  20.775  25.165  1.00  0.00     0.116 C 
BRANCH  73  74
ATOM     74  N   UNL A   1      35.101  19.431  24.868  1.00  0.00    -0.356 N 
ATOM     75  C   UNL A   1      33.897  18.921  24.502  1.00  0.00     0.226 C 
ATOM     76  H   UNL A   1      35.811  18.754  24.946  1.00  0.00     0.163 HD
ATOM     77  O   UNL A   1      33.888  17.717  24.220  1.00  0.00    -0.274 OA
BRANCH  75  78
ATOM     78  C   UNL A   1      32.595  19.730  24.353  1.00  0.00     0.103 C 
ATOM     79  C   UNL A   1      32.510  20.473  23.059  1.00  0.00    -0.016 C 
ATOM     80  C   UNL A   1      32.206  20.801  25.377  1.00  0.00     0.042 C 
ATOM     81  C   UNL A   1      32.384  21.790  23.251  1.00  0.00    -0.011 C 
ATOM     82  C   UNL A   1      32.443  22.159  24.695  1.00  0.00     0.093 C 
BRANCH  82  83
ATOM     83  N   UNL A   1      31.446  23.138  25.076  1.00  0.00    -0.204 NA
ATOM     84  H   UNL A   1      30.561  22.632  25.123  1.00  0.00     0.142 HD
BRANCH  83  85
ATOM     85  S   UNL A   1      31.532  24.045  26.487  1.00  0.00     0.244 S 
ATOM     86  O   UNL A   1      30.256  23.974  27.164  1.00  0.00    -0.207 OA
ATOM     87  O   UNL A   1      32.739  23.591  27.140  1.00  0.00    -0.207 OA
BRANCH  85  88
ATOM     88  C   UNL A   1      31.733  25.731  25.976  1.00  0.00     0.121 A 
ATOM     89  C   UNL A   1      32.965  26.374  26.199  1.00  0.00     0.028 A 
ATOM     90  C   UNL A   1      30.753  26.368  25.223  1.00  0.00     0.181 A 
ATOM     91  C   UNL A   1      33.181  27.667  25.717  1.00  0.00     0.044 A 
ATOM     92  C   UNL A   1      30.986  27.644  24.713  1.00  0.00     0.195 A 
ATOM     93  F   UNL A   1      29.582  25.780  24.945  1.00  0.00    -0.202 F 
ATOM     94  C   UNL A   1      32.191  28.290  24.965  1.00  0.00     0.161 A 
ATOM     95  F   UNL A   1      30.055  28.239  23.954  1.00  0.00    -0.200 F 
ATOM     96  F   UNL A   1      32.426  29.506  24.457  1.00  0.00    -0.204 F 
ENDBRANCH  85  88
ENDBRANCH  83  85
ENDBRANCH  82  83
ENDBRANCH  75  78
ENDBRANCH  73  74
ENDBRANCH  72  73
ENDBRANCH   1  72
TORSDOF 17
ENDMDL
MODEL 2
REMARK VINA RESULT:     -12.4      6.141      9.953
REMARK SMILES O=C(NCCCCNC(=O)[C@@H]1C=C[C@@H](NS(=O)(=O)c2ccc(F)c(F)c2F)C1)c1ccc(-c2c3nc(c(-c4cccc(S(=O)(=O)[O-])c4F)c4ccc([nH]4)c(-c4cccc(S(=O)(=O)[O-])c4F)c4nc(c(-c5cccc(S(=O)(=O)[O-])c5F)c5ccc2[nH]5)C=C4)C=C3)cc1
REMARK SMILES IDX 5 1 4 2 3 3 1 4 2 5 29 7 30 8 91 9 31 10 90 11 32 12 33 13
REMARK SMILES IDX 34 14 84 15 35 16 89 17 83 18 85 19 36 20 88 21 82 22 81 23
REMARK SMILES IDX 37 25 69 26 49 27 68 28 50 29 53 30 67 31 86 32 51 33 52 34
REMARK SMILES IDX 66 36 87 37 54 38 38 39 39 40 47 41 40 42 42 43 48 44 41 45
REMARK SMILES IDX 43 46 44 47 45 48 46 49 70 50 71 51 79 52 72 53 74 54 80 55
REMARK SMILES IDX 73 56 75 57 76 58 77 59 78 60 55 61 56 62 64 63 57 64 59 65
REMARK SMILES IDX 65 66 58 67 60 68 61 69 62 70 63 71 6 72 7 73 8 74 9 75
REMARK SMILES IDX 10 77 11 78 12 79 28 80 13 81 14 82 15 83 16 85 17 86 18 87
REMARK SMILES IDX 19 88 20 89 26 90 21 91 24 92 27 93 22 94 25 95 23 96
REMARK H PARENT 3 6 85 24 53 35 8 76 15 84
REMARK Flexibility Score: inf
ROOT
ATOM      1  C   UNL A   1      31.307  31.714  26.609  1.00  0.00     0.023 C 
ENDROOT
BRANCH   1   2
ATOM      2  C   UNL A   1      32.653  32.286  27.026  1.00  0.00     0.116 C 
BRANCH   2   3
ATOM      3  N   UNL A   1      32.575  33.657  27.505  1.00  0.00    -0.352 N 
ATOM      4  O   UNL A   1      33.167  35.415  28.789  1.00  0.00    -0.269 OA
ATOM      5  C   UNL A   1      33.422  34.284  28.392  1.00  0.00     0.251 C 
ATOM      6  H   UNL A   1      31.832  34.199  27.155  1.00  0.00     0.163 HD
BRANCH   5   7
ATOM      7  C   UNL A   1      34.598  33.542  28.890  1.00  0.00     0.039 A 
ATOM      8  C   UNL A   1      34.431  32.329  29.562  1.00  0.00     0.014 A 
ATOM      9  C   UNL A   1      35.869  34.106  28.751  1.00  0.00     0.014 A 
ATOM     10  C   UNL A   1      35.510  31.755  30.221  1.00  0.00     0.010 A 
ATOM     11  C   UNL A   1      36.968  33.482  29.346  1.00  0.00     0.010 A 
ATOM     12  C   UNL A   1      36.791  32.321  30.116  1.00  0.00    -0.014 A 
BRANCH  12  13
ATOM     13  C   UNL A   1      37.941  31.637  30.757  1.00  0.00     0.031 A 
ATOM     14  C   UNL A   1      38.322  31.914  32.185  1.00  0.00     0.074 A 
ATOM     15  C   UNL A   1      38.640  30.747  30.026  1.00  0.00     0.049 A 
ATOM     16  N   UNL A   1      39.286  31.383  32.892  1.00  0.00    -0.248 NA
ATOM     17  C   UNL A   1      37.531  32.918  32.914  1.00  0.00     0.031 C 
ATOM     18  C   UNL A   1      38.384  30.434  28.618  1.00  0.00     0.029 A 
ATOM     19  N   UNL A   1      39.702  29.948  30.357  1.00  0.00    -0.354 N 
ATOM     20  C   UNL A   1      39.248  32.012  34.130  1.00  0.00     0.074 A 
ATOM     21  C   UNL A   1      38.161  32.968  34.082  1.00  0.00     0.031 C 
ATOM     22  C   UNL A   1      39.247  29.493  28.212  1.00  0.00     0.029 A 
ATOM     23  C   UNL A   1      40.149  29.172  29.313  1.00  0.00     0.049 A 
ATOM     24  H   UNL A   1      40.106  29.929  31.254  1.00  0.00     0.167 HD
ATOM     25  C   UNL A   1      40.037  31.801  35.211  1.00  0.00     0.034 A 
ATOM     26  C   UNL A   1      41.179  28.308  29.240  1.00  0.00     0.034 A 
ATOM     27  C   UNL A   1      41.086  30.815  35.264  1.00  0.00     0.049 A 
ATOM     28  C   UNL A   1      42.009  28.069  30.467  1.00  0.00     0.074 A 
ATOM     29  C   UNL A   1      41.896  30.481  36.337  1.00  0.00     0.029 A 
ATOM     30  N   UNL A   1      41.474  30.011  34.205  1.00  0.00    -0.354 N 
ATOM     31  N   UNL A   1      41.871  28.581  31.665  1.00  0.00    -0.248 NA
ATOM     32  C   UNL A   1      43.119  27.116  30.341  1.00  0.00     0.031 C 
ATOM     33  C   UNL A   1      42.780  29.479  35.920  1.00  0.00     0.029 A 
ATOM     34  C   UNL A   1      42.514  29.183  34.594  1.00  0.00     0.049 A 
ATOM     35  H   UNL A   1      41.069  30.026  33.308  1.00  0.00     0.167 HD
ATOM     36  C   UNL A   1      42.865  28.000  32.442  1.00  0.00     0.074 A 
ATOM     37  C   UNL A   1      43.577  27.073  31.586  1.00  0.00     0.031 C 
ATOM     38  C   UNL A   1      43.177  28.232  33.741  1.00  0.00     0.034 A 
BRANCH  25  39
ATOM     39  C   UNL A   1      39.774  32.613  36.451  1.00  0.00     0.023 A 
ATOM     40  C   UNL A   1      40.450  33.836  36.631  1.00  0.00     0.012 A 
ATOM     41  C   UNL A   1      38.796  32.218  37.385  1.00  0.00     0.148 A 
ATOM     42  C   UNL A   1      40.167  34.648  37.730  1.00  0.00     0.002 A 
ATOM     43  C   UNL A   1      38.496  33.049  38.460  1.00  0.00     0.091 A 
ATOM     44  F   UNL A   1      38.180  31.042  37.208  1.00  0.00    -0.205 F 
ATOM     45  C   UNL A   1      39.183  34.261  38.637  1.00  0.00     0.022 A 
BRANCH  43  46
ATOM     46  S   UNL A   1      37.197  32.670  39.643  1.00  0.00     0.127 S 
ATOM     47  O   UNL A   1      36.011  32.674  38.789  1.00  0.00    -0.237 OA
ATOM     48  O   UNL A   1      37.594  31.347  40.128  1.00  0.00    -0.237 OA
ATOM     49  O   UNL A   1      37.251  33.724  40.647  1.00  0.00    -0.744 OA
ENDBRANCH  43  46
ENDBRANCH  25  39
BRANCH  26  50
ATOM     50  C   UNL A   1      41.435  27.577  27.970  1.00  0.00     0.023 A 
ATOM     51  C   UNL A   1      41.970  28.270  26.869  1.00  0.00     0.012 A 
ATOM     52  C   UNL A   1      41.217  26.189  27.869  1.00  0.00     0.148 A 
ATOM     53  C   UNL A   1      42.267  27.596  25.682  1.00  0.00     0.002 A 
ATOM     54  C   UNL A   1      41.573  25.514  26.706  1.00  0.00     0.091 A 
ATOM     55  F   UNL A   1      40.686  25.547  28.920  1.00  0.00    -0.205 F 
ATOM     56  C   UNL A   1      42.084  26.218  25.607  1.00  0.00     0.022 A 
BRANCH  54  57
ATOM     57  S   UNL A   1      41.513  23.722  26.607  1.00  0.00     0.127 S 
ATOM     58  O   UNL A   1      42.135  23.330  27.869  1.00  0.00    -0.237 OA
ATOM     59  O   UNL A   1      40.075  23.462  26.522  1.00  0.00    -0.237 OA
ATOM     60  O   UNL A   1      42.248  23.386  25.395  1.00  0.00    -0.744 OA
ENDBRANCH  54  57
ENDBRANCH  26  50
BRANCH  38  61
ATOM     61  C   UNL A   1      44.331  27.460  34.319  1.00  0.00     0.023 A 
ATOM     62  C   UNL A   1      45.618  28.035  34.314  1.00  0.00     0.012 A 
ATOM     63  C   UNL A   1      44.135  26.201  34.917  1.00  0.00     0.148 A 
ATOM     64  C   UNL A   1      46.698  27.355  34.874  1.00  0.00     0.002 A 
ATOM     65  C   UNL A   1      45.209  25.547  35.509  1.00  0.00     0.091 A 
ATOM     66  F   UNL A   1      42.908  25.662  34.888  1.00  0.00    -0.205 F 
ATOM     67  C   UNL A   1      46.492  26.117  35.480  1.00  0.00     0.022 A 
BRANCH  65  68
ATOM     68  S   UNL A   1      45.011  23.990  36.383  1.00  0.00     0.127 S 
ATOM     69  O   UNL A   1      46.369  23.452  36.347  1.00  0.00    -0.237 OA
ATOM     70  O   UNL A   1      44.563  24.427  37.706  1.00  0.00    -0.237 OA
ATOM     71  O   UNL A   1      44.014  23.240  35.631  1.00  0.00    -0.744 OA
ENDBRANCH  65  68
ENDBRANCH  38  61
ENDBRANCH  12  13
ENDBRANCH   5   7
ENDBRANCH   2   3
ENDBRANCH   1   2
BRANCH   1  72
ATOM     72  C   UNL A   1      30.590  32.514  25.524  1.00  0.00     0.023 C 
BRANCH  72  73
ATOM     73  C   UNL A   1      29.707  31.678  24.596  1.00  0.00     0.116 C 
BRANCH  73  74
ATOM     74  N   UNL A   1      29.072  32.487  23.580  1.00  0.00    -0.356 N 
ATOM     75  C   UNL A   1      28.570  32.194  22.354  1.00  0.00     0.226 C 
ATOM     76  H   UNL A   1      28.988  33.436  23.826  1.00  0.00     0.163 HD
ATOM     77  O   UNL A   1      27.992  33.122  21.775  1.00  0.00    -0.274 OA
BRANCH  75  78
ATOM     78  C   UNL A   1      28.609  30.808  21.683  1.00  0.00     0.103 C 
ATOM     79  C   UNL A   1      27.778  29.788  22.392  1.00  0.00    -0.016 C 
ATOM     80  C   UNL A   1      29.933  30.068  21.471  1.00  0.00     0.042 C 
ATOM     81  C   UNL A   1      28.511  28.746  22.798  1.00  0.00    -0.011 C 
ATOM     82  C   UNL A   1      29.961  28.926  22.502  1.00  0.00     0.093 C 
BRANCH  82  83
ATOM     83  N   UNL A   1      30.590  27.733  21.972  1.00  0.00    -0.204 NA
ATOM     84  H   UNL A   1      31.374  28.059  21.407  1.00  0.00     0.142 HD
BRANCH  83  85
ATOM     85  S   UNL A   1      31.198  26.501  22.938  1.00  0.00     0.244 S 
ATOM     86  O   UNL A   1      30.109  25.633  23.325  1.00  0.00    -0.207 OA
ATOM     87  O   UNL A   1      32.328  25.984  22.199  1.00  0.00    -0.207 OA
BRANCH  85  88
ATOM     88  C   UNL A   1      31.769  27.280  24.425  1.00  0.00     0.121 A 
ATOM     89  C   UNL A   1      31.040  27.104  25.616  1.00  0.00     0.028 A 
ATOM     90  C   UNL A   1      33.000  27.925  24.463  1.00  0.00     0.181 A 
ATOM     91  C   UNL A   1      31.522  27.625  26.819  1.00  0.00     0.044 A 
ATOM     92  C   UNL A   1      33.494  28.412  25.672  1.00  0.00     0.195 A 
ATOM     93  F   UNL A   1      33.752  28.078  23.365  1.00  0.00    -0.202 F 
ATOM     94  C   UNL A   1      32.756  28.267  26.840  1.00  0.00     0.161 A 
ATOM     95  F   UNL A   1      34.699  28.997  25.712  1.00  0.00    -0.200 F 
ATOM     96  F   UNL A   1      33.239  28.713  28.006  1.00  0.00    -0.204 F 
ENDBRANCH  85  88
ENDBRANCH  83  85
ENDBRANCH  82  83
ENDBRANCH  75  78
ENDBRANCH  73  74
ENDBRANCH  72  73
ENDBRANCH   1  72
TORSDOF 17
ENDMDL
MODEL 3
REMARK VINA RESULT:     -12.4      6.198     10.163
REMARK SMILES O=C(NCCCCNC(=O)[C@@H]1C=C[C@@H](NS(=O)(=O)c2ccc(F)c(F)c2F)C1)c1ccc(-c2c3nc(c(-c4cccc(S(=O)(=O)[O-])c4F)c4ccc([nH]4)c(-c4cccc(S(=O)(=O)[O-])c4F)c4nc(c(-c5cccc(S(=O)(=O)[O-])c5F)c5ccc2[nH]5)C=C4)C=C3)cc1
REMARK SMILES IDX 5 1 4 2 3 3 1 4 2 5 29 7 30 8 91 9 31 10 90 11 32 12 33 13
REMARK SMILES IDX 34 14 84 15 35 16 89 17 83 18 85 19 36 20 88 21 82 22 81 23
REMARK SMILES IDX 37 25 69 26 49 27 68 28 50 29 53 30 67 31 86 32 51 33 52 34
REMARK SMILES IDX 66 36 87 37 54 38 38 39 39 40 47 41 40 42 42 43 48 44 41 45
REMARK SMILES IDX 43 46 44 47 45 48 46 49 70 50 71 51 79 52 72 53 74 54 80 55
REMARK SMILES IDX 73 56 75 57 76 58 77 59 78 60 55 61 56 62 64 63 57 64 59 65
REMARK SMILES IDX 65 66 58 67 60 68 61 69 62 70 63 71 6 72 7 73 8 74 9 75
REMARK SMILES IDX 10 77 11 78 12 79 28 80 13 81 14 82 15 83 16 85 17 86 18 87
REMARK SMILES IDX 19 88 20 89 26 90 21 91 24 92 27 93 22 94 25 95 23 96
REMARK H PARENT 3 6 85 24 53 35 8 76 15 84
REMARK Flexibility Score: inf
ROOT
ATOM      1  C   UNL A   1      31.610  31.929  26.838  1.00  0.00     0.023 C 
ENDROOT
BRANCH   1   2
ATOM      2  C   UNL A   1      32.825  32.763  27.215  1.00  0.00     0.116 C 
BRANCH   2   3
ATOM      3  N   UNL A   1      32.492  34.115  27.634  1.00  0.00    -0.352 N 
ATOM      4  O   UNL A   1      32.620  35.941  28.951  1.00  0.00    -0.269 OA
ATOM      5  C   UNL A   1      33.082  34.850  28.638  1.00  0.00     0.251 C 
ATOM      6  H   UNL A   1      31.759  34.555  27.145  1.00  0.00     0.163 HD
BRANCH   5   7
ATOM      7  C   UNL A   1      34.236  34.269  29.354  1.00  0.00     0.039 A 
ATOM      8  C   UNL A   1      35.539  34.602  28.974  1.00  0.00     0.014 A 
ATOM      9  C   UNL A   1      34.010  33.327  30.360  1.00  0.00     0.014 A 
ATOM     10  C   UNL A   1      36.609  33.887  29.494  1.00  0.00     0.010 A 
ATOM     11  C   UNL A   1      35.095  32.666  30.941  1.00  0.00     0.010 A 
ATOM     12  C   UNL A   1      36.400  32.915  30.487  1.00  0.00    -0.014 A 
BRANCH  12  13
ATOM     13  C   UNL A   1      37.571  32.230  31.087  1.00  0.00     0.031 A 
ATOM     14  C   UNL A   1      38.013  32.519  32.495  1.00  0.00     0.074 A 
ATOM     15  C   UNL A   1      38.234  31.328  30.338  1.00  0.00     0.049 A 
ATOM     16  N   UNL A   1      39.001  31.989  33.168  1.00  0.00    -0.248 NA
ATOM     17  C   UNL A   1      37.257  33.535  33.246  1.00  0.00     0.031 C 
ATOM     18  C   UNL A   1      37.919  31.002  28.944  1.00  0.00     0.029 A 
ATOM     19  N   UNL A   1      39.305  30.525  30.633  1.00  0.00    -0.354 N 
ATOM     20  C   UNL A   1      39.017  32.631  34.399  1.00  0.00     0.074 A 
ATOM     21  C   UNL A   1      37.936  33.593  34.386  1.00  0.00     0.031 C 
ATOM     22  C   UNL A   1      38.759  30.052  28.513  1.00  0.00     0.029 A 
ATOM     23  C   UNL A   1      39.703  29.737  29.579  1.00  0.00     0.049 A 
ATOM     24  H   UNL A   1      39.745  30.513  31.513  1.00  0.00     0.167 HD
ATOM     25  C   UNL A   1      39.849  32.425  35.449  1.00  0.00     0.034 A 
ATOM     26  C   UNL A   1      40.724  28.865  29.473  1.00  0.00     0.034 A 
ATOM     27  C   UNL A   1      40.894  31.434  35.470  1.00  0.00     0.049 A 
ATOM     28  C   UNL A   1      41.603  28.634  30.668  1.00  0.00     0.074 A 
ATOM     29  C   UNL A   1      41.745  31.105  36.511  1.00  0.00     0.029 A 
ATOM     30  N   UNL A   1      41.233  30.617  34.404  1.00  0.00    -0.354 N 
ATOM     31  N   UNL A   1      41.517  29.158  31.865  1.00  0.00    -0.248 NA
ATOM     32  C   UNL A   1      42.701  27.672  30.506  1.00  0.00     0.031 C 
ATOM     33  C   UNL A   1      42.605  30.094  36.070  1.00  0.00     0.029 A 
ATOM     34  C   UNL A   1      42.284  29.786  34.758  1.00  0.00     0.049 A 
ATOM     35  H   UNL A   1      40.792  30.624  33.524  1.00  0.00     0.167 HD
ATOM     36  C   UNL A   1      42.538  28.579  32.606  1.00  0.00     0.074 A 
ATOM     37  C   UNL A   1      43.209  27.639  31.731  1.00  0.00     0.031 C 
ATOM     38  C   UNL A   1      42.905  28.821  33.889  1.00  0.00     0.034 A 
BRANCH  25  39
ATOM     39  C   UNL A   1      39.643  33.251  36.691  1.00  0.00     0.023 A 
ATOM     40  C   UNL A   1      40.154  34.563  36.740  1.00  0.00     0.012 A 
ATOM     41  C   UNL A   1      38.865  32.771  37.763  1.00  0.00     0.148 A 
ATOM     42  C   UNL A   1      39.909  35.380  37.844  1.00  0.00     0.002 A 
ATOM     43  C   UNL A   1      38.597  33.602  38.845  1.00  0.00     0.091 A 
ATOM     44  F   UNL A   1      38.406  31.513  37.707  1.00  0.00    -0.205 F 
ATOM     45  C   UNL A   1      39.122  34.904  38.890  1.00  0.00     0.022 A 
BRANCH  43  46
ATOM     46  S   UNL A   1      37.537  33.105  40.209  1.00  0.00     0.127 S 
ATOM     47  O   UNL A   1      36.289  32.795  39.513  1.00  0.00    -0.237 OA
ATOM     48  O   UNL A   1      38.243  31.939  40.743  1.00  0.00    -0.237 OA
ATOM     49  O   UNL A   1      37.485  34.247  41.112  1.00  0.00    -0.744 OA
ENDBRANCH  43  46
ENDBRANCH  25  39
BRANCH  26  50
ATOM     50  C   UNL A   1      40.924  28.120  28.201  1.00  0.00     0.023 A 
ATOM     51  C   UNL A   1      41.559  28.755  27.119  1.00  0.00     0.012 A 
ATOM     52  C   UNL A   1      40.551  26.766  28.081  1.00  0.00     0.148 A 
ATOM     53  C   UNL A   1      41.803  28.062  25.932  1.00  0.00     0.002 A 
ATOM     54  C   UNL A   1      40.853  26.065  26.919  1.00  0.00     0.091 A 
ATOM     55  F   UNL A   1      39.927  26.182  29.114  1.00  0.00    -0.205 F 
ATOM     56  C   UNL A   1      41.466  26.714  25.838  1.00  0.00     0.022 A 
BRANCH  54  57
ATOM     57  S   UNL A   1      40.591  24.292  26.800  1.00  0.00     0.127 S 
ATOM     58  O   UNL A   1      39.165  24.219  26.495  1.00  0.00    -0.237 OA
ATOM     59  O   UNL A   1      41.478  23.919  25.697  1.00  0.00    -0.237 OA
ATOM     60  O   UNL A   1      41.001  23.762  28.094  1.00  0.00    -0.744 OA
ENDBRANCH  54  57
ENDBRANCH  26  50
BRANCH  38  61
ATOM     61  C   UNL A   1      44.077  28.048  34.427  1.00  0.00     0.023 A 
ATOM     62  C   UNL A   1      45.373  28.588  34.310  1.00  0.00     0.012 A 
ATOM     63  C   UNL A   1      43.893  26.825  35.098  1.00  0.00     0.148 A 
ATOM     64  C   UNL A   1      46.473  27.908  34.830  1.00  0.00     0.002 A 
ATOM     65  C   UNL A   1      44.988  26.172  35.649  1.00  0.00     0.091 A 
ATOM     66  F   UNL A   1      42.654  26.317  35.176  1.00  0.00    -0.205 F 
ATOM     67  C   UNL A   1      46.280  26.706  35.509  1.00  0.00     0.022 A 
BRANCH  65  68
ATOM     68  S   UNL A   1      44.814  24.664  36.610  1.00  0.00     0.127 S 
ATOM     69  O   UNL A   1      44.234  23.749  35.628  1.00  0.00    -0.237 OA
ATOM     70  O   UNL A   1      46.198  24.364  36.979  1.00  0.00    -0.237 OA
ATOM     71  O   UNL A   1      43.956  25.010  37.735  1.00  0.00    -0.744 OA
ENDBRANCH  65  68
ENDBRANCH  38  61
ENDBRANCH  12  13
ENDBRANCH   5   7
ENDBRANCH   2   3
ENDBRANCH   1   2
BRANCH   1  72
ATOM     72  C   UNL A   1      31.929  30.489  26.445  1.00  0.00     0.023 C 
BRANCH  72  73
ATOM     73  C   UNL A   1      31.408  30.076  25.067  1.00  0.00     0.116 C 
BRANCH  73  74
ATOM     74  N   UNL A   1      30.347  30.944  24.608  1.00  0.00    -0.356 N 
ATOM     75  C   UNL A   1      29.399  30.807  23.647  1.00  0.00     0.226 C 
ATOM     76  H   UNL A   1      30.304  31.804  25.086  1.00  0.00     0.163 HD
ATOM     77  O   UNL A   1      28.565  31.718  23.581  1.00  0.00    -0.274 OA
BRANCH  75  78
ATOM     78  C   UNL A   1      29.255  29.597  22.704  1.00  0.00     0.103 C 
ATOM     79  C   UNL A   1      28.805  28.356  23.406  1.00  0.00    -0.016 C 
ATOM     80  C   UNL A   1      30.440  29.097  21.872  1.00  0.00     0.042 C 
ATOM     81  C   UNL A   1      29.689  27.362  23.272  1.00  0.00    -0.011 C 
ATOM     82  C   UNL A   1      30.911  27.789  22.531  1.00  0.00     0.093 C 
BRANCH  82  83
ATOM     83  N   UNL A   1      31.356  26.818  21.553  1.00  0.00    -0.204 NA
ATOM     84  H   UNL A   1      31.160  27.231  20.641  1.00  0.00     0.142 HD
BRANCH  83  85
ATOM     85  S   UNL A   1      32.931  26.243  21.468  1.00  0.00     0.244 S 
ATOM     86  O   UNL A   1      33.108  25.554  20.210  1.00  0.00    -0.207 OA
ATOM     87  O   UNL A   1      33.753  27.383  21.808  1.00  0.00    -0.207 OA
BRANCH  85  88
ATOM     88  C   UNL A   1      33.073  25.012  22.736  1.00  0.00     0.121 A 
ATOM     89  C   UNL A   1      33.177  23.657  22.371  1.00  0.00     0.028 A 
ATOM     90  C   UNL A   1      33.239  25.378  24.068  1.00  0.00     0.181 A 
ATOM     91  C   UNL A   1      33.389  22.679  23.345  1.00  0.00     0.044 A 
ATOM     92  C   UNL A   1      33.486  24.402  25.032  1.00  0.00     0.195 A 
ATOM     93  F   UNL A   1      33.193  26.657  24.460  1.00  0.00    -0.202 F 
ATOM     94  C   UNL A   1      33.554  23.062  24.672  1.00  0.00     0.161 A 
ATOM     95  F   UNL A   1      33.686  24.762  26.308  1.00  0.00    -0.200 F 
ATOM     96  F   UNL A   1      33.813  22.125  25.593  1.00  0.00    -0.204 F 
ENDBRANCH  85  88
ENDBRANCH  83  85
ENDBRANCH  82  83
ENDBRANCH  75  78
ENDBRANCH  73  74
ENDBRANCH  72  73
ENDBRANCH   1  72
TORSDOF 17
ENDMDL
