MODEL 1
REMARK VINA RESULT:     -11.9      0.000      0.000
REMARK SMILES COc1cc2c(cc1OC)[C@@H](CC(=O)NCCCCNC(=O)c1ccc(-c3c4nc(c(-c5cccc(S(=O)(=O)[O-])c5F)c5ccc([nH]5)c(-c5cccc(S(=O)(=O)[O-])c5F)c5nc(c(-c6cccc(S(=O)(=O)[O-])c6F)c6ccc3[nH]6)C=C5)C=C4)cc1)N(C(=O)Nc1ccc(Cl)cc1)CC2
REMARK SMILES IDX 17 1 16 2 15 3 13 4 14 5 12 7 11 8 3 9 4 10 8 11 5 12 7 13
REMARK SMILES IDX 6 14 98 15 97 16 86 17 2 18 1 19 9 20 10 21 87 22 88 23
REMARK SMILES IDX 89 24 90 26 91 27 96 28 92 29 95 30 93 31 94 32 18 33 19 34
REMARK SMILES IDX 20 35 21 36 22 38 23 39 24 40 85 41 25 42 84 43 26 44 27 45
REMARK SMILES IDX 28 46 78 47 29 48 83 49 77 50 79 51 30 52 82 53 76 54 75 55
REMARK SMILES IDX 31 57 63 58 43 59 62 60 44 61 47 62 61 63 80 64 45 65 46 66
REMARK SMILES IDX 60 68 81 69 48 70 32 71 33 72 41 73 34 74 36 75 42 76 35 77
REMARK SMILES IDX 37 78 38 79 39 80 40 81 64 82 65 83 73 84 66 85 68 86 74 87
REMARK SMILES IDX 67 88 69 89 70 90 71 91 72 92 49 93 50 94 58 95 51 96 53 97
REMARK SMILES IDX 59 98 52 99 54 100 55 101 56 102 57 103
REMARK H PARENT 15 6 89 25 20 37 79 56 47 67
REMARK Flexibility Score: inf
ROOT
ATOM      1  C   UNL A   1      37.546  20.734  24.900  1.00  0.00     0.023 C 
ENDROOT
BRANCH   1   2
ATOM      2  C   UNL A   1      36.123  21.033  25.380  1.00  0.00     0.116 C 
BRANCH   2   3
ATOM      3  N   UNL A   1      35.947  22.466  25.585  1.00  0.00    -0.356 N 
ATOM      4  C   UNL A   1      35.196  23.400  24.938  1.00  0.00     0.222 C 
ATOM      5  O   UNL A   1      35.371  24.589  25.225  1.00  0.00    -0.275 OA
ATOM      6  H   UNL A   1      36.472  22.829  26.335  1.00  0.00     0.163 HD
BRANCH   4   7
ATOM      7  C   UNL A   1      34.112  23.015  23.953  1.00  0.00     0.130 C 
BRANCH   7   8
ATOM      8  C   UNL A   1      32.696  23.373  24.478  1.00  0.00     0.127 C 
ATOM      9  C   UNL A   1      31.196  27.447  23.988  1.00  0.00     0.161 A 
ATOM     10  C   UNL A   1      30.593  26.567  24.867  1.00  0.00     0.054 A 
ATOM     11  C   UNL A   1      32.216  27.014  23.127  1.00  0.00     0.161 A 
ATOM     12  C   UNL A   1      31.071  25.262  24.958  1.00  0.00    -0.037 A 
ATOM     13  C   UNL A   1      32.658  25.674  23.188  1.00  0.00     0.056 A 
ATOM     14  C   UNL A   1      32.144  24.792  24.154  1.00  0.00    -0.018 A 
ATOM     15  C   UNL A   1      30.636  24.420  26.121  1.00  0.00     0.057 C 
ATOM     16  C   UNL A   1      31.956  24.107  26.803  1.00  0.00     0.127 C 
ATOM     17  N   UNL A   1      32.710  23.170  25.966  1.00  0.00    -0.317 N 
BRANCH   9  18
ATOM     18  O   UNL A   1      30.860  28.767  24.151  1.00  0.00    -0.493 OA
ATOM     19  C   UNL A   1      31.584  29.366  25.219  1.00  0.00     0.278 C 
ENDBRANCH   9  18
BRANCH  11  20
ATOM     20  O   UNL A   1      32.747  27.983  22.316  1.00  0.00    -0.493 OA
ATOM     21  C   UNL A   1      34.051  28.452  22.616  1.00  0.00     0.278 C 
ENDBRANCH  11  20
BRANCH  17  22
ATOM     22  C   UNL A   1      32.702  21.892  26.505  1.00  0.00     0.322 C 
ATOM     23  O   UNL A   1      33.435  21.561  27.424  1.00  0.00    -0.248 OA
ATOM     24  N   UNL A   1      31.875  21.080  25.749  1.00  0.00    -0.308 N 
ATOM     25  H   UNL A   1      30.936  21.357  25.654  1.00  0.00     0.171 HD
BRANCH  24  26
ATOM     26  C   UNL A   1      32.264  19.895  25.108  1.00  0.00     0.042 A 
ATOM     27  C   UNL A   1      32.166  19.873  23.713  1.00  0.00     0.028 A 
ATOM     28  C   UNL A   1      32.904  18.852  25.776  1.00  0.00     0.028 A 
ATOM     29  C   UNL A   1      32.769  18.848  22.983  1.00  0.00     0.022 A 
ATOM     30  C   UNL A   1      33.512  17.828  25.045  1.00  0.00     0.022 A 
ATOM     31  C   UNL A   1      33.459  17.842  23.652  1.00  0.00     0.041 A 
ATOM     32  Cl  UNL A   1      34.287  16.632  22.752  1.00  0.00    -0.084 Cl
ENDBRANCH  24  26
ENDBRANCH  17  22
ENDBRANCH   7   8
ENDBRANCH   4   7
ENDBRANCH   2   3
ENDBRANCH   1   2
BRANCH   1  33
ATOM     33  C   UNL A   1      38.644  21.634  25.436  1.00  0.00     0.023 C 
BRANCH  33  34
ATOM     34  C   UNL A   1      39.538  21.022  26.503  1.00  0.00     0.116 C 
BRANCH  34  35
ATOM     35  N   UNL A   1      40.300  19.840  26.106  1.00  0.00    -0.352 N 
ATOM     36  C   UNL A   1      41.674  19.658  26.126  1.00  0.00     0.251 C 
ATOM     37  H   UNL A   1      39.771  19.076  25.784  1.00  0.00     0.163 HD
ATOM     38  O   UNL A   1      42.173  18.577  25.844  1.00  0.00    -0.269 OA
BRANCH  36  39
ATOM     39  C   UNL A   1      42.536  20.820  26.430  1.00  0.00     0.039 A 
ATOM     40  C   UNL A   1      42.987  21.620  25.376  1.00  0.00     0.014 A 
ATOM     41  C   UNL A   1      42.745  21.209  27.751  1.00  0.00     0.014 A 
ATOM     42  C   UNL A   1      43.525  22.879  25.654  1.00  0.00     0.010 A 
ATOM     43  C   UNL A   1      43.152  22.509  28.014  1.00  0.00     0.010 A 
ATOM     44  C   UNL A   1      43.536  23.366  26.972  1.00  0.00    -0.014 A 
BRANCH  44  45
ATOM     45  C   UNL A   1      43.897  24.776  27.286  1.00  0.00     0.031 A 
ATOM     46  C   UNL A   1      45.338  25.216  27.237  1.00  0.00     0.074 A 
ATOM     47  C   UNL A   1      42.955  25.625  27.747  1.00  0.00     0.049 A 
ATOM     48  N   UNL A   1      45.862  26.365  27.578  1.00  0.00    -0.248 NA
ATOM     49  C   UNL A   1      46.329  24.215  26.807  1.00  0.00     0.031 C 
ATOM     50  C   UNL A   1      41.545  25.291  27.975  1.00  0.00     0.029 A 
ATOM     51  N   UNL A   1      43.043  26.940  28.134  1.00  0.00    -0.354 N 
ATOM     52  C   UNL A   1      47.238  26.202  27.467  1.00  0.00     0.074 A 
ATOM     53  C   UNL A   1      47.471  24.829  27.078  1.00  0.00     0.031 C 
ATOM     54  C   UNL A   1      40.899  26.377  28.431  1.00  0.00     0.029 A 
ATOM     55  C   UNL A   1      41.847  27.479  28.554  1.00  0.00     0.049 A 
ATOM     56  H   UNL A   1      43.884  27.451  28.112  1.00  0.00     0.167 HD
ATOM     57  C   UNL A   1      48.220  27.120  27.626  1.00  0.00     0.034 A 
ATOM     58  C   UNL A   1      41.545  28.723  28.974  1.00  0.00     0.034 A 
ATOM     59  C   UNL A   1      47.978  28.507  27.908  1.00  0.00     0.049 A 
ATOM     60  C   UNL A   1      42.631  29.765  28.995  1.00  0.00     0.074 A 
ATOM     61  C   UNL A   1      48.887  29.547  27.961  1.00  0.00     0.029 A 
ATOM     62  N   UNL A   1      46.730  29.050  28.166  1.00  0.00    -0.354 N 
ATOM     63  N   UNL A   1      43.904  29.634  28.709  1.00  0.00    -0.248 NA
ATOM     64  C   UNL A   1      42.233  31.135  29.350  1.00  0.00     0.031 C 
ATOM     65  C   UNL A   1      48.186  30.724  28.247  1.00  0.00     0.029 A 
ATOM     66  C   UNL A   1      46.840  30.415  28.366  1.00  0.00     0.049 A 
ATOM     67  H   UNL A   1      45.888  28.541  28.201  1.00  0.00     0.167 HD
ATOM     68  C   UNL A   1      44.452  30.906  28.812  1.00  0.00     0.074 A 
ATOM     69  C   UNL A   1      43.367  31.800  29.166  1.00  0.00     0.031 C 
ATOM     70  C   UNL A   1      45.738  31.299  28.648  1.00  0.00     0.034 A 
BRANCH  57  71
ATOM     71  C   UNL A   1      49.640  26.663  27.404  1.00  0.00     0.023 A 
ATOM     72  C   UNL A   1      50.018  26.176  26.135  1.00  0.00     0.012 A 
ATOM     73  C   UNL A   1      50.602  26.740  28.428  1.00  0.00     0.148 A 
ATOM     74  C   UNL A   1      51.316  25.726  25.904  1.00  0.00     0.002 A 
ATOM     75  C   UNL A   1      51.908  26.333  28.176  1.00  0.00     0.091 A 
ATOM     76  F   UNL A   1      50.221  27.183  29.635  1.00  0.00    -0.205 F 
ATOM     77  C   UNL A   1      52.262  25.813  26.920  1.00  0.00     0.022 A 
BRANCH  75  78
ATOM     78  S   UNL A   1      53.217  26.481  29.397  1.00  0.00     0.127 S 
ATOM     79  O   UNL A   1      52.647  25.755  30.531  1.00  0.00    -0.237 OA
ATOM     80  O   UNL A   1      54.334  25.803  28.738  1.00  0.00    -0.237 OA
ATOM     81  O   UNL A   1      53.412  27.911  29.598  1.00  0.00    -0.744 OA
ENDBRANCH  75  78
ENDBRANCH  57  71
BRANCH  58  82
ATOM     82  C   UNL A   1      40.132  29.080  29.289  1.00  0.00     0.023 A 
ATOM     83  C   UNL A   1      39.225  29.273  28.227  1.00  0.00     0.012 A 
ATOM     84  C   UNL A   1      39.668  29.186  30.613  1.00  0.00     0.148 A 
ATOM     85  C   UNL A   1      37.890  29.596  28.477  1.00  0.00     0.002 A 
ATOM     86  C   UNL A   1      38.325  29.459  30.856  1.00  0.00     0.091 A 
ATOM     87  F   UNL A   1      40.546  29.010  31.611  1.00  0.00    -0.205 F 
ATOM     88  C   UNL A   1      37.439  29.679  29.791  1.00  0.00     0.022 A 
BRANCH  86  89
ATOM     89  S   UNL A   1      37.628  29.457  32.512  1.00  0.00     0.127 S 
ATOM     90  O   UNL A   1      36.277  29.955  32.269  1.00  0.00    -0.237 OA
ATOM     91  O   UNL A   1      37.705  28.040  32.875  1.00  0.00    -0.237 OA
ATOM     92  O   UNL A   1      38.494  30.323  33.300  1.00  0.00    -0.744 OA
ENDBRANCH  86  89
ENDBRANCH  58  82
BRANCH  70  93
ATOM     93  C   UNL A   1      46.050  32.762  28.807  1.00  0.00     0.023 A 
ATOM     94  C   UNL A   1      46.367  33.271  30.082  1.00  0.00     0.012 A 
ATOM     95  C   UNL A   1      46.113  33.610  27.685  1.00  0.00     0.148 A 
ATOM     96  C   UNL A   1      46.716  34.612  30.240  1.00  0.00     0.002 A 
ATOM     97  C   UNL A   1      46.504  34.934  27.845  1.00  0.00     0.091 A 
ATOM     98  F   UNL A   1      45.786  33.111  26.484  1.00  0.00    -0.205 F 
ATOM     99  C   UNL A   1      46.797  35.439  29.122  1.00  0.00     0.022 A 
BRANCH  97 100
ATOM    100  S   UNL A   1      46.725  36.035  26.443  1.00  0.00     0.127 S 
ATOM    101  O   UNL A   1      45.445  35.901  25.752  1.00  0.00    -0.237 OA
ATOM    102  O   UNL A   1      46.938  37.331  27.088  1.00  0.00    -0.237 OA
ATOM    103  O   UNL A   1      47.887  35.527  25.724  1.00  0.00    -0.744 OA
ENDBRANCH  97 100
ENDBRANCH  70  93
ENDBRANCH  44  45
ENDBRANCH  36  39
ENDBRANCH  34  35
ENDBRANCH  33  34
ENDBRANCH   1  33
TORSDOF 19
ENDMDL
MODEL 2
REMARK VINA RESULT:     -11.6      6.021     10.208
REMARK SMILES COc1cc2c(cc1OC)[C@@H](CC(=O)NCCCCNC(=O)c1ccc(-c3c4nc(c(-c5cccc(S(=O)(=O)[O-])c5F)c5ccc([nH]5)c(-c5cccc(S(=O)(=O)[O-])c5F)c5nc(c(-c6cccc(S(=O)(=O)[O-])c6F)c6ccc3[nH]6)C=C5)C=C4)cc1)N(C(=O)Nc1ccc(Cl)cc1)CC2
REMARK SMILES IDX 17 1 16 2 15 3 13 4 14 5 12 7 11 8 3 9 4 10 8 11 5 12 7 13
REMARK SMILES IDX 6 14 98 15 97 16 86 17 2 18 1 19 9 20 10 21 87 22 88 23
REMARK SMILES IDX 89 24 90 26 91 27 96 28 92 29 95 30 93 31 94 32 18 33 19 34
REMARK SMILES IDX 20 35 21 36 22 38 23 39 24 40 85 41 25 42 84 43 26 44 27 45
REMARK SMILES IDX 28 46 78 47 29 48 83 49 77 50 79 51 30 52 82 53 76 54 75 55
REMARK SMILES IDX 31 57 63 58 43 59 62 60 44 61 47 62 61 63 80 64 45 65 46 66
REMARK SMILES IDX 60 68 81 69 48 70 32 71 33 72 41 73 34 74 36 75 42 76 35 77
REMARK SMILES IDX 37 78 38 79 39 80 40 81 64 82 65 83 73 84 66 85 68 86 74 87
REMARK SMILES IDX 67 88 69 89 70 90 71 91 72 92 49 93 50 94 58 95 51 96 53 97
REMARK SMILES IDX 59 98 52 99 54 100 55 101 56 102 57 103
REMARK H PARENT 15 6 89 25 20 37 79 56 47 67
REMARK Flexibility Score: inf
ROOT
ATOM      1  C   UNL A   1      32.835  30.370  25.633  1.00  0.00     0.023 C 
ENDROOT
BRANCH   1   2
ATOM      2  C   UNL A   1      33.413  28.992  25.299  1.00  0.00     0.116 C 
BRANCH   2   3
ATOM      3  N   UNL A   1      33.921  28.972  23.932  1.00  0.00    -0.356 N 
ATOM      4  C   UNL A   1      33.687  28.142  22.878  1.00  0.00     0.222 C 
ATOM      5  O   UNL A   1      34.392  28.265  21.872  1.00  0.00    -0.275 OA
ATOM      6  H   UNL A   1      34.555  29.698  23.732  1.00  0.00     0.163 HD
BRANCH   4   7
ATOM      7  C   UNL A   1      32.545  27.146  22.881  1.00  0.00     0.130 C 
BRANCH   7   8
ATOM      8  C   UNL A   1      32.255  26.599  24.304  1.00  0.00     0.127 C 
ATOM      9  C   UNL A   1      34.732  23.377  25.907  1.00  0.00     0.161 A 
ATOM     10  C   UNL A   1      33.518  23.697  26.486  1.00  0.00     0.054 A 
ATOM     11  C   UNL A   1      35.267  24.167  24.878  1.00  0.00     0.161 A 
ATOM     12  C   UNL A   1      32.782  24.763  25.976  1.00  0.00    -0.037 A 
ATOM     13  C   UNL A   1      34.538  25.279  24.403  1.00  0.00     0.056 A 
ATOM     14  C   UNL A   1      33.249  25.555  24.892  1.00  0.00    -0.018 A 
ATOM     15  C   UNL A   1      31.346  24.902  26.387  1.00  0.00     0.057 C 
ATOM     16  C   UNL A   1      30.619  24.797  25.058  1.00  0.00     0.127 C 
ATOM     17  N   UNL A   1      30.872  26.014  24.283  1.00  0.00    -0.317 N 
BRANCH   9  18
ATOM     18  O   UNL A   1      35.260  22.165  26.276  1.00  0.00    -0.493 OA
ATOM     19  C   UNL A   1      34.376  21.443  27.124  1.00  0.00     0.278 C 
ENDBRANCH   9  18
BRANCH  11  20
ATOM     20  O   UNL A   1      36.466  23.737  24.373  1.00  0.00    -0.493 OA
ATOM     21  C   UNL A   1      36.445  22.992  23.167  1.00  0.00     0.278 C 
ENDBRANCH  11  20
BRANCH  17  22
ATOM     22  C   UNL A   1      29.757  26.838  24.257  1.00  0.00     0.322 C 
ATOM     23  O   UNL A   1      28.651  26.439  23.928  1.00  0.00    -0.248 OA
ATOM     24  N   UNL A   1      30.145  28.143  24.507  1.00  0.00    -0.308 N 
ATOM     25  H   UNL A   1      30.613  28.320  25.354  1.00  0.00     0.171 HD
BRANCH  24  26
ATOM     26  C   UNL A   1      29.925  29.234  23.654  1.00  0.00     0.042 A 
ATOM     27  C   UNL A   1      29.895  28.965  22.282  1.00  0.00     0.028 A 
ATOM     28  C   UNL A   1      29.557  30.495  24.123  1.00  0.00     0.028 A 
ATOM     29  C   UNL A   1      29.428  29.928  21.387  1.00  0.00     0.022 A 
ATOM     30  C   UNL A   1      29.086  31.458  23.228  1.00  0.00     0.022 A 
ATOM     31  C   UNL A   1      29.004  31.163  21.867  1.00  0.00     0.041 A 
ATOM     32  Cl  UNL A   1      28.336  32.317  20.780  1.00  0.00    -0.084 Cl
ENDBRANCH  24  26
ENDBRANCH  17  22
ENDBRANCH   7   8
ENDBRANCH   4   7
ENDBRANCH   2   3
ENDBRANCH   1   2
BRANCH   1  33
ATOM     33  C   UNL A   1      32.657  30.692  27.105  1.00  0.00     0.023 C 
BRANCH  33  34
ATOM     34  C   UNL A   1      33.506  31.834  27.639  1.00  0.00     0.116 C 
BRANCH  34  35
ATOM     35  N   UNL A   1      32.854  33.138  27.727  1.00  0.00    -0.352 N 
ATOM     36  C   UNL A   1      33.239  34.242  28.471  1.00  0.00     0.251 C 
ATOM     37  H   UNL A   1      32.038  33.246  27.189  1.00  0.00     0.163 HD
ATOM     38  O   UNL A   1      32.640  35.305  28.381  1.00  0.00    -0.269 OA
BRANCH  36  39
ATOM     39  C   UNL A   1      34.351  34.092  29.434  1.00  0.00     0.039 A 
ATOM     40  C   UNL A   1      34.104  33.463  30.657  1.00  0.00     0.014 A 
ATOM     41  C   UNL A   1      35.652  34.412  29.054  1.00  0.00     0.014 A 
ATOM     42  C   UNL A   1      35.182  33.031  31.434  1.00  0.00     0.010 A 
ATOM     43  C   UNL A   1      36.714  33.863  29.759  1.00  0.00     0.010 A 
ATOM     44  C   UNL A   1      36.495  33.156  30.951  1.00  0.00    -0.014 A 
BRANCH  44  45
ATOM     45  C   UNL A   1      37.651  32.520  31.641  1.00  0.00     0.031 A 
ATOM     46  C   UNL A   1      38.414  31.406  30.970  1.00  0.00     0.074 A 
ATOM     47  C   UNL A   1      37.932  32.845  32.921  1.00  0.00     0.049 A 
ATOM     48  N   UNL A   1      39.375  30.660  31.448  1.00  0.00    -0.248 NA
ATOM     49  C   UNL A   1      38.002  31.043  29.603  1.00  0.00     0.031 C 
ATOM     50  C   UNL A   1      37.187  33.808  33.739  1.00  0.00     0.029 A 
ATOM     51  N   UNL A   1      38.905  32.381  33.772  1.00  0.00    -0.354 N 
ATOM     52  C   UNL A   1      39.633  29.704  30.472  1.00  0.00     0.074 A 
ATOM     53  C   UNL A   1      38.694  29.933  29.398  1.00  0.00     0.031 C 
ATOM     54  C   UNL A   1      37.747  33.883  34.957  1.00  0.00     0.029 A 
ATOM     55  C   UNL A   1      38.874  32.960  35.022  1.00  0.00     0.049 A 
ATOM     56  H   UNL A   1      39.564  31.698  33.513  1.00  0.00     0.167 HD
ATOM     57  C   UNL A   1      40.596  28.752  30.446  1.00  0.00     0.034 A 
ATOM     58  C   UNL A   1      39.672  32.779  36.092  1.00  0.00     0.034 A 
ATOM     59  C   UNL A   1      41.594  28.599  31.466  1.00  0.00     0.049 A 
ATOM     60  C   UNL A   1      40.829  31.823  35.981  1.00  0.00     0.074 A 
ATOM     61  C   UNL A   1      42.690  27.756  31.480  1.00  0.00     0.029 A 
ATOM     62  N   UNL A   1      41.627  29.320  32.649  1.00  0.00    -0.354 N 
ATOM     63  N   UNL A   1      41.168  31.053  34.974  1.00  0.00    -0.248 NA
ATOM     64  C   UNL A   1      41.742  31.743  37.131  1.00  0.00     0.031 C 
ATOM     65  C   UNL A   1      43.391  27.972  32.672  1.00  0.00     0.029 A 
ATOM     66  C   UNL A   1      42.733  28.954  33.396  1.00  0.00     0.049 A 
ATOM     67  H   UNL A   1      40.963  29.995  32.918  1.00  0.00     0.167 HD
ATOM     68  C   UNL A   1      42.349  30.427  35.352  1.00  0.00     0.074 A 
ATOM     69  C   UNL A   1      42.680  30.923  36.673  1.00  0.00     0.031 C 
ATOM     70  C   UNL A   1      43.084  29.510  34.677  1.00  0.00     0.034 A 
BRANCH  57  71
ATOM     71  C   UNL A   1      40.664  27.868  29.227  1.00  0.00     0.023 A 
ATOM     72  C   UNL A   1      39.819  26.741  29.143  1.00  0.00     0.012 A 
ATOM     73  C   UNL A   1      41.534  28.158  28.160  1.00  0.00     0.148 A 
ATOM     74  C   UNL A   1      39.873  25.891  28.041  1.00  0.00     0.002 A 
ATOM     75  C   UNL A   1      41.548  27.331  27.041  1.00  0.00     0.091 A 
ATOM     76  F   UNL A   1      42.348  29.218  28.265  1.00  0.00    -0.205 F 
ATOM     77  C   UNL A   1      40.730  26.191  26.986  1.00  0.00     0.022 A 
BRANCH  75  78
ATOM     78  S   UNL A   1      42.561  27.679  25.598  1.00  0.00     0.127 S 
ATOM     79  O   UNL A   1      43.895  27.770  26.188  1.00  0.00    -0.237 OA
ATOM     80  O   UNL A   1      42.340  26.492  24.771  1.00  0.00    -0.237 OA
ATOM     81  O   UNL A   1      42.036  28.914  25.033  1.00  0.00    -0.744 OA
ENDBRANCH  75  78
ENDBRANCH  57  71
BRANCH  58  82
ATOM     82  C   UNL A   1      39.479  33.611  37.314  1.00  0.00     0.023 A 
ATOM     83  C   UNL A   1      40.031  34.907  37.351  1.00  0.00     0.012 A 
ATOM     84  C   UNL A   1      38.725  33.157  38.412  1.00  0.00     0.148 A 
ATOM     85  C   UNL A   1      39.863  35.724  38.470  1.00  0.00     0.002 A 
ATOM     86  C   UNL A   1      38.519  33.994  39.504  1.00  0.00     0.091 A 
ATOM     87  F   UNL A   1      38.216  31.917  38.365  1.00  0.00    -0.205 F 
ATOM     88  C   UNL A   1      39.099  35.272  39.542  1.00  0.00     0.022 A 
BRANCH  86  89
ATOM     89  S   UNL A   1      37.443  33.545  40.871  1.00  0.00     0.127 S 
ATOM     90  O   UNL A   1      38.226  32.509  41.540  1.00  0.00    -0.237 OA
ATOM     91  O   UNL A   1      37.337  34.807  41.606  1.00  0.00    -0.237 OA
ATOM     92  O   UNL A   1      36.197  33.105  40.257  1.00  0.00    -0.744 OA
ENDBRANCH  86  89
ENDBRANCH  58  82
BRANCH  70  93
ATOM     93  C   UNL A   1      44.343  29.005  35.328  1.00  0.00     0.023 A 
ATOM     94  C   UNL A   1      45.562  29.671  35.095  1.00  0.00     0.012 A 
ATOM     95  C   UNL A   1      44.302  27.928  36.233  1.00  0.00     0.148 A 
ATOM     96  C   UNL A   1      46.728  29.254  35.735  1.00  0.00     0.002 A 
ATOM     97  C   UNL A   1      45.460  27.546  36.900  1.00  0.00     0.091 A 
ATOM     98  F   UNL A   1      43.137  27.293  36.423  1.00  0.00    -0.205 F 
ATOM     99  C   UNL A   1      46.675  28.202  36.645  1.00  0.00     0.022 A 
BRANCH  97 100
ATOM    100  S   UNL A   1      45.452  26.264  38.158  1.00  0.00     0.127 S 
ATOM    101  O   UNL A   1      45.199  27.038  39.372  1.00  0.00    -0.237 OA
ATOM    102  O   UNL A   1      44.340  25.412  37.735  1.00  0.00    -0.237 OA
ATOM    103  O   UNL A   1      46.759  25.625  38.078  1.00  0.00    -0.744 OA
ENDBRANCH  97 100
ENDBRANCH  70  93
ENDBRANCH  44  45
ENDBRANCH  36  39
ENDBRANCH  34  35
ENDBRANCH  33  34
ENDBRANCH   1  33
TORSDOF 19
ENDMDL
MODEL 3
REMARK VINA RESULT:     -11.6      5.873     11.047
REMARK SMILES COc1cc2c(cc1OC)[C@@H](CC(=O)NCCCCNC(=O)c1ccc(-c3c4nc(c(-c5cccc(S(=O)(=O)[O-])c5F)c5ccc([nH]5)c(-c5cccc(S(=O)(=O)[O-])c5F)c5nc(c(-c6cccc(S(=O)(=O)[O-])c6F)c6ccc3[nH]6)C=C5)C=C4)cc1)N(C(=O)Nc1ccc(Cl)cc1)CC2
REMARK SMILES IDX 17 1 16 2 15 3 13 4 14 5 12 7 11 8 3 9 4 10 8 11 5 12 7 13
REMARK SMILES IDX 6 14 98 15 97 16 86 17 2 18 1 19 9 20 10 21 87 22 88 23
REMARK SMILES IDX 89 24 90 26 91 27 96 28 92 29 95 30 93 31 94 32 18 33 19 34
REMARK SMILES IDX 20 35 21 36 22 38 23 39 24 40 85 41 25 42 84 43 26 44 27 45
REMARK SMILES IDX 28 46 78 47 29 48 83 49 77 50 79 51 30 52 82 53 76 54 75 55
REMARK SMILES IDX 31 57 63 58 43 59 62 60 44 61 47 62 61 63 80 64 45 65 46 66
REMARK SMILES IDX 60 68 81 69 48 70 32 71 33 72 41 73 34 74 36 75 42 76 35 77
REMARK SMILES IDX 37 78 38 79 39 80 40 81 64 82 65 83 73 84 66 85 68 86 74 87
REMARK SMILES IDX 67 88 69 89 70 90 71 91 72 92 49 93 50 94 58 95 51 96 53 97
REMARK SMILES IDX 59 98 52 99 54 100 55 101 56 102 57 103
REMARK H PARENT 15 6 89 25 20 37 79 56 47 67
REMARK Flexibility Score: inf
ROOT
ATOM      1  C   UNL A   1      32.611  30.260  25.900  1.00  0.00     0.023 C 
ENDROOT
BRANCH   1   2
ATOM      2  C   UNL A   1      33.160  28.882  25.523  1.00  0.00     0.116 C 
BRANCH   2   3
ATOM      3  N   UNL A   1      33.726  28.911  24.179  1.00  0.00    -0.356 N 
ATOM      4  C   UNL A   1      33.606  28.070  23.114  1.00  0.00     0.222 C 
ATOM      5  O   UNL A   1      34.342  28.256  22.140  1.00  0.00    -0.275 OA
ATOM      6  H   UNL A   1      34.309  29.686  24.009  1.00  0.00     0.163 HD
BRANCH   4   7
ATOM      7  C   UNL A   1      32.548  26.987  23.065  1.00  0.00     0.130 C 
BRANCH   7   8
ATOM      8  C   UNL A   1      32.295  26.358  24.461  1.00  0.00     0.127 C 
ATOM      9  C   UNL A   1      34.915  23.162  25.879  1.00  0.00     0.161 A 
ATOM     10  C   UNL A   1      33.695  23.404  26.483  1.00  0.00     0.054 A 
ATOM     11  C   UNL A   1      35.407  24.023  24.887  1.00  0.00     0.161 A 
ATOM     12  C   UNL A   1      32.912  24.463  26.033  1.00  0.00    -0.037 A 
ATOM     13  C   UNL A   1      34.630  25.128  24.475  1.00  0.00     0.056 A 
ATOM     14  C   UNL A   1      33.336  25.327  24.987  1.00  0.00    -0.018 A 
ATOM     15  C   UNL A   1      31.475  24.524  26.462  1.00  0.00     0.057 C 
ATOM     16  C   UNL A   1      30.740  24.456  25.136  1.00  0.00     0.127 C 
ATOM     17  N   UNL A   1      30.936  25.719  24.421  1.00  0.00    -0.317 N 
BRANCH   9  18
ATOM     18  O   UNL A   1      35.494  21.956  26.182  1.00  0.00    -0.493 OA
ATOM     19  C   UNL A   1      34.719  20.865  25.702  1.00  0.00     0.278 C 
ENDBRANCH   9  18
BRANCH  11  20
ATOM     20  O   UNL A   1      36.618  23.668  24.351  1.00  0.00    -0.493 OA
ATOM     21  C   UNL A   1      36.612  22.942  23.133  1.00  0.00     0.278 C 
ENDBRANCH  11  20
BRANCH  17  22
ATOM     22  C   UNL A   1      29.789  26.498  24.446  1.00  0.00     0.322 C 
ATOM     23  O   UNL A   1      28.671  26.019  24.552  1.00  0.00    -0.248 OA
ATOM     24  N   UNL A   1      30.123  27.816  24.188  1.00  0.00    -0.308 N 
ATOM     25  H   UNL A   1      30.773  28.243  24.791  1.00  0.00     0.171 HD
BRANCH  24  26
ATOM     26  C   UNL A   1      29.612  28.593  23.139  1.00  0.00     0.042 A 
ATOM     27  C   UNL A   1      28.222  28.743  23.085  1.00  0.00     0.028 A 
ATOM     28  C   UNL A   1      30.426  29.352  22.297  1.00  0.00     0.028 A 
ATOM     29  C   UNL A   1      27.652  29.700  22.245  1.00  0.00     0.022 A 
ATOM     30  C   UNL A   1      29.855  30.312  21.460  1.00  0.00     0.022 A 
ATOM     31  C   UNL A   1      28.473  30.496  21.452  1.00  0.00     0.041 A 
ATOM     32  Cl  UNL A   1      27.780  31.743  20.490  1.00  0.00    -0.084 Cl
ENDBRANCH  24  26
ENDBRANCH  17  22
ENDBRANCH   7   8
ENDBRANCH   4   7
ENDBRANCH   2   3
ENDBRANCH   1   2
BRANCH   1  33
ATOM     33  C   UNL A   1      32.879  30.732  27.317  1.00  0.00     0.023 C 
BRANCH  33  34
ATOM     34  C   UNL A   1      33.732  31.984  27.445  1.00  0.00     0.116 C 
BRANCH  34  35
ATOM     35  N   UNL A   1      33.018  33.226  27.734  1.00  0.00    -0.352 N 
ATOM     36  C   UNL A   1      33.373  34.235  28.614  1.00  0.00     0.251 C 
ATOM     37  H   UNL A   1      32.179  33.363  27.240  1.00  0.00     0.163 HD
ATOM     38  O   UNL A   1      32.718  35.266  28.692  1.00  0.00    -0.269 OA
BRANCH  36  39
ATOM     39  C   UNL A   1      34.525  34.015  29.515  1.00  0.00     0.039 A 
ATOM     40  C   UNL A   1      34.333  33.283  30.690  1.00  0.00     0.014 A 
ATOM     41  C   UNL A   1      35.807  34.377  29.110  1.00  0.00     0.014 A 
ATOM     42  C   UNL A   1      35.444  32.797  31.383  1.00  0.00     0.010 A 
ATOM     43  C   UNL A   1      36.900  33.780  29.722  1.00  0.00     0.010 A 
ATOM     44  C   UNL A   1      36.735  32.973  30.858  1.00  0.00    -0.014 A 
BRANCH  44  45
ATOM     45  C   UNL A   1      37.923  32.292  31.444  1.00  0.00     0.031 A 
ATOM     46  C   UNL A   1      38.560  32.830  32.700  1.00  0.00     0.074 A 
ATOM     47  C   UNL A   1      38.512  31.277  30.778  1.00  0.00     0.049 A 
ATOM     48  N   UNL A   1      39.655  32.443  33.300  1.00  0.00    -0.248 NA
ATOM     49  C   UNL A   1      37.915  33.995  33.331  1.00  0.00     0.031 C 
ATOM     50  C   UNL A   1      38.082  30.744  29.481  1.00  0.00     0.029 A 
ATOM     51  N   UNL A   1      39.619  30.524  31.087  1.00  0.00    -0.354 N 
ATOM     52  C   UNL A   1      39.863  33.352  34.331  1.00  0.00     0.074 A 
ATOM     53  C   UNL A   1      38.811  34.339  34.244  1.00  0.00     0.031 C 
ATOM     54  C   UNL A   1      38.895  29.737  29.123  1.00  0.00     0.029 A 
ATOM     55  C   UNL A   1      39.919  29.564  30.146  1.00  0.00     0.049 A 
ATOM     56  H   UNL A   1      40.149  30.658  31.905  1.00  0.00     0.167 HD
ATOM     57  C   UNL A   1      40.813  33.343  35.296  1.00  0.00     0.034 A 
ATOM     58  C   UNL A   1      40.898  28.638  30.119  1.00  0.00     0.034 A 
ATOM     59  C   UNL A   1      41.792  32.303  35.442  1.00  0.00     0.049 A 
ATOM     60  C   UNL A   1      41.849  28.554  31.282  1.00  0.00     0.074 A 
ATOM     61  C   UNL A   1      42.717  32.126  36.454  1.00  0.00     0.029 A 
ATOM     62  N   UNL A   1      41.959  31.251  34.556  1.00  0.00    -0.354 N 
ATOM     63  N   UNL A   1      41.917  29.317  32.347  1.00  0.00    -0.248 NA
ATOM     64  C   UNL A   1      42.828  27.457  31.266  1.00  0.00     0.031 C 
ATOM     65  C   UNL A   1      43.442  30.960  36.183  1.00  0.00     0.029 A 
ATOM     66  C   UNL A   1      42.963  30.410  35.004  1.00  0.00     0.049 A 
ATOM     67  H   UNL A   1      41.440  31.119  33.730  1.00  0.00     0.167 HD
ATOM     68  C   UNL A   1      42.917  28.772  33.144  1.00  0.00     0.074 A 
ATOM     69  C   UNL A   1      43.413  27.601  32.448  1.00  0.00     0.031 C 
ATOM     70  C   UNL A   1      43.395  29.211  34.334  1.00  0.00     0.034 A 
BRANCH  57  71
ATOM     71  C   UNL A   1      40.774  34.449  36.319  1.00  0.00     0.023 A 
ATOM     72  C   UNL A   1      41.358  35.697  36.011  1.00  0.00     0.012 A 
ATOM     73  C   UNL A   1      40.143  34.272  37.564  1.00  0.00     0.148 A 
ATOM     74  C   UNL A   1      41.358  36.732  36.943  1.00  0.00     0.002 A 
ATOM     75  C   UNL A   1      40.105  35.327  38.472  1.00  0.00     0.091 A 
ATOM     76  F   UNL A   1      39.614  33.074  37.851  1.00  0.00    -0.205 F 
ATOM     77  C   UNL A   1      40.724  36.550  38.168  1.00  0.00     0.022 A 
BRANCH  75  78
ATOM     78  S   UNL A   1      39.243  35.215  40.044  1.00  0.00     0.127 S 
ATOM     79  O   UNL A   1      38.670  36.555  40.162  1.00  0.00    -0.237 OA
ATOM     80  O   UNL A   1      38.267  34.155  39.788  1.00  0.00    -0.237 OA
ATOM     81  O   UNL A   1      40.259  34.875  41.030  1.00  0.00    -0.744 OA
ENDBRANCH  75  78
ENDBRANCH  57  71
BRANCH  58  82
ATOM     82  C   UNL A   1      40.947  27.639  29.013  1.00  0.00     0.023 A 
ATOM     83  C   UNL A   1      40.060  26.545  29.042  1.00  0.00     0.012 A 
ATOM     84  C   UNL A   1      41.824  27.781  27.921  1.00  0.00     0.148 A 
ATOM     85  C   UNL A   1      40.064  25.593  28.020  1.00  0.00     0.002 A 
ATOM     86  C   UNL A   1      41.789  26.856  26.881  1.00  0.00     0.091 A 
ATOM     87  F   UNL A   1      42.669  28.821  27.915  1.00  0.00    -0.205 F 
ATOM     88  C   UNL A   1      40.921  25.755  26.936  1.00  0.00     0.022 A 
BRANCH  86  89
ATOM     89  S   UNL A   1      42.765  27.055  25.386  1.00  0.00     0.127 S 
ATOM     90  O   UNL A   1      44.126  27.071  25.916  1.00  0.00    -0.237 OA
ATOM     91  O   UNL A   1      42.414  25.851  24.629  1.00  0.00    -0.237 OA
ATOM     92  O   UNL A   1      42.302  28.297  24.781  1.00  0.00    -0.744 OA
ENDBRANCH  86  89
ENDBRANCH  58  82
BRANCH  70  93
ATOM     93  C   UNL A   1      44.485  28.407  34.989  1.00  0.00     0.023 A 
ATOM     94  C   UNL A   1      45.825  28.610  34.607  1.00  0.00     0.012 A 
ATOM     95  C   UNL A   1      44.189  27.517  36.039  1.00  0.00     0.148 A 
ATOM     96  C   UNL A   1      46.854  27.918  35.244  1.00  0.00     0.002 A 
ATOM     97  C   UNL A   1      45.224  26.863  36.698  1.00  0.00     0.091 A 
ATOM     98  F   UNL A   1      42.905  27.320  36.372  1.00  0.00    -0.205 F 
ATOM     99  C   UNL A   1      46.555  27.056  36.296  1.00  0.00     0.022 A 
BRANCH  97 100
ATOM    100  S   UNL A   1      44.927  25.812  38.124  1.00  0.00     0.127 S 
ATOM    101  O   UNL A   1      46.164  25.981  38.883  1.00  0.00    -0.237 OA
ATOM    102  O   UNL A   1      43.748  26.431  38.733  1.00  0.00    -0.237 OA
ATOM    103  O   UNL A   1      44.691  24.478  37.588  1.00  0.00    -0.744 OA
ENDBRANCH  97 100
ENDBRANCH  70  93
ENDBRANCH  44  45
ENDBRANCH  36  39
ENDBRANCH  34  35
ENDBRANCH  33  34
ENDBRANCH   1  33
TORSDOF 19
ENDMDL
