MODEL 1
REMARK VINA RESULT:     -11.6      0.000      0.000
REMARK SMILES [NH3+][C@H](C(=O)NCCCCNC(=O)c1ccc(-c2c3nc(c(-c4cccc(S(=O)(=O)[O-])c4F)c4ccc([nH]4)c(-c4cccc(S(=O)(=O)[O-])c4F)c4nc(c(-c5cccc(S(=O)(=O)[O-])c5F)c5ccc2[nH]5)C=C4)C=C3)cc1)c1ccc(OCC(=O)N2CCCC2)cc1
REMARK SMILES IDX 7 1 6 2 5 3 3 4 4 5 2 7 1 8 76 12 77 13 90 14 78 15 89 16
REMARK SMILES IDX 79 17 80 18 81 19 82 20 83 21 84 22 85 23 88 24 86 25 87 26
REMARK SMILES IDX 8 27 9 28 10 29 11 30 12 32 13 33 14 34 75 35 15 36 74 37
REMARK SMILES IDX 16 38 17 39 18 40 68 41 19 42 73 43 67 44 69 45 20 46 72 47
REMARK SMILES IDX 66 48 65 49 21 51 53 52 33 53 52 54 34 55 37 56 51 57 70 58
REMARK SMILES IDX 35 59 36 60 50 62 71 63 38 64 22 65 23 66 31 67 24 68 26 69
REMARK SMILES IDX 32 70 25 71 27 72 28 73 29 74 30 75 54 76 55 77 63 78 56 79
REMARK SMILES IDX 58 80 64 81 57 82 59 83 60 84 61 85 62 86 39 87 40 88 48 89
REMARK SMILES IDX 41 90 43 91 49 92 42 93 44 94 45 95 46 96 47 97
REMARK H PARENT 5 6 1 9 1 10 1 11 10 31 69 50 37 61
REMARK Flexibility Score: inf
ROOT
ATOM      1  C   UNL A   1      30.904  29.299  23.944  1.00  0.00     0.023 C 
ENDROOT
BRANCH   1   2
ATOM      2  C   UNL A   1      30.985  28.455  22.678  1.00  0.00     0.116 C 
BRANCH   2   3
ATOM      3  N   UNL A   1      32.332  28.011  22.361  1.00  0.00    -0.351 N 
ATOM      4  C   UNL A   1      32.809  26.762  22.060  1.00  0.00     0.283 C 
ATOM      5  O   UNL A   1      33.959  26.696  21.612  1.00  0.00    -0.268 OA
ATOM      6  H   UNL A   1      33.013  28.722  22.365  1.00  0.00     0.163 HD
BRANCH   4   7
ATOM      7  C   UNL A   1      32.004  25.466  22.346  1.00  0.00     0.302 C 
BRANCH   7   8
ATOM      8  N   UNL A   1      32.432  24.414  21.389  1.00  0.00    -0.343 N 
ATOM      9  H   UNL A   1      33.373  24.622  21.056  1.00  0.00     0.345 HD
ATOM     10  H   UNL A   1      31.788  24.391  20.599  1.00  0.00     0.345 HD
ATOM     11  H   UNL A   1      32.429  23.508  21.857  1.00  0.00     0.345 HD
ENDBRANCH   7   8
BRANCH   7  12
ATOM     12  C   UNL A   1      31.996  24.951  23.777  1.00  0.00     0.019 A 
ATOM     13  C   UNL A   1      32.936  25.349  24.732  1.00  0.00     0.014 A 
ATOM     14  C   UNL A   1      31.013  24.023  24.172  1.00  0.00     0.014 A 
ATOM     15  C   UNL A   1      33.019  24.695  25.956  1.00  0.00     0.047 A 
ATOM     16  C   UNL A   1      31.037  23.432  25.440  1.00  0.00     0.047 A 
ATOM     17  C   UNL A   1      32.066  23.747  26.317  1.00  0.00     0.120 A 
BRANCH  17  18
ATOM     18  O   UNL A   1      32.274  23.170  27.534  1.00  0.00    -0.484 OA
BRANCH  18  19
ATOM     19  C   UNL A   1      33.553  22.614  27.751  1.00  0.00     0.329 C 
BRANCH  19  20
ATOM     20  C   UNL A   1      34.134  21.578  26.772  1.00  0.00     0.260 C 
ATOM     21  O   UNL A   1      33.538  20.512  26.586  1.00  0.00    -0.271 OA
ATOM     22  N   UNL A   1      35.235  21.925  26.018  1.00  0.00    -0.340 N 
ATOM     23  C   UNL A   1      36.143  23.040  26.209  1.00  0.00     0.119 C 
ATOM     24  C   UNL A   1      35.654  21.109  24.895  1.00  0.00     0.119 C 
ATOM     25  C   UNL A   1      36.737  23.266  24.834  1.00  0.00     0.023 C 
ATOM     26  C   UNL A   1      36.813  21.861  24.248  1.00  0.00     0.023 C 
ENDBRANCH  19  20
ENDBRANCH  18  19
ENDBRANCH  17  18
ENDBRANCH   7  12
ENDBRANCH   4   7
ENDBRANCH   2   3
ENDBRANCH   1   2
BRANCH   1  27
ATOM     27  C   UNL A   1      31.636  28.726  25.160  1.00  0.00     0.023 C 
BRANCH  27  28
ATOM     28  C   UNL A   1      32.860  29.504  25.634  1.00  0.00     0.116 C 
BRANCH  28  29
ATOM     29  N   UNL A   1      32.538  30.831  26.136  1.00  0.00    -0.352 N 
ATOM     30  C   UNL A   1      33.179  31.588  27.093  1.00  0.00     0.251 C 
ATOM     31  H   UNL A   1      31.744  31.252  25.732  1.00  0.00     0.163 HD
ATOM     32  O   UNL A   1      32.679  32.637  27.477  1.00  0.00    -0.269 OA
BRANCH  30  33
ATOM     33  C   UNL A   1      34.456  31.115  27.678  1.00  0.00     0.039 A 
ATOM     34  C   UNL A   1      35.462  32.046  27.944  1.00  0.00     0.014 A 
ATOM     35  C   UNL A   1      34.654  29.766  27.979  1.00  0.00     0.014 A 
ATOM     36  C   UNL A   1      36.632  31.636  28.589  1.00  0.00     0.010 A 
ATOM     37  C   UNL A   1      35.781  29.376  28.696  1.00  0.00     0.010 A 
ATOM     38  C   UNL A   1      36.784  30.305  29.011  1.00  0.00    -0.014 A 
BRANCH  38  39
ATOM     39  C   UNL A   1      37.967  29.875  29.805  1.00  0.00     0.031 A 
ATOM     40  C   UNL A   1      38.216  30.444  31.177  1.00  0.00     0.074 A 
ATOM     41  C   UNL A   1      38.872  29.040  29.253  1.00  0.00     0.049 A 
ATOM     42  N   UNL A   1      39.220  30.233  31.987  1.00  0.00    -0.248 NA
ATOM     43  C   UNL A   1      37.220  31.397  31.695  1.00  0.00     0.031 C 
ATOM     44  C   UNL A   1      38.797  28.485  27.901  1.00  0.00     0.029 A 
ATOM     45  N   UNL A   1      40.050  28.537  29.752  1.00  0.00    -0.354 N 
ATOM     46  C   UNL A   1      39.000  31.052  33.088  1.00  0.00     0.074 A 
ATOM     47  C   UNL A   1      37.783  31.788  32.829  1.00  0.00     0.031 C 
ATOM     48  C   UNL A   1      39.876  27.716  27.679  1.00  0.00     0.029 A 
ATOM     49  C   UNL A   1      40.737  27.750  28.856  1.00  0.00     0.049 A 
ATOM     50  H   UNL A   1      40.371  28.721  30.664  1.00  0.00     0.167 HD
ATOM     51  C   UNL A   1      39.730  31.163  34.225  1.00  0.00     0.034 A 
ATOM     52  C   UNL A   1      41.932  27.136  28.962  1.00  0.00     0.034 A 
ATOM     53  C   UNL A   1      40.917  30.400  34.499  1.00  0.00     0.049 A 
ATOM     54  C   UNL A   1      42.700  27.240  30.252  1.00  0.00     0.074 A 
ATOM     55  C   UNL A   1      41.669  30.371  35.662  1.00  0.00     0.029 A 
ATOM     56  N   UNL A   1      41.537  29.545  33.601  1.00  0.00    -0.354 N 
ATOM     57  N   UNL A   1      42.389  27.892  31.345  1.00  0.00    -0.248 NA
ATOM     58  C   UNL A   1      43.966  26.497  30.335  1.00  0.00     0.031 C 
ATOM     59  C   UNL A   1      42.762  29.523  35.454  1.00  0.00     0.029 A 
ATOM     60  C   UNL A   1      42.669  28.994  34.176  1.00  0.00     0.049 A 
ATOM     61  H   UNL A   1      41.217  29.358  32.689  1.00  0.00     0.167 HD
ATOM     62  C   UNL A   1      43.399  27.609  32.258  1.00  0.00     0.074 A 
ATOM     63  C   UNL A   1      44.320  26.710  31.596  1.00  0.00     0.031 C 
ATOM     64  C   UNL A   1      43.554  28.062  33.527  1.00  0.00     0.034 A 
BRANCH  51  65
ATOM     65  C   UNL A   1      39.240  32.118  35.283  1.00  0.00     0.023 A 
ATOM     66  C   UNL A   1      38.286  31.687  36.227  1.00  0.00     0.012 A 
ATOM     67  C   UNL A   1      39.773  33.418  35.386  1.00  0.00     0.148 A 
ATOM     68  C   UNL A   1      37.844  32.543  37.234  1.00  0.00     0.002 A 
ATOM     69  C   UNL A   1      39.364  34.250  36.421  1.00  0.00     0.091 A 
ATOM     70  F   UNL A   1      40.666  33.817  34.468  1.00  0.00    -0.205 F 
ATOM     71  C   UNL A   1      38.391  33.819  37.338  1.00  0.00     0.022 A 
BRANCH  69  72
ATOM     72  S   UNL A   1      40.066  35.880  36.692  1.00  0.00     0.127 S 
ATOM     73  O   UNL A   1      41.490  35.570  36.816  1.00  0.00    -0.237 OA
ATOM     74  O   UNL A   1      39.700  36.581  35.461  1.00  0.00    -0.237 OA
ATOM     75  O   UNL A   1      39.434  36.397  37.898  1.00  0.00    -0.744 OA
ENDBRANCH  69  72
ENDBRANCH  51  65
BRANCH  52  76
ATOM     76  C   UNL A   1      42.452  26.318  27.828  1.00  0.00     0.023 A 
ATOM     77  C   UNL A   1      43.421  26.863  26.964  1.00  0.00     0.012 A 
ATOM     78  C   UNL A   1      42.009  24.997  27.619  1.00  0.00     0.148 A 
ATOM     79  C   UNL A   1      43.917  26.120  25.893  1.00  0.00     0.002 A 
ATOM     80  C   UNL A   1      42.550  24.242  26.585  1.00  0.00     0.091 A 
ATOM     81  F   UNL A   1      41.079  24.500  28.446  1.00  0.00    -0.205 F 
ATOM     82  C   UNL A   1      43.490  24.808  25.709  1.00  0.00     0.022 A 
BRANCH  80  83
ATOM     83  S   UNL A   1      42.162  22.504  26.354  1.00  0.00     0.127 S 
ATOM     84  O   UNL A   1      42.892  22.194  25.129  1.00  0.00    -0.237 OA
ATOM     85  O   UNL A   1      42.717  21.909  27.571  1.00  0.00    -0.237 OA
ATOM     86  O   UNL A   1      40.709  22.434  26.260  1.00  0.00    -0.744 OA
ENDBRANCH  80  83
ENDBRANCH  52  76
BRANCH  64  87
ATOM     87  C   UNL A   1      44.743  27.566  34.309  1.00  0.00     0.023 A 
ATOM     88  C   UNL A   1      45.942  28.305  34.316  1.00  0.00     0.012 A 
ATOM     89  C   UNL A   1      44.643  26.403  35.099  1.00  0.00     0.148 A 
ATOM     90  C   UNL A   1      47.035  27.876  35.069  1.00  0.00     0.002 A 
ATOM     91  C   UNL A   1      45.717  26.010  35.888  1.00  0.00     0.091 A 
ATOM     92  F   UNL A   1      43.499  25.703  35.066  1.00  0.00    -0.205 F 
ATOM     93  C   UNL A   1      46.919  26.737  35.863  1.00  0.00     0.022 A 
BRANCH  91  94
ATOM     94  S   UNL A   1      45.626  24.616  37.016  1.00  0.00     0.127 S 
ATOM     95  O   UNL A   1      47.028  24.442  37.390  1.00  0.00    -0.237 OA
ATOM     96  O   UNL A   1      44.769  25.137  38.083  1.00  0.00    -0.237 OA
ATOM     97  O   UNL A   1      45.042  23.520  36.254  1.00  0.00    -0.744 OA
ENDBRANCH  91  94
ENDBRANCH  64  87
ENDBRANCH  38  39
ENDBRANCH  30  33
ENDBRANCH  28  29
ENDBRANCH  27  28
ENDBRANCH   1  27
TORSDOF 19
ENDMDL
MODEL 2
REMARK VINA RESULT:     -11.3      1.710      2.045
REMARK SMILES [NH3+][C@H](C(=O)NCCCCNC(=O)c1ccc(-c2c3nc(c(-c4cccc(S(=O)(=O)[O-])c4F)c4ccc([nH]4)c(-c4cccc(S(=O)(=O)[O-])c4F)c4nc(c(-c5cccc(S(=O)(=O)[O-])c5F)c5ccc2[nH]5)C=C4)C=C3)cc1)c1ccc(OCC(=O)N2CCCC2)cc1
REMARK SMILES IDX 7 1 6 2 5 3 3 4 4 5 2 7 1 8 76 12 77 13 90 14 78 15 89 16
REMARK SMILES IDX 79 17 80 18 81 19 82 20 83 21 84 22 85 23 88 24 86 25 87 26
REMARK SMILES IDX 8 27 9 28 10 29 11 30 12 32 13 33 14 34 75 35 15 36 74 37
REMARK SMILES IDX 16 38 17 39 18 40 68 41 19 42 73 43 67 44 69 45 20 46 72 47
REMARK SMILES IDX 66 48 65 49 21 51 53 52 33 53 52 54 34 55 37 56 51 57 70 58
REMARK SMILES IDX 35 59 36 60 50 62 71 63 38 64 22 65 23 66 31 67 24 68 26 69
REMARK SMILES IDX 32 70 25 71 27 72 28 73 29 74 30 75 54 76 55 77 63 78 56 79
REMARK SMILES IDX 58 80 64 81 57 82 59 83 60 84 61 85 62 86 39 87 40 88 48 89
REMARK SMILES IDX 41 90 43 91 49 92 42 93 44 94 45 95 46 96 47 97
REMARK H PARENT 5 6 1 9 1 10 1 11 10 31 69 50 37 61
REMARK Flexibility Score: inf
ROOT
ATOM      1  C   UNL A   1      33.451  28.635  24.999  1.00  0.00     0.023 C 
ENDROOT
BRANCH   1   2
ATOM      2  C   UNL A   1      32.918  27.438  24.221  1.00  0.00     0.116 C 
BRANCH   2   3
ATOM      3  N   UNL A   1      31.829  27.771  23.317  1.00  0.00    -0.351 N 
ATOM      4  C   UNL A   1      30.493  27.478  23.389  1.00  0.00     0.283 C 
ATOM      5  O   UNL A   1      29.747  28.071  22.601  1.00  0.00    -0.268 OA
ATOM      6  H   UNL A   1      32.095  28.289  22.524  1.00  0.00     0.163 HD
BRANCH   4   7
ATOM      7  C   UNL A   1      29.923  26.388  24.337  1.00  0.00     0.302 C 
BRANCH   7   8
ATOM      8  N   UNL A   1      28.472  26.230  24.069  1.00  0.00    -0.343 N 
ATOM      9  H   UNL A   1      28.328  25.448  23.430  1.00  0.00     0.345 HD
ATOM     10  H   UNL A   1      28.109  27.085  23.648  1.00  0.00     0.345 HD
ATOM     11  H   UNL A   1      27.983  26.049  24.945  1.00  0.00     0.345 HD
ENDBRANCH   7   8
BRANCH   7  12
ATOM     12  C   UNL A   1      30.637  25.045  24.364  1.00  0.00     0.019 A 
ATOM     13  C   UNL A   1      30.942  24.324  23.206  1.00  0.00     0.014 A 
ATOM     14  C   UNL A   1      31.004  24.482  25.602  1.00  0.00     0.014 A 
ATOM     15  C   UNL A   1      31.398  23.013  23.290  1.00  0.00     0.047 A 
ATOM     16  C   UNL A   1      31.553  23.198  25.684  1.00  0.00     0.047 A 
ATOM     17  C   UNL A   1      31.716  22.453  24.524  1.00  0.00     0.120 A 
BRANCH  17  18
ATOM     18  O   UNL A   1      32.133  21.157  24.467  1.00  0.00    -0.484 OA
BRANCH  18  19
ATOM     19  C   UNL A   1      32.981  20.728  25.510  1.00  0.00     0.329 C 
BRANCH  19  20
ATOM     20  C   UNL A   1      34.473  20.456  25.246  1.00  0.00     0.260 C 
ATOM     21  O   UNL A   1      34.815  19.404  24.696  1.00  0.00    -0.271 OA
ATOM     22  N   UNL A   1      35.383  21.460  25.503  1.00  0.00    -0.340 N 
ATOM     23  C   UNL A   1      35.194  22.671  26.278  1.00  0.00     0.119 C 
ATOM     24  C   UNL A   1      36.748  21.367  25.020  1.00  0.00     0.119 C 
ATOM     25  C   UNL A   1      36.247  23.617  25.739  1.00  0.00     0.023 C 
ATOM     26  C   UNL A   1      37.407  22.692  25.391  1.00  0.00     0.023 C 
ENDBRANCH  19  20
ENDBRANCH  18  19
ENDBRANCH  17  18
ENDBRANCH   7  12
ENDBRANCH   4   7
ENDBRANCH   2   3
ENDBRANCH   1   2
BRANCH   1  27
ATOM     27  C   UNL A   1      32.424  29.729  25.300  1.00  0.00     0.023 C 
BRANCH  27  28
ATOM     28  C   UNL A   1      32.358  30.206  26.748  1.00  0.00     0.116 C 
BRANCH  28  29
ATOM     29  N   UNL A   1      32.433  31.654  26.880  1.00  0.00    -0.352 N 
ATOM     30  C   UNL A   1      33.406  32.433  27.467  1.00  0.00     0.251 C 
ATOM     31  H   UNL A   1      31.675  32.150  26.493  1.00  0.00     0.163 HD
ATOM     32  O   UNL A   1      33.228  33.637  27.597  1.00  0.00    -0.269 OA
BRANCH  30  33
ATOM     33  C   UNL A   1      34.652  31.808  27.969  1.00  0.00     0.039 A 
ATOM     34  C   UNL A   1      35.794  32.600  28.113  1.00  0.00     0.014 A 
ATOM     35  C   UNL A   1      34.692  30.456  28.313  1.00  0.00     0.014 A 
ATOM     36  C   UNL A   1      36.949  32.054  28.680  1.00  0.00     0.010 A 
ATOM     37  C   UNL A   1      35.813  29.937  28.955  1.00  0.00     0.010 A 
ATOM     38  C   UNL A   1      36.955  30.729  29.148  1.00  0.00    -0.014 A 
BRANCH  38  39
ATOM     39  C   UNL A   1      38.132  30.166  29.863  1.00  0.00     0.031 A 
ATOM     40  C   UNL A   1      38.460  30.611  31.264  1.00  0.00     0.074 A 
ATOM     41  C   UNL A   1      38.963  29.322  29.217  1.00  0.00     0.049 A 
ATOM     42  N   UNL A   1      39.474  30.275  32.018  1.00  0.00    -0.248 NA
ATOM     43  C   UNL A   1      37.545  31.581  31.888  1.00  0.00     0.031 C 
ATOM     44  C   UNL A   1      38.809  28.878  27.831  1.00  0.00     0.029 A 
ATOM     45  N   UNL A   1      40.121  28.709  29.634  1.00  0.00    -0.354 N 
ATOM     46  C   UNL A   1      39.343  31.019  33.186  1.00  0.00     0.074 A 
ATOM     47  C   UNL A   1      38.167  31.847  33.027  1.00  0.00     0.031 C 
ATOM     48  C   UNL A   1      39.829  28.064  27.512  1.00  0.00     0.029 A 
ATOM     49  C   UNL A   1      40.727  27.953  28.656  1.00  0.00     0.049 A 
ATOM     50  H   UNL A   1      40.482  28.802  30.544  1.00  0.00     0.167 HD
ATOM     51  C   UNL A   1      40.113  30.996  34.300  1.00  0.00     0.034 A 
ATOM     52  C   UNL A   1      41.882  27.259  28.672  1.00  0.00     0.034 A 
ATOM     53  C   UNL A   1      41.257  30.142  34.472  1.00  0.00     0.049 A 
ATOM     54  C   UNL A   1      42.696  27.216  29.937  1.00  0.00     0.074 A 
ATOM     55  C   UNL A   1      42.041  29.976  35.601  1.00  0.00     0.029 A 
ATOM     56  N   UNL A   1      41.791  29.322  33.491  1.00  0.00    -0.354 N 
ATOM     57  N   UNL A   1      42.463  27.798  31.087  1.00  0.00    -0.248 NA
ATOM     58  C   UNL A   1      43.913  26.391  29.918  1.00  0.00     0.031 C 
ATOM     59  C   UNL A   1      43.070  29.080  35.290  1.00  0.00     0.029 A 
ATOM     60  C   UNL A   1      42.903  28.658  33.981  1.00  0.00     0.049 A 
ATOM     61  H   UNL A   1      41.431  29.226  32.579  1.00  0.00     0.167 HD
ATOM     62  C   UNL A   1      43.481  27.383  31.939  1.00  0.00     0.074 A 
ATOM     63  C   UNL A   1      44.320  26.483  31.177  1.00  0.00     0.031 C 
ATOM     64  C   UNL A   1      43.705  27.726  33.232  1.00  0.00     0.034 A 
BRANCH  51  65
ATOM     65  C   UNL A   1      39.720  31.894  35.444  1.00  0.00     0.023 A 
ATOM     66  C   UNL A   1      40.168  33.231  35.470  1.00  0.00     0.012 A 
ATOM     67  C   UNL A   1      38.853  31.439  36.456  1.00  0.00     0.148 A 
ATOM     68  C   UNL A   1      39.791  34.089  36.501  1.00  0.00     0.002 A 
ATOM     69  C   UNL A   1      38.441  32.314  37.455  1.00  0.00     0.091 A 
ATOM     70  F   UNL A   1      38.451  30.160  36.426  1.00  0.00    -0.205 F 
ATOM     71  C   UNL A   1      38.919  33.634  37.486  1.00  0.00     0.022 A 
BRANCH  69  72
ATOM     72  S   UNL A   1      37.256  31.851  38.722  1.00  0.00     0.127 S 
ATOM     73  O   UNL A   1      38.023  32.092  39.944  1.00  0.00    -0.237 OA
ATOM     74  O   UNL A   1      36.169  32.801  38.488  1.00  0.00    -0.237 OA
ATOM     75  O   UNL A   1      36.914  30.458  38.466  1.00  0.00    -0.744 OA
ENDBRANCH  69  72
ENDBRANCH  51  65
BRANCH  52  76
ATOM     76  C   UNL A   1      42.312  26.501  27.462  1.00  0.00     0.023 A 
ATOM     77  C   UNL A   1      42.998  27.169  26.429  1.00  0.00     0.012 A 
ATOM     78  C   UNL A   1      42.068  25.119  27.342  1.00  0.00     0.148 A 
ATOM     79  C   UNL A   1      43.404  26.483  25.285  1.00  0.00     0.002 A 
ATOM     80  C   UNL A   1      42.526  24.430  26.226  1.00  0.00     0.091 A 
ATOM     81  F   UNL A   1      41.405  24.503  28.331  1.00  0.00    -0.205 F 
ATOM     82  C   UNL A   1      43.177  25.113  25.187  1.00  0.00     0.022 A 
BRANCH  80  83
ATOM     83  S   UNL A   1      42.399  22.645  26.076  1.00  0.00     0.127 S 
ATOM     84  O   UNL A   1      43.002  22.411  24.766  1.00  0.00    -0.237 OA
ATOM     85  O   UNL A   1      43.200  22.191  27.214  1.00  0.00    -0.237 OA
ATOM     86  O   UNL A   1      40.979  22.340  26.181  1.00  0.00    -0.744 OA
ENDBRANCH  80  83
ENDBRANCH  52  76
BRANCH  64  87
ATOM     87  C   UNL A   1      44.883  27.099  33.930  1.00  0.00     0.023 A 
ATOM     88  C   UNL A   1      46.146  27.720  33.882  1.00  0.00     0.012 A 
ATOM     89  C   UNL A   1      44.717  25.929  34.699  1.00  0.00     0.148 A 
ATOM     90  C   UNL A   1      47.234  27.168  34.559  1.00  0.00     0.002 A 
ATOM     91  C   UNL A   1      45.791  25.414  35.413  1.00  0.00     0.091 A 
ATOM     92  F   UNL A   1      43.511  25.342  34.719  1.00  0.00    -0.205 F 
ATOM     93  C   UNL A   1      47.054  26.024  35.333  1.00  0.00     0.022 A 
BRANCH  91  94
ATOM     94  S   UNL A   1      45.631  24.004  36.514  1.00  0.00     0.127 S 
ATOM     95  O   UNL A   1      45.191  22.956  35.595  1.00  0.00    -0.237 OA
ATOM     96  O   UNL A   1      46.998  23.844  37.014  1.00  0.00    -0.237 OA
ATOM     97  O   UNL A   1      44.660  24.394  37.528  1.00  0.00    -0.744 OA
ENDBRANCH  91  94
ENDBRANCH  64  87
ENDBRANCH  38  39
ENDBRANCH  30  33
ENDBRANCH  28  29
ENDBRANCH  27  28
ENDBRANCH   1  27
TORSDOF 19
ENDMDL
MODEL 3
REMARK VINA RESULT:     -11.3      1.515      2.008
REMARK SMILES [NH3+][C@H](C(=O)NCCCCNC(=O)c1ccc(-c2c3nc(c(-c4cccc(S(=O)(=O)[O-])c4F)c4ccc([nH]4)c(-c4cccc(S(=O)(=O)[O-])c4F)c4nc(c(-c5cccc(S(=O)(=O)[O-])c5F)c5ccc2[nH]5)C=C4)C=C3)cc1)c1ccc(OCC(=O)N2CCCC2)cc1
REMARK SMILES IDX 7 1 6 2 5 3 3 4 4 5 2 7 1 8 76 12 77 13 90 14 78 15 89 16
REMARK SMILES IDX 79 17 80 18 81 19 82 20 83 21 84 22 85 23 88 24 86 25 87 26
REMARK SMILES IDX 8 27 9 28 10 29 11 30 12 32 13 33 14 34 75 35 15 36 74 37
REMARK SMILES IDX 16 38 17 39 18 40 68 41 19 42 73 43 67 44 69 45 20 46 72 47
REMARK SMILES IDX 66 48 65 49 21 51 53 52 33 53 52 54 34 55 37 56 51 57 70 58
REMARK SMILES IDX 35 59 36 60 50 62 71 63 38 64 22 65 23 66 31 67 24 68 26 69
REMARK SMILES IDX 32 70 25 71 27 72 28 73 29 74 30 75 54 76 55 77 63 78 56 79
REMARK SMILES IDX 58 80 64 81 57 82 59 83 60 84 61 85 62 86 39 87 40 88 48 89
REMARK SMILES IDX 41 90 43 91 49 92 42 93 44 94 45 95 46 96 47 97
REMARK H PARENT 5 6 1 9 1 10 1 11 10 31 69 50 37 61
REMARK Flexibility Score: inf
ROOT
ATOM      1  C   UNL A   1      31.435  28.548  25.529  1.00  0.00     0.023 C 
ENDROOT
BRANCH   1   2
ATOM      2  C   UNL A   1      31.258  27.980  24.127  1.00  0.00     0.116 C 
BRANCH   2   3
ATOM      3  N   UNL A   1      32.501  27.877  23.380  1.00  0.00    -0.351 N 
ATOM      4  C   UNL A   1      32.819  27.122  22.282  1.00  0.00     0.283 C 
ATOM      5  O   UNL A   1      33.882  27.389  21.709  1.00  0.00    -0.268 OA
ATOM      6  H   UNL A   1      33.234  28.439  23.720  1.00  0.00     0.163 HD
BRANCH   4   7
ATOM      7  C   UNL A   1      31.955  25.921  21.812  1.00  0.00     0.302 C 
BRANCH   7   8
ATOM      8  N   UNL A   1      32.206  25.686  20.367  1.00  0.00    -0.343 N 
ATOM      9  H   UNL A   1      32.125  26.567  19.862  1.00  0.00     0.345 HD
ATOM     10  H   UNL A   1      31.519  25.023  20.007  1.00  0.00     0.345 HD
ATOM     11  H   UNL A   1      33.143  25.306  20.242  1.00  0.00     0.345 HD
ENDBRANCH   7   8
BRANCH   7  12
ATOM     12  C   UNL A   1      32.057  24.633  22.614  1.00  0.00     0.019 A 
ATOM     13  C   UNL A   1      31.009  24.140  23.396  1.00  0.00     0.014 A 
ATOM     14  C   UNL A   1      33.258  23.896  22.590  1.00  0.00     0.014 A 
ATOM     15  C   UNL A   1      31.219  23.083  24.275  1.00  0.00     0.047 A 
ATOM     16  C   UNL A   1      33.440  22.773  23.403  1.00  0.00     0.047 A 
ATOM     17  C   UNL A   1      32.426  22.391  24.272  1.00  0.00     0.120 A 
BRANCH  17  18
ATOM     18  O   UNL A   1      32.507  21.390  25.192  1.00  0.00    -0.484 OA
BRANCH  18  19
ATOM     19  C   UNL A   1      32.576  20.076  24.683  1.00  0.00     0.329 C 
BRANCH  19  20
ATOM     20  C   UNL A   1      33.916  19.317  24.650  1.00  0.00     0.260 C 
ATOM     21  O   UNL A   1      34.977  19.946  24.724  1.00  0.00    -0.271 OA
ATOM     22  N   UNL A   1      33.896  17.939  24.682  1.00  0.00    -0.340 N 
ATOM     23  C   UNL A   1      32.776  17.048  24.443  1.00  0.00     0.119 C 
ATOM     24  C   UNL A   1      35.108  17.184  24.933  1.00  0.00     0.119 C 
ATOM     25  C   UNL A   1      33.161  15.776  25.170  1.00  0.00     0.023 C 
ATOM     26  C   UNL A   1      34.676  15.723  25.010  1.00  0.00     0.023 C 
ENDBRANCH  19  20
ENDBRANCH  18  19
ENDBRANCH  17  18
ENDBRANCH   7  12
ENDBRANCH   4   7
ENDBRANCH   2   3
ENDBRANCH   1   2
BRANCH   1  27
ATOM     27  C   UNL A   1      31.760  30.042  25.593  1.00  0.00     0.023 C 
BRANCH  27  28
ATOM     28  C   UNL A   1      32.120  30.592  26.970  1.00  0.00     0.116 C 
BRANCH  28  29
ATOM     29  N   UNL A   1      32.262  32.040  26.992  1.00  0.00    -0.352 N 
ATOM     30  C   UNL A   1      33.282  32.815  27.501  1.00  0.00     0.251 C 
ATOM     31  H   UNL A   1      31.519  32.541  26.584  1.00  0.00     0.163 HD
ATOM     32  O   UNL A   1      33.161  34.032  27.543  1.00  0.00    -0.269 OA
BRANCH  30  33
ATOM     33  C   UNL A   1      34.510  32.172  28.023  1.00  0.00     0.039 A 
ATOM     34  C   UNL A   1      35.665  32.944  28.173  1.00  0.00     0.014 A 
ATOM     35  C   UNL A   1      34.520  30.823  28.382  1.00  0.00     0.014 A 
ATOM     36  C   UNL A   1      36.802  32.382  28.760  1.00  0.00     0.010 A 
ATOM     37  C   UNL A   1      35.623  30.290  29.043  1.00  0.00     0.010 A 
ATOM     38  C   UNL A   1      36.778  31.063  29.242  1.00  0.00    -0.014 A 
BRANCH  38  39
ATOM     39  C   UNL A   1      37.936  30.486  29.977  1.00  0.00     0.031 A 
ATOM     40  C   UNL A   1      38.239  30.919  31.387  1.00  0.00     0.074 A 
ATOM     41  C   UNL A   1      38.772  29.638  29.343  1.00  0.00     0.049 A 
ATOM     42  N   UNL A   1      39.234  30.571  32.160  1.00  0.00    -0.248 NA
ATOM     43  C   UNL A   1      37.319  31.893  31.998  1.00  0.00     0.031 C 
ATOM     44  C   UNL A   1      38.643  29.204  27.951  1.00  0.00     0.029 A 
ATOM     45  N   UNL A   1      39.916  29.013  29.779  1.00  0.00    -0.354 N 
ATOM     46  C   UNL A   1      39.086  31.308  33.328  1.00  0.00     0.074 A 
ATOM     47  C   UNL A   1      37.921  32.147  33.151  1.00  0.00     0.031 C 
ATOM     48  C   UNL A   1      39.661  28.383  27.648  1.00  0.00     0.029 A 
ATOM     49  C   UNL A   1      40.536  28.257  28.809  1.00  0.00     0.049 A 
ATOM     50  H   UNL A   1      40.260  29.097  30.697  1.00  0.00     0.167 HD
ATOM     51  C   UNL A   1      39.834  31.272  34.457  1.00  0.00     0.034 A 
ATOM     52  C   UNL A   1      41.684  27.554  28.844  1.00  0.00     0.034 A 
ATOM     53  C   UNL A   1      40.967  30.407  34.648  1.00  0.00     0.049 A 
ATOM     54  C   UNL A   1      42.472  27.496  30.125  1.00  0.00     0.074 A 
ATOM     55  C   UNL A   1      41.727  30.228  35.791  1.00  0.00     0.029 A 
ATOM     56  N   UNL A   1      41.513  29.589  33.673  1.00  0.00    -0.354 N 
ATOM     57  N   UNL A   1      42.221  28.074  31.273  1.00  0.00    -0.248 NA
ATOM     58  C   UNL A   1      43.682  26.661  30.126  1.00  0.00     0.031 C 
ATOM     59  C   UNL A   1      42.754  29.326  35.496  1.00  0.00     0.029 A 
ATOM     60  C   UNL A   1      42.609  28.913  34.180  1.00  0.00     0.049 A 
ATOM     61  H   UNL A   1      41.172  29.502  32.753  1.00  0.00     0.167 HD
ATOM     62  C   UNL A   1      43.218  27.645  32.143  1.00  0.00     0.074 A 
ATOM     63  C   UNL A   1      44.065  26.742  31.393  1.00  0.00     0.031 C 
ATOM     64  C   UNL A   1      43.418  27.979  33.442  1.00  0.00     0.034 A 
BRANCH  51  65
ATOM     65  C   UNL A   1      39.425  32.168  35.599  1.00  0.00     0.023 A 
ATOM     66  C   UNL A   1      38.607  31.660  36.629  1.00  0.00     0.012 A 
ATOM     67  C   UNL A   1      39.906  33.489  35.689  1.00  0.00     0.148 A 
ATOM     68  C   UNL A   1      38.245  32.460  37.710  1.00  0.00     0.002 A 
ATOM     69  C   UNL A   1      39.580  34.266  36.794  1.00  0.00     0.091 A 
ATOM     70  F   UNL A   1      40.668  33.961  34.691  1.00  0.00    -0.205 F 
ATOM     71  C   UNL A   1      38.740  33.758  37.799  1.00  0.00     0.022 A 
BRANCH  69  72
ATOM     72  S   UNL A   1      40.233  35.920  37.044  1.00  0.00     0.127 S 
ATOM     73  O   UNL A   1      39.523  36.337  38.253  1.00  0.00    -0.237 OA
ATOM     74  O   UNL A   1      41.661  35.661  37.235  1.00  0.00    -0.237 OA
ATOM     75  O   UNL A   1      39.905  36.670  35.839  1.00  0.00    -0.744 OA
ENDBRANCH  69  72
ENDBRANCH  51  65
BRANCH  52  76
ATOM     76  C   UNL A   1      42.132  26.799  27.638  1.00  0.00     0.023 A 
ATOM     77  C   UNL A   1      42.809  27.476  26.605  1.00  0.00     0.012 A 
ATOM     78  C   UNL A   1      41.913  25.412  27.523  1.00  0.00     0.148 A 
ATOM     79  C   UNL A   1      43.231  26.793  25.465  1.00  0.00     0.002 A 
ATOM     80  C   UNL A   1      42.387  24.727  26.410  1.00  0.00     0.091 A 
ATOM     81  F   UNL A   1      41.258  24.789  28.512  1.00  0.00    -0.205 F 
ATOM     82  C   UNL A   1      43.029  25.418  25.371  1.00  0.00     0.022 A 
BRANCH  80  83
ATOM     83  S   UNL A   1      42.293  22.940  26.267  1.00  0.00     0.127 S 
ATOM     84  O   UNL A   1      40.854  22.708  26.343  1.00  0.00    -0.237 OA
ATOM     85  O   UNL A   1      42.886  22.714  24.947  1.00  0.00    -0.237 OA
ATOM     86  O   UNL A   1      43.079  22.414  27.375  1.00  0.00    -0.744 OA
ENDBRANCH  80  83
ENDBRANCH  52  76
BRANCH  64  87
ATOM     87  C   UNL A   1      44.577  27.337  34.160  1.00  0.00     0.023 A 
ATOM     88  C   UNL A   1      45.790  28.037  34.313  1.00  0.00     0.012 A 
ATOM     89  C   UNL A   1      44.435  26.065  34.750  1.00  0.00     0.148 A 
ATOM     90  C   UNL A   1      46.854  27.468  35.011  1.00  0.00     0.002 A 
ATOM     91  C   UNL A   1      45.481  25.525  35.489  1.00  0.00     0.091 A 
ATOM     92  F   UNL A   1      43.279  25.406  34.579  1.00  0.00    -0.205 F 
ATOM     93  C   UNL A   1      46.696  26.219  35.609  1.00  0.00     0.022 A 
BRANCH  91  94
ATOM     94  S   UNL A   1      45.334  23.971  36.376  1.00  0.00     0.127 S 
ATOM     95  O   UNL A   1      46.734  23.572  36.514  1.00  0.00    -0.237 OA
ATOM     96  O   UNL A   1      44.691  24.386  37.623  1.00  0.00    -0.237 OA
ATOM     97  O   UNL A   1      44.518  23.104  35.535  1.00  0.00    -0.744 OA
ENDBRANCH  91  94
ENDBRANCH  64  87
ENDBRANCH  38  39
ENDBRANCH  30  33
ENDBRANCH  28  29
ENDBRANCH  27  28
ENDBRANCH   1  27
TORSDOF 19
ENDMDL
