MODEL 1
REMARK VINA RESULT:     -12.6      0.000      0.000
REMARK SMILES O=C(NCCCCNC(=O)c1cccc(Nc2ccnc3ccc(Cl)cc23)c1)c1ccc(-c2c3nc(c(-c4cccc(S(=O)(=O)[O-])c4F)c4ccc([nH]4)c(-c4cccc(S(=O)(=O)[O-])c4F)c4nc(c(-c5cccc(S(=O)(=O)[O-])c5F)c5ccc2[nH]5)C=C4)C=C3)cc1
REMARK SMILES IDX 5 1 4 2 3 3 1 4 2 5 29 7 30 8 91 9 31 10 90 11 32 12 33 13
REMARK SMILES IDX 34 14 84 15 35 16 89 17 83 18 85 19 36 20 88 21 82 22 81 23
REMARK SMILES IDX 37 25 69 26 49 27 68 28 50 29 53 30 67 31 86 32 51 33 52 34
REMARK SMILES IDX 66 36 87 37 54 38 38 39 39 40 47 41 40 42 42 43 48 44 41 45
REMARK SMILES IDX 43 46 44 47 45 48 46 49 70 50 71 51 79 52 72 53 74 54 80 55
REMARK SMILES IDX 73 56 75 57 76 58 77 59 78 60 55 61 56 62 64 63 57 64 59 65
REMARK SMILES IDX 65 66 58 67 60 68 61 69 62 70 63 71 6 72 7 73 8 74 9 75
REMARK SMILES IDX 10 77 11 78 12 79 28 80 13 81 15 82 14 83 16 84 17 86 18 87
REMARK SMILES IDX 27 88 19 89 21 90 26 91 20 92 22 93 24 94 23 95 25 96
REMARK H PARENT 3 6 85 24 53 35 8 76 16 85
REMARK Flexibility Score: inf
ROOT
ATOM      1  C   UNL A   1      35.605  22.110  25.341  1.00  0.00     0.023 C 
ENDROOT
BRANCH   1   2
ATOM      2  C   UNL A   1      37.070  22.449  25.085  1.00  0.00     0.116 C 
BRANCH   2   3
ATOM      3  N   UNL A   1      37.994  21.396  25.474  1.00  0.00    -0.352 N 
ATOM      4  O   UNL A   1      39.878  20.470  26.280  1.00  0.00    -0.269 OA
ATOM      5  C   UNL A   1      39.203  21.485  26.130  1.00  0.00     0.251 C 
ATOM      6  H   UNL A   1      37.714  20.483  25.232  1.00  0.00     0.163 HD
BRANCH   5   7
ATOM      7  C   UNL A   1      39.709  22.793  26.617  1.00  0.00     0.039 A 
ATOM      8  C   UNL A   1      39.244  23.997  26.086  1.00  0.00     0.014 A 
ATOM      9  C   UNL A   1      40.664  22.814  27.642  1.00  0.00     0.014 A 
ATOM     10  C   UNL A   1      39.840  25.201  26.460  1.00  0.00     0.010 A 
ATOM     11  C   UNL A   1      41.202  24.032  28.075  1.00  0.00     0.010 A 
ATOM     12  C   UNL A   1      40.824  25.235  27.461  1.00  0.00    -0.014 A 
BRANCH  12  13
ATOM     13  C   UNL A   1      41.392  26.543  27.888  1.00  0.00     0.031 A 
ATOM     14  C   UNL A   1      42.825  26.911  27.605  1.00  0.00     0.074 A 
ATOM     15  C   UNL A   1      40.595  27.415  28.538  1.00  0.00     0.049 A 
ATOM     16  N   UNL A   1      43.455  28.027  27.872  1.00  0.00    -0.248 NA
ATOM     17  C   UNL A   1      43.662  25.898  26.942  1.00  0.00     0.031 C 
ATOM     18  C   UNL A   1      39.204  27.159  28.917  1.00  0.00     0.029 A 
ATOM     19  N   UNL A   1      40.834  28.686  28.995  1.00  0.00    -0.354 N 
ATOM     20  C   UNL A   1      44.766  27.841  27.446  1.00  0.00     0.074 A 
ATOM     21  C   UNL A   1      44.845  26.499  26.911  1.00  0.00     0.031 C 
ATOM     22  C   UNL A   1      38.707  28.244  29.527  1.00  0.00     0.029 A 
ATOM     23  C   UNL A   1      39.752  29.256  29.626  1.00  0.00     0.049 A 
ATOM     24  H   UNL A   1      41.697  29.147  28.884  1.00  0.00     0.167 HD
ATOM     25  C   UNL A   1      45.803  28.714  27.483  1.00  0.00     0.034 A 
ATOM     26  C   UNL A   1      39.615  30.453  30.227  1.00  0.00     0.034 A 
ATOM     27  C   UNL A   1      45.713  30.061  27.983  1.00  0.00     0.049 A 
ATOM     28  C   UNL A   1      40.773  31.408  30.229  1.00  0.00     0.074 A 
ATOM     29  C   UNL A   1      46.691  31.042  27.993  1.00  0.00     0.029 A 
ATOM     30  N   UNL A   1      44.588  30.617  28.571  1.00  0.00    -0.354 N 
ATOM     31  N   UNL A   1      41.960  31.263  29.692  1.00  0.00    -0.248 NA
ATOM     32  C   UNL A   1      40.566  32.702  30.893  1.00  0.00     0.031 C 
ATOM     33  C   UNL A   1      46.162  32.184  28.606  1.00  0.00     0.029 A 
ATOM     34  C   UNL A   1      44.848  31.922  28.959  1.00  0.00     0.049 A 
ATOM     35  H   UNL A   1      43.728  30.153  28.695  1.00  0.00     0.167 HD
ATOM     36  C   UNL A   1      42.634  32.454  29.935  1.00  0.00     0.074 A 
ATOM     37  C   UNL A   1      41.711  33.321  30.640  1.00  0.00     0.031 C 
ATOM     38  C   UNL A   1      43.909  32.791  29.619  1.00  0.00     0.034 A 
BRANCH  25  39
ATOM     39  C   UNL A   1      47.127  28.260  26.922  1.00  0.00     0.023 A 
ATOM     40  C   UNL A   1      48.186  27.956  27.801  1.00  0.00     0.012 A 
ATOM     41  C   UNL A   1      47.301  28.059  25.537  1.00  0.00     0.148 A 
ATOM     42  C   UNL A   1      49.404  27.483  27.312  1.00  0.00     0.002 A 
ATOM     43  C   UNL A   1      48.506  27.552  25.061  1.00  0.00     0.091 A 
ATOM     44  F   UNL A   1      46.290  28.372  24.714  1.00  0.00    -0.205 F 
ATOM     45  C   UNL A   1      49.560  27.273  25.944  1.00  0.00     0.022 A 
BRANCH  43  46
ATOM     46  S   UNL A   1      48.777  27.174  23.324  1.00  0.00     0.127 S 
ATOM     47  O   UNL A   1      50.231  27.027  23.279  1.00  0.00    -0.237 OA
ATOM     48  O   UNL A   1      48.034  25.925  23.159  1.00  0.00    -0.237 OA
ATOM     49  O   UNL A   1      48.237  28.303  22.581  1.00  0.00    -0.744 OA
ENDBRANCH  43  46
ENDBRANCH  25  39
BRANCH  26  50
ATOM     50  C   UNL A   1      38.306  30.825  30.833  1.00  0.00     0.023 A 
ATOM     51  C   UNL A   1      38.042  30.489  32.174  1.00  0.00     0.012 A 
ATOM     52  C   UNL A   1      37.346  31.556  30.106  1.00  0.00     0.148 A 
ATOM     53  C   UNL A   1      36.837  30.857  32.774  1.00  0.00     0.002 A 
ATOM     54  C   UNL A   1      36.174  31.971  30.727  1.00  0.00     0.091 A 
ATOM     55  F   UNL A   1      37.608  31.850  28.824  1.00  0.00    -0.205 F 
ATOM     56  C   UNL A   1      35.910  31.609  32.056  1.00  0.00     0.022 A 
BRANCH  54  57
ATOM     57  S   UNL A   1      35.001  33.065  29.919  1.00  0.00     0.127 S 
ATOM     58  O   UNL A   1      34.421  32.187  28.907  1.00  0.00    -0.237 OA
ATOM     59  O   UNL A   1      34.102  33.414  31.021  1.00  0.00    -0.237 OA
ATOM     60  O   UNL A   1      35.790  34.181  29.418  1.00  0.00    -0.744 OA
ENDBRANCH  54  57
ENDBRANCH  26  50
BRANCH  38  61
ATOM     61  C   UNL A   1      44.382  34.164  30.018  1.00  0.00     0.023 A 
ATOM     62  C   UNL A   1      45.097  34.332  31.221  1.00  0.00     0.012 A 
ATOM     63  C   UNL A   1      44.171  35.275  29.178  1.00  0.00     0.148 A 
ATOM     64  C   UNL A   1      45.569  35.590  31.596  1.00  0.00     0.002 A 
ATOM     65  C   UNL A   1      44.683  36.517  29.537  1.00  0.00     0.091 A 
ATOM     66  F   UNL A   1      43.470  35.100  28.049  1.00  0.00    -0.205 F 
ATOM     67  C   UNL A   1      45.372  36.678  30.750  1.00  0.00     0.022 A 
BRANCH  65  68
ATOM     68  S   UNL A   1      44.555  37.955  28.467  1.00  0.00     0.127 S 
ATOM     69  O   UNL A   1      43.272  38.520  28.880  1.00  0.00    -0.237 OA
ATOM     70  O   UNL A   1      45.724  38.742  28.860  1.00  0.00    -0.237 OA
ATOM     71  O   UNL A   1      44.604  37.443  27.103  1.00  0.00    -0.744 OA
ENDBRANCH  65  68
ENDBRANCH  38  61
ENDBRANCH  12  13
ENDBRANCH   5   7
ENDBRANCH   2   3
ENDBRANCH   1   2
BRANCH   1  72
ATOM     72  C   UNL A   1      35.088  22.329  26.764  1.00  0.00     0.023 C 
BRANCH  72  73
ATOM     73  C   UNL A   1      33.893  21.481  27.195  1.00  0.00     0.116 C 
BRANCH  73  74
ATOM     74  N   UNL A   1      32.752  22.239  27.681  1.00  0.00    -0.352 N 
ATOM     75  C   UNL A   1      31.792  22.889  26.942  1.00  0.00     0.251 C 
ATOM     76  H   UNL A   1      32.655  22.293  28.659  1.00  0.00     0.163 HD
ATOM     77  O   UNL A   1      30.727  23.238  27.441  1.00  0.00    -0.269 OA
BRANCH  75  78
ATOM     78  C   UNL A   1      32.080  23.230  25.541  1.00  0.00     0.041 A 
ATOM     79  C   UNL A   1      31.881  22.228  24.585  1.00  0.00     0.014 A 
ATOM     80  C   UNL A   1      32.533  24.508  25.179  1.00  0.00     0.039 A 
ATOM     81  C   UNL A   1      32.108  22.508  23.246  1.00  0.00     0.003 A 
ATOM     82  C   UNL A   1      32.732  24.802  23.825  1.00  0.00     0.039 A 
ATOM     83  C   UNL A   1      32.513  23.787  22.872  1.00  0.00     0.026 A 
BRANCH  82  84
ATOM     84  N   UNL A   1      32.971  26.117  23.375  1.00  0.00    -0.355 N 
ATOM     85  H   UNL A   1      33.782  26.278  22.839  1.00  0.00     0.167 HD
BRANCH  84  86
ATOM     86  C   UNL A   1      32.126  27.224  23.643  1.00  0.00     0.050 A 
ATOM     87  C   UNL A   1      30.984  27.393  22.849  1.00  0.00     0.047 A 
ATOM     88  C   UNL A   1      32.422  28.199  24.628  1.00  0.00     0.025 A 
ATOM     89  C   UNL A   1      30.189  28.499  23.043  1.00  0.00     0.114 A 
ATOM     90  C   UNL A   1      31.520  29.287  24.744  1.00  0.00     0.072 A 
ATOM     91  C   UNL A   1      33.572  28.179  25.454  1.00  0.00     0.033 A 
ATOM     92  N   UNL A   1      30.434  29.435  23.976  1.00  0.00    -0.256 NA
ATOM     93  C   UNL A   1      31.769  30.278  25.681  1.00  0.00     0.030 A 
ATOM     94  C   UNL A   1      33.801  29.203  26.376  1.00  0.00     0.041 A 
ATOM     95  C   UNL A   1      32.897  30.249  26.500  1.00  0.00     0.023 A 
ATOM     96  Cl  UNL A   1      35.215  29.186  27.354  1.00  0.00    -0.084 Cl
ENDBRANCH  84  86
ENDBRANCH  82  84
ENDBRANCH  75  78
ENDBRANCH  73  74
ENDBRANCH  72  73
ENDBRANCH   1  72
TORSDOF 16
ENDMDL
MODEL 2
REMARK VINA RESULT:     -12.6      4.992     10.005
REMARK SMILES O=C(NCCCCNC(=O)c1cccc(Nc2ccnc3ccc(Cl)cc23)c1)c1ccc(-c2c3nc(c(-c4cccc(S(=O)(=O)[O-])c4F)c4ccc([nH]4)c(-c4cccc(S(=O)(=O)[O-])c4F)c4nc(c(-c5cccc(S(=O)(=O)[O-])c5F)c5ccc2[nH]5)C=C4)C=C3)cc1
REMARK SMILES IDX 5 1 4 2 3 3 1 4 2 5 29 7 30 8 91 9 31 10 90 11 32 12 33 13
REMARK SMILES IDX 34 14 84 15 35 16 89 17 83 18 85 19 36 20 88 21 82 22 81 23
REMARK SMILES IDX 37 25 69 26 49 27 68 28 50 29 53 30 67 31 86 32 51 33 52 34
REMARK SMILES IDX 66 36 87 37 54 38 38 39 39 40 47 41 40 42 42 43 48 44 41 45
REMARK SMILES IDX 43 46 44 47 45 48 46 49 70 50 71 51 79 52 72 53 74 54 80 55
REMARK SMILES IDX 73 56 75 57 76 58 77 59 78 60 55 61 56 62 64 63 57 64 59 65
REMARK SMILES IDX 65 66 58 67 60 68 61 69 62 70 63 71 6 72 7 73 8 74 9 75
REMARK SMILES IDX 10 77 11 78 12 79 28 80 13 81 15 82 14 83 16 84 17 86 18 87
REMARK SMILES IDX 27 88 19 89 21 90 26 91 20 92 22 93 24 94 23 95 25 96
REMARK H PARENT 3 6 85 24 53 35 8 76 16 85
REMARK Flexibility Score: inf
ROOT
ATOM      1  C   UNL A   1      32.089  28.551  26.391  1.00  0.00     0.023 C 
ENDROOT
BRANCH   1   2
ATOM      2  C   UNL A   1      33.104  29.597  25.940  1.00  0.00     0.116 C 
BRANCH   2   3
ATOM      3  N   UNL A   1      32.815  30.940  26.417  1.00  0.00    -0.352 N 
ATOM      4  O   UNL A   1      33.032  32.803  27.659  1.00  0.00    -0.269 OA
ATOM      5  C   UNL A   1      33.505  31.720  27.320  1.00  0.00     0.251 C 
ATOM      6  H   UNL A   1      32.005  31.354  26.038  1.00  0.00     0.163 HD
BRANCH   5   7
ATOM      7  C   UNL A   1      34.782  31.249  27.912  1.00  0.00     0.039 A 
ATOM      8  C   UNL A   1      34.925  29.946  28.393  1.00  0.00     0.014 A 
ATOM      9  C   UNL A   1      35.869  32.130  27.974  1.00  0.00     0.014 A 
ATOM     10  C   UNL A   1      36.084  29.577  29.073  1.00  0.00     0.010 A 
ATOM     11  C   UNL A   1      37.064  31.729  28.583  1.00  0.00     0.010 A 
ATOM     12  C   UNL A   1      37.170  30.462  29.174  1.00  0.00    -0.014 A 
BRANCH  12  13
ATOM     13  C   UNL A   1      38.421  30.013  29.844  1.00  0.00     0.031 A 
ATOM     14  C   UNL A   1      38.806  30.514  31.212  1.00  0.00     0.074 A 
ATOM     15  C   UNL A   1      39.220  29.133  29.207  1.00  0.00     0.049 A 
ATOM     16  N   UNL A   1      39.839  30.187  31.947  1.00  0.00    -0.248 NA
ATOM     17  C   UNL A   1      37.926  31.516  31.835  1.00  0.00     0.031 C 
ATOM     18  C   UNL A   1      38.986  28.611  27.859  1.00  0.00     0.029 A 
ATOM     19  N   UNL A   1      40.385  28.525  29.600  1.00  0.00    -0.354 N 
ATOM     20  C   UNL A   1      39.755  30.962  33.099  1.00  0.00     0.074 A 
ATOM     21  C   UNL A   1      38.574  31.786  32.962  1.00  0.00     0.031 C 
ATOM     22  C   UNL A   1      39.960  27.745  27.547  1.00  0.00     0.029 A 
ATOM     23  C   UNL A   1      40.914  27.683  28.649  1.00  0.00     0.049 A 
ATOM     24  H   UNL A   1      40.804  28.676  30.478  1.00  0.00     0.167 HD
ATOM     25  C   UNL A   1      40.576  30.973  34.177  1.00  0.00     0.034 A 
ATOM     26  C   UNL A   1      42.043  26.950  28.652  1.00  0.00     0.034 A 
ATOM     27  C   UNL A   1      41.731  30.126  34.327  1.00  0.00     0.049 A 
ATOM     28  C   UNL A   1      42.920  26.964  29.872  1.00  0.00     0.074 A 
ATOM     29  C   UNL A   1      42.581  30.015  35.415  1.00  0.00     0.029 A 
ATOM     30  N   UNL A   1      42.208  29.254  33.361  1.00  0.00    -0.354 N 
ATOM     31  N   UNL A   1      42.743  27.596  31.005  1.00  0.00    -0.248 NA
ATOM     32  C   UNL A   1      44.137  26.142  29.824  1.00  0.00     0.031 C 
ATOM     33  C   UNL A   1      43.583  29.090  35.098  1.00  0.00     0.029 A 
ATOM     34  C   UNL A   1      43.345  28.609  33.821  1.00  0.00     0.049 A 
ATOM     35  H   UNL A   1      41.798  29.111  32.477  1.00  0.00     0.167 HD
ATOM     36  C   UNL A   1      43.813  27.233  31.814  1.00  0.00     0.074 A 
ATOM     37  C   UNL A   1      44.616  26.300  31.050  1.00  0.00     0.031 C 
ATOM     38  C   UNL A   1      44.112  27.649  33.070  1.00  0.00     0.034 A 
BRANCH  25  39
ATOM     39  C   UNL A   1      40.234  31.901  35.315  1.00  0.00     0.023 A 
ATOM     40  C   UNL A   1      40.900  33.138  35.426  1.00  0.00     0.012 A 
ATOM     41  C   UNL A   1      39.203  31.589  36.224  1.00  0.00     0.148 A 
ATOM     42  C   UNL A   1      40.566  34.039  36.438  1.00  0.00     0.002 A 
ATOM     43  C   UNL A   1      38.850  32.508  37.208  1.00  0.00     0.091 A 
ATOM     44  F   UNL A   1      38.593  30.400  36.116  1.00  0.00    -0.205 F 
ATOM     45  C   UNL A   1      39.535  33.728  37.321  1.00  0.00     0.022 A 
BRANCH  43  46
ATOM     46  S   UNL A   1      37.486  32.232  38.345  1.00  0.00     0.127 S 
ATOM     47  O   UNL A   1      38.026  32.776  39.590  1.00  0.00    -0.237 OA
ATOM     48  O   UNL A   1      36.416  33.030  37.745  1.00  0.00    -0.237 OA
ATOM     49  O   UNL A   1      37.245  30.796  38.339  1.00  0.00    -0.744 OA
ENDBRANCH  43  46
ENDBRANCH  25  39
BRANCH  26  50
ATOM     50  C   UNL A   1      42.376  26.106  27.471  1.00  0.00     0.023 A 
ATOM     51  C   UNL A   1      43.158  26.643  26.432  1.00  0.00     0.012 A 
ATOM     52  C   UNL A   1      41.968  24.760  27.399  1.00  0.00     0.148 A 
ATOM     53  C   UNL A   1      43.511  25.861  25.332  1.00  0.00     0.002 A 
ATOM     54  C   UNL A   1      42.372  23.970  26.330  1.00  0.00     0.091 A 
ATOM     55  F   UNL A   1      41.207  24.272  28.389  1.00  0.00    -0.205 F 
ATOM     56  C   UNL A   1      43.131  24.522  25.287  1.00  0.00     0.022 A 
BRANCH  54  57
ATOM     57  S   UNL A   1      42.050  22.203  26.272  1.00  0.00     0.127 S 
ATOM     58  O   UNL A   1      40.601  22.169  26.096  1.00  0.00    -0.237 OA
ATOM     59  O   UNL A   1      42.824  21.792  25.100  1.00  0.00    -0.237 OA
ATOM     60  O   UNL A   1      42.551  21.674  27.532  1.00  0.00    -0.744 OA
ENDBRANCH  54  57
ENDBRANCH  26  50
BRANCH  38  61
ATOM     61  C   UNL A   1      45.356  27.088  33.707  1.00  0.00     0.023 A 
ATOM     62  C   UNL A   1      46.569  27.797  33.609  1.00  0.00     0.012 A 
ATOM     63  C   UNL A   1      45.311  25.893  34.452  1.00  0.00     0.148 A 
ATOM     64  C   UNL A   1      47.727  27.310  34.216  1.00  0.00     0.002 A 
ATOM     65  C   UNL A   1      46.457  25.437  35.092  1.00  0.00     0.091 A 
ATOM     66  F   UNL A   1      44.152  25.221  34.517  1.00  0.00    -0.205 F 
ATOM     67  C   UNL A   1      47.668  26.137  34.966  1.00  0.00     0.022 A 
BRANCH  65  68
ATOM     68  S   UNL A   1      46.454  23.986  36.151  1.00  0.00     0.127 S 
ATOM     69  O   UNL A   1      46.213  22.914  35.188  1.00  0.00    -0.237 OA
ATOM     70  O   UNL A   1      47.804  24.007  36.715  1.00  0.00    -0.237 OA
ATOM     71  O   UNL A   1      45.392  24.205  37.125  1.00  0.00    -0.744 OA
ENDBRANCH  65  68
ENDBRANCH  38  61
ENDBRANCH  12  13
ENDBRANCH   5   7
ENDBRANCH   2   3
ENDBRANCH   1   2
BRANCH   1  72
ATOM     72  C   UNL A   1      32.601  27.118  26.544  1.00  0.00     0.023 C 
BRANCH  72  73
ATOM     73  C   UNL A   1      31.563  26.004  26.423  1.00  0.00     0.116 C 
BRANCH  73  74
ATOM     74  N   UNL A   1      30.326  26.393  25.765  1.00  0.00    -0.352 N 
ATOM     75  C   UNL A   1      30.004  26.275  24.434  1.00  0.00     0.251 C 
ATOM     76  H   UNL A   1      29.635  26.789  26.344  1.00  0.00     0.163 HD
ATOM     77  O   UNL A   1      28.843  26.358  24.046  1.00  0.00    -0.269 OA
BRANCH  75  78
ATOM     78  C   UNL A   1      31.085  26.115  23.449  1.00  0.00     0.041 A 
ATOM     79  C   UNL A   1      31.700  27.280  22.980  1.00  0.00     0.014 A 
ATOM     80  C   UNL A   1      31.482  24.846  23.001  1.00  0.00     0.039 A 
ATOM     81  C   UNL A   1      32.746  27.182  22.075  1.00  0.00     0.003 A 
ATOM     82  C   UNL A   1      32.557  24.742  22.111  1.00  0.00     0.039 A 
ATOM     83  C   UNL A   1      33.177  25.925  21.660  1.00  0.00     0.026 A 
BRANCH  82  84
ATOM     84  N   UNL A   1      33.146  23.501  21.794  1.00  0.00    -0.355 N 
ATOM     85  H   UNL A   1      33.588  23.414  20.918  1.00  0.00     0.167 HD
BRANCH  84  86
ATOM     86  C   UNL A   1      33.146  22.370  22.649  1.00  0.00     0.050 A 
ATOM     87  C   UNL A   1      32.122  21.426  22.498  1.00  0.00     0.047 A 
ATOM     88  C   UNL A   1      34.092  22.188  23.688  1.00  0.00     0.025 A 
ATOM     89  C   UNL A   1      32.059  20.358  23.363  1.00  0.00     0.114 A 
ATOM     90  C   UNL A   1      33.934  21.042  24.507  1.00  0.00     0.072 A 
ATOM     91  C   UNL A   1      35.139  23.095  23.986  1.00  0.00     0.033 A 
ATOM     92  N   UNL A   1      32.947  20.150  24.351  1.00  0.00    -0.256 NA
ATOM     93  C   UNL A   1      34.822  20.823  25.549  1.00  0.00     0.030 A 
ATOM     94  C   UNL A   1      36.005  22.853  25.053  1.00  0.00     0.041 A 
ATOM     95  C   UNL A   1      35.857  21.713  25.831  1.00  0.00     0.023 A 
ATOM     96  Cl  UNL A   1      37.254  23.975  25.426  1.00  0.00    -0.084 Cl
ENDBRANCH  84  86
ENDBRANCH  82  84
ENDBRANCH  75  78
ENDBRANCH  73  74
ENDBRANCH  72  73
ENDBRANCH   1  72
TORSDOF 16
ENDMDL
MODEL 3
REMARK VINA RESULT:     -12.6      5.112     10.313
REMARK SMILES O=C(NCCCCNC(=O)c1cccc(Nc2ccnc3ccc(Cl)cc23)c1)c1ccc(-c2c3nc(c(-c4cccc(S(=O)(=O)[O-])c4F)c4ccc([nH]4)c(-c4cccc(S(=O)(=O)[O-])c4F)c4nc(c(-c5cccc(S(=O)(=O)[O-])c5F)c5ccc2[nH]5)C=C4)C=C3)cc1
REMARK SMILES IDX 5 1 4 2 3 3 1 4 2 5 29 7 30 8 91 9 31 10 90 11 32 12 33 13
REMARK SMILES IDX 34 14 84 15 35 16 89 17 83 18 85 19 36 20 88 21 82 22 81 23
REMARK SMILES IDX 37 25 69 26 49 27 68 28 50 29 53 30 67 31 86 32 51 33 52 34
REMARK SMILES IDX 66 36 87 37 54 38 38 39 39 40 47 41 40 42 42 43 48 44 41 45
REMARK SMILES IDX 43 46 44 47 45 48 46 49 70 50 71 51 79 52 72 53 74 54 80 55
REMARK SMILES IDX 73 56 75 57 76 58 77 59 78 60 55 61 56 62 64 63 57 64 59 65
REMARK SMILES IDX 65 66 58 67 60 68 61 69 62 70 63 71 6 72 7 73 8 74 9 75
REMARK SMILES IDX 10 77 11 78 12 79 28 80 13 81 15 82 14 83 16 84 17 86 18 87
REMARK SMILES IDX 27 88 19 89 21 90 26 91 20 92 22 93 24 94 23 95 25 96
REMARK H PARENT 3 6 85 24 53 35 8 76 16 85
REMARK Flexibility Score: inf
ROOT
ATOM      1  C   UNL A   1      31.762  29.251  24.946  1.00  0.00     0.023 C 
ENDROOT
BRANCH   1   2
ATOM      2  C   UNL A   1      32.764  29.784  25.965  1.00  0.00     0.116 C 
BRANCH   2   3
ATOM      3  N   UNL A   1      32.514  31.158  26.372  1.00  0.00    -0.352 N 
ATOM      4  O   UNL A   1      32.789  33.076  27.513  1.00  0.00    -0.269 OA
ATOM      5  C   UNL A   1      33.230  31.965  27.229  1.00  0.00     0.251 C 
ATOM      6  H   UNL A   1      31.713  31.572  25.976  1.00  0.00     0.163 HD
BRANCH   5   7
ATOM      7  C   UNL A   1      34.499  31.492  27.837  1.00  0.00     0.039 A 
ATOM      8  C   UNL A   1      34.641  30.181  28.297  1.00  0.00     0.014 A 
ATOM      9  C   UNL A   1      35.578  32.379  27.938  1.00  0.00     0.014 A 
ATOM     10  C   UNL A   1      35.790  29.807  28.993  1.00  0.00     0.010 A 
ATOM     11  C   UNL A   1      36.764  31.975  28.564  1.00  0.00     0.010 A 
ATOM     12  C   UNL A   1      36.867  30.697  29.133  1.00  0.00    -0.014 A 
BRANCH  12  13
ATOM     13  C   UNL A   1      38.108  30.245  29.820  1.00  0.00     0.031 A 
ATOM     14  C   UNL A   1      38.444  30.696  31.217  1.00  0.00     0.074 A 
ATOM     15  C   UNL A   1      38.942  29.408  29.170  1.00  0.00     0.049 A 
ATOM     16  N   UNL A   1      39.462  30.357  31.967  1.00  0.00    -0.248 NA
ATOM     17  C   UNL A   1      37.526  31.653  31.855  1.00  0.00     0.031 C 
ATOM     18  C   UNL A   1      38.756  28.939  27.796  1.00  0.00     0.029 A 
ATOM     19  N   UNL A   1      40.107  28.806  29.571  1.00  0.00    -0.354 N 
ATOM     20  C   UNL A   1      39.330  31.082  33.148  1.00  0.00     0.074 A 
ATOM     21  C   UNL A   1      38.137  31.888  33.011  1.00  0.00     0.031 C 
ATOM     22  C   UNL A   1      39.756  28.105  27.476  1.00  0.00     0.029 A 
ATOM     23  C   UNL A   1      40.679  28.015  28.601  1.00  0.00     0.049 A 
ATOM     24  H   UNL A   1      40.498  28.928  30.466  1.00  0.00     0.167 HD
ATOM     25  C   UNL A   1      40.121  31.064  34.249  1.00  0.00     0.034 A 
ATOM     26  C   UNL A   1      41.823  27.305  28.607  1.00  0.00     0.034 A 
ATOM     27  C   UNL A   1      41.288  30.233  34.397  1.00  0.00     0.049 A 
ATOM     28  C   UNL A   1      42.665  27.284  29.851  1.00  0.00     0.074 A 
ATOM     29  C   UNL A   1      42.108  30.093  35.503  1.00  0.00     0.029 A 
ATOM     30  N   UNL A   1      41.809  29.411  33.410  1.00  0.00    -0.354 N 
ATOM     31  N   UNL A   1      42.443  27.865  31.004  1.00  0.00    -0.248 NA
ATOM     32  C   UNL A   1      43.898  26.488  29.804  1.00  0.00     0.031 C 
ATOM     33  C   UNL A   1      43.137  29.201  35.178  1.00  0.00     0.029 A 
ATOM     34  C   UNL A   1      42.945  28.770  33.875  1.00  0.00     0.049 A 
ATOM     35  H   UNL A   1      41.426  29.298  32.509  1.00  0.00     0.167 HD
ATOM     36  C   UNL A   1      43.497  27.487  31.828  1.00  0.00     0.074 A 
ATOM     37  C   UNL A   1      44.340  26.603  31.049  1.00  0.00     0.031 C 
ATOM     38  C   UNL A   1      43.752  27.857  33.108  1.00  0.00     0.034 A 
BRANCH  25  39
ATOM     39  C   UNL A   1      39.728  31.937  35.414  1.00  0.00     0.023 A 
ATOM     40  C   UNL A   1      40.183  33.269  35.467  1.00  0.00     0.012 A 
ATOM     41  C   UNL A   1      38.848  31.468  36.411  1.00  0.00     0.148 A 
ATOM     42  C   UNL A   1      39.792  34.114  36.505  1.00  0.00     0.002 A 
ATOM     43  C   UNL A   1      38.433  32.328  37.423  1.00  0.00     0.091 A 
ATOM     44  F   UNL A   1      38.440  30.192  36.356  1.00  0.00    -0.205 F 
ATOM     45  C   UNL A   1      38.910  33.647  37.476  1.00  0.00     0.022 A 
BRANCH  43  46
ATOM     46  S   UNL A   1      37.240  31.842  38.676  1.00  0.00     0.127 S 
ATOM     47  O   UNL A   1      38.006  32.044  39.905  1.00  0.00    -0.237 OA
ATOM     48  O   UNL A   1      36.160  32.807  38.467  1.00  0.00    -0.237 OA
ATOM     49  O   UNL A   1      36.885  30.462  38.377  1.00  0.00    -0.744 OA
ENDBRANCH  43  46
ENDBRANCH  25  39
BRANCH  26  50
ATOM     50  C   UNL A   1      42.205  26.517  27.402  1.00  0.00     0.023 A 
ATOM     51  C   UNL A   1      42.901  27.147  26.353  1.00  0.00     0.012 A 
ATOM     52  C   UNL A   1      41.932  25.138  27.316  1.00  0.00     0.148 A 
ATOM     53  C   UNL A   1      43.299  26.422  25.230  1.00  0.00     0.002 A 
ATOM     54  C   UNL A   1      42.384  24.409  26.222  1.00  0.00     0.091 A 
ATOM     55  F   UNL A   1      41.252  24.560  28.316  1.00  0.00    -0.205 F 
ATOM     56  C   UNL A   1      43.054  25.052  25.170  1.00  0.00     0.022 A 
BRANCH  54  57
ATOM     57  S   UNL A   1      42.239  22.621  26.139  1.00  0.00     0.127 S 
ATOM     58  O   UNL A   1      42.981  22.205  27.326  1.00  0.00    -0.237 OA
ATOM     59  O   UNL A   1      40.790  22.429  26.218  1.00  0.00    -0.237 OA
ATOM     60  O   UNL A   1      42.821  22.242  24.859  1.00  0.00    -0.744 OA
ENDBRANCH  54  57
ENDBRANCH  26  50
BRANCH  38  61
ATOM     61  C   UNL A   1      44.989  27.293  33.757  1.00  0.00     0.023 A 
ATOM     62  C   UNL A   1      46.196  28.017  33.701  1.00  0.00     0.012 A 
ATOM     63  C   UNL A   1      44.941  26.080  34.472  1.00  0.00     0.148 A 
ATOM     64  C   UNL A   1      47.346  27.527  34.320  1.00  0.00     0.002 A 
ATOM     65  C   UNL A   1      46.080  25.620  35.124  1.00  0.00     0.091 A 
ATOM     66  F   UNL A   1      43.789  25.395  34.495  1.00  0.00    -0.205 F 
ATOM     67  C   UNL A   1      47.285  26.336  35.040  1.00  0.00     0.022 A 
BRANCH  65  68
ATOM     68  S   UNL A   1      46.071  24.143  36.147  1.00  0.00     0.127 S 
ATOM     69  O   UNL A   1      45.681  23.115  35.184  1.00  0.00    -0.237 OA
ATOM     70  O   UNL A   1      47.462  24.065  36.594  1.00  0.00    -0.237 OA
ATOM     71  O   UNL A   1      45.110  24.402  37.212  1.00  0.00    -0.744 OA
ENDBRANCH  65  68
ENDBRANCH  38  61
ENDBRANCH  12  13
ENDBRANCH   5   7
ENDBRANCH   2   3
ENDBRANCH   1   2
BRANCH   1  72
ATOM     72  C   UNL A   1      32.290  28.992  23.534  1.00  0.00     0.023 C 
BRANCH  72  73
ATOM     73  C   UNL A   1      33.679  28.365  23.427  1.00  0.00     0.116 C 
BRANCH  73  74
ATOM     74  N   UNL A   1      33.874  27.510  22.267  1.00  0.00    -0.352 N 
ATOM     75  C   UNL A   1      33.293  26.292  22.008  1.00  0.00     0.251 C 
ATOM     76  H   UNL A   1      34.498  27.846  21.584  1.00  0.00     0.163 HD
ATOM     77  O   UNL A   1      33.298  25.807  20.881  1.00  0.00    -0.269 OA
BRANCH  75  78
ATOM     78  C   UNL A   1      32.712  25.527  23.122  1.00  0.00     0.041 A 
ATOM     79  C   UNL A   1      31.341  25.258  23.066  1.00  0.00     0.014 A 
ATOM     80  C   UNL A   1      33.503  25.084  24.193  1.00  0.00     0.039 A 
ATOM     81  C   UNL A   1      30.750  24.512  24.075  1.00  0.00     0.003 A 
ATOM     82  C   UNL A   1      32.916  24.305  25.197  1.00  0.00     0.039 A 
ATOM     83  C   UNL A   1      31.536  24.029  25.119  1.00  0.00     0.026 A 
BRANCH  82  84
ATOM     84  N   UNL A   1      33.687  23.647  26.178  1.00  0.00    -0.355 N 
ATOM     85  H   UNL A   1      33.370  23.683  27.110  1.00  0.00     0.167 HD
BRANCH  84  86
ATOM     86  C   UNL A   1      34.887  22.940  25.915  1.00  0.00     0.050 A 
ATOM     87  C   UNL A   1      36.098  23.639  25.992  1.00  0.00     0.047 A 
ATOM     88  C   UNL A   1      34.909  21.581  25.514  1.00  0.00     0.025 A 
ATOM     89  C   UNL A   1      37.270  22.992  25.671  1.00  0.00     0.114 A 
ATOM     90  C   UNL A   1      36.177  21.018  25.223  1.00  0.00     0.072 A 
ATOM     91  C   UNL A   1      33.755  20.779  25.340  1.00  0.00     0.033 A 
ATOM     92  N   UNL A   1      37.326  21.702  25.299  1.00  0.00    -0.256 NA
ATOM     93  C   UNL A   1      36.256  19.697  24.811  1.00  0.00     0.030 A 
ATOM     94  C   UNL A   1      33.869  19.456  24.907  1.00  0.00     0.041 A 
ATOM     95  C   UNL A   1      35.118  18.908  24.650  1.00  0.00     0.023 A 
ATOM     96  Cl  UNL A   1      32.460  18.499  24.669  1.00  0.00    -0.084 Cl
ENDBRANCH  84  86
ENDBRANCH  82  84
ENDBRANCH  75  78
ENDBRANCH  73  74
ENDBRANCH  72  73
ENDBRANCH   1  72
TORSDOF 16
ENDMDL
