MODEL 1
REMARK VINA RESULT:     -12.8      0.000      0.000
REMARK SMILES O=C(NCCCCNC(=O)[C@H]1CCCN(C(=O)C2CCN(S(=O)(=O)c3ccccc3)CC2)C1)c1ccc(-c2c3nc(c(-c4cccc(S(=O)(=O)[O-])c4F)c4ccc([nH]4)c(-c4cccc(S(=O)(=O)[O-])c4F)c4nc(c(-c5cccc(S(=O)(=O)[O-])c5F)c5ccc2[nH]5)C=C4)C=C3)cc1
REMARK SMILES IDX 6 1 5 2 4 3 3 4 1 5 2 6 34 8 35 9 96 10 36 11 95 12 37 13
REMARK SMILES IDX 38 14 39 15 89 16 40 17 94 18 88 19 90 20 41 21 93 22 87 23
REMARK SMILES IDX 86 24 42 26 74 27 54 28 73 29 55 30 58 31 72 32 91 33 56 34
REMARK SMILES IDX 57 35 71 37 92 38 59 39 43 40 44 41 52 42 45 43 47 44 53 45
REMARK SMILES IDX 46 46 48 47 49 48 50 49 51 50 75 51 76 52 84 53 77 54 79 55
REMARK SMILES IDX 85 56 78 57 80 58 81 59 82 60 83 61 60 62 61 63 69 64 62 65
REMARK SMILES IDX 64 66 70 67 63 68 65 69 66 70 67 71 68 72 7 73 8 74 9 75
REMARK SMILES IDX 10 77 11 78 12 79 33 80 13 81 15 82 14 83 16 84 17 85 18 86
REMARK SMILES IDX 19 87 32 88 20 89 31 90 21 91 22 92 23 93 24 94 25 95 26 96
REMARK SMILES IDX 30 97 27 98 29 99 28 100
REMARK H PARENT 3 7 90 25 58 36 8 76
REMARK Flexibility Score: inf
ROOT
ATOM      1  C   UNL A   1      37.389  21.080  24.754  1.00  0.00     0.023 C 
ENDROOT
BRANCH   1   2
ATOM      2  C   UNL A   1      38.349  19.911  24.971  1.00  0.00     0.023 C 
BRANCH   2   3
ATOM      3  C   UNL A   1      39.335  20.104  26.109  1.00  0.00     0.116 C 
BRANCH   3   4
ATOM      4  N   UNL A   1      40.406  19.121  26.112  1.00  0.00    -0.352 N 
ATOM      5  O   UNL A   1      42.563  18.443  26.072  1.00  0.00    -0.269 OA
ATOM      6  C   UNL A   1      41.758  19.360  26.186  1.00  0.00     0.251 C 
ATOM      7  H   UNL A   1      40.132  18.177  26.055  1.00  0.00     0.163 HD
BRANCH   6   8
ATOM      8  C   UNL A   1      42.210  20.755  26.362  1.00  0.00     0.039 A 
ATOM      9  C   UNL A   1      42.481  21.240  27.643  1.00  0.00     0.014 A 
ATOM     10  C   UNL A   1      42.277  21.599  25.252  1.00  0.00     0.014 A 
ATOM     11  C   UNL A   1      42.673  22.601  27.830  1.00  0.00     0.010 A 
ATOM     12  C   UNL A   1      42.563  22.955  25.435  1.00  0.00     0.010 A 
ATOM     13  C   UNL A   1      42.731  23.472  26.728  1.00  0.00    -0.014 A 
BRANCH  13  14
ATOM     14  C   UNL A   1      43.057  24.900  26.969  1.00  0.00     0.031 A 
ATOM     15  C   UNL A   1      42.101  25.828  27.663  1.00  0.00     0.074 A 
ATOM     16  C   UNL A   1      44.270  25.340  26.578  1.00  0.00     0.049 A 
ATOM     17  N   UNL A   1      42.284  27.075  28.015  1.00  0.00    -0.248 NA
ATOM     18  C   UNL A   1      40.768  25.302  27.998  1.00  0.00     0.031 C 
ATOM     19  C   UNL A   1      45.252  24.540  25.840  1.00  0.00     0.029 A 
ATOM     20  N   UNL A   1      44.893  26.546  26.758  1.00  0.00    -0.354 N 
ATOM     21  C   UNL A   1      41.087  27.495  28.580  1.00  0.00     0.074 A 
ATOM     22  C   UNL A   1      40.176  26.370  28.518  1.00  0.00     0.031 C 
ATOM     23  C   UNL A   1      46.370  25.258  25.673  1.00  0.00     0.029 A 
ATOM     24  C   UNL A   1      46.169  26.583  26.247  1.00  0.00     0.049 A 
ATOM     25  H   UNL A   1      44.469  27.312  27.208  1.00  0.00     0.167 HD
ATOM     26  C   UNL A   1      40.783  28.701  29.120  1.00  0.00     0.034 A 
ATOM     27  C   UNL A   1      47.081  27.573  26.240  1.00  0.00     0.034 A 
ATOM     28  C   UNL A   1      41.709  29.802  29.210  1.00  0.00     0.049 A 
ATOM     29  C   UNL A   1      46.741  28.871  26.911  1.00  0.00     0.074 A 
ATOM     30  C   UNL A   1      41.506  31.053  29.768  1.00  0.00     0.029 A 
ATOM     31  N   UNL A   1      43.013  29.781  28.740  1.00  0.00    -0.354 N 
ATOM     32  N   UNL A   1      45.641  29.206  27.540  1.00  0.00    -0.248 NA
ATOM     33  C   UNL A   1      47.773  29.915  26.896  1.00  0.00     0.031 C 
ATOM     34  C   UNL A   1      42.689  31.789  29.633  1.00  0.00     0.029 A 
ATOM     35  C   UNL A   1      43.630  30.995  28.997  1.00  0.00     0.049 A 
ATOM     36  H   UNL A   1      43.439  29.017  28.289  1.00  0.00     0.167 HD
ATOM     37  C   UNL A   1      45.847  30.500  27.998  1.00  0.00     0.074 A 
ATOM     38  C   UNL A   1      47.197  30.867  27.616  1.00  0.00     0.031 C 
ATOM     39  C   UNL A   1      44.986  31.325  28.643  1.00  0.00     0.034 A 
BRANCH  26  40
ATOM     40  C   UNL A   1      39.410  28.884  29.712  1.00  0.00     0.023 A 
ATOM     41  C   UNL A   1      39.170  28.454  31.033  1.00  0.00     0.012 A 
ATOM     42  C   UNL A   1      38.389  29.551  29.007  1.00  0.00     0.148 A 
ATOM     43  C   UNL A   1      37.931  28.669  31.637  1.00  0.00     0.002 A 
ATOM     44  C   UNL A   1      37.166  29.791  29.627  1.00  0.00     0.091 A 
ATOM     45  F   UNL A   1      38.629  29.933  27.744  1.00  0.00    -0.205 F 
ATOM     46  C   UNL A   1      36.935  29.345  30.938  1.00  0.00     0.022 A 
BRANCH  44  47
ATOM     47  S   UNL A   1      35.843  30.714  28.837  1.00  0.00     0.127 S 
ATOM     48  O   UNL A   1      35.119  29.652  28.139  1.00  0.00    -0.237 OA
ATOM     49  O   UNL A   1      35.133  31.283  29.984  1.00  0.00    -0.237 OA
ATOM     50  O   UNL A   1      36.496  31.695  27.981  1.00  0.00    -0.744 OA
ENDBRANCH  44  47
ENDBRANCH  26  40
BRANCH  27  51
ATOM     51  C   UNL A   1      48.416  27.332  25.626  1.00  0.00     0.023 A 
ATOM     52  C   UNL A   1      49.460  26.810  26.413  1.00  0.00     0.012 A 
ATOM     53  C   UNL A   1      48.632  27.542  24.251  1.00  0.00     0.148 A 
ATOM     54  C   UNL A   1      50.700  26.517  25.842  1.00  0.00     0.002 A 
ATOM     55  C   UNL A   1      49.848  27.186  23.678  1.00  0.00     0.091 A 
ATOM     56  F   UNL A   1      47.637  28.061  23.518  1.00  0.00    -0.205 F 
ATOM     57  C   UNL A   1      50.888  26.689  24.474  1.00  0.00     0.022 A 
BRANCH  55  58
ATOM     58  S   UNL A   1      50.079  27.224  21.896  1.00  0.00     0.127 S 
ATOM     59  O   UNL A   1      49.908  28.642  21.598  1.00  0.00    -0.237 OA
ATOM     60  O   UNL A   1      51.445  26.721  21.744  1.00  0.00    -0.237 OA
ATOM     61  O   UNL A   1      49.058  26.324  21.372  1.00  0.00    -0.744 OA
ENDBRANCH  55  58
ENDBRANCH  27  51
BRANCH  39  62
ATOM     62  C   UNL A   1      45.481  32.709  28.960  1.00  0.00     0.023 A 
ATOM     63  C   UNL A   1      46.098  32.949  30.206  1.00  0.00     0.012 A 
ATOM     64  C   UNL A   1      45.374  33.756  28.027  1.00  0.00     0.148 A 
ATOM     65  C   UNL A   1      46.569  34.220  30.530  1.00  0.00     0.002 A 
ATOM     66  C   UNL A   1      45.882  35.012  28.343  1.00  0.00     0.091 A 
ATOM     67  F   UNL A   1      44.762  33.517  26.858  1.00  0.00    -0.205 F 
ATOM     68  C   UNL A   1      46.470  35.248  29.596  1.00  0.00     0.022 A 
BRANCH  66  69
ATOM     69  S   UNL A   1      45.859  36.365  27.162  1.00  0.00     0.127 S 
ATOM     70  O   UNL A   1      46.704  37.356  27.824  1.00  0.00    -0.237 OA
ATOM     71  O   UNL A   1      46.453  35.758  25.970  1.00  0.00    -0.237 OA
ATOM     72  O   UNL A   1      44.455  36.726  27.012  1.00  0.00    -0.744 OA
ENDBRANCH  66  69
ENDBRANCH  39  62
ENDBRANCH  13  14
ENDBRANCH   6   8
ENDBRANCH   3   4
ENDBRANCH   2   3
ENDBRANCH   1   2
BRANCH   1  73
ATOM     73  C   UNL A   1      36.108  21.023  25.588  1.00  0.00     0.116 C 
BRANCH  73  74
ATOM     74  N   UNL A   1      35.200  20.000  25.105  1.00  0.00    -0.356 N 
ATOM     75  C   UNL A   1      33.924  20.115  24.652  1.00  0.00     0.224 C 
ATOM     76  H   UNL A   1      35.563  19.085  25.104  1.00  0.00     0.163 HD
ATOM     77  O   UNL A   1      33.323  19.085  24.349  1.00  0.00    -0.275 OA
BRANCH  75  78
ATOM     78  C   UNL A   1      33.300  21.492  24.515  1.00  0.00     0.098 C 
ATOM     79  C   UNL A   1      32.476  21.563  23.217  1.00  0.00     0.017 C 
ATOM     80  C   UNL A   1      32.415  21.820  25.724  1.00  0.00     0.133 C 
ATOM     81  C   UNL A   1      31.737  22.890  23.120  1.00  0.00     0.022 C 
ATOM     82  N   UNL A   1      31.749  23.119  25.549  1.00  0.00    -0.342 N 
ATOM     83  C   UNL A   1      30.902  23.128  24.378  1.00  0.00     0.119 C 
BRANCH  82  84
ATOM     84  C   UNL A   1      32.062  24.170  26.388  1.00  0.00     0.225 C 
ATOM     85  O   UNL A   1      31.305  24.429  27.337  1.00  0.00    -0.275 OA
BRANCH  84  86
ATOM     86  C   UNL A   1      33.330  25.058  26.267  1.00  0.00     0.081 C 
ATOM     87  C   UNL A   1      33.205  26.572  26.284  1.00  0.00     0.030 C 
ATOM     88  C   UNL A   1      34.387  24.615  25.274  1.00  0.00     0.030 C 
ATOM     89  C   UNL A   1      33.254  27.302  24.949  1.00  0.00     0.103 C 
ATOM     90  C   UNL A   1      34.202  25.178  23.885  1.00  0.00     0.103 C 
ATOM     91  N   UNL A   1      33.997  26.644  23.812  1.00  0.00    -0.198 NA
BRANCH  91  92
ATOM     92  S   UNL A   1      33.355  27.259  22.301  1.00  0.00     0.243 S 
ATOM     93  O   UNL A   1      33.979  28.551  22.054  1.00  0.00    -0.207 OA
ATOM     94  O   UNL A   1      33.507  26.197  21.338  1.00  0.00    -0.207 OA
BRANCH  92  95
ATOM     95  C   UNL A   1      31.620  27.609  22.487  1.00  0.00     0.082 A 
ATOM     96  C   UNL A   1      31.187  28.934  22.378  1.00  0.00     0.022 A 
ATOM     97  C   UNL A   1      30.750  26.638  22.998  1.00  0.00     0.022 A 
ATOM     98  C   UNL A   1      29.880  29.270  22.742  1.00  0.00     0.001 A 
ATOM     99  C   UNL A   1      29.432  26.967  23.317  1.00  0.00     0.001 A 
ATOM    100  C   UNL A   1      29.001  28.285  23.195  1.00  0.00     0.000 A 
ENDBRANCH  92  95
ENDBRANCH  91  92
ENDBRANCH  84  86
ENDBRANCH  82  84
ENDBRANCH  75  78
ENDBRANCH  73  74
ENDBRANCH   1  73
TORSDOF 18
ENDMDL
MODEL 2
REMARK VINA RESULT:     -12.3      6.012     11.489
REMARK SMILES O=C(NCCCCNC(=O)[C@H]1CCCN(C(=O)C2CCN(S(=O)(=O)c3ccccc3)CC2)C1)c1ccc(-c2c3nc(c(-c4cccc(S(=O)(=O)[O-])c4F)c4ccc([nH]4)c(-c4cccc(S(=O)(=O)[O-])c4F)c4nc(c(-c5cccc(S(=O)(=O)[O-])c5F)c5ccc2[nH]5)C=C4)C=C3)cc1
REMARK SMILES IDX 6 1 5 2 4 3 3 4 1 5 2 6 34 8 35 9 96 10 36 11 95 12 37 13
REMARK SMILES IDX 38 14 39 15 89 16 40 17 94 18 88 19 90 20 41 21 93 22 87 23
REMARK SMILES IDX 86 24 42 26 74 27 54 28 73 29 55 30 58 31 72 32 91 33 56 34
REMARK SMILES IDX 57 35 71 37 92 38 59 39 43 40 44 41 52 42 45 43 47 44 53 45
REMARK SMILES IDX 46 46 48 47 49 48 50 49 51 50 75 51 76 52 84 53 77 54 79 55
REMARK SMILES IDX 85 56 78 57 80 58 81 59 82 60 83 61 60 62 61 63 69 64 62 65
REMARK SMILES IDX 64 66 70 67 63 68 65 69 66 70 67 71 68 72 7 73 8 74 9 75
REMARK SMILES IDX 10 77 11 78 12 79 33 80 13 81 15 82 14 83 16 84 17 85 18 86
REMARK SMILES IDX 19 87 32 88 20 89 31 90 21 91 22 92 23 93 24 94 25 95 26 96
REMARK SMILES IDX 30 97 27 98 29 99 28 100
REMARK H PARENT 3 7 90 25 58 36 8 76
REMARK Flexibility Score: inf
ROOT
ATOM      1  C   UNL A   1      31.372  30.901  25.697  1.00  0.00     0.023 C 
ENDROOT
BRANCH   1   2
ATOM      2  C   UNL A   1      31.420  31.865  26.881  1.00  0.00     0.023 C 
BRANCH   2   3
ATOM      3  C   UNL A   1      32.720  32.637  27.017  1.00  0.00     0.116 C 
BRANCH   3   4
ATOM      4  N   UNL A   1      32.542  33.964  27.583  1.00  0.00    -0.352 N 
ATOM      5  O   UNL A   1      32.925  35.623  29.070  1.00  0.00    -0.269 OA
ATOM      6  C   UNL A   1      33.247  34.531  28.619  1.00  0.00     0.251 C 
ATOM      7  H   UNL A   1      31.836  34.520  27.179  1.00  0.00     0.163 HD
BRANCH   6   8
ATOM      8  C   UNL A   1      34.372  33.767  29.195  1.00  0.00     0.039 A 
ATOM      9  C   UNL A   1      34.115  32.711  30.072  1.00  0.00     0.014 A 
ATOM     10  C   UNL A   1      35.682  34.167  28.925  1.00  0.00     0.014 A 
ATOM     11  C   UNL A   1      35.162  32.152  30.791  1.00  0.00     0.010 A 
ATOM     12  C   UNL A   1      36.743  33.538  29.584  1.00  0.00     0.010 A 
ATOM     13  C   UNL A   1      36.488  32.549  30.545  1.00  0.00    -0.014 A 
BRANCH  13  14
ATOM     14  C   UNL A   1      37.583  31.839  31.253  1.00  0.00     0.031 A 
ATOM     15  C   UNL A   1      38.364  30.732  30.603  1.00  0.00     0.074 A 
ATOM     16  C   UNL A   1      37.889  32.247  32.501  1.00  0.00     0.049 A 
ATOM     17  N   UNL A   1      39.398  30.080  31.070  1.00  0.00    -0.248 NA
ATOM     18  C   UNL A   1      37.931  30.290  29.268  1.00  0.00     0.031 C 
ATOM     19  C   UNL A   1      37.154  33.270  33.250  1.00  0.00     0.029 A 
ATOM     20  N   UNL A   1      38.897  31.874  33.350  1.00  0.00    -0.354 N 
ATOM     21  C   UNL A   1      39.721  29.131  30.108  1.00  0.00     0.074 A 
ATOM     22  C   UNL A   1      38.766  29.285  29.030  1.00  0.00     0.031 C 
ATOM     23  C   UNL A   1      37.763  33.479  34.425  1.00  0.00     0.029 A 
ATOM     24  C   UNL A   1      38.900  32.573  34.534  1.00  0.00     0.049 A 
ATOM     25  H   UNL A   1      39.555  31.174  33.134  1.00  0.00     0.167 HD
ATOM     26  C   UNL A   1      40.734  28.230  30.115  1.00  0.00     0.034 A 
ATOM     27  C   UNL A   1      39.726  32.495  35.594  1.00  0.00     0.034 A 
ATOM     28  C   UNL A   1      41.702  28.111  31.176  1.00  0.00     0.049 A 
ATOM     29  C   UNL A   1      40.881  31.540  35.540  1.00  0.00     0.074 A 
ATOM     30  C   UNL A   1      42.783  27.250  31.262  1.00  0.00     0.029 A 
ATOM     31  N   UNL A   1      41.712  28.879  32.330  1.00  0.00    -0.354 N 
ATOM     32  N   UNL A   1      41.233  30.732  34.570  1.00  0.00    -0.248 NA
ATOM     33  C   UNL A   1      41.767  31.504  36.710  1.00  0.00     0.031 C 
ATOM     34  C   UNL A   1      43.446  27.498  32.469  1.00  0.00     0.029 A 
ATOM     35  C   UNL A   1      42.781  28.517  33.133  1.00  0.00     0.049 A 
ATOM     36  H   UNL A   1      41.054  29.578  32.549  1.00  0.00     0.167 HD
ATOM     37  C   UNL A   1      42.381  30.090  35.010  1.00  0.00     0.074 A 
ATOM     38  C   UNL A   1      42.693  30.642  36.314  1.00  0.00     0.031 C 
ATOM     39  C   UNL A   1      43.095  29.106  34.409  1.00  0.00     0.034 A 
BRANCH  26  40
ATOM     40  C   UNL A   1      40.890  27.335  28.914  1.00  0.00     0.023 A 
ATOM     41  C   UNL A   1      40.038  26.220  28.773  1.00  0.00     0.012 A 
ATOM     42  C   UNL A   1      41.808  27.635  27.888  1.00  0.00     0.148 A 
ATOM     43  C   UNL A   1      40.108  25.409  27.641  1.00  0.00     0.002 A 
ATOM     44  C   UNL A   1      41.850  26.841  26.747  1.00  0.00     0.091 A 
ATOM     45  F   UNL A   1      42.625  28.686  28.049  1.00  0.00    -0.205 F 
ATOM     46  C   UNL A   1      41.005  25.725  26.625  1.00  0.00     0.022 A 
BRANCH  44  47
ATOM     47  S   UNL A   1      42.923  27.203  25.351  1.00  0.00     0.127 S 
ATOM     48  O   UNL A   1      44.177  27.537  26.024  1.00  0.00    -0.237 OA
ATOM     49  O   UNL A   1      42.937  25.929  24.631  1.00  0.00    -0.237 OA
ATOM     50  O   UNL A   1      42.286  28.298  24.632  1.00  0.00    -0.744 OA
ENDBRANCH  44  47
ENDBRANCH  26  40
BRANCH  27  51
ATOM     51  C   UNL A   1      39.509  33.400  36.757  1.00  0.00     0.023 A 
ATOM     52  C   UNL A   1      39.891  34.752  36.668  1.00  0.00     0.012 A 
ATOM     53  C   UNL A   1      38.854  32.947  37.917  1.00  0.00     0.148 A 
ATOM     54  C   UNL A   1      39.639  35.631  37.723  1.00  0.00     0.002 A 
ATOM     55  C   UNL A   1      38.546  33.843  38.935  1.00  0.00     0.091 A 
ATOM     56  F   UNL A   1      38.514  31.652  37.998  1.00  0.00    -0.205 F 
ATOM     57  C   UNL A   1      38.952  35.182  38.847  1.00  0.00     0.022 A 
BRANCH  55  58
ATOM     58  S   UNL A   1      37.512  33.354  40.321  1.00  0.00     0.127 S 
ATOM     59  O   UNL A   1      36.251  33.033  39.660  1.00  0.00    -0.237 OA
ATOM     60  O   UNL A   1      38.235  32.202  40.863  1.00  0.00    -0.237 OA
ATOM     61  O   UNL A   1      37.503  34.514  41.204  1.00  0.00    -0.744 OA
ENDBRANCH  55  58
ENDBRANCH  27  51
BRANCH  39  62
ATOM     62  C   UNL A   1      44.272  28.559  35.168  1.00  0.00     0.023 A 
ATOM     63  C   UNL A   1      45.560  29.069  34.899  1.00  0.00     0.012 A 
ATOM     64  C   UNL A   1      44.109  27.580  36.165  1.00  0.00     0.148 A 
ATOM     65  C   UNL A   1      46.671  28.585  35.585  1.00  0.00     0.002 A 
ATOM     66  C   UNL A   1      45.218  27.130  36.874  1.00  0.00     0.091 A 
ATOM     67  F   UNL A   1      42.882  27.089  36.390  1.00  0.00    -0.205 F 
ATOM     68  C   UNL A   1      46.499  27.624  36.579  1.00  0.00     0.022 A 
BRANCH  66  69
ATOM     69  S   UNL A   1      45.065  25.950  38.218  1.00  0.00     0.127 S 
ATOM     70  O   UNL A   1      44.174  26.654  39.137  1.00  0.00    -0.237 OA
ATOM     71  O   UNL A   1      44.464  24.790  37.557  1.00  0.00    -0.237 OA
ATOM     72  O   UNL A   1      46.423  25.727  38.696  1.00  0.00    -0.744 OA
ENDBRANCH  66  69
ENDBRANCH  39  62
ENDBRANCH  13  14
ENDBRANCH   6   8
ENDBRANCH   3   4
ENDBRANCH   2   3
ENDBRANCH   1   2
BRANCH   1  73
ATOM     73  C   UNL A   1      32.375  29.748  25.766  1.00  0.00     0.116 C 
BRANCH  73  74
ATOM     74  N   UNL A   1      33.254  29.733  24.612  1.00  0.00    -0.356 N 
ATOM     75  C   UNL A   1      33.576  28.708  23.779  1.00  0.00     0.224 C 
ATOM     76  H   UNL A   1      33.680  30.594  24.400  1.00  0.00     0.163 HD
ATOM     77  O   UNL A   1      34.403  28.922  22.893  1.00  0.00    -0.275 OA
BRANCH  75  78
ATOM     78  C   UNL A   1      32.899  27.361  23.954  1.00  0.00     0.098 C 
ATOM     79  C   UNL A   1      33.220  26.458  22.749  1.00  0.00     0.017 C 
ATOM     80  C   UNL A   1      33.343  26.684  25.257  1.00  0.00     0.133 C 
ATOM     81  C   UNL A   1      32.659  25.059  22.960  1.00  0.00     0.022 C 
ATOM     82  N   UNL A   1      32.748  25.346  25.380  1.00  0.00    -0.342 N 
ATOM     83  C   UNL A   1      33.145  24.485  24.290  1.00  0.00     0.119 C 
BRANCH  82  84
ATOM     84  C   UNL A   1      31.838  25.089  26.388  1.00  0.00     0.225 C 
ATOM     85  O   UNL A   1      31.071  25.995  26.751  1.00  0.00    -0.275 OA
BRANCH  84  86
ATOM     86  C   UNL A   1      31.662  23.720  27.100  1.00  0.00     0.081 C 
ATOM     87  C   UNL A   1      32.876  22.973  27.625  1.00  0.00     0.030 C 
ATOM     88  C   UNL A   1      30.654  22.759  26.501  1.00  0.00     0.030 C 
ATOM     89  C   UNL A   1      33.422  21.829  26.784  1.00  0.00     0.103 C 
ATOM     90  C   UNL A   1      31.233  21.827  25.462  1.00  0.00     0.103 C 
ATOM     91  N   UNL A   1      32.465  21.110  25.863  1.00  0.00    -0.198 NA
BRANCH  91  92
ATOM     92  S   UNL A   1      33.390  20.379  24.565  1.00  0.00     0.243 S 
ATOM     93  O   UNL A   1      32.594  20.480  23.350  1.00  0.00    -0.207 OA
ATOM     94  O   UNL A   1      34.697  20.982  24.615  1.00  0.00    -0.207 OA
BRANCH  92  95
ATOM     95  C   UNL A   1      33.561  18.633  24.864  1.00  0.00     0.082 A 
ATOM     96  C   UNL A   1      34.609  17.946  24.244  1.00  0.00     0.022 A 
ATOM     97  C   UNL A   1      32.527  17.912  25.474  1.00  0.00     0.022 A 
ATOM     98  C   UNL A   1      34.636  16.549  24.273  1.00  0.00     0.001 A 
ATOM     99  C   UNL A   1      32.581  16.519  25.542  1.00  0.00     0.001 A 
ATOM    100  C   UNL A   1      33.633  15.839  24.934  1.00  0.00     0.000 A 
ENDBRANCH  92  95
ENDBRANCH  91  92
ENDBRANCH  84  86
ENDBRANCH  82  84
ENDBRANCH  75  78
ENDBRANCH  73  74
ENDBRANCH   1  73
TORSDOF 18
ENDMDL
MODEL 3
REMARK VINA RESULT:     -12.1      5.707      9.827
REMARK SMILES O=C(NCCCCNC(=O)[C@H]1CCCN(C(=O)C2CCN(S(=O)(=O)c3ccccc3)CC2)C1)c1ccc(-c2c3nc(c(-c4cccc(S(=O)(=O)[O-])c4F)c4ccc([nH]4)c(-c4cccc(S(=O)(=O)[O-])c4F)c4nc(c(-c5cccc(S(=O)(=O)[O-])c5F)c5ccc2[nH]5)C=C4)C=C3)cc1
REMARK SMILES IDX 6 1 5 2 4 3 3 4 1 5 2 6 34 8 35 9 96 10 36 11 95 12 37 13
REMARK SMILES IDX 38 14 39 15 89 16 40 17 94 18 88 19 90 20 41 21 93 22 87 23
REMARK SMILES IDX 86 24 42 26 74 27 54 28 73 29 55 30 58 31 72 32 91 33 56 34
REMARK SMILES IDX 57 35 71 37 92 38 59 39 43 40 44 41 52 42 45 43 47 44 53 45
REMARK SMILES IDX 46 46 48 47 49 48 50 49 51 50 75 51 76 52 84 53 77 54 79 55
REMARK SMILES IDX 85 56 78 57 80 58 81 59 82 60 83 61 60 62 61 63 69 64 62 65
REMARK SMILES IDX 64 66 70 67 63 68 65 69 66 70 67 71 68 72 7 73 8 74 9 75
REMARK SMILES IDX 10 77 11 78 12 79 33 80 13 81 15 82 14 83 16 84 17 85 18 86
REMARK SMILES IDX 19 87 32 88 20 89 31 90 21 91 22 92 23 93 24 94 25 95 26 96
REMARK SMILES IDX 30 97 27 98 29 99 28 100
REMARK H PARENT 3 7 90 25 58 36 8 76
REMARK Flexibility Score: inf
ROOT
ATOM      1  C   UNL A   1      31.361  31.310  26.035  1.00  0.00     0.023 C 
ENDROOT
BRANCH   1   2
ATOM      2  C   UNL A   1      32.300  31.457  27.231  1.00  0.00     0.023 C 
BRANCH   2   3
ATOM      3  C   UNL A   1      33.292  32.601  27.121  1.00  0.00     0.116 C 
BRANCH   3   4
ATOM      4  N   UNL A   1      32.809  33.836  27.718  1.00  0.00    -0.352 N 
ATOM      5  O   UNL A   1      32.729  35.448  29.301  1.00  0.00    -0.269 OA
ATOM      6  C   UNL A   1      33.296  34.465  28.841  1.00  0.00     0.251 C 
ATOM      7  H   UNL A   1      32.049  34.270  27.269  1.00  0.00     0.163 HD
BRANCH   6   8
ATOM      8  C   UNL A   1      34.491  33.896  29.496  1.00  0.00     0.039 A 
ATOM      9  C   UNL A   1      35.764  34.300  29.087  1.00  0.00     0.014 A 
ATOM     10  C   UNL A   1      34.335  32.895  30.456  1.00  0.00     0.014 A 
ATOM     11  C   UNL A   1      36.876  33.599  29.531  1.00  0.00     0.010 A 
ATOM     12  C   UNL A   1      35.465  32.253  30.971  1.00  0.00     0.010 A 
ATOM     13  C   UNL A   1      36.741  32.578  30.489  1.00  0.00    -0.014 A 
BRANCH  13  14
ATOM     14  C   UNL A   1      37.971  31.939  31.021  1.00  0.00     0.031 A 
ATOM     15  C   UNL A   1      38.500  32.252  32.392  1.00  0.00     0.074 A 
ATOM     16  C   UNL A   1      38.589  31.026  30.245  1.00  0.00     0.049 A 
ATOM     17  N   UNL A   1      39.513  31.711  33.019  1.00  0.00    -0.248 NA
ATOM     18  C   UNL A   1      37.819  33.309  33.157  1.00  0.00     0.031 C 
ATOM     19  C   UNL A   1      38.195  30.693  28.873  1.00  0.00     0.029 A 
ATOM     20  N   UNL A   1      39.654  30.202  30.494  1.00  0.00    -0.354 N 
ATOM     21  C   UNL A   1      39.616  32.378  34.233  1.00  0.00     0.074 A 
ATOM     22  C   UNL A   1      38.564  33.374  34.254  1.00  0.00     0.031 C 
ATOM     23  C   UNL A   1      38.975  29.702  28.419  1.00  0.00     0.029 A 
ATOM     24  C   UNL A   1      39.952  29.364  29.446  1.00  0.00     0.049 A 
ATOM     25  H   UNL A   1      40.157  30.211  31.341  1.00  0.00     0.167 HD
ATOM     26  C   UNL A   1      40.493  32.164  35.245  1.00  0.00     0.034 A 
ATOM     27  C   UNL A   1      40.908  28.424  29.323  1.00  0.00     0.034 A 
ATOM     28  C   UNL A   1      41.511  31.145  35.229  1.00  0.00     0.049 A 
ATOM     29  C   UNL A   1      41.815  28.161  30.488  1.00  0.00     0.074 A 
ATOM     30  C   UNL A   1      42.428  30.829  36.217  1.00  0.00     0.029 A 
ATOM     31  N   UNL A   1      41.743  30.272  34.177  1.00  0.00    -0.354 N 
ATOM     32  N   UNL A   1      41.820  28.728  31.669  1.00  0.00    -0.248 NA
ATOM     33  C   UNL A   1      42.829  27.113  30.314  1.00  0.00     0.031 C 
ATOM     34  C   UNL A   1      43.214  29.765  35.761  1.00  0.00     0.029 A 
ATOM     35  C   UNL A   1      42.784  29.413  34.492  1.00  0.00     0.049 A 
ATOM     36  H   UNL A   1      41.242  30.263  33.330  1.00  0.00     0.167 HD
ATOM     37  C   UNL A   1      42.835  28.107  32.383  1.00  0.00     0.074 A 
ATOM     38  C   UNL A   1      43.389  27.085  31.516  1.00  0.00     0.031 C 
ATOM     39  C   UNL A   1      43.293  28.379  33.630  1.00  0.00     0.034 A 
BRANCH  26  40
ATOM     40  C   UNL A   1      40.358  33.008  36.485  1.00  0.00     0.023 A 
ATOM     41  C   UNL A   1      41.084  34.213  36.577  1.00  0.00     0.012 A 
ATOM     42  C   UNL A   1      39.460  32.663  37.514  1.00  0.00     0.148 A 
ATOM     43  C   UNL A   1      40.932  35.053  37.680  1.00  0.00     0.002 A 
ATOM     44  C   UNL A   1      39.289  33.521  38.596  1.00  0.00     0.091 A 
ATOM     45  F   UNL A   1      38.795  31.502  37.420  1.00  0.00    -0.205 F 
ATOM     46  C   UNL A   1      40.028  34.713  38.683  1.00  0.00     0.022 A 
BRANCH  44  47
ATOM     47  S   UNL A   1      38.099  33.207  39.906  1.00  0.00     0.127 S 
ATOM     48  O   UNL A   1      36.855  33.083  39.148  1.00  0.00    -0.237 OA
ATOM     49  O   UNL A   1      38.591  31.954  40.479  1.00  0.00    -0.237 OA
ATOM     50  O   UNL A   1      38.178  34.354  40.800  1.00  0.00    -0.744 OA
ENDBRANCH  44  47
ENDBRANCH  26  40
BRANCH  27  51
ATOM     51  C   UNL A   1      40.996  27.633  28.064  1.00  0.00     0.023 A 
ATOM     52  C   UNL A   1      41.775  28.112  26.994  1.00  0.00     0.012 A 
ATOM     53  C   UNL A   1      40.377  26.374  27.953  1.00  0.00     0.148 A 
ATOM     54  C   UNL A   1      41.922  27.356  25.830  1.00  0.00     0.002 A 
ATOM     55  C   UNL A   1      40.583  25.598  26.817  1.00  0.00     0.091 A 
ATOM     56  F   UNL A   1      39.620  25.939  28.971  1.00  0.00    -0.205 F 
ATOM     57  C   UNL A   1      41.341  26.093  25.748  1.00  0.00     0.022 A 
BRANCH  55  58
ATOM     58  S   UNL A   1      40.003  23.898  26.738  1.00  0.00     0.127 S 
ATOM     59  O   UNL A   1      40.012  23.509  28.144  1.00  0.00    -0.237 OA
ATOM     60  O   UNL A   1      38.672  24.046  26.147  1.00  0.00    -0.237 OA
ATOM     61  O   UNL A   1      40.961  23.221  25.872  1.00  0.00    -0.744 OA
ENDBRANCH  55  58
ENDBRANCH  27  51
BRANCH  39  62
ATOM     62  C   UNL A   1      44.461  27.567  34.116  1.00  0.00     0.023 A 
ATOM     63  C   UNL A   1      45.767  28.071  33.945  1.00  0.00     0.012 A 
ATOM     64  C   UNL A   1      44.274  26.335  34.770  1.00  0.00     0.148 A 
ATOM     65  C   UNL A   1      46.871  27.344  34.386  1.00  0.00     0.002 A 
ATOM     66  C   UNL A   1      45.378  25.634  35.242  1.00  0.00     0.091 A 
ATOM     67  F   UNL A   1      43.027  25.859  34.901  1.00  0.00    -0.205 F 
ATOM     68  C   UNL A   1      46.676  26.131  35.043  1.00  0.00     0.022 A 
BRANCH  66  69
ATOM     69  S   UNL A   1      45.202  24.102  36.164  1.00  0.00     0.127 S 
ATOM     70  O   UNL A   1      44.604  23.218  35.166  1.00  0.00    -0.237 OA
ATOM     71  O   UNL A   1      46.586  23.778  36.511  1.00  0.00    -0.237 OA
ATOM     72  O   UNL A   1      44.361  24.431  37.307  1.00  0.00    -0.744 OA
ENDBRANCH  66  69
ENDBRANCH  39  62
ENDBRANCH  13  14
ENDBRANCH   6   8
ENDBRANCH   3   4
ENDBRANCH   2   3
ENDBRANCH   1   2
BRANCH   1  73
ATOM     73  C   UNL A   1      31.384  29.936  25.364  1.00  0.00     0.116 C 
BRANCH  73  74
ATOM     74  N   UNL A   1      30.668  29.945  24.102  1.00  0.00    -0.356 N 
ATOM     75  C   UNL A   1      30.458  28.935  23.217  1.00  0.00     0.224 C 
ATOM     76  H   UNL A   1      30.276  30.811  23.850  1.00  0.00     0.163 HD
ATOM     77  O   UNL A   1      29.866  29.199  22.170  1.00  0.00    -0.275 OA
BRANCH  75  78
ATOM     78  C   UNL A   1      30.932  27.534  23.553  1.00  0.00     0.098 C 
ATOM     79  C   UNL A   1      29.778  26.732  24.183  1.00  0.00     0.017 C 
ATOM     80  C   UNL A   1      31.459  26.814  22.305  1.00  0.00     0.133 C 
ATOM     81  C   UNL A   1      30.191  25.285  24.412  1.00  0.00     0.022 C 
ATOM     82  N   UNL A   1      31.840  25.430  22.621  1.00  0.00    -0.342 N 
ATOM     83  C   UNL A   1      30.716  24.669  23.116  1.00  0.00     0.119 C 
BRANCH  82  84
ATOM     84  C   UNL A   1      33.165  25.045  22.535  1.00  0.00     0.225 C 
ATOM     85  O   UNL A   1      33.590  24.591  21.461  1.00  0.00    -0.275 OA
BRANCH  84  86
ATOM     86  C   UNL A   1      34.203  25.168  23.682  1.00  0.00     0.081 C 
ATOM     87  C   UNL A   1      35.219  24.063  23.912  1.00  0.00     0.030 C 
ATOM     88  C   UNL A   1      33.707  25.729  25.001  1.00  0.00     0.030 C 
ATOM     89  C   UNL A   1      34.942  23.067  25.030  1.00  0.00     0.103 C 
ATOM     90  C   UNL A   1      33.190  24.682  25.959  1.00  0.00     0.103 C 
ATOM     91  N   UNL A   1      34.087  23.525  26.187  1.00  0.00    -0.198 NA
BRANCH  91  92
ATOM     92  S   UNL A   1      33.355  22.114  26.926  1.00  0.00     0.243 S 
ATOM     93  O   UNL A   1      34.392  21.430  27.686  1.00  0.00    -0.207 OA
ATOM     94  O   UNL A   1      32.169  22.583  27.599  1.00  0.00    -0.207 OA
BRANCH  92  95
ATOM     95  C   UNL A   1      32.868  20.961  25.662  1.00  0.00     0.082 A 
ATOM     96  C   UNL A   1      33.234  19.618  25.801  1.00  0.00     0.022 A 
ATOM     97  C   UNL A   1      32.375  21.419  24.434  1.00  0.00     0.022 A 
ATOM     98  C   UNL A   1      33.069  18.739  24.727  1.00  0.00     0.001 A 
ATOM     99  C   UNL A   1      32.168  20.529  23.379  1.00  0.00     0.001 A 
ATOM    100  C   UNL A   1      32.523  19.191  23.525  1.00  0.00     0.000 A 
ENDBRANCH  92  95
ENDBRANCH  91  92
ENDBRANCH  84  86
ENDBRANCH  82  84
ENDBRANCH  75  78
ENDBRANCH  73  74
ENDBRANCH   1  73
TORSDOF 18
ENDMDL
