MODEL 1
REMARK VINA RESULT:     -12.1      0.000      0.000
REMARK SMILES COc1ccc(C(=O)C2=C(NCCCCNC(=O)c3ccc(-c4c5nc(c(-c6cccc(S(=O)(=O)[O-])c6F)c6ccc([nH]6)c(-c6cccc(S(=O)(=O)[O-])c6F)c6nc(c(-c7cccc(S(=O)(=O)[O-])c7F)c7ccc4[nH]7)C=C6)C=C5)cc3)C(=O)N(CC(=O)[O-])[C@H]2c2ccccc2)cc1
REMARK SMILES IDX 13 1 12 2 11 3 10 5 9 6 89 7 82 8 84 9 83 10 7 11 8 12 6 13
REMARK SMILES IDX 3 14 4 15 97 16 5 17 96 18 2 19 1 20 90 21 91 22 95 23 92 24
REMARK SMILES IDX 94 25 93 26 85 27 86 28 87 29 88 30 14 31 15 32 16 33 17 34
REMARK SMILES IDX 18 36 19 37 20 38 81 39 21 40 80 41 22 42 23 43 24 44 74 45
REMARK SMILES IDX 25 46 79 47 73 48 75 49 26 50 78 51 72 52 71 53 27 55 59 56
REMARK SMILES IDX 39 57 58 58 40 59 43 60 57 61 76 62 41 63 42 64 56 66 77 67
REMARK SMILES IDX 44 68 28 69 29 70 37 71 30 72 32 73 38 74 31 75 33 76 34 77
REMARK SMILES IDX 35 78 36 79 60 80 61 81 69 82 62 83 64 84 70 85 63 86 65 87
REMARK SMILES IDX 66 88 67 89 68 90 45 91 46 92 54 93 47 94 49 95 55 96 48 97
REMARK SMILES IDX 50 98 51 99 52 100 53 101
REMARK H PARENT 11 4 16 35 75 54 43 65
REMARK Flexibility Score: inf
ROOT
ATOM      1  C   UNL A   1      33.963  26.758  24.000  1.00  0.00     0.023 C 
ENDROOT
BRANCH   1   2
ATOM      2  C   UNL A   1      33.392  26.475  22.613  1.00  0.00     0.113 C 
BRANCH   2   3
ATOM      3  N   UNL A   1      33.404  25.056  22.349  1.00  0.00    -0.380 N 
ATOM      4  H   UNL A   1      33.508  24.808  21.402  1.00  0.00     0.160 HD
BRANCH   3   5
ATOM      5  C   UNL A   1      33.291  24.000  23.215  1.00  0.00     0.110 C 
ATOM      6  C   UNL A   1      34.094  23.033  23.678  1.00  0.00     0.056 C 
ATOM      7  C   UNL A   1      33.467  22.140  24.709  1.00  0.00     0.153 C 
ATOM      8  C   UNL A   1      31.995  23.786  23.944  1.00  0.00     0.271 C 
ATOM      9  N   UNL A   1      32.156  22.729  24.805  1.00  0.00    -0.320 N 
ATOM     10  O   UNL A   1      30.990  24.460  23.782  1.00  0.00    -0.267 OA
BRANCH   6  11
ATOM     11  C   UNL A   1      35.532  22.936  23.385  1.00  0.00     0.193 C 
ATOM     12  O   UNL A   1      35.911  22.972  22.218  1.00  0.00    -0.289 OA
BRANCH  11  13
ATOM     13  C   UNL A   1      36.524  22.865  24.499  1.00  0.00     0.023 A 
ATOM     14  C   UNL A   1      38.638  22.743  26.362  1.00  0.00     0.118 A 
ATOM     15  C   UNL A   1      38.345  21.646  25.552  1.00  0.00     0.047 A 
ATOM     16  C   UNL A   1      37.822  23.871  26.293  1.00  0.00     0.047 A 
ATOM     17  C   UNL A   1      37.304  21.708  24.618  1.00  0.00     0.016 A 
ATOM     18  C   UNL A   1      36.752  23.917  25.389  1.00  0.00     0.016 A 
BRANCH  14  19
ATOM     19  O   UNL A   1      39.729  22.593  27.171  1.00  0.00    -0.497 OA
ATOM     20  C   UNL A   1      40.475  21.391  27.017  1.00  0.00     0.278 C 
ENDBRANCH  14  19
ENDBRANCH  11  13
ENDBRANCH   6  11
BRANCH   7  21
ATOM     21  C   UNL A   1      33.402  20.679  24.288  1.00  0.00    -0.021 A 
ATOM     22  C   UNL A   1      34.297  19.721  24.807  1.00  0.00     0.006 A 
ATOM     23  C   UNL A   1      32.403  20.249  23.402  1.00  0.00     0.006 A 
ATOM     24  C   UNL A   1      34.182  18.374  24.466  1.00  0.00     0.000 A 
ATOM     25  C   UNL A   1      32.299  18.899  23.055  1.00  0.00     0.000 A 
ATOM     26  C   UNL A   1      33.183  17.964  23.590  1.00  0.00     0.000 A 
ENDBRANCH   7  21
BRANCH   9  27
ATOM     27  C   UNL A   1      31.115  22.272  25.716  1.00  0.00     0.173 C 
BRANCH  27  28
ATOM     28  C   UNL A   1      31.052  23.005  27.045  1.00  0.00     0.061 C 
ATOM     29  O   UNL A   1      31.972  23.077  27.849  1.00  0.00    -0.548 OA
ATOM     30  O   UNL A   1      29.901  23.664  27.280  1.00  0.00    -0.548 OA
ENDBRANCH  27  28
ENDBRANCH   9  27
ENDBRANCH   3   5
ENDBRANCH   2   3
ENDBRANCH   1   2
BRANCH   1  31
ATOM     31  C   UNL A   1      33.235  27.853  24.787  1.00  0.00     0.023 C 
BRANCH  31  32
ATOM     32  C   UNL A   1      34.126  28.759  25.633  1.00  0.00     0.116 C 
BRANCH  32  33
ATOM     33  N   UNL A   1      33.484  30.015  25.991  1.00  0.00    -0.352 N 
ATOM     34  C   UNL A   1      33.768  30.886  27.013  1.00  0.00     0.251 C 
ATOM     35  H   UNL A   1      32.733  30.279  25.412  1.00  0.00     0.163 HD
ATOM     36  O   UNL A   1      33.019  31.839  27.218  1.00  0.00    -0.269 OA
BRANCH  34  37
ATOM     37  C   UNL A   1      34.949  30.675  27.881  1.00  0.00     0.039 A 
ATOM     38  C   UNL A   1      34.976  29.548  28.708  1.00  0.00     0.014 A 
ATOM     39  C   UNL A   1      36.013  31.580  27.902  1.00  0.00     0.014 A 
ATOM     40  C   UNL A   1      36.092  29.302  29.511  1.00  0.00     0.010 A 
ATOM     41  C   UNL A   1      37.157  31.294  28.646  1.00  0.00     0.010 A 
ATOM     42  C   UNL A   1      37.206  30.158  29.467  1.00  0.00    -0.014 A 
BRANCH  42  43
ATOM     43  C   UNL A   1      38.424  29.861  30.263  1.00  0.00     0.031 A 
ATOM     44  C   UNL A   1      38.623  30.470  31.626  1.00  0.00     0.074 A 
ATOM     45  C   UNL A   1      39.389  29.084  29.730  1.00  0.00     0.049 A 
ATOM     46  N   UNL A   1      39.602  30.289  32.474  1.00  0.00    -0.248 NA
ATOM     47  C   UNL A   1      37.605  31.428  32.086  1.00  0.00     0.031 C 
ATOM     48  C   UNL A   1      39.363  28.509  28.384  1.00  0.00     0.029 A 
ATOM     49  N   UNL A   1      40.583  28.652  30.251  1.00  0.00    -0.354 N 
ATOM     50  C   UNL A   1      39.340  31.133  33.547  1.00  0.00     0.074 A 
ATOM     51  C   UNL A   1      38.128  31.854  33.226  1.00  0.00     0.031 C 
ATOM     52  C   UNL A   1      40.472  27.777  28.197  1.00  0.00     0.029 A 
ATOM     53  C   UNL A   1      41.299  27.846  29.398  1.00  0.00     0.049 A 
ATOM     54  H   UNL A   1      40.898  28.898  31.152  1.00  0.00     0.167 HD
ATOM     55  C   UNL A   1      40.026  31.275  34.706  1.00  0.00     0.034 A 
ATOM     56  C   UNL A   1      42.479  27.218  29.569  1.00  0.00     0.034 A 
ATOM     57  C   UNL A   1      41.204  30.521  35.042  1.00  0.00     0.049 A 
ATOM     58  C   UNL A   1      43.186  27.339  30.891  1.00  0.00     0.074 A 
ATOM     59  C   UNL A   1      41.911  30.509  36.232  1.00  0.00     0.029 A 
ATOM     60  N   UNL A   1      41.857  29.651  34.182  1.00  0.00    -0.354 N 
ATOM     61  N   UNL A   1      42.822  27.996  31.967  1.00  0.00    -0.248 NA
ATOM     62  C   UNL A   1      44.446  26.597  31.038  1.00  0.00     0.031 C 
ATOM     63  C   UNL A   1      43.005  29.648  36.083  1.00  0.00     0.029 A 
ATOM     64  C   UNL A   1      42.965  29.105  34.809  1.00  0.00     0.049 A 
ATOM     65  H   UNL A   1      41.575  29.450  33.260  1.00  0.00     0.167 HD
ATOM     66  C   UNL A   1      43.782  27.711  32.930  1.00  0.00     0.074 A 
ATOM     67  C   UNL A   1      44.734  26.808  32.315  1.00  0.00     0.031 C 
ATOM     68  C   UNL A   1      43.875  28.166  34.205  1.00  0.00     0.034 A 
BRANCH  55  69
ATOM     69  C   UNL A   1      39.487  32.250  35.722  1.00  0.00     0.023 A 
ATOM     70  C   UNL A   1      38.522  31.820  36.657  1.00  0.00     0.012 A 
ATOM     71  C   UNL A   1      39.961  33.574  35.784  1.00  0.00     0.148 A 
ATOM     72  C   UNL A   1      38.007  32.701  37.607  1.00  0.00     0.002 A 
ATOM     73  C   UNL A   1      39.478  34.435  36.764  1.00  0.00     0.091 A 
ATOM     74  F   UNL A   1      40.861  33.976  34.875  1.00  0.00    -0.205 F 
ATOM     75  C   UNL A   1      38.492  34.005  37.667  1.00  0.00     0.022 A 
BRANCH  73  76
ATOM     76  S   UNL A   1      40.101  36.108  36.972  1.00  0.00     0.127 S 
ATOM     77  O   UNL A   1      39.330  36.570  38.124  1.00  0.00    -0.237 OA
ATOM     78  O   UNL A   1      41.522  35.878  37.243  1.00  0.00    -0.237 OA
ATOM     79  O   UNL A   1      39.830  36.792  35.715  1.00  0.00    -0.744 OA
ENDBRANCH  73  76
ENDBRANCH  55  69
BRANCH  56  80
ATOM     80  C   UNL A   1      43.007  26.325  28.499  1.00  0.00     0.023 A 
ATOM     81  C   UNL A   1      42.424  25.054  28.320  1.00  0.00     0.012 A 
ATOM     82  C   UNL A   1      44.048  26.730  27.643  1.00  0.00     0.148 A 
ATOM     83  C   UNL A   1      42.889  24.191  27.329  1.00  0.00     0.002 A 
ATOM     84  C   UNL A   1      44.472  25.885  26.622  1.00  0.00     0.091 A 
ATOM     85  F   UNL A   1      44.595  27.938  27.835  1.00  0.00    -0.205 F 
ATOM     86  C   UNL A   1      43.906  24.609  26.474  1.00  0.00     0.022 A 
BRANCH  84  87
ATOM     87  S   UNL A   1      45.684  26.385  25.395  1.00  0.00     0.127 S 
ATOM     88  O   UNL A   1      45.771  25.192  24.557  1.00  0.00    -0.237 OA
ATOM     89  O   UNL A   1      45.025  27.531  24.768  1.00  0.00    -0.237 OA
ATOM     90  O   UNL A   1      46.887  26.720  26.144  1.00  0.00    -0.744 OA
ENDBRANCH  84  87
ENDBRANCH  56  80
BRANCH  68  91
ATOM     91  C   UNL A   1      45.027  27.665  35.040  1.00  0.00     0.023 A 
ATOM     92  C   UNL A   1      46.222  28.408  35.106  1.00  0.00     0.012 A 
ATOM     93  C   UNL A   1      44.904  26.487  35.801  1.00  0.00     0.148 A 
ATOM     94  C   UNL A   1      47.292  27.964  35.882  1.00  0.00     0.002 A 
ATOM     95  C   UNL A   1      45.956  26.077  36.612  1.00  0.00     0.091 A 
ATOM     96  F   UNL A   1      43.768  25.779  35.711  1.00  0.00    -0.205 F 
ATOM     97  C   UNL A   1      47.155  26.806  36.643  1.00  0.00     0.022 A 
BRANCH  95  98
ATOM     98  S   UNL A   1      45.823  24.652  37.698  1.00  0.00     0.127 S 
ATOM     99  O   UNL A   1      45.829  23.546  36.742  1.00  0.00    -0.237 OA
ATOM    100  O   UNL A   1      47.037  24.762  38.510  1.00  0.00    -0.237 OA
ATOM    101  O   UNL A   1      44.586  24.835  38.443  1.00  0.00    -0.744 OA
ENDBRANCH  95  98
ENDBRANCH  68  91
ENDBRANCH  42  43
ENDBRANCH  34  37
ENDBRANCH  32  33
ENDBRANCH  31  32
ENDBRANCH   1  31
TORSDOF 20
ENDMDL
MODEL 2
REMARK VINA RESULT:     -11.8      4.828     10.136
REMARK SMILES COc1ccc(C(=O)C2=C(NCCCCNC(=O)c3ccc(-c4c5nc(c(-c6cccc(S(=O)(=O)[O-])c6F)c6ccc([nH]6)c(-c6cccc(S(=O)(=O)[O-])c6F)c6nc(c(-c7cccc(S(=O)(=O)[O-])c7F)c7ccc4[nH]7)C=C6)C=C5)cc3)C(=O)N(CC(=O)[O-])[C@H]2c2ccccc2)cc1
REMARK SMILES IDX 13 1 12 2 11 3 10 5 9 6 89 7 82 8 84 9 83 10 7 11 8 12 6 13
REMARK SMILES IDX 3 14 4 15 97 16 5 17 96 18 2 19 1 20 90 21 91 22 95 23 92 24
REMARK SMILES IDX 94 25 93 26 85 27 86 28 87 29 88 30 14 31 15 32 16 33 17 34
REMARK SMILES IDX 18 36 19 37 20 38 81 39 21 40 80 41 22 42 23 43 24 44 74 45
REMARK SMILES IDX 25 46 79 47 73 48 75 49 26 50 78 51 72 52 71 53 27 55 59 56
REMARK SMILES IDX 39 57 58 58 40 59 43 60 57 61 76 62 41 63 42 64 56 66 77 67
REMARK SMILES IDX 44 68 28 69 29 70 37 71 30 72 32 73 38 74 31 75 33 76 34 77
REMARK SMILES IDX 35 78 36 79 60 80 61 81 69 82 62 83 64 84 70 85 63 86 65 87
REMARK SMILES IDX 66 88 67 89 68 90 45 91 46 92 54 93 47 94 49 95 55 96 48 97
REMARK SMILES IDX 50 98 51 99 52 100 53 101
REMARK H PARENT 11 4 16 35 75 54 43 65
REMARK Flexibility Score: inf
ROOT
ATOM      1  C   UNL A   1      33.472  23.652  26.189  1.00  0.00     0.023 C 
ENDROOT
BRANCH   1   2
ATOM      2  C   UNL A   1      32.103  23.258  26.741  1.00  0.00     0.113 C 
BRANCH   2   3
ATOM      3  N   UNL A   1      31.056  23.865  25.955  1.00  0.00    -0.380 N 
ATOM      4  H   UNL A   1      30.162  23.468  26.074  1.00  0.00     0.160 HD
BRANCH   3   5
ATOM      5  C   UNL A   1      31.113  24.910  25.071  1.00  0.00     0.110 C 
ATOM      6  C   UNL A   1      31.162  26.246  25.146  1.00  0.00     0.056 C 
ATOM      7  C   UNL A   1      31.294  26.943  23.824  1.00  0.00     0.153 C 
ATOM      8  C   UNL A   1      31.198  24.619  23.599  1.00  0.00     0.271 C 
ATOM      9  N   UNL A   1      31.327  25.811  22.932  1.00  0.00    -0.320 N 
ATOM     10  O   UNL A   1      31.163  23.500  23.111  1.00  0.00    -0.267 OA
BRANCH   6  11
ATOM     11  C   UNL A   1      31.285  27.003  26.401  1.00  0.00     0.193 C 
ATOM     12  O   UNL A   1      30.610  26.671  27.372  1.00  0.00    -0.289 OA
BRANCH  11  13
ATOM     13  C   UNL A   1      32.271  28.119  26.514  1.00  0.00     0.023 A 
ATOM     14  C   UNL A   1      34.020  30.266  27.045  1.00  0.00     0.118 A 
ATOM     15  C   UNL A   1      32.654  30.491  26.880  1.00  0.00     0.047 A 
ATOM     16  C   UNL A   1      34.519  28.978  26.866  1.00  0.00     0.047 A 
ATOM     17  C   UNL A   1      31.782  29.426  26.627  1.00  0.00     0.016 A 
ATOM     18  C   UNL A   1      33.652  27.917  26.571  1.00  0.00     0.016 A 
BRANCH  14  19
ATOM     19  O   UNL A   1      34.756  31.371  27.373  1.00  0.00    -0.497 OA
ATOM     20  C   UNL A   1      36.028  31.137  27.965  1.00  0.00     0.278 C 
ENDBRANCH  14  19
ENDBRANCH  11  13
ENDBRANCH   6  11
BRANCH   7  21
ATOM     21  C   UNL A   1      30.134  27.875  23.510  1.00  0.00    -0.021 A 
ATOM     22  C   UNL A   1      30.346  29.225  23.160  1.00  0.00     0.006 A 
ATOM     23  C   UNL A   1      28.819  27.387  23.516  1.00  0.00     0.006 A 
ATOM     24  C   UNL A   1      29.279  30.051  22.808  1.00  0.00     0.000 A 
ATOM     25  C   UNL A   1      27.752  28.221  23.173  1.00  0.00     0.000 A 
ATOM     26  C   UNL A   1      27.982  29.548  22.815  1.00  0.00     0.000 A 
ENDBRANCH   7  21
BRANCH   9  27
ATOM     27  C   UNL A   1      31.491  25.908  21.488  1.00  0.00     0.173 C 
BRANCH  27  28
ATOM     28  C   UNL A   1      32.901  25.656  20.979  1.00  0.00     0.061 C 
ATOM     29  O   UNL A   1      33.877  25.463  21.690  1.00  0.00    -0.548 OA
ATOM     30  O   UNL A   1      33.020  25.582  19.639  1.00  0.00    -0.548 OA
ENDBRANCH  27  28
ENDBRANCH   9  27
ENDBRANCH   3   5
ENDBRANCH   2   3
ENDBRANCH   1   2
BRANCH   1  31
ATOM     31  C   UNL A   1      34.565  22.592  26.354  1.00  0.00     0.023 C 
BRANCH  31  32
ATOM     32  C   UNL A   1      35.906  22.921  25.705  1.00  0.00     0.116 C 
BRANCH  32  33
ATOM     33  N   UNL A   1      36.821  21.791  25.682  1.00  0.00    -0.352 N 
ATOM     34  C   UNL A   1      38.168  21.745  25.946  1.00  0.00     0.251 C 
ATOM     35  H   UNL A   1      36.412  20.928  25.442  1.00  0.00     0.163 HD
ATOM     36  O   UNL A   1      38.785  20.701  25.747  1.00  0.00    -0.269 OA
BRANCH  34  37
ATOM     37  C   UNL A   1      38.883  22.944  26.439  1.00  0.00     0.039 A 
ATOM     38  C   UNL A   1      40.006  22.765  27.252  1.00  0.00     0.014 A 
ATOM     39  C   UNL A   1      38.450  24.235  26.124  1.00  0.00     0.014 A 
ATOM     40  C   UNL A   1      40.723  23.876  27.702  1.00  0.00     0.010 A 
ATOM     41  C   UNL A   1      39.209  25.338  26.511  1.00  0.00     0.010 A 
ATOM     42  C   UNL A   1      40.348  25.172  27.313  1.00  0.00    -0.014 A 
BRANCH  42  43
ATOM     43  C   UNL A   1      41.150  26.352  27.728  1.00  0.00     0.031 A 
ATOM     44  C   UNL A   1      42.559  26.541  27.232  1.00  0.00     0.074 A 
ATOM     45  C   UNL A   1      40.627  27.230  28.608  1.00  0.00     0.049 A 
ATOM     46  N   UNL A   1      43.387  27.529  27.458  1.00  0.00    -0.248 NA
ATOM     47  C   UNL A   1      43.124  25.469  26.396  1.00  0.00     0.031 C 
ATOM     48  C   UNL A   1      39.310  27.113  29.236  1.00  0.00     0.029 A 
ATOM     49  N   UNL A   1      41.142  28.389  29.133  1.00  0.00    -0.354 N 
ATOM     50  C   UNL A   1      44.576  27.183  26.827  1.00  0.00     0.074 A 
ATOM     51  C   UNL A   1      44.375  25.877  26.239  1.00  0.00     0.031 C 
ATOM     52  C   UNL A   1      39.109  28.171  30.037  1.00  0.00     0.029 A 
ATOM     53  C   UNL A   1      40.288  29.031  29.998  1.00  0.00     0.049 A 
ATOM     54  H   UNL A   1      42.040  28.728  28.911  1.00  0.00     0.167 HD
ATOM     55  C   UNL A   1      45.721  27.898  26.720  1.00  0.00     0.034 A 
ATOM     56  C   UNL A   1      40.429  30.190  30.669  1.00  0.00     0.034 A 
ATOM     57  C   UNL A   1      45.901  29.217  27.265  1.00  0.00     0.049 A 
ATOM     58  C   UNL A   1      41.685  30.997  30.479  1.00  0.00     0.074 A 
ATOM     59  C   UNL A   1      46.981  30.071  27.119  1.00  0.00     0.029 A 
ATOM     60  N   UNL A   1      44.982  29.871  28.070  1.00  0.00    -0.354 N 
ATOM     61  N   UNL A   1      42.725  30.741  29.723  1.00  0.00    -0.248 NA
ATOM     62  C   UNL A   1      41.766  32.275  31.200  1.00  0.00     0.031 C 
ATOM     63  C   UNL A   1      46.723  31.233  27.856  1.00  0.00     0.029 A 
ATOM     64  C   UNL A   1      45.472  31.114  28.439  1.00  0.00     0.049 A 
ATOM     65  H   UNL A   1      44.107  29.508  28.340  1.00  0.00     0.167 HD
ATOM     66  C   UNL A   1      43.564  31.843  29.843  1.00  0.00     0.074 A 
ATOM     67  C   UNL A   1      42.901  32.776  30.731  1.00  0.00     0.031 C 
ATOM     68  C   UNL A   1      44.779  32.057  29.280  1.00  0.00     0.034 A 
BRANCH  55  69
ATOM     69  C   UNL A   1      46.856  27.286  25.937  1.00  0.00     0.023 A 
ATOM     70  C   UNL A   1      47.624  26.253  26.514  1.00  0.00     0.012 A 
ATOM     71  C   UNL A   1      47.136  27.697  24.620  1.00  0.00     0.148 A 
ATOM     72  C   UNL A   1      48.678  25.671  25.813  1.00  0.00     0.002 A 
ATOM     73  C   UNL A   1      48.160  27.080  23.908  1.00  0.00     0.091 A 
ATOM     74  F   UNL A   1      46.413  28.695  24.091  1.00  0.00    -0.205 F 
ATOM     75  C   UNL A   1      48.940  26.077  24.506  1.00  0.00     0.022 A 
BRANCH  73  76
ATOM     76  S   UNL A   1      48.517  27.477  22.192  1.00  0.00     0.127 S 
ATOM     77  O   UNL A   1      48.656  26.147  21.603  1.00  0.00    -0.237 OA
ATOM     78  O   UNL A   1      47.313  28.202  21.783  1.00  0.00    -0.237 OA
ATOM     79  O   UNL A   1      49.728  28.286  22.216  1.00  0.00    -0.744 OA
ENDBRANCH  73  76
ENDBRANCH  55  69
BRANCH  56  80
ATOM     80  C   UNL A   1      39.303  30.714  31.494  1.00  0.00     0.023 A 
ATOM     81  C   UNL A   1      39.211  30.330  32.848  1.00  0.00     0.012 A 
ATOM     82  C   UNL A   1      38.351  31.607  30.967  1.00  0.00     0.148 A 
ATOM     83  C   UNL A   1      38.174  30.800  33.652  1.00  0.00     0.002 A 
ATOM     84  C   UNL A   1      37.350  32.113  31.789  1.00  0.00     0.091 A 
ATOM     85  F   UNL A   1      38.451  31.953  29.677  1.00  0.00    -0.205 F 
ATOM     86  C   UNL A   1      37.250  31.698  33.127  1.00  0.00     0.022 A 
BRANCH  84  87
ATOM     87  S   UNL A   1      36.192  33.371  31.238  1.00  0.00     0.127 S 
ATOM     88  O   UNL A   1      34.997  32.577  30.962  1.00  0.00    -0.237 OA
ATOM     89  O   UNL A   1      36.100  34.234  32.416  1.00  0.00    -0.237 OA
ATOM     90  O   UNL A   1      36.815  33.999  30.081  1.00  0.00    -0.744 OA
ENDBRANCH  84  87
ENDBRANCH  56  80
BRANCH  68  91
ATOM     91  C   UNL A   1      45.460  33.370  29.573  1.00  0.00     0.023 A 
ATOM     92  C   UNL A   1      46.341  33.475  30.666  1.00  0.00     0.012 A 
ATOM     93  C   UNL A   1      45.267  34.484  28.732  1.00  0.00     0.148 A 
ATOM     94  C   UNL A   1      46.987  34.680  30.944  1.00  0.00     0.002 A 
ATOM     95  C   UNL A   1      45.952  35.666  28.986  1.00  0.00     0.091 A 
ATOM     96  F   UNL A   1      44.408  34.373  27.708  1.00  0.00    -0.205 F 
ATOM     97  C   UNL A   1      46.802  35.771  30.098  1.00  0.00     0.022 A 
BRANCH  95  98
ATOM     98  S   UNL A   1      45.845  37.084  27.887  1.00  0.00     0.127 S 
ATOM     99  O   UNL A   1      44.431  37.439  27.994  1.00  0.00    -0.237 OA
ATOM    100  O   UNL A   1      46.761  38.038  28.515  1.00  0.00    -0.237 OA
ATOM    101  O   UNL A   1      46.279  36.608  26.582  1.00  0.00    -0.744 OA
ENDBRANCH  95  98
ENDBRANCH  68  91
ENDBRANCH  42  43
ENDBRANCH  34  37
ENDBRANCH  32  33
ENDBRANCH  31  32
ENDBRANCH   1  31
TORSDOF 20
ENDMDL
MODEL 3
REMARK VINA RESULT:     -11.8      4.381     10.169
REMARK SMILES COc1ccc(C(=O)C2=C(NCCCCNC(=O)c3ccc(-c4c5nc(c(-c6cccc(S(=O)(=O)[O-])c6F)c6ccc([nH]6)c(-c6cccc(S(=O)(=O)[O-])c6F)c6nc(c(-c7cccc(S(=O)(=O)[O-])c7F)c7ccc4[nH]7)C=C6)C=C5)cc3)C(=O)N(CC(=O)[O-])[C@H]2c2ccccc2)cc1
REMARK SMILES IDX 13 1 12 2 11 3 10 5 9 6 89 7 82 8 84 9 83 10 7 11 8 12 6 13
REMARK SMILES IDX 3 14 4 15 97 16 5 17 96 18 2 19 1 20 90 21 91 22 95 23 92 24
REMARK SMILES IDX 94 25 93 26 85 27 86 28 87 29 88 30 14 31 15 32 16 33 17 34
REMARK SMILES IDX 18 36 19 37 20 38 81 39 21 40 80 41 22 42 23 43 24 44 74 45
REMARK SMILES IDX 25 46 79 47 73 48 75 49 26 50 78 51 72 52 71 53 27 55 59 56
REMARK SMILES IDX 39 57 58 58 40 59 43 60 57 61 76 62 41 63 42 64 56 66 77 67
REMARK SMILES IDX 44 68 28 69 29 70 37 71 30 72 32 73 38 74 31 75 33 76 34 77
REMARK SMILES IDX 35 78 36 79 60 80 61 81 69 82 62 83 64 84 70 85 63 86 65 87
REMARK SMILES IDX 66 88 67 89 68 90 45 91 46 92 54 93 47 94 49 95 55 96 48 97
REMARK SMILES IDX 50 98 51 99 52 100 53 101
REMARK H PARENT 11 4 16 35 75 54 43 65
REMARK Flexibility Score: inf
ROOT
ATOM      1  C   UNL A   1      33.626  23.513  25.991  1.00  0.00     0.023 C 
ENDROOT
BRANCH   1   2
ATOM      2  C   UNL A   1      32.338  23.478  26.811  1.00  0.00     0.113 C 
BRANCH   2   3
ATOM      3  N   UNL A   1      31.250  24.052  26.055  1.00  0.00    -0.380 N 
ATOM      4  H   UNL A   1      30.371  23.634  26.207  1.00  0.00     0.160 HD
BRANCH   3   5
ATOM      5  C   UNL A   1      31.252  25.089  25.160  1.00  0.00     0.110 C 
ATOM      6  C   UNL A   1      31.243  26.427  25.221  1.00  0.00     0.056 C 
ATOM      7  C   UNL A   1      31.331  27.114  23.890  1.00  0.00     0.153 C 
ATOM      8  C   UNL A   1      31.337  24.786  23.690  1.00  0.00     0.271 C 
ATOM      9  N   UNL A   1      31.407  25.976  23.010  1.00  0.00    -0.320 N 
ATOM     10  O   UNL A   1      31.347  23.661  23.214  1.00  0.00    -0.267 OA
BRANCH   6  11
ATOM     11  C   UNL A   1      31.343  27.202  26.467  1.00  0.00     0.193 C 
ATOM     12  O   UNL A   1      30.634  26.897  27.423  1.00  0.00    -0.289 OA
BRANCH  11  13
ATOM     13  C   UNL A   1      32.347  28.300  26.591  1.00  0.00     0.023 A 
ATOM     14  C   UNL A   1      34.124  30.420  27.142  1.00  0.00     0.118 A 
ATOM     15  C   UNL A   1      32.764  30.668  26.950  1.00  0.00     0.047 A 
ATOM     16  C   UNL A   1      34.603  29.122  26.980  1.00  0.00     0.047 A 
ATOM     17  C   UNL A   1      31.879  29.617  26.688  1.00  0.00     0.016 A 
ATOM     18  C   UNL A   1      33.722  28.075  26.676  1.00  0.00     0.016 A 
BRANCH  14  19
ATOM     19  O   UNL A   1      34.872  31.514  27.476  1.00  0.00    -0.497 OA
ATOM     20  C   UNL A   1      34.754  31.981  28.815  1.00  0.00     0.278 C 
ENDBRANCH  14  19
ENDBRANCH  11  13
ENDBRANCH   6  11
BRANCH   7  21
ATOM     21  C   UNL A   1      30.127  27.991  23.579  1.00  0.00    -0.021 A 
ATOM     22  C   UNL A   1      28.831  27.449  23.464  1.00  0.00     0.006 A 
ATOM     23  C   UNL A   1      30.285  29.378  23.448  1.00  0.00     0.006 A 
ATOM     24  C   UNL A   1      27.726  28.272  23.246  1.00  0.00     0.000 A 
ATOM     25  C   UNL A   1      29.177  30.198  23.219  1.00  0.00     0.000 A 
ATOM     26  C   UNL A   1      27.900  29.647  23.124  1.00  0.00     0.000 A 
ENDBRANCH   7  21
BRANCH   9  27
ATOM     27  C   UNL A   1      31.552  26.065  21.563  1.00  0.00     0.173 C 
BRANCH  27  28
ATOM     28  C   UNL A   1      32.959  25.823  21.040  1.00  0.00     0.061 C 
ATOM     29  O   UNL A   1      33.971  25.828  21.726  1.00  0.00    -0.548 OA
ATOM     30  O   UNL A   1      33.036  25.520  19.729  1.00  0.00    -0.548 OA
ENDBRANCH  27  28
ENDBRANCH   9  27
ENDBRANCH   3   5
ENDBRANCH   2   3
ENDBRANCH   1   2
BRANCH   1  31
ATOM     31  C   UNL A   1      34.812  22.776  26.621  1.00  0.00     0.023 C 
BRANCH  31  32
ATOM     32  C   UNL A   1      36.190  23.194  26.115  1.00  0.00     0.116 C 
BRANCH  32  33
ATOM     33  N   UNL A   1      37.118  22.080  26.005  1.00  0.00    -0.352 N 
ATOM     34  C   UNL A   1      38.482  22.053  26.162  1.00  0.00     0.251 C 
ATOM     35  H   UNL A   1      36.706  21.213  25.785  1.00  0.00     0.163 HD
ATOM     36  O   UNL A   1      39.099  21.023  25.902  1.00  0.00    -0.269 OA
BRANCH  34  37
ATOM     37  C   UNL A   1      39.215  23.258  26.616  1.00  0.00     0.039 A 
ATOM     38  C   UNL A   1      40.330  23.090  27.441  1.00  0.00     0.014 A 
ATOM     39  C   UNL A   1      38.804  24.543  26.252  1.00  0.00     0.014 A 
ATOM     40  C   UNL A   1      41.063  24.205  27.854  1.00  0.00     0.010 A 
ATOM     41  C   UNL A   1      39.579  25.647  26.603  1.00  0.00     0.010 A 
ATOM     42  C   UNL A   1      40.711  25.493  27.416  1.00  0.00    -0.014 A 
BRANCH  42  43
ATOM     43  C   UNL A   1      41.530  26.673  27.793  1.00  0.00     0.031 A 
ATOM     44  C   UNL A   1      42.962  26.795  27.342  1.00  0.00     0.074 A 
ATOM     45  C   UNL A   1      41.000  27.616  28.599  1.00  0.00     0.049 A 
ATOM     46  N   UNL A   1      43.808  27.773  27.542  1.00  0.00    -0.248 NA
ATOM     47  C   UNL A   1      43.527  25.661  26.593  1.00  0.00     0.031 C 
ATOM     48  C   UNL A   1      39.657  27.571  29.181  1.00  0.00     0.029 A 
ATOM     49  N   UNL A   1      41.527  28.790  29.075  1.00  0.00    -0.354 N 
ATOM     50  C   UNL A   1      45.010  27.360  26.980  1.00  0.00     0.074 A 
ATOM     51  C   UNL A   1      44.794  26.027  26.461  1.00  0.00     0.031 C 
ATOM     52  C   UNL A   1      39.456  28.680  29.910  1.00  0.00     0.029 A 
ATOM     53  C   UNL A   1      40.660  29.504  29.867  1.00  0.00     0.049 A 
ATOM     54  H   UNL A   1      42.442  29.092  28.869  1.00  0.00     0.167 HD
ATOM     55  C   UNL A   1      46.178  28.037  26.875  1.00  0.00     0.034 A 
ATOM     56  C   UNL A   1      40.809  30.698  30.474  1.00  0.00     0.034 A 
ATOM     57  C   UNL A   1      46.375  29.381  27.349  1.00  0.00     0.049 A 
ATOM     58  C   UNL A   1      42.093  31.458  30.286  1.00  0.00     0.074 A 
ATOM     59  C   UNL A   1      47.483  30.196  27.196  1.00  0.00     0.029 A 
ATOM     60  N   UNL A   1      45.445  30.106  28.078  1.00  0.00    -0.354 N 
ATOM     61  N   UNL A   1      43.154  31.131  29.587  1.00  0.00    -0.248 NA
ATOM     62  C   UNL A   1      42.184  32.774  30.934  1.00  0.00     0.031 C 
ATOM     63  C   UNL A   1      47.230  31.406  27.852  1.00  0.00     0.029 A 
ATOM     64  C   UNL A   1      45.955  31.355  28.392  1.00  0.00     0.049 A 
ATOM     65  H   UNL A   1      44.551  29.782  28.334  1.00  0.00     0.167 HD
ATOM     66  C   UNL A   1      44.018  32.215  29.676  1.00  0.00     0.074 A 
ATOM     67  C   UNL A   1      43.349  33.217  30.480  1.00  0.00     0.031 C 
ATOM     68  C   UNL A   1      45.259  32.364  29.149  1.00  0.00     0.034 A 
BRANCH  55  69
ATOM     69  C   UNL A   1      47.323  27.350  26.174  1.00  0.00     0.023 A 
ATOM     70  C   UNL A   1      47.418  27.414  24.768  1.00  0.00     0.012 A 
ATOM     71  C   UNL A   1      48.326  26.682  26.901  1.00  0.00     0.148 A 
ATOM     72  C   UNL A   1      48.467  26.788  24.095  1.00  0.00     0.002 A 
ATOM     73  C   UNL A   1      49.395  26.099  26.227  1.00  0.00     0.091 A 
ATOM     74  F   UNL A   1      48.211  26.609  28.235  1.00  0.00    -0.205 F 
ATOM     75  C   UNL A   1      49.460  26.139  24.825  1.00  0.00     0.022 A 
BRANCH  73  76
ATOM     76  S   UNL A   1      50.764  25.314  27.086  1.00  0.00     0.127 S 
ATOM     77  O   UNL A   1      51.256  26.407  27.921  1.00  0.00    -0.237 OA
ATOM     78  O   UNL A   1      50.095  24.239  27.820  1.00  0.00    -0.237 OA
ATOM     79  O   UNL A   1      51.675  24.856  26.045  1.00  0.00    -0.744 OA
ENDBRANCH  73  76
ENDBRANCH  55  69
BRANCH  56  80
ATOM     80  C   UNL A   1      39.668  31.298  31.223  1.00  0.00     0.023 A 
ATOM     81  C   UNL A   1      38.605  31.877  30.500  1.00  0.00     0.012 A 
ATOM     82  C   UNL A   1      39.608  31.271  32.629  1.00  0.00     0.148 A 
ATOM     83  C   UNL A   1      37.520  32.447  31.164  1.00  0.00     0.002 A 
ATOM     84  C   UNL A   1      38.498  31.795  33.283  1.00  0.00     0.091 A 
ATOM     85  F   UNL A   1      40.633  30.725  33.298  1.00  0.00    -0.205 F 
ATOM     86  C   UNL A   1      37.461  32.398  32.554  1.00  0.00     0.022 A 
BRANCH  84  87
ATOM     87  S   UNL A   1      38.274  31.663  35.060  1.00  0.00     0.127 S 
ATOM     88  O   UNL A   1      36.985  32.324  35.249  1.00  0.00    -0.237 OA
ATOM     89  O   UNL A   1      38.257  30.213  35.257  1.00  0.00    -0.237 OA
ATOM     90  O   UNL A   1      39.422  32.336  35.653  1.00  0.00    -0.744 OA
ENDBRANCH  84  87
ENDBRANCH  56  80
BRANCH  68  91
ATOM     91  C   UNL A   1      45.965  33.674  29.391  1.00  0.00     0.023 A 
ATOM     92  C   UNL A   1      46.670  33.880  30.593  1.00  0.00     0.012 A 
ATOM     93  C   UNL A   1      45.975  34.679  28.404  1.00  0.00     0.148 A 
ATOM     94  C   UNL A   1      47.337  35.083  30.827  1.00  0.00     0.002 A 
ATOM     95  C   UNL A   1      46.684  35.854  28.624  1.00  0.00     0.091 A 
ATOM     96  F   UNL A   1      45.282  34.476  27.274  1.00  0.00    -0.205 F 
ATOM     97  C   UNL A   1      47.354  36.064  29.839  1.00  0.00     0.022 A 
BRANCH  95  98
ATOM     98  S   UNL A   1      46.837  37.125  27.362  1.00  0.00     0.127 S 
ATOM     99  O   UNL A   1      47.600  38.154  28.065  1.00  0.00    -0.237 OA
ATOM    100  O   UNL A   1      47.578  36.431  26.307  1.00  0.00    -0.237 OA
ATOM    101  O   UNL A   1      45.475  37.488  26.998  1.00  0.00    -0.744 OA
ENDBRANCH  95  98
ENDBRANCH  68  91
ENDBRANCH  42  43
ENDBRANCH  34  37
ENDBRANCH  32  33
ENDBRANCH  31  32
ENDBRANCH   1  31
TORSDOF 20
ENDMDL
