MODEL 1
REMARK VINA RESULT:     -11.0      0.000      0.000
REMARK SMILES COCCn1nnc(C(=O)NCCCCNC(=O)c2ccc(-c3c4nc(c(-c5cccc(S(=O)(=O)[O-])c5F)c5ccc([nH]5)c(-c5cccc(S(=O)(=O)[O-])c5F)c5nc(c(-c6cccc(S(=O)(=O)[O-])c6F)c6ccc3[nH]6)C=C5)C=C4)cc2)c1C(F)(F)F
REMARK SMILES IDX 13 1 12 2 11 3 9 4 10 5 8 7 5 8 6 9 82 10 7 11 4 12 3 13
REMARK SMILES IDX 2 14 1 15 83 16 84 17 85 18 86 19 14 20 15 21 16 22 17 23
REMARK SMILES IDX 18 25 19 26 20 27 81 28 21 29 80 30 22 31 23 32 24 33 74 34
REMARK SMILES IDX 25 35 79 36 73 37 75 38 26 39 78 40 72 41 71 42 27 44 59 45
REMARK SMILES IDX 39 46 58 47 40 48 43 49 57 50 76 51 41 52 42 53 56 55 77 56
REMARK SMILES IDX 44 57 28 58 29 59 37 60 30 61 32 62 38 63 31 64 33 65 34 66
REMARK SMILES IDX 35 67 36 68 60 69 61 70 69 71 62 72 64 73 70 74 63 75 65 76
REMARK SMILES IDX 66 77 67 78 68 79 45 80 46 81 54 82 47 83 49 84 55 85 48 86
REMARK SMILES IDX 50 87 51 88 52 89 53 90
REMARK H PARENT 11 6 16 24 75 43 43 54
REMARK Flexibility Score: inf
ROOT
ATOM      1  C   UNL A   1      31.666  30.240  26.237  1.00  0.00     0.023 C 
ENDROOT
BRANCH   1   2
ATOM      2  C   UNL A   1      32.560  29.901  25.039  1.00  0.00     0.116 C 
BRANCH   2   3
ATOM      3  N   UNL A   1      31.845  29.533  23.835  1.00  0.00    -0.351 N 
ATOM      4  C   UNL A   1      31.146  28.444  23.388  1.00  0.00     0.274 C 
ATOM      5  O   UNL A   1      30.652  28.575  22.264  1.00  0.00    -0.267 OA
ATOM      6  H   UNL A   1      31.866  30.252  23.164  1.00  0.00     0.163 HD
BRANCH   4   7
ATOM      7  C   UNL A   1      31.073  27.150  24.067  1.00  0.00     0.182 A 
ATOM      8  N   UNL A   1      31.200  25.191  25.005  1.00  0.00    -0.237 N 
ATOM      9  N   UNL A   1      29.897  25.474  24.892  1.00  0.00    -0.066 NA
ATOM     10  C   UNL A   1      31.985  26.240  24.586  1.00  0.00     0.175 A 
ATOM     11  N   UNL A   1      29.801  26.660  24.328  1.00  0.00    -0.124 NA
BRANCH   8  12
ATOM     12  C   UNL A   1      31.546  23.838  25.389  1.00  0.00     0.175 C 
BRANCH  12  13
ATOM     13  C   UNL A   1      31.866  23.738  26.877  1.00  0.00     0.183 C 
BRANCH  13  14
ATOM     14  O   UNL A   1      30.795  23.123  27.595  1.00  0.00    -0.383 OA
ATOM     15  C   UNL A   1      29.817  22.540  26.738  1.00  0.00     0.194 C 
ENDBRANCH  13  14
ENDBRANCH  12  13
ENDBRANCH   8  12
BRANCH  10  16
ATOM     16  C   UNL A   1      33.443  26.221  24.721  1.00  0.00     0.435 C 
ATOM     17  F   UNL A   1      33.947  24.983  24.485  1.00  0.00    -0.164 F 
ATOM     18  F   UNL A   1      34.053  27.074  23.867  1.00  0.00    -0.164 F 
ATOM     19  F   UNL A   1      33.871  26.571  25.960  1.00  0.00    -0.164 F 
ENDBRANCH  10  16
ENDBRANCH   4   7
ENDBRANCH   2   3
ENDBRANCH   1   2
BRANCH   1  20
ATOM     20  C   UNL A   1      31.505  31.747  26.505  1.00  0.00     0.023 C 
BRANCH  20  21
ATOM     21  C   UNL A   1      32.635  32.386  27.312  1.00  0.00     0.116 C 
BRANCH  21  22
ATOM     22  N   UNL A   1      32.450  33.817  27.572  1.00  0.00    -0.352 N 
ATOM     23  C   UNL A   1      33.055  34.547  28.582  1.00  0.00     0.251 C 
ATOM     24  H   UNL A   1      31.841  34.305  26.973  1.00  0.00     0.163 HD
ATOM     25  O   UNL A   1      32.543  35.577  29.026  1.00  0.00    -0.269 OA
BRANCH  23  26
ATOM     26  C   UNL A   1      34.358  34.080  29.084  1.00  0.00     0.039 A 
ATOM     27  C   UNL A   1      34.501  33.331  30.258  1.00  0.00     0.014 A 
ATOM     28  C   UNL A   1      35.456  34.364  28.275  1.00  0.00     0.014 A 
ATOM     29  C   UNL A   1      35.757  32.807  30.563  1.00  0.00     0.010 A 
ATOM     30  C   UNL A   1      36.633  33.699  28.479  1.00  0.00     0.010 A 
ATOM     31  C   UNL A   1      36.817  32.981  29.654  1.00  0.00    -0.014 A 
BRANCH  31  32
ATOM     32  C   UNL A   1      38.083  32.267  29.794  1.00  0.00     0.031 A 
ATOM     33  C   UNL A   1      38.007  30.883  29.251  1.00  0.00     0.074 A 
ATOM     34  C   UNL A   1      39.236  32.895  30.139  1.00  0.00     0.049 A 
ATOM     35  N   UNL A   1      37.939  29.781  29.924  1.00  0.00    -0.248 NA
ATOM     36  C   UNL A   1      37.731  30.703  27.812  1.00  0.00     0.031 C 
ATOM     37  C   UNL A   1      39.423  34.338  30.376  1.00  0.00     0.029 A 
ATOM     38  N   UNL A   1      40.514  32.426  30.224  1.00  0.00    -0.354 N 
ATOM     39  C   UNL A   1      37.964  28.770  28.962  1.00  0.00     0.074 A 
ATOM     40  C   UNL A   1      37.534  29.384  27.740  1.00  0.00     0.031 C 
ATOM     41  C   UNL A   1      40.738  34.648  30.319  1.00  0.00     0.029 A 
ATOM     42  C   UNL A   1      41.500  33.419  30.222  1.00  0.00     0.049 A 
ATOM     43  H   UNL A   1      40.725  31.466  30.282  1.00  0.00     0.167 HD
ATOM     44  C   UNL A   1      38.716  27.651  29.175  1.00  0.00     0.034 A 
ATOM     45  C   UNL A   1      42.845  33.246  30.138  1.00  0.00     0.034 A 
ATOM     46  C   UNL A   1      39.144  27.611  30.553  1.00  0.00     0.049 A 
ATOM     47  C   UNL A   1      43.120  31.858  30.553  1.00  0.00     0.074 A 
ATOM     48  C   UNL A   1      38.562  27.411  31.785  1.00  0.00     0.029 A 
ATOM     49  N   UNL A   1      40.331  28.268  30.753  1.00  0.00    -0.354 N 
ATOM     50  N   UNL A   1      42.922  31.439  31.770  1.00  0.00    -0.248 NA
ATOM     51  C   UNL A   1      43.245  30.824  29.537  1.00  0.00     0.031 C 
ATOM     52  C   UNL A   1      39.358  28.147  32.713  1.00  0.00     0.029 A 
ATOM     53  C   UNL A   1      40.444  28.705  32.040  1.00  0.00     0.049 A 
ATOM     54  H   UNL A   1      41.013  28.407  30.057  1.00  0.00     0.167 HD
ATOM     55  C   UNL A   1      42.408  30.169  31.589  1.00  0.00     0.074 A 
ATOM     56  C   UNL A   1      42.813  29.775  30.244  1.00  0.00     0.031 C 
ATOM     57  C   UNL A   1      41.417  29.710  32.404  1.00  0.00     0.034 A 
BRANCH  44  58
ATOM     58  C   UNL A   1      39.538  26.905  28.125  1.00  0.00     0.023 A 
ATOM     59  C   UNL A   1      39.423  25.491  28.126  1.00  0.00     0.012 A 
ATOM     60  C   UNL A   1      40.611  27.443  27.379  1.00  0.00     0.148 A 
ATOM     61  C   UNL A   1      40.363  24.668  27.491  1.00  0.00     0.002 A 
ATOM     62  C   UNL A   1      41.513  26.624  26.704  1.00  0.00     0.091 A 
ATOM     63  F   UNL A   1      40.854  28.752  27.395  1.00  0.00    -0.205 F 
ATOM     64  C   UNL A   1      41.412  25.235  26.782  1.00  0.00     0.022 A 
BRANCH  62  65
ATOM     65  S   UNL A   1      42.885  27.303  25.758  1.00  0.00     0.127 S 
ATOM     66  O   UNL A   1      43.569  26.088  25.326  1.00  0.00    -0.237 OA
ATOM     67  O   UNL A   1      42.182  28.032  24.703  1.00  0.00    -0.237 OA
ATOM     68  O   UNL A   1      43.626  28.153  26.682  1.00  0.00    -0.744 OA
ENDBRANCH  62  65
ENDBRANCH  44  58
BRANCH  45  69
ATOM     69  C   UNL A   1      43.931  34.088  29.578  1.00  0.00     0.023 A 
ATOM     70  C   UNL A   1      44.822  34.769  30.436  1.00  0.00     0.012 A 
ATOM     71  C   UNL A   1      44.292  33.948  28.222  1.00  0.00     0.148 A 
ATOM     72  C   UNL A   1      46.052  35.253  29.970  1.00  0.00     0.002 A 
ATOM     73  C   UNL A   1      45.520  34.422  27.765  1.00  0.00     0.091 A 
ATOM     74  F   UNL A   1      43.469  33.268  27.413  1.00  0.00    -0.205 F 
ATOM     75  C   UNL A   1      46.409  35.064  28.638  1.00  0.00     0.022 A 
BRANCH  73  76
ATOM     76  S   UNL A   1      46.084  34.164  26.076  1.00  0.00     0.127 S 
ATOM     77  O   UNL A   1      45.035  34.834  25.308  1.00  0.00    -0.237 OA
ATOM     78  O   UNL A   1      47.374  34.849  26.082  1.00  0.00    -0.237 OA
ATOM     79  O   UNL A   1      46.141  32.720  25.895  1.00  0.00    -0.744 OA
ENDBRANCH  73  76
ENDBRANCH  45  69
BRANCH  57  80
ATOM     80  C   UNL A   1      41.250  30.384  33.732  1.00  0.00     0.023 A 
ATOM     81  C   UNL A   1      42.155  30.245  34.804  1.00  0.00     0.012 A 
ATOM     82  C   UNL A   1      40.176  31.275  33.851  1.00  0.00     0.148 A 
ATOM     83  C   UNL A   1      41.972  30.977  35.982  1.00  0.00     0.002 A 
ATOM     84  C   UNL A   1      40.024  32.032  35.000  1.00  0.00     0.091 A 
ATOM     85  F   UNL A   1      39.327  31.380  32.817  1.00  0.00    -0.205 F 
ATOM     86  C   UNL A   1      40.914  31.881  36.074  1.00  0.00     0.022 A 
BRANCH  84  87
ATOM     87  S   UNL A   1      38.750  33.285  35.118  1.00  0.00     0.127 S 
ATOM     88  O   UNL A   1      37.530  32.487  35.025  1.00  0.00    -0.237 OA
ATOM     89  O   UNL A   1      39.006  33.866  36.436  1.00  0.00    -0.237 OA
ATOM     90  O   UNL A   1      38.984  34.202  34.009  1.00  0.00    -0.744 OA
ENDBRANCH  84  87
ENDBRANCH  57  80
ENDBRANCH  31  32
ENDBRANCH  23  26
ENDBRANCH  21  22
ENDBRANCH  20  21
ENDBRANCH   1  20
TORSDOF 18
ENDMDL
MODEL 2
REMARK VINA RESULT:     -10.8      5.441     12.139
REMARK SMILES COCCn1nnc(C(=O)NCCCCNC(=O)c2ccc(-c3c4nc(c(-c5cccc(S(=O)(=O)[O-])c5F)c5ccc([nH]5)c(-c5cccc(S(=O)(=O)[O-])c5F)c5nc(c(-c6cccc(S(=O)(=O)[O-])c6F)c6ccc3[nH]6)C=C5)C=C4)cc2)c1C(F)(F)F
REMARK SMILES IDX 13 1 12 2 11 3 9 4 10 5 8 7 5 8 6 9 82 10 7 11 4 12 3 13
REMARK SMILES IDX 2 14 1 15 83 16 84 17 85 18 86 19 14 20 15 21 16 22 17 23
REMARK SMILES IDX 18 25 19 26 20 27 81 28 21 29 80 30 22 31 23 32 24 33 74 34
REMARK SMILES IDX 25 35 79 36 73 37 75 38 26 39 78 40 72 41 71 42 27 44 59 45
REMARK SMILES IDX 39 46 58 47 40 48 43 49 57 50 76 51 41 52 42 53 56 55 77 56
REMARK SMILES IDX 44 57 28 58 29 59 37 60 30 61 32 62 38 63 31 64 33 65 34 66
REMARK SMILES IDX 35 67 36 68 60 69 61 70 69 71 62 72 64 73 70 74 63 75 65 76
REMARK SMILES IDX 66 77 67 78 68 79 45 80 46 81 54 82 47 83 49 84 55 85 48 86
REMARK SMILES IDX 50 87 51 88 52 89 53 90
REMARK H PARENT 11 6 16 24 75 43 43 54
REMARK Flexibility Score: inf
ROOT
ATOM      1  C   UNL A   1      45.210  21.172  24.211  1.00  0.00     0.023 C 
ENDROOT
BRANCH   1   2
ATOM      2  C   UNL A   1      46.382  22.054  24.657  1.00  0.00     0.116 C 
BRANCH   2   3
ATOM      3  N   UNL A   1      46.039  23.069  25.630  1.00  0.00    -0.351 N 
ATOM      4  C   UNL A   1      46.427  24.352  25.907  1.00  0.00     0.274 C 
ATOM      5  O   UNL A   1      45.826  24.882  26.847  1.00  0.00    -0.267 OA
ATOM      6  H   UNL A   1      45.346  22.756  26.256  1.00  0.00     0.163 HD
BRANCH   4   7
ATOM      7  C   UNL A   1      47.552  25.049  25.282  1.00  0.00     0.182 A 
ATOM      8  N   UNL A   1      49.296  26.144  24.583  1.00  0.00    -0.237 N 
ATOM      9  N   UNL A   1      48.482  26.014  23.529  1.00  0.00    -0.066 NA
ATOM     10  C   UNL A   1      48.807  25.484  25.686  1.00  0.00     0.175 A 
ATOM     11  N   UNL A   1      47.420  25.349  23.933  1.00  0.00    -0.124 NA
BRANCH   8  12
ATOM     12  C   UNL A   1      50.424  27.041  24.433  1.00  0.00     0.175 C 
BRANCH  12  13
ATOM     13  C   UNL A   1      50.435  27.709  23.062  1.00  0.00     0.183 C 
BRANCH  13  14
ATOM     14  O   UNL A   1      50.986  29.025  23.133  1.00  0.00    -0.383 OA
ATOM     15  C   UNL A   1      51.941  29.168  24.180  1.00  0.00     0.194 C 
ENDBRANCH  13  14
ENDBRANCH  12  13
ENDBRANCH   8  12
BRANCH  10  16
ATOM     16  C   UNL A   1      49.572  25.379  26.930  1.00  0.00     0.435 C 
ATOM     17  F   UNL A   1      50.770  24.774  26.728  1.00  0.00    -0.164 F 
ATOM     18  F   UNL A   1      49.818  26.585  27.490  1.00  0.00    -0.164 F 
ATOM     19  F   UNL A   1      48.941  24.651  27.886  1.00  0.00    -0.164 F 
ENDBRANCH  10  16
ENDBRANCH   4   7
ENDBRANCH   2   3
ENDBRANCH   1   2
BRANCH   1  20
ATOM     20  C   UNL A   1      45.428  19.665  24.435  1.00  0.00     0.023 C 
BRANCH  20  21
ATOM     21  C   UNL A   1      44.580  19.046  25.546  1.00  0.00     0.116 C 
BRANCH  21  22
ATOM     22  N   UNL A   1      43.153  18.939  25.222  1.00  0.00    -0.352 N 
ATOM     23  C   UNL A   1      42.129  19.669  25.803  1.00  0.00     0.251 C 
ATOM     24  H   UNL A   1      42.901  18.290  24.528  1.00  0.00     0.163 HD
ATOM     25  O   UNL A   1      40.972  19.241  25.834  1.00  0.00    -0.269 OA
BRANCH  23  26
ATOM     26  C   UNL A   1      42.451  20.999  26.346  1.00  0.00     0.039 A 
ATOM     27  C   UNL A   1      42.506  22.153  25.557  1.00  0.00     0.014 A 
ATOM     28  C   UNL A   1      42.630  21.062  27.726  1.00  0.00     0.014 A 
ATOM     29  C   UNL A   1      42.667  23.385  26.193  1.00  0.00     0.010 A 
ATOM     30  C   UNL A   1      42.602  22.277  28.354  1.00  0.00     0.010 A 
ATOM     31  C   UNL A   1      42.695  23.438  27.598  1.00  0.00    -0.014 A 
BRANCH  31  32
ATOM     32  C   UNL A   1      42.625  24.702  28.327  1.00  0.00     0.031 A 
ATOM     33  C   UNL A   1      41.345  25.420  28.077  1.00  0.00     0.074 A 
ATOM     34  C   UNL A   1      43.512  25.026  29.302  1.00  0.00     0.049 A 
ATOM     35  N   UNL A   1      41.167  26.467  27.338  1.00  0.00    -0.248 NA
ATOM     36  C   UNL A   1      40.083  24.778  28.489  1.00  0.00     0.031 C 
ATOM     37  C   UNL A   1      44.617  24.193  29.810  1.00  0.00     0.029 A 
ATOM     38  N   UNL A   1      43.553  26.096  30.147  1.00  0.00    -0.354 N 
ATOM     39  C   UNL A   1      39.819  26.792  27.495  1.00  0.00     0.074 A 
ATOM     40  C   UNL A   1      39.177  25.588  27.935  1.00  0.00     0.031 C 
ATOM     41  C   UNL A   1      45.036  24.662  31.007  1.00  0.00     0.029 A 
ATOM     42  C   UNL A   1      44.365  25.919  31.274  1.00  0.00     0.049 A 
ATOM     43  H   UNL A   1      43.051  26.927  29.978  1.00  0.00     0.167 HD
ATOM     44  C   UNL A   1      39.450  28.098  27.639  1.00  0.00     0.034 A 
ATOM     45  C   UNL A   1      44.472  26.739  32.351  1.00  0.00     0.034 A 
ATOM     46  C   UNL A   1      40.563  28.955  27.308  1.00  0.00     0.049 A 
ATOM     47  C   UNL A   1      43.994  28.066  31.922  1.00  0.00     0.074 A 
ATOM     48  C   UNL A   1      41.259  29.313  26.175  1.00  0.00     0.029 A 
ATOM     49  N   UNL A   1      41.365  29.215  28.389  1.00  0.00    -0.354 N 
ATOM     50  N   UNL A   1      44.621  28.785  31.037  1.00  0.00    -0.248 NA
ATOM     51  C   UNL A   1      42.610  28.439  32.178  1.00  0.00     0.031 C 
ATOM     52  C   UNL A   1      42.582  29.618  26.612  1.00  0.00     0.029 A 
ATOM     53  C   UNL A   1      42.636  29.518  28.003  1.00  0.00     0.049 A 
ATOM     54  H   UNL A   1      41.061  29.186  29.325  1.00  0.00     0.167 HD
ATOM     55  C   UNL A   1      43.599  29.340  30.293  1.00  0.00     0.074 A 
ATOM     56  C   UNL A   1      42.415  29.263  31.144  1.00  0.00     0.031 C 
ATOM     57  C   UNL A   1      43.732  29.483  28.944  1.00  0.00     0.034 A 
BRANCH  44  58
ATOM     58  C   UNL A   1      38.362  28.628  28.571  1.00  0.00     0.023 A 
ATOM     59  C   UNL A   1      37.328  29.385  27.963  1.00  0.00     0.012 A 
ATOM     60  C   UNL A   1      38.445  28.704  29.980  1.00  0.00     0.148 A 
ATOM     61  C   UNL A   1      36.486  30.225  28.704  1.00  0.00     0.002 A 
ATOM     62  C   UNL A   1      37.572  29.498  30.719  1.00  0.00     0.091 A 
ATOM     63  F   UNL A   1      39.439  28.102  30.630  1.00  0.00    -0.205 F 
ATOM     64  C   UNL A   1      36.610  30.284  30.085  1.00  0.00     0.022 A 
BRANCH  62  65
ATOM     65  S   UNL A   1      37.676  29.604  32.513  1.00  0.00     0.127 S 
ATOM     66  O   UNL A   1      36.605  30.551  32.811  1.00  0.00    -0.237 OA
ATOM     67  O   UNL A   1      37.413  28.220  32.905  1.00  0.00    -0.237 OA
ATOM     68  O   UNL A   1      39.028  30.063  32.808  1.00  0.00    -0.744 OA
ENDBRANCH  62  65
ENDBRANCH  44  58
BRANCH  45  69
ATOM     69  C   UNL A   1      44.787  26.483  33.778  1.00  0.00     0.023 A 
ATOM     70  C   UNL A   1      46.071  26.776  34.290  1.00  0.00     0.012 A 
ATOM     71  C   UNL A   1      43.738  26.275  34.696  1.00  0.00     0.148 A 
ATOM     72  C   UNL A   1      46.291  26.902  35.669  1.00  0.00     0.002 A 
ATOM     73  C   UNL A   1      43.959  26.411  36.065  1.00  0.00     0.091 A 
ATOM     74  F   UNL A   1      42.511  26.036  34.214  1.00  0.00    -0.205 F 
ATOM     75  C   UNL A   1      45.231  26.737  36.555  1.00  0.00     0.022 A 
BRANCH  73  76
ATOM     76  S   UNL A   1      42.632  26.276  37.273  1.00  0.00     0.127 S 
ATOM     77  O   UNL A   1      42.125  24.930  37.006  1.00  0.00    -0.237 OA
ATOM     78  O   UNL A   1      43.357  26.419  38.533  1.00  0.00    -0.237 OA
ATOM     79  O   UNL A   1      41.701  27.350  36.958  1.00  0.00    -0.744 OA
ENDBRANCH  73  76
ENDBRANCH  45  69
BRANCH  57  80
ATOM     80  C   UNL A   1      45.123  29.481  28.387  1.00  0.00     0.023 A 
ATOM     81  C   UNL A   1      45.818  28.313  28.013  1.00  0.00     0.012 A 
ATOM     82  C   UNL A   1      45.702  30.733  28.144  1.00  0.00     0.148 A 
ATOM     83  C   UNL A   1      47.082  28.403  27.419  1.00  0.00     0.002 A 
ATOM     84  C   UNL A   1      46.932  30.820  27.515  1.00  0.00     0.091 A 
ATOM     85  F   UNL A   1      45.020  31.826  28.519  1.00  0.00    -0.205 F 
ATOM     86  C   UNL A   1      47.633  29.657  27.158  1.00  0.00     0.022 A 
BRANCH  84  87
ATOM     87  S   UNL A   1      47.625  32.407  27.058  1.00  0.00     0.127 S 
ATOM     88  O   UNL A   1      47.706  33.086  28.348  1.00  0.00    -0.237 OA
ATOM     89  O   UNL A   1      48.915  32.029  26.480  1.00  0.00    -0.237 OA
ATOM     90  O   UNL A   1      46.694  32.991  26.100  1.00  0.00    -0.744 OA
ENDBRANCH  84  87
ENDBRANCH  57  80
ENDBRANCH  31  32
ENDBRANCH  23  26
ENDBRANCH  21  22
ENDBRANCH  20  21
ENDBRANCH   1  20
TORSDOF 18
ENDMDL
MODEL 3
REMARK VINA RESULT:     -10.7      4.131      9.263
REMARK SMILES COCCn1nnc(C(=O)NCCCCNC(=O)c2ccc(-c3c4nc(c(-c5cccc(S(=O)(=O)[O-])c5F)c5ccc([nH]5)c(-c5cccc(S(=O)(=O)[O-])c5F)c5nc(c(-c6cccc(S(=O)(=O)[O-])c6F)c6ccc3[nH]6)C=C5)C=C4)cc2)c1C(F)(F)F
REMARK SMILES IDX 13 1 12 2 11 3 9 4 10 5 8 7 5 8 6 9 82 10 7 11 4 12 3 13
REMARK SMILES IDX 2 14 1 15 83 16 84 17 85 18 86 19 14 20 15 21 16 22 17 23
REMARK SMILES IDX 18 25 19 26 20 27 81 28 21 29 80 30 22 31 23 32 24 33 74 34
REMARK SMILES IDX 25 35 79 36 73 37 75 38 26 39 78 40 72 41 71 42 27 44 59 45
REMARK SMILES IDX 39 46 58 47 40 48 43 49 57 50 76 51 41 52 42 53 56 55 77 56
REMARK SMILES IDX 44 57 28 58 29 59 37 60 30 61 32 62 38 63 31 64 33 65 34 66
REMARK SMILES IDX 35 67 36 68 60 69 61 70 69 71 62 72 64 73 70 74 63 75 65 76
REMARK SMILES IDX 66 77 67 78 68 79 45 80 46 81 54 82 47 83 49 84 55 85 48 86
REMARK SMILES IDX 50 87 51 88 52 89 53 90
REMARK H PARENT 11 6 16 24 75 43 43 54
REMARK Flexibility Score: inf
ROOT
ATOM      1  C   UNL A   1      38.986  22.786  26.171  1.00  0.00     0.023 C 
ENDROOT
BRANCH   1   2
ATOM      2  C   UNL A   1      37.572  23.195  25.743  1.00  0.00     0.116 C 
BRANCH   2   3
ATOM      3  N   UNL A   1      37.292  23.021  24.334  1.00  0.00    -0.351 N 
ATOM      4  C   UNL A   1      36.202  23.137  23.515  1.00  0.00     0.274 C 
ATOM      5  O   UNL A   1      36.427  22.918  22.321  1.00  0.00    -0.267 OA
ATOM      6  H   UNL A   1      38.095  22.748  23.833  1.00  0.00     0.163 HD
BRANCH   4   7
ATOM      7  C   UNL A   1      34.826  23.356  23.965  1.00  0.00     0.182 A 
ATOM      8  N   UNL A   1      32.755  23.432  24.627  1.00  0.00    -0.237 N 
ATOM      9  N   UNL A   1      33.064  24.663  24.200  1.00  0.00    -0.066 NA
ATOM     10  C   UNL A   1      33.845  22.594  24.586  1.00  0.00     0.175 A 
ATOM     11  N   UNL A   1      34.317  24.636  23.798  1.00  0.00    -0.124 NA
BRANCH   8  12
ATOM     12  C   UNL A   1      31.359  23.165  24.903  1.00  0.00     0.175 C 
BRANCH  12  13
ATOM     13  C   UNL A   1      30.875  23.913  26.141  1.00  0.00     0.183 C 
BRANCH  13  14
ATOM     14  O   UNL A   1      30.651  23.018  27.231  1.00  0.00    -0.383 OA
ATOM     15  C   UNL A   1      29.277  22.676  27.391  1.00  0.00     0.194 C 
ENDBRANCH  13  14
ENDBRANCH  12  13
ENDBRANCH   8  12
BRANCH  10  16
ATOM     16  C   UNL A   1      33.793  21.228  25.110  1.00  0.00     0.435 C 
ATOM     17  F   UNL A   1      34.976  20.586  24.941  1.00  0.00    -0.164 F 
ATOM     18  F   UNL A   1      33.500  21.190  26.430  1.00  0.00    -0.164 F 
ATOM     19  F   UNL A   1      32.857  20.456  24.502  1.00  0.00    -0.164 F 
ENDBRANCH  10  16
ENDBRANCH   4   7
ENDBRANCH   2   3
ENDBRANCH   1   2
BRANCH   1  20
ATOM     20  C   UNL A   1      39.134  21.299  26.539  1.00  0.00     0.023 C 
BRANCH  20  21
ATOM     21  C   UNL A   1      39.508  20.379  25.377  1.00  0.00     0.116 C 
BRANCH  21  22
ATOM     22  N   UNL A   1      40.469  19.329  25.730  1.00  0.00    -0.352 N 
ATOM     23  C   UNL A   1      41.813  19.514  26.011  1.00  0.00     0.251 C 
ATOM     24  H   UNL A   1      40.128  18.407  25.770  1.00  0.00     0.163 HD
ATOM     25  O   UNL A   1      42.634  18.608  25.851  1.00  0.00    -0.269 OA
BRANCH  23  26
ATOM     26  C   UNL A   1      42.230  20.819  26.552  1.00  0.00     0.039 A 
ATOM     27  C   UNL A   1      42.565  21.910  25.743  1.00  0.00     0.014 A 
ATOM     28  C   UNL A   1      42.201  20.935  27.939  1.00  0.00     0.014 A 
ATOM     29  C   UNL A   1      42.796  23.143  26.352  1.00  0.00     0.010 A 
ATOM     30  C   UNL A   1      42.246  22.176  28.513  1.00  0.00     0.010 A 
ATOM     31  C   UNL A   1      42.614  23.271  27.741  1.00  0.00    -0.014 A 
BRANCH  31  32
ATOM     32  C   UNL A   1      42.609  24.572  28.405  1.00  0.00     0.031 A 
ATOM     33  C   UNL A   1      41.365  25.339  28.121  1.00  0.00     0.074 A 
ATOM     34  C   UNL A   1      43.514  24.901  29.361  1.00  0.00     0.049 A 
ATOM     35  N   UNL A   1      41.236  26.354  27.330  1.00  0.00    -0.248 NA
ATOM     36  C   UNL A   1      40.074  24.781  28.567  1.00  0.00     0.031 C 
ATOM     37  C   UNL A   1      44.579  24.042  29.909  1.00  0.00     0.029 A 
ATOM     38  N   UNL A   1      43.611  26.010  30.151  1.00  0.00    -0.354 N 
ATOM     39  C   UNL A   1      39.906  26.752  27.471  1.00  0.00     0.074 A 
ATOM     40  C   UNL A   1      39.207  25.606  27.973  1.00  0.00     0.031 C 
ATOM     41  C   UNL A   1      45.025  24.549  31.080  1.00  0.00     0.029 A 
ATOM     42  C   UNL A   1      44.417  25.850  31.284  1.00  0.00     0.049 A 
ATOM     43  H   UNL A   1      43.150  26.854  29.941  1.00  0.00     0.167 HD
ATOM     44  C   UNL A   1      39.602  28.080  27.549  1.00  0.00     0.034 A 
ATOM     45  C   UNL A   1      44.569  26.717  32.318  1.00  0.00     0.034 A 
ATOM     46  C   UNL A   1      40.754  28.864  27.174  1.00  0.00     0.049 A 
ATOM     47  C   UNL A   1      44.154  28.042  31.823  1.00  0.00     0.074 A 
ATOM     48  C   UNL A   1      41.462  29.130  26.023  1.00  0.00     0.029 A 
ATOM     49  N   UNL A   1      41.572  29.139  28.240  1.00  0.00    -0.354 N 
ATOM     50  N   UNL A   1      44.813  28.684  30.901  1.00  0.00    -0.248 NA
ATOM     51  C   UNL A   1      42.792  28.496  32.061  1.00  0.00     0.031 C 
ATOM     52  C   UNL A   1      42.800  29.392  26.443  1.00  0.00     0.029 A 
ATOM     53  C   UNL A   1      42.855  29.359  27.836  1.00  0.00     0.049 A 
ATOM     54  H   UNL A   1      41.270  29.172  29.177  1.00  0.00     0.167 HD
ATOM     55  C   UNL A   1      43.816  29.250  30.132  1.00  0.00     0.074 A 
ATOM     56  C   UNL A   1      42.633  29.275  30.987  1.00  0.00     0.031 C 
ATOM     57  C   UNL A   1      43.951  29.318  28.777  1.00  0.00     0.034 A 
BRANCH  44  58
ATOM     58  C   UNL A   1      38.544  28.710  28.455  1.00  0.00     0.023 A 
ATOM     59  C   UNL A   1      37.701  29.681  27.855  1.00  0.00     0.012 A 
ATOM     60  C   UNL A   1      38.526  28.655  29.867  1.00  0.00     0.148 A 
ATOM     61  C   UNL A   1      36.952  30.588  28.616  1.00  0.00     0.002 A 
ATOM     62  C   UNL A   1      37.738  29.522  30.620  1.00  0.00     0.091 A 
ATOM     63  F   UNL A   1      39.352  27.840  30.520  1.00  0.00    -0.205 F 
ATOM     64  C   UNL A   1      36.973  30.511  30.002  1.00  0.00     0.022 A 
BRANCH  62  65
ATOM     65  S   UNL A   1      37.715  29.461  32.419  1.00  0.00     0.127 S 
ATOM     66  O   UNL A   1      39.007  30.058  32.746  1.00  0.00    -0.237 OA
ATOM     67  O   UNL A   1      36.549  30.289  32.725  1.00  0.00    -0.237 OA
ATOM     68  O   UNL A   1      37.559  28.054  32.769  1.00  0.00    -0.744 OA
ENDBRANCH  62  65
ENDBRANCH  44  58
BRANCH  45  69
ATOM     69  C   UNL A   1      44.877  26.519  33.756  1.00  0.00     0.023 A 
ATOM     70  C   UNL A   1      46.135  26.894  34.276  1.00  0.00     0.012 A 
ATOM     71  C   UNL A   1      43.827  26.280  34.666  1.00  0.00     0.148 A 
ATOM     72  C   UNL A   1      46.328  27.071  35.653  1.00  0.00     0.002 A 
ATOM     73  C   UNL A   1      44.020  26.467  36.033  1.00  0.00     0.091 A 
ATOM     74  F   UNL A   1      42.621  25.963  34.175  1.00  0.00    -0.205 F 
ATOM     75  C   UNL A   1      45.266  26.874  36.530  1.00  0.00     0.022 A 
BRANCH  73  76
ATOM     76  S   UNL A   1      42.685  26.295  37.227  1.00  0.00     0.127 S 
ATOM     77  O   UNL A   1      41.793  27.385  36.833  1.00  0.00    -0.237 OA
ATOM     78  O   UNL A   1      42.186  24.955  36.928  1.00  0.00    -0.237 OA
ATOM     79  O   UNL A   1      43.303  26.457  38.536  1.00  0.00    -0.744 OA
ENDBRANCH  73  76
ENDBRANCH  45  69
BRANCH  57  80
ATOM     80  C   UNL A   1      45.339  29.219  28.219  1.00  0.00     0.023 A 
ATOM     81  C   UNL A   1      45.929  28.014  27.789  1.00  0.00     0.012 A 
ATOM     82  C   UNL A   1      46.027  30.426  28.036  1.00  0.00     0.148 A 
ATOM     83  C   UNL A   1      47.198  28.020  27.199  1.00  0.00     0.002 A 
ATOM     84  C   UNL A   1      47.262  30.433  27.410  1.00  0.00     0.091 A 
ATOM     85  F   UNL A   1      45.443  31.555  28.463  1.00  0.00    -0.205 F 
ATOM     86  C   UNL A   1      47.858  29.231  26.998  1.00  0.00     0.022 A 
BRANCH  84  87
ATOM     87  S   UNL A   1      48.094  31.972  27.029  1.00  0.00     0.127 S 
ATOM     88  O   UNL A   1      47.157  32.604  26.103  1.00  0.00    -0.237 OA
ATOM     89  O   UNL A   1      48.185  32.610  28.342  1.00  0.00    -0.237 OA
ATOM     90  O   UNL A   1      49.384  31.601  26.458  1.00  0.00    -0.744 OA
ENDBRANCH  84  87
ENDBRANCH  57  80
ENDBRANCH  31  32
ENDBRANCH  23  26
ENDBRANCH  21  22
ENDBRANCH  20  21
ENDBRANCH   1  20
TORSDOF 18
ENDMDL
