MODEL 1
REMARK VINA RESULT:     -13.8      0.000      0.000
REMARK SMILES O=C(NCCCCNC(=O)c1ccc(-c2c3nc(c(-c4cccc(S(=O)(=O)[O-])c4F)c4ccc([nH]4)c(-c4cccc(S(=O)(=O)[O-])c4F)c4nc(c(-c5cccc(S(=O)(=O)[O-])c5F)c5ccc2[nH]5)C=C4)C=C3)cc1)C1=Cc2c(ccc(Cl)c2Oc2ccccc2)O[C@H]1C(F)(F)F
REMARK SMILES IDX 6 1 5 2 4 3 3 4 1 5 2 6 74 8 75 9 91 10 76 11 90 12 77 13
REMARK SMILES IDX 82 14 78 15 80 16 79 17 81 18 92 19 93 20 94 21 95 22 83 23
REMARK SMILES IDX 84 24 85 25 89 26 86 27 88 28 87 29 7 30 8 31 9 32 10 34
REMARK SMILES IDX 11 35 12 36 73 37 13 38 72 39 14 40 15 41 16 42 66 43 17 44
REMARK SMILES IDX 71 45 65 46 67 47 18 48 70 49 64 50 63 51 19 53 51 54 31 55
REMARK SMILES IDX 50 56 32 57 35 58 49 59 68 60 33 61 34 62 48 64 69 65 36 66
REMARK SMILES IDX 20 67 21 68 29 69 22 70 24 71 30 72 23 73 25 74 26 75 27 76
REMARK SMILES IDX 28 77 52 78 53 79 61 80 54 81 56 82 62 83 55 84 57 85 58 86
REMARK SMILES IDX 59 87 60 88 37 89 38 90 46 91 39 92 41 93 47 94 40 95 42 96
REMARK SMILES IDX 43 97 44 98 45 99
REMARK H PARENT 3 7 8 33 67 52 35 63
REMARK Flexibility Score: inf
ROOT
ATOM      1  C   UNL A   1      31.778  29.094  26.797  1.00  0.00     0.023 C 
ENDROOT
BRANCH   1   2
ATOM      2  C   UNL A   1      32.356  27.682  26.739  1.00  0.00     0.023 C 
BRANCH   2   3
ATOM      3  C   UNL A   1      31.413  26.619  26.182  1.00  0.00     0.116 C 
BRANCH   3   4
ATOM      4  N   UNL A   1      31.402  25.383  26.948  1.00  0.00    -0.352 N 
ATOM      5  O   UNL A   1      31.490  23.157  27.303  1.00  0.00    -0.270 OA
ATOM      6  C   UNL A   1      31.622  24.101  26.530  1.00  0.00     0.251 C 
ATOM      7  H   UNL A   1      31.208  25.486  27.907  1.00  0.00     0.163 HD
BRANCH   6   8
ATOM      8  C   UNL A   1      31.983  23.825  25.125  1.00  0.00     0.067 C 
ATOM      9  C   UNL A   1      32.357  22.597  24.753  1.00  0.00     0.029 C 
ATOM     10  C   UNL A   1      32.271  24.980  24.224  1.00  0.00     0.314 C 
ATOM     11  C   UNL A   1      33.796  22.559  24.397  1.00  0.00     0.061 A 
ATOM     12  O   UNL A   1      33.616  24.905  23.653  1.00  0.00    -0.475 OA
ATOM     13  C   UNL A   1      34.349  23.757  23.882  1.00  0.00     0.131 A 
ATOM     14  C   UNL A   1      34.634  21.465  24.724  1.00  0.00     0.156 A 
ATOM     15  C   UNL A   1      35.725  23.878  23.708  1.00  0.00     0.049 A 
ATOM     16  C   UNL A   1      36.023  21.633  24.581  1.00  0.00     0.084 A 
ATOM     17  C   UNL A   1      36.561  22.827  24.080  1.00  0.00     0.028 A 
ATOM     18  Cl  UNL A   1      37.134  20.404  25.079  1.00  0.00    -0.080 Cl
BRANCH  10  19
ATOM     19  C   UNL A   1      31.221  25.095  23.104  1.00  0.00     0.429 C 
ATOM     20  F   UNL A   1      30.980  26.374  22.737  1.00  0.00    -0.167 F 
ATOM     21  F   UNL A   1      31.622  24.434  21.991  1.00  0.00    -0.167 F 
ATOM     22  F   UNL A   1      30.028  24.565  23.475  1.00  0.00    -0.167 F 
ENDBRANCH  10  19
BRANCH  14  23
ATOM     23  O   UNL A   1      34.239  20.259  25.293  1.00  0.00    -0.455 OA
BRANCH  23  24
ATOM     24  C   UNL A   1      33.957  19.193  24.477  1.00  0.00     0.127 A 
ATOM     25  C   UNL A   1      34.814  18.090  24.506  1.00  0.00     0.047 A 
ATOM     26  C   UNL A   1      32.810  19.185  23.681  1.00  0.00     0.047 A 
ATOM     27  C   UNL A   1      34.451  16.922  23.836  1.00  0.00     0.004 A 
ATOM     28  C   UNL A   1      32.456  18.017  23.004  1.00  0.00     0.004 A 
ATOM     29  C   UNL A   1      33.263  16.880  23.102  1.00  0.00     0.000 A 
ENDBRANCH  23  24
ENDBRANCH  14  23
ENDBRANCH   6   8
ENDBRANCH   3   4
ENDBRANCH   2   3
ENDBRANCH   1   2
BRANCH   1  30
ATOM     30  C   UNL A   1      32.575  30.190  26.087  1.00  0.00     0.116 C 
BRANCH  30  31
ATOM     31  N   UNL A   1      32.439  31.518  26.672  1.00  0.00    -0.352 N 
ATOM     32  C   UNL A   1      33.335  32.222  27.452  1.00  0.00     0.251 C 
ATOM     33  H   UNL A   1      31.588  31.978  26.485  1.00  0.00     0.163 HD
ATOM     34  O   UNL A   1      33.035  33.325  27.890  1.00  0.00    -0.269 OA
BRANCH  32  35
ATOM     35  C   UNL A   1      34.636  31.605  27.805  1.00  0.00     0.039 A 
ATOM     36  C   UNL A   1      35.753  32.430  27.963  1.00  0.00     0.014 A 
ATOM     37  C   UNL A   1      34.734  30.236  28.064  1.00  0.00     0.014 A 
ATOM     38  C   UNL A   1      36.932  31.904  28.498  1.00  0.00     0.010 A 
ATOM     39  C   UNL A   1      35.886  29.729  28.664  1.00  0.00     0.010 A 
ATOM     40  C   UNL A   1      36.986  30.564  28.914  1.00  0.00    -0.014 A 
BRANCH  40  41
ATOM     41  C   UNL A   1      38.146  30.038  29.687  1.00  0.00     0.031 A 
ATOM     42  C   UNL A   1      38.429  30.526  31.079  1.00  0.00     0.074 A 
ATOM     43  C   UNL A   1      39.015  29.202  29.081  1.00  0.00     0.049 A 
ATOM     44  N   UNL A   1      39.430  30.229  31.868  1.00  0.00    -0.248 NA
ATOM     45  C   UNL A   1      37.481  31.496  31.652  1.00  0.00     0.031 C 
ATOM     46  C   UNL A   1      38.912  28.727  27.700  1.00  0.00     0.029 A 
ATOM     47  N   UNL A   1      40.177  28.627  29.540  1.00  0.00    -0.354 N 
ATOM     48  C   UNL A   1      39.255  30.999  33.011  1.00  0.00     0.074 A 
ATOM     49  C   UNL A   1      38.067  31.798  32.803  1.00  0.00     0.031 C 
ATOM     50  C   UNL A   1      39.959  27.933  27.425  1.00  0.00     0.029 A 
ATOM     51  C   UNL A   1      40.823  27.859  28.599  1.00  0.00     0.049 A 
ATOM     52  H   UNL A   1      40.515  28.755  30.455  1.00  0.00     0.167 HD
ATOM     53  C   UNL A   1      39.997  31.017  34.145  1.00  0.00     0.034 A 
ATOM     54  C   UNL A   1      41.980  27.170  28.670  1.00  0.00     0.034 A 
ATOM     55  C   UNL A   1      41.145  30.184  34.376  1.00  0.00     0.049 A 
ATOM     56  C   UNL A   1      42.748  27.156  29.963  1.00  0.00     0.074 A 
ATOM     57  C   UNL A   1      41.901  30.060  35.528  1.00  0.00     0.029 A 
ATOM     58  N   UNL A   1      41.707  29.332  33.438  1.00  0.00    -0.354 N 
ATOM     59  N   UNL A   1      42.466  27.754  31.095  1.00  0.00    -0.248 NA
ATOM     60  C   UNL A   1      43.974  26.346  30.002  1.00  0.00     0.031 C 
ATOM     61  C   UNL A   1      42.924  29.136  35.285  1.00  0.00     0.029 A 
ATOM     62  C   UNL A   1      42.801  28.681  33.983  1.00  0.00     0.049 A 
ATOM     63  H   UNL A   1      41.377  29.209  32.518  1.00  0.00     0.167 HD
ATOM     64  C   UNL A   1      43.456  27.365  31.989  1.00  0.00     0.074 A 
ATOM     65  C   UNL A   1      44.336  26.464  31.274  1.00  0.00     0.031 C 
ATOM     66  C   UNL A   1      43.633  27.737  33.281  1.00  0.00     0.034 A 
BRANCH  53  67
ATOM     67  C   UNL A   1      39.539  31.920  35.260  1.00  0.00     0.023 A 
ATOM     68  C   UNL A   1      39.864  33.291  35.209  1.00  0.00     0.012 A 
ATOM     69  C   UNL A   1      38.751  31.435  36.320  1.00  0.00     0.148 A 
ATOM     70  C   UNL A   1      39.440  34.160  36.213  1.00  0.00     0.002 A 
ATOM     71  C   UNL A   1      38.299  32.315  37.298  1.00  0.00     0.091 A 
ATOM     72  F   UNL A   1      38.472  30.124  36.365  1.00  0.00    -0.205 F 
ATOM     73  C   UNL A   1      38.650  33.674  37.251  1.00  0.00     0.022 A 
BRANCH  71  74
ATOM     74  S   UNL A   1      37.218  31.795  38.635  1.00  0.00     0.127 S 
ATOM     75  O   UNL A   1      38.070  32.006  39.804  1.00  0.00    -0.237 OA
ATOM     76  O   UNL A   1      36.101  32.735  38.518  1.00  0.00    -0.237 OA
ATOM     77  O   UNL A   1      36.871  30.410  38.349  1.00  0.00    -0.744 OA
ENDBRANCH  71  74
ENDBRANCH  53  67
BRANCH  54  78
ATOM     78  C   UNL A   1      42.435  26.359  27.505  1.00  0.00     0.023 A 
ATOM     79  C   UNL A   1      43.273  26.955  26.542  1.00  0.00     0.012 A 
ATOM     80  C   UNL A   1      42.078  25.005  27.359  1.00  0.00     0.148 A 
ATOM     81  C   UNL A   1      43.724  26.226  25.441  1.00  0.00     0.002 A 
ATOM     82  C   UNL A   1      42.572  24.269  26.287  1.00  0.00     0.091 A 
ATOM     83  F   UNL A   1      41.265  24.459  28.276  1.00  0.00    -0.205 F 
ATOM     84  C   UNL A   1      43.383  24.881  25.319  1.00  0.00     0.022 A 
BRANCH  82  85
ATOM     85  S   UNL A   1      42.290  22.502  26.130  1.00  0.00     0.127 S 
ATOM     86  O   UNL A   1      40.832  22.435  26.079  1.00  0.00    -0.237 OA
ATOM     87  O   UNL A   1      42.966  22.193  24.869  1.00  0.00    -0.237 OA
ATOM     88  O   UNL A   1      42.917  21.906  27.302  1.00  0.00    -0.744 OA
ENDBRANCH  82  85
ENDBRANCH  54  78
BRANCH  66  89
ATOM     89  C   UNL A   1      44.804  27.154  34.024  1.00  0.00     0.023 A 
ATOM     90  C   UNL A   1      46.043  27.823  34.000  1.00  0.00     0.012 A 
ATOM     91  C   UNL A   1      44.659  25.994  34.809  1.00  0.00     0.148 A 
ATOM     92  C   UNL A   1      47.128  27.334  34.728  1.00  0.00     0.002 A 
ATOM     93  C   UNL A   1      45.733  25.535  35.565  1.00  0.00     0.091 A 
ATOM     94  F   UNL A   1      43.479  25.357  34.801  1.00  0.00    -0.205 F 
ATOM     95  C   UNL A   1      46.969  26.199  35.519  1.00  0.00     0.022 A 
BRANCH  93  96
ATOM     96  S   UNL A   1      45.586  24.132  36.680  1.00  0.00     0.127 S 
ATOM     97  O   UNL A   1      46.953  24.009  37.185  1.00  0.00    -0.237 OA
ATOM     98  O   UNL A   1      44.614  24.612  37.663  1.00  0.00    -0.237 OA
ATOM     99  O   UNL A   1      45.114  23.025  35.860  1.00  0.00    -0.744 OA
ENDBRANCH  93  96
ENDBRANCH  66  89
ENDBRANCH  40  41
ENDBRANCH  32  35
ENDBRANCH  30  31
ENDBRANCH   1  30
TORSDOF 17
ENDMDL
MODEL 2
REMARK VINA RESULT:     -13.6      0.587      7.311
REMARK SMILES O=C(NCCCCNC(=O)c1ccc(-c2c3nc(c(-c4cccc(S(=O)(=O)[O-])c4F)c4ccc([nH]4)c(-c4cccc(S(=O)(=O)[O-])c4F)c4nc(c(-c5cccc(S(=O)(=O)[O-])c5F)c5ccc2[nH]5)C=C4)C=C3)cc1)C1=Cc2c(ccc(Cl)c2Oc2ccccc2)O[C@H]1C(F)(F)F
REMARK SMILES IDX 6 1 5 2 4 3 3 4 1 5 2 6 74 8 75 9 91 10 76 11 90 12 77 13
REMARK SMILES IDX 82 14 78 15 80 16 79 17 81 18 92 19 93 20 94 21 95 22 83 23
REMARK SMILES IDX 84 24 85 25 89 26 86 27 88 28 87 29 7 30 8 31 9 32 10 34
REMARK SMILES IDX 11 35 12 36 73 37 13 38 72 39 14 40 15 41 16 42 66 43 17 44
REMARK SMILES IDX 71 45 65 46 67 47 18 48 70 49 64 50 63 51 19 53 51 54 31 55
REMARK SMILES IDX 50 56 32 57 35 58 49 59 68 60 33 61 34 62 48 64 69 65 36 66
REMARK SMILES IDX 20 67 21 68 29 69 22 70 24 71 30 72 23 73 25 74 26 75 27 76
REMARK SMILES IDX 28 77 52 78 53 79 61 80 54 81 56 82 62 83 55 84 57 85 58 86
REMARK SMILES IDX 59 87 60 88 37 89 38 90 46 91 39 92 41 93 47 94 40 95 42 96
REMARK SMILES IDX 43 97 44 98 45 99
REMARK H PARENT 3 7 8 33 67 52 35 63
REMARK Flexibility Score: inf
ROOT
ATOM      1  C   UNL A   1      31.503  29.040  25.961  1.00  0.00     0.023 C 
ENDROOT
BRANCH   1   2
ATOM      2  C   UNL A   1      31.632  27.859  26.920  1.00  0.00     0.023 C 
BRANCH   2   3
ATOM      3  C   UNL A   1      32.119  26.560  26.284  1.00  0.00     0.116 C 
BRANCH   3   4
ATOM      4  N   UNL A   1      31.701  25.364  26.998  1.00  0.00    -0.352 N 
ATOM      5  O   UNL A   1      31.083  23.210  27.262  1.00  0.00    -0.270 OA
ATOM      6  C   UNL A   1      31.526  24.091  26.532  1.00  0.00     0.251 C 
ATOM      7  H   UNL A   1      31.516  25.489  27.956  1.00  0.00     0.163 HD
BRANCH   6   8
ATOM      8  C   UNL A   1      31.830  23.764  25.125  1.00  0.00     0.067 C 
ATOM      9  C   UNL A   1      32.174  22.519  24.781  1.00  0.00     0.029 C 
ATOM     10  C   UNL A   1      32.097  24.883  24.175  1.00  0.00     0.314 C 
ATOM     11  C   UNL A   1      33.599  22.449  24.372  1.00  0.00     0.061 A 
ATOM     12  O   UNL A   1      33.419  24.771  23.556  1.00  0.00    -0.475 OA
ATOM     13  C   UNL A   1      34.146  23.622  23.796  1.00  0.00     0.131 A 
ATOM     14  C   UNL A   1      34.434  21.355  24.704  1.00  0.00     0.156 A 
ATOM     15  C   UNL A   1      35.515  23.717  23.567  1.00  0.00     0.049 A 
ATOM     16  C   UNL A   1      35.818  21.500  24.503  1.00  0.00     0.084 A 
ATOM     17  C   UNL A   1      36.352  22.668  23.943  1.00  0.00     0.028 A 
ATOM     18  Cl  UNL A   1      36.933  20.272  25.001  1.00  0.00    -0.080 Cl
BRANCH  10  19
ATOM     19  C   UNL A   1      31.008  24.975  23.092  1.00  0.00     0.429 C 
ATOM     20  F   UNL A   1      30.226  26.071  23.222  1.00  0.00    -0.167 F 
ATOM     21  F   UNL A   1      31.554  25.026  21.853  1.00  0.00    -0.167 F 
ATOM     22  F   UNL A   1      30.178  23.900  23.118  1.00  0.00    -0.167 F 
ENDBRANCH  10  19
BRANCH  14  23
ATOM     23  O   UNL A   1      34.046  20.174  25.329  1.00  0.00    -0.455 OA
BRANCH  23  24
ATOM     24  C   UNL A   1      33.777  19.068  24.564  1.00  0.00     0.127 A 
ATOM     25  C   UNL A   1      32.700  19.122  23.675  1.00  0.00     0.047 A 
ATOM     26  C   UNL A   1      34.593  17.938  24.628  1.00  0.00     0.047 A 
ATOM     27  C   UNL A   1      32.520  18.091  22.754  1.00  0.00     0.004 A 
ATOM     28  C   UNL A   1      34.402  16.903  23.710  1.00  0.00     0.004 A 
ATOM     29  C   UNL A   1      33.383  16.993  22.759  1.00  0.00     0.000 A 
ENDBRANCH  23  24
ENDBRANCH  14  23
ENDBRANCH   6   8
ENDBRANCH   3   4
ENDBRANCH   2   3
ENDBRANCH   1   2
BRANCH   1  30
ATOM     30  C   UNL A   1      32.674  30.024  25.925  1.00  0.00     0.116 C 
BRANCH  30  31
ATOM     31  N   UNL A   1      32.392  31.329  26.510  1.00  0.00    -0.352 N 
ATOM     32  C   UNL A   1      33.187  32.107  27.328  1.00  0.00     0.251 C 
ATOM     33  H   UNL A   1      31.509  31.709  26.291  1.00  0.00     0.163 HD
ATOM     34  O   UNL A   1      32.768  33.173  27.759  1.00  0.00    -0.269 OA
BRANCH  32  35
ATOM     35  C   UNL A   1      34.525  31.610  27.730  1.00  0.00     0.039 A 
ATOM     36  C   UNL A   1      35.556  32.534  27.924  1.00  0.00     0.014 A 
ATOM     37  C   UNL A   1      34.737  30.256  27.999  1.00  0.00     0.014 A 
ATOM     38  C   UNL A   1      36.759  32.117  28.503  1.00  0.00     0.010 A 
ATOM     39  C   UNL A   1      35.907  29.857  28.641  1.00  0.00     0.010 A 
ATOM     40  C   UNL A   1      36.918  30.788  28.927  1.00  0.00    -0.014 A 
BRANCH  40  41
ATOM     41  C   UNL A   1      38.092  30.370  29.743  1.00  0.00     0.031 A 
ATOM     42  C   UNL A   1      39.071  29.357  29.220  1.00  0.00     0.074 A 
ATOM     43  C   UNL A   1      38.207  30.819  31.010  1.00  0.00     0.049 A 
ATOM     44  N   UNL A   1      40.107  28.828  29.819  1.00  0.00    -0.248 NA
ATOM     45  C   UNL A   1      38.844  28.850  27.857  1.00  0.00     0.031 C 
ATOM     46  C   UNL A   1      37.271  31.729  31.675  1.00  0.00     0.029 A 
ATOM     47  N   UNL A   1      39.144  30.547  31.978  1.00  0.00    -0.354 N 
ATOM     48  C   UNL A   1      40.632  27.902  28.927  1.00  0.00     0.074 A 
ATOM     49  C   UNL A   1      39.784  27.921  27.754  1.00  0.00     0.031 C 
ATOM     50  C   UNL A   1      37.682  31.943  32.935  1.00  0.00     0.029 A 
ATOM     51  C   UNL A   1      38.895  31.170  33.180  1.00  0.00     0.049 A 
ATOM     52  H   UNL A   1      39.920  29.961  31.826  1.00  0.00     0.167 HD
ATOM     53  C   UNL A   1      41.738  27.129  29.056  1.00  0.00     0.034 A 
ATOM     54  C   UNL A   1      39.566  31.126  34.349  1.00  0.00     0.034 A 
ATOM     55  C   UNL A   1      42.612  27.149  30.196  1.00  0.00     0.049 A 
ATOM     56  C   UNL A   1      40.826  30.310  34.442  1.00  0.00     0.074 A 
ATOM     57  C   UNL A   1      43.808  26.476  30.376  1.00  0.00     0.029 A 
ATOM     58  N   UNL A   1      42.388  27.878  31.353  1.00  0.00    -0.354 N 
ATOM     59  N   UNL A   1      41.403  29.579  33.520  1.00  0.00    -0.248 NA
ATOM     60  C   UNL A   1      41.547  30.340  35.723  1.00  0.00     0.031 C 
ATOM     61  C   UNL A   1      44.304  26.795  31.645  1.00  0.00     0.029 A 
ATOM     62  C   UNL A   1      43.420  27.671  32.253  1.00  0.00     0.049 A 
ATOM     63  H   UNL A   1      41.608  28.459  31.513  1.00  0.00     0.167 HD
ATOM     64  C   UNL A   1      42.571  29.092  34.096  1.00  0.00     0.074 A 
ATOM     65  C   UNL A   1      42.629  29.626  35.440  1.00  0.00     0.031 C 
ATOM     66  C   UNL A   1      43.501  28.259  33.566  1.00  0.00     0.034 A 
BRANCH  53  67
ATOM     67  C   UNL A   1      42.107  26.246  27.893  1.00  0.00     0.023 A 
ATOM     68  C   UNL A   1      42.970  26.748  26.898  1.00  0.00     0.012 A 
ATOM     69  C   UNL A   1      41.653  24.917  27.809  1.00  0.00     0.148 A 
ATOM     70  C   UNL A   1      43.349  25.952  25.818  1.00  0.00     0.002 A 
ATOM     71  C   UNL A   1      42.067  24.116  26.749  1.00  0.00     0.091 A 
ATOM     72  F   UNL A   1      40.814  24.463  28.752  1.00  0.00    -0.205 F 
ATOM     73  C   UNL A   1      42.906  24.635  25.749  1.00  0.00     0.022 A 
BRANCH  71  74
ATOM     74  S   UNL A   1      41.605  22.385  26.612  1.00  0.00     0.127 S 
ATOM     75  O   UNL A   1      42.281  21.996  25.376  1.00  0.00    -0.237 OA
ATOM     76  O   UNL A   1      42.181  21.811  27.829  1.00  0.00    -0.237 OA
ATOM     77  O   UNL A   1      40.149  22.366  26.568  1.00  0.00    -0.744 OA
ENDBRANCH  71  74
ENDBRANCH  53  67
BRANCH  54  78
ATOM     78  C   UNL A   1      39.107  31.954  35.500  1.00  0.00     0.023 A 
ATOM     79  C   UNL A   1      39.375  33.337  35.498  1.00  0.00     0.012 A 
ATOM     80  C   UNL A   1      38.383  31.398  36.572  1.00  0.00     0.148 A 
ATOM     81  C   UNL A   1      38.956  34.146  36.555  1.00  0.00     0.002 A 
ATOM     82  C   UNL A   1      37.923  32.217  37.597  1.00  0.00     0.091 A 
ATOM     83  F   UNL A   1      38.152  30.076  36.566  1.00  0.00    -0.205 F 
ATOM     84  C   UNL A   1      38.221  33.589  37.598  1.00  0.00     0.022 A 
BRANCH  82  85
ATOM     85  S   UNL A   1      36.858  31.603  38.907  1.00  0.00     0.127 S 
ATOM     86  O   UNL A   1      36.651  30.216  38.499  1.00  0.00    -0.237 OA
ATOM     87  O   UNL A   1      37.697  31.778  40.093  1.00  0.00    -0.237 OA
ATOM     88  O   UNL A   1      35.681  32.460  38.881  1.00  0.00    -0.744 OA
ENDBRANCH  82  85
ENDBRANCH  54  78
BRANCH  66  89
ATOM     89  C   UNL A   1      44.681  27.890  34.422  1.00  0.00     0.023 A 
ATOM     90  C   UNL A   1      45.829  28.705  34.410  1.00  0.00     0.012 A 
ATOM     91  C   UNL A   1      44.624  26.787  35.297  1.00  0.00     0.148 A 
ATOM     92  C   UNL A   1      46.913  28.416  35.240  1.00  0.00     0.002 A 
ATOM     93  C   UNL A   1      45.691  26.529  36.151  1.00  0.00     0.091 A 
ATOM     94  F   UNL A   1      43.532  26.009  35.278  1.00  0.00    -0.205 F 
ATOM     95  C   UNL A   1      46.839  27.338  36.117  1.00  0.00     0.022 A 
BRANCH  93  96
ATOM     96  S   UNL A   1      45.639  25.214  37.374  1.00  0.00     0.127 S 
ATOM     97  O   UNL A   1      44.505  25.620  38.202  1.00  0.00    -0.237 OA
ATOM     98  O   UNL A   1      45.399  24.028  36.551  1.00  0.00    -0.237 OA
ATOM     99  O   UNL A   1      46.939  25.235  38.031  1.00  0.00    -0.744 OA
ENDBRANCH  93  96
ENDBRANCH  66  89
ENDBRANCH  40  41
ENDBRANCH  32  35
ENDBRANCH  30  31
ENDBRANCH   1  30
TORSDOF 17
ENDMDL
MODEL 3
REMARK VINA RESULT:     -13.5      2.375      3.706
REMARK SMILES O=C(NCCCCNC(=O)c1ccc(-c2c3nc(c(-c4cccc(S(=O)(=O)[O-])c4F)c4ccc([nH]4)c(-c4cccc(S(=O)(=O)[O-])c4F)c4nc(c(-c5cccc(S(=O)(=O)[O-])c5F)c5ccc2[nH]5)C=C4)C=C3)cc1)C1=Cc2c(ccc(Cl)c2Oc2ccccc2)O[C@H]1C(F)(F)F
REMARK SMILES IDX 6 1 5 2 4 3 3 4 1 5 2 6 74 8 75 9 91 10 76 11 90 12 77 13
REMARK SMILES IDX 82 14 78 15 80 16 79 17 81 18 92 19 93 20 94 21 95 22 83 23
REMARK SMILES IDX 84 24 85 25 89 26 86 27 88 28 87 29 7 30 8 31 9 32 10 34
REMARK SMILES IDX 11 35 12 36 73 37 13 38 72 39 14 40 15 41 16 42 66 43 17 44
REMARK SMILES IDX 71 45 65 46 67 47 18 48 70 49 64 50 63 51 19 53 51 54 31 55
REMARK SMILES IDX 50 56 32 57 35 58 49 59 68 60 33 61 34 62 48 64 69 65 36 66
REMARK SMILES IDX 20 67 21 68 29 69 22 70 24 71 30 72 23 73 25 74 26 75 27 76
REMARK SMILES IDX 28 77 52 78 53 79 61 80 54 81 56 82 62 83 55 84 57 85 58 86
REMARK SMILES IDX 59 87 60 88 37 89 38 90 46 91 39 92 41 93 47 94 40 95 42 96
REMARK SMILES IDX 43 97 44 98 45 99
REMARK H PARENT 3 7 8 33 67 52 35 63
REMARK Flexibility Score: inf
ROOT
ATOM      1  C   UNL A   1      31.447  29.498  26.898  1.00  0.00     0.023 C 
ENDROOT
BRANCH   1   2
ATOM      2  C   UNL A   1      31.915  28.162  27.469  1.00  0.00     0.023 C 
BRANCH   2   3
ATOM      3  C   UNL A   1      31.943  27.006  26.473  1.00  0.00     0.116 C 
BRANCH   3   4
ATOM      4  N   UNL A   1      31.204  25.834  26.911  1.00  0.00    -0.352 N 
ATOM      5  O   UNL A   1      30.732  23.639  27.142  1.00  0.00    -0.270 OA
ATOM      6  C   UNL A   1      31.519  24.510  26.784  1.00  0.00     0.251 C 
ATOM      7  H   UNL A   1      30.352  26.021  27.367  1.00  0.00     0.163 HD
BRANCH   6   8
ATOM      8  C   UNL A   1      32.801  24.104  26.174  1.00  0.00     0.067 C 
ATOM      9  C   UNL A   1      33.443  24.930  25.341  1.00  0.00     0.029 C 
ATOM     10  C   UNL A   1      33.181  22.662  26.208  1.00  0.00     0.314 C 
ATOM     11  C   UNL A   1      33.422  24.413  23.951  1.00  0.00     0.061 A 
ATOM     12  O   UNL A   1      33.391  22.120  24.864  1.00  0.00    -0.475 OA
ATOM     13  C   UNL A   1      33.369  23.005  23.804  1.00  0.00     0.131 A 
ATOM     14  C   UNL A   1      33.267  25.258  22.825  1.00  0.00     0.156 A 
ATOM     15  C   UNL A   1      33.145  22.438  22.553  1.00  0.00     0.049 A 
ATOM     16  C   UNL A   1      32.997  24.657  21.583  1.00  0.00     0.084 A 
ATOM     17  C   UNL A   1      32.936  23.263  21.449  1.00  0.00     0.028 A 
ATOM     18  Cl  UNL A   1      32.661  25.609  20.177  1.00  0.00    -0.080 Cl
BRANCH  10  19
ATOM     19  C   UNL A   1      34.428  22.428  27.078  1.00  0.00     0.429 C 
ATOM     20  F   UNL A   1      34.589  21.132  27.433  1.00  0.00    -0.167 F 
ATOM     21  F   UNL A   1      35.556  22.800  26.425  1.00  0.00    -0.167 F 
ATOM     22  F   UNL A   1      34.381  23.144  28.231  1.00  0.00    -0.167 F 
ENDBRANCH  10  19
BRANCH  14  23
ATOM     23  O   UNL A   1      33.234  26.649  22.831  1.00  0.00    -0.455 OA
BRANCH  23  24
ATOM     24  C   UNL A   1      32.045  27.291  23.061  1.00  0.00     0.127 A 
ATOM     25  C   UNL A   1      32.031  28.688  23.048  1.00  0.00     0.047 A 
ATOM     26  C   UNL A   1      30.865  26.567  23.246  1.00  0.00     0.047 A 
ATOM     27  C   UNL A   1      30.811  29.361  23.088  1.00  0.00     0.004 A 
ATOM     28  C   UNL A   1      29.647  27.247  23.297  1.00  0.00     0.004 A 
ATOM     29  C   UNL A   1      29.620  28.640  23.192  1.00  0.00     0.000 A 
ENDBRANCH  23  24
ENDBRANCH  14  23
ENDBRANCH   6   8
ENDBRANCH   3   4
ENDBRANCH   2   3
ENDBRANCH   1   2
BRANCH   1  30
ATOM     30  C   UNL A   1      32.531  30.424  26.343  1.00  0.00     0.116 C 
BRANCH  30  31
ATOM     31  N   UNL A   1      32.480  31.791  26.846  1.00  0.00    -0.352 N 
ATOM     32  C   UNL A   1      33.429  32.490  27.565  1.00  0.00     0.251 C 
ATOM     33  H   UNL A   1      31.652  32.286  26.645  1.00  0.00     0.163 HD
ATOM     34  O   UNL A   1      33.200  33.633  27.938  1.00  0.00    -0.269 OA
BRANCH  32  35
ATOM     35  C   UNL A   1      34.701  31.823  27.934  1.00  0.00     0.039 A 
ATOM     36  C   UNL A   1      35.865  32.593  28.021  1.00  0.00     0.014 A 
ATOM     37  C   UNL A   1      34.729  30.469  28.277  1.00  0.00     0.014 A 
ATOM     38  C   UNL A   1      37.024  32.035  28.569  1.00  0.00     0.010 A 
ATOM     39  C   UNL A   1      35.862  29.937  28.888  1.00  0.00     0.010 A 
ATOM     40  C   UNL A   1      37.012  30.722  29.067  1.00  0.00    -0.014 A 
BRANCH  40  41
ATOM     41  C   UNL A   1      38.156  30.180  29.851  1.00  0.00     0.031 A 
ATOM     42  C   UNL A   1      38.438  30.671  31.243  1.00  0.00     0.074 A 
ATOM     43  C   UNL A   1      39.015  29.325  29.257  1.00  0.00     0.049 A 
ATOM     44  N   UNL A   1      39.427  30.361  32.041  1.00  0.00    -0.248 NA
ATOM     45  C   UNL A   1      37.503  31.661  31.803  1.00  0.00     0.031 C 
ATOM     46  C   UNL A   1      38.914  28.844  27.878  1.00  0.00     0.029 A 
ATOM     47  N   UNL A   1      40.163  28.732  29.728  1.00  0.00    -0.354 N 
ATOM     48  C   UNL A   1      39.258  31.141  33.178  1.00  0.00     0.074 A 
ATOM     49  C   UNL A   1      38.085  31.960  32.956  1.00  0.00     0.031 C 
ATOM     50  C   UNL A   1      39.949  28.029  27.616  1.00  0.00     0.029 A 
ATOM     51  C   UNL A   1      40.803  27.947  28.797  1.00  0.00     0.049 A 
ATOM     52  H   UNL A   1      40.497  28.859  30.645  1.00  0.00     0.167 HD
ATOM     53  C   UNL A   1      39.991  31.152  34.318  1.00  0.00     0.034 A 
ATOM     54  C   UNL A   1      41.946  27.238  28.881  1.00  0.00     0.034 A 
ATOM     55  C   UNL A   1      41.122  30.300  34.562  1.00  0.00     0.049 A 
ATOM     56  C   UNL A   1      42.704  27.218  30.180  1.00  0.00     0.074 A 
ATOM     57  C   UNL A   1      41.867  30.169  35.721  1.00  0.00     0.029 A 
ATOM     58  N   UNL A   1      41.676  29.433  33.634  1.00  0.00    -0.354 N 
ATOM     59  N   UNL A   1      42.424  27.828  31.306  1.00  0.00    -0.248 NA
ATOM     60  C   UNL A   1      43.915  26.386  30.233  1.00  0.00     0.031 C 
ATOM     61  C   UNL A   1      42.875  29.226  35.491  1.00  0.00     0.029 A 
ATOM     62  C   UNL A   1      42.753  28.766  34.191  1.00  0.00     0.049 A 
ATOM     63  H   UNL A   1      41.351  29.310  32.712  1.00  0.00     0.167 HD
ATOM     64  C   UNL A   1      43.400  27.426  32.210  1.00  0.00     0.074 A 
ATOM     65  C   UNL A   1      44.269  26.506  31.506  1.00  0.00     0.031 C 
ATOM     66  C   UNL A   1      43.574  27.802  33.501  1.00  0.00     0.034 A 
BRANCH  53  67
ATOM     67  C   UNL A   1      39.541  32.070  35.424  1.00  0.00     0.023 A 
ATOM     68  C   UNL A   1      38.632  31.588  36.388  1.00  0.00     0.012 A 
ATOM     69  C   UNL A   1      40.050  33.376  35.545  1.00  0.00     0.148 A 
ATOM     70  C   UNL A   1      38.209  32.403  37.437  1.00  0.00     0.002 A 
ATOM     71  C   UNL A   1      39.653  34.171  36.616  1.00  0.00     0.091 A 
ATOM     72  F   UNL A   1      40.895  33.826  34.606  1.00  0.00    -0.205 F 
ATOM     73  C   UNL A   1      38.727  33.689  37.556  1.00  0.00     0.022 A 
BRANCH  71  74
ATOM     74  S   UNL A   1      40.319  35.816  36.893  1.00  0.00     0.127 S 
ATOM     75  O   UNL A   1      41.752  35.588  36.719  1.00  0.00    -0.237 OA
ATOM     76  O   UNL A   1      39.692  36.592  35.822  1.00  0.00    -0.237 OA
ATOM     77  O   UNL A   1      39.899  36.194  38.235  1.00  0.00    -0.744 OA
ENDBRANCH  71  74
ENDBRANCH  53  67
BRANCH  54  78
ATOM     78  C   UNL A   1      42.395  26.412  27.724  1.00  0.00     0.023 A 
ATOM     79  C   UNL A   1      43.258  26.984  26.768  1.00  0.00     0.012 A 
ATOM     80  C   UNL A   1      42.008  25.066  27.579  1.00  0.00     0.148 A 
ATOM     81  C   UNL A   1      43.705  26.240  25.675  1.00  0.00     0.002 A 
ATOM     82  C   UNL A   1      42.497  24.315  26.515  1.00  0.00     0.091 A 
ATOM     83  F   UNL A   1      41.172  24.543  28.488  1.00  0.00    -0.205 F 
ATOM     84  C   UNL A   1      43.334  24.904  25.554  1.00  0.00     0.022 A 
BRANCH  82  85
ATOM     85  S   UNL A   1      42.176  22.554  26.361  1.00  0.00     0.127 S 
ATOM     86  O   UNL A   1      42.781  22.031  27.583  1.00  0.00    -0.237 OA
ATOM     87  O   UNL A   1      40.713  22.510  26.331  1.00  0.00    -0.237 OA
ATOM     88  O   UNL A   1      42.808  22.154  25.112  1.00  0.00    -0.744 OA
ENDBRANCH  82  85
ENDBRANCH  54  78
BRANCH  66  89
ATOM     89  C   UNL A   1      44.729  27.203  34.256  1.00  0.00     0.023 A 
ATOM     90  C   UNL A   1      45.996  27.814  34.184  1.00  0.00     0.012 A 
ATOM     91  C   UNL A   1      44.544  26.089  35.098  1.00  0.00     0.148 A 
ATOM     92  C   UNL A   1      47.068  27.311  34.922  1.00  0.00     0.002 A 
ATOM     93  C   UNL A   1      45.607  25.619  35.862  1.00  0.00     0.091 A 
ATOM     94  F   UNL A   1      43.336  25.507  35.135  1.00  0.00    -0.205 F 
ATOM     95  C   UNL A   1      46.871  26.223  35.768  1.00  0.00     0.022 A 
BRANCH  93  96
ATOM     96  S   UNL A   1      45.414  24.279  37.044  1.00  0.00     0.127 S 
ATOM     97  O   UNL A   1      44.446  24.845  37.982  1.00  0.00    -0.237 OA
ATOM     98  O   UNL A   1      44.893  23.195  36.210  1.00  0.00    -0.237 OA
ATOM     99  O   UNL A   1      46.745  24.035  37.583  1.00  0.00    -0.744 OA
ENDBRANCH  93  96
ENDBRANCH  66  89
ENDBRANCH  40  41
ENDBRANCH  32  35
ENDBRANCH  30  31
ENDBRANCH   1  30
TORSDOF 17
ENDMDL
