MODEL 1
REMARK VINA RESULT:     -13.9      0.000      0.000
REMARK SMILES Cc1ccccc1[C@@H]1[NH2+][C@@H](C(=O)NCCCCNC(=O)c2ccc(-c3c4nc(c(-c5cccc(S(=O)(=O)[O-])c5F)c5ccc([nH]5)c(-c5cccc(S(=O)(=O)[O-])c5F)c5nc(c(-c6cccc(S(=O)(=O)[O-])c6F)c6ccc3[nH]6)C=C5)C=C4)cc2)CC2=c3ccccc3=N[C@H]21
REMARK SMILES IDX 16 1 15 2 14 3 13 4 11 5 12 6 10 8 8 9 9 10 93 11 85 14
REMARK SMILES IDX 92 15 84 16 86 17 91 18 87 19 90 20 88 21 89 22 7 23 1 24
REMARK SMILES IDX 2 25 3 26 4 27 6 28 5 29 17 30 18 31 19 32 20 34 21 35 22 36
REMARK SMILES IDX 83 37 23 38 82 39 24 40 25 41 26 42 76 43 27 44 81 45 75 46
REMARK SMILES IDX 77 47 28 48 80 49 74 50 73 51 29 53 61 54 41 55 60 56 42 57
REMARK SMILES IDX 45 58 59 59 78 60 43 61 44 62 58 64 79 65 46 66 30 67 31 68
REMARK SMILES IDX 39 69 32 70 34 71 40 72 33 73 35 74 36 75 37 76 38 77 62 78
REMARK SMILES IDX 63 79 71 80 64 81 66 82 72 83 65 84 67 85 68 86 69 87 70 88
REMARK SMILES IDX 47 89 48 90 56 91 49 92 51 93 57 94 50 95 52 96 53 97 54 98
REMARK SMILES IDX 55 99
REMARK H PARENT 13 7 9 12 9 13 18 33 77 52 45 63
REMARK Flexibility Score: inf
ROOT
ATOM      1  C   UNL A   1      34.265  32.628  28.597  1.00  0.00     0.023 C 
ENDROOT
BRANCH   1   2
ATOM      2  C   UNL A   1      35.428  31.939  27.897  1.00  0.00     0.023 C 
BRANCH   2   3
ATOM      3  C   UNL A   1      35.141  30.528  27.354  1.00  0.00     0.116 C 
BRANCH   3   4
ATOM      4  N   UNL A   1      33.853  29.930  27.697  1.00  0.00    -0.351 N 
ATOM      5  C   UNL A   1      33.045  29.058  27.015  1.00  0.00     0.278 C 
ATOM      6  O   UNL A   1      32.390  28.260  27.702  1.00  0.00    -0.268 OA
ATOM      7  H   UNL A   1      33.504  30.203  28.576  1.00  0.00     0.163 HD
BRANCH   5   8
ATOM      8  C   UNL A   1      32.792  29.159  25.480  1.00  0.00     0.277 C 
ATOM      9  C   UNL A   1      30.979  27.968  24.064  1.00  0.00     0.243 C 
ATOM     10  N   UNL A   1      31.345  28.883  25.181  1.00  0.00    -0.327 N 
ATOM     11  C   UNL A   1      32.104  27.333  23.184  1.00  0.00     0.196 C 
ATOM     12  H   UNL A   1      30.939  28.489  26.031  1.00  0.00     0.347 HD
ATOM     13  H   UNL A   1      30.991  29.787  24.870  1.00  0.00     0.347 HD
ATOM     14  C   UNL A   1      33.311  27.204  24.031  1.00  0.00    -0.024 C 
ATOM     15  N   UNL A   1      31.800  25.929  22.759  1.00  0.00    -0.270 NA
ATOM     16  C   UNL A   1      33.819  28.458  24.596  1.00  0.00     0.109 C 
ATOM     17  C   UNL A   1      33.673  25.946  24.219  1.00  0.00     0.002 A 
ATOM     18  C   UNL A   1      32.726  25.234  23.351  1.00  0.00     0.066 A 
ATOM     19  C   UNL A   1      34.629  25.278  25.033  1.00  0.00     0.010 A 
ATOM     20  C   UNL A   1      32.941  23.776  23.237  1.00  0.00     0.028 A 
ATOM     21  C   UNL A   1      34.712  23.943  24.940  1.00  0.00     0.001 A 
ATOM     22  C   UNL A   1      33.891  23.200  23.996  1.00  0.00     0.002 A 
BRANCH   9  23
ATOM     23  C   UNL A   1      29.915  28.598  23.151  1.00  0.00     0.015 A 
ATOM     24  C   UNL A   1      28.000  27.028  23.875  1.00  0.00     0.045 C 
ATOM     25  C   UNL A   1      28.553  28.214  23.132  1.00  0.00    -0.042 A 
ATOM     26  C   UNL A   1      27.623  29.011  22.436  1.00  0.00     0.004 A 
ATOM     27  C   UNL A   1      28.028  30.128  21.709  1.00  0.00     0.000 A 
ATOM     28  C   UNL A   1      30.308  29.699  22.360  1.00  0.00     0.010 A 
ATOM     29  C   UNL A   1      29.376  30.454  21.647  1.00  0.00     0.001 A 
ENDBRANCH   9  23
ENDBRANCH   5   8
ENDBRANCH   3   4
ENDBRANCH   2   3
ENDBRANCH   1   2
BRANCH   1  30
ATOM     30  C   UNL A   1      34.577  34.041  29.064  1.00  0.00     0.116 C 
BRANCH  30  31
ATOM     31  N   UNL A   1      33.568  34.651  29.923  1.00  0.00    -0.352 N 
ATOM     32  C   UNL A   1      33.494  34.606  31.310  1.00  0.00     0.251 C 
ATOM     33  H   UNL A   1      32.854  35.153  29.465  1.00  0.00     0.163 HD
ATOM     34  O   UNL A   1      32.522  35.089  31.889  1.00  0.00    -0.269 OA
BRANCH  32  35
ATOM     35  C   UNL A   1      34.659  34.077  32.062  1.00  0.00     0.039 A 
ATOM     36  C   UNL A   1      35.769  34.910  32.215  1.00  0.00     0.014 A 
ATOM     37  C   UNL A   1      34.773  32.707  32.280  1.00  0.00     0.014 A 
ATOM     38  C   UNL A   1      37.038  34.342  32.275  1.00  0.00     0.010 A 
ATOM     39  C   UNL A   1      36.027  32.139  32.212  1.00  0.00     0.010 A 
ATOM     40  C   UNL A   1      37.154  32.961  32.135  1.00  0.00    -0.014 A 
BRANCH  40  41
ATOM     41  C   UNL A   1      38.419  32.268  31.960  1.00  0.00     0.031 A 
ATOM     42  C   UNL A   1      38.416  30.981  31.251  1.00  0.00     0.074 A 
ATOM     43  C   UNL A   1      39.575  32.838  32.361  1.00  0.00     0.049 A 
ATOM     44  N   UNL A   1      39.325  30.078  31.373  1.00  0.00    -0.248 NA
ATOM     45  C   UNL A   1      37.324  30.601  30.367  1.00  0.00     0.031 C 
ATOM     46  C   UNL A   1      40.932  32.438  32.010  1.00  0.00     0.029 A 
ATOM     47  N   UNL A   1      39.747  33.786  33.374  1.00  0.00    -0.354 N 
ATOM     48  C   UNL A   1      39.092  29.130  30.399  1.00  0.00     0.074 A 
ATOM     49  C   UNL A   1      37.791  29.457  29.866  1.00  0.00     0.031 C 
ATOM     50  C   UNL A   1      41.774  32.900  32.948  1.00  0.00     0.029 A 
ATOM     51  C   UNL A   1      40.962  33.465  34.012  1.00  0.00     0.049 A 
ATOM     52  H   UNL A   1      39.141  34.528  33.597  1.00  0.00     0.167 HD
ATOM     53  C   UNL A   1      40.102  28.283  30.052  1.00  0.00     0.034 A 
ATOM     54  C   UNL A   1      41.066  33.168  35.342  1.00  0.00     0.034 A 
ATOM     55  C   UNL A   1      41.261  28.469  30.943  1.00  0.00     0.049 A 
ATOM     56  C   UNL A   1      41.644  31.783  35.587  1.00  0.00     0.074 A 
ATOM     57  C   UNL A   1      42.426  29.209  30.822  1.00  0.00     0.029 A 
ATOM     58  N   UNL A   1      41.166  28.107  32.284  1.00  0.00    -0.354 N 
ATOM     59  N   UNL A   1      41.875  30.906  34.649  1.00  0.00    -0.248 NA
ATOM     60  C   UNL A   1      41.955  31.263  36.917  1.00  0.00     0.031 C 
ATOM     61  C   UNL A   1      42.978  29.374  32.121  1.00  0.00     0.029 A 
ATOM     62  C   UNL A   1      42.173  28.707  33.028  1.00  0.00     0.049 A 
ATOM     63  H   UNL A   1      40.478  27.508  32.654  1.00  0.00     0.167 HD
ATOM     64  C   UNL A   1      42.185  29.695  35.214  1.00  0.00     0.074 A 
ATOM     65  C   UNL A   1      42.316  29.999  36.630  1.00  0.00     0.031 C 
ATOM     66  C   UNL A   1      42.232  28.538  34.481  1.00  0.00     0.034 A 
BRANCH  53  67
ATOM     67  C   UNL A   1      40.185  27.553  28.717  1.00  0.00     0.023 A 
ATOM     68  C   UNL A   1      39.318  26.451  28.531  1.00  0.00     0.012 A 
ATOM     69  C   UNL A   1      41.096  27.796  27.662  1.00  0.00     0.148 A 
ATOM     70  C   UNL A   1      39.421  25.582  27.438  1.00  0.00     0.002 A 
ATOM     71  C   UNL A   1      41.251  26.891  26.605  1.00  0.00     0.091 A 
ATOM     72  F   UNL A   1      41.762  28.951  27.612  1.00  0.00    -0.205 F 
ATOM     73  C   UNL A   1      40.415  25.778  26.493  1.00  0.00     0.022 A 
BRANCH  71  74
ATOM     74  S   UNL A   1      42.565  27.044  25.379  1.00  0.00     0.127 S 
ATOM     75  O   UNL A   1      43.761  27.131  26.219  1.00  0.00    -0.237 OA
ATOM     76  O   UNL A   1      42.440  25.797  24.628  1.00  0.00    -0.237 OA
ATOM     77  O   UNL A   1      42.279  28.260  24.627  1.00  0.00    -0.744 OA
ENDBRANCH  71  74
ENDBRANCH  53  67
BRANCH  54  78
ATOM     78  C   UNL A   1      39.997  33.810  36.170  1.00  0.00     0.023 A 
ATOM     79  C   UNL A   1      38.832  33.039  36.410  1.00  0.00     0.012 A 
ATOM     80  C   UNL A   1      40.299  34.869  37.040  1.00  0.00     0.148 A 
ATOM     81  C   UNL A   1      38.134  33.164  37.612  1.00  0.00     0.002 A 
ATOM     82  C   UNL A   1      39.577  35.005  38.222  1.00  0.00     0.091 A 
ATOM     83  F   UNL A   1      41.331  35.672  36.754  1.00  0.00    -0.205 F 
ATOM     84  C   UNL A   1      38.542  34.114  38.543  1.00  0.00     0.022 A 
BRANCH  82  85
ATOM     85  S   UNL A   1      40.041  36.267  39.414  1.00  0.00     0.127 S 
ATOM     86  O   UNL A   1      39.083  36.024  40.486  1.00  0.00    -0.237 OA
ATOM     87  O   UNL A   1      41.423  35.915  39.735  1.00  0.00    -0.237 OA
ATOM     88  O   UNL A   1      39.898  37.515  38.677  1.00  0.00    -0.744 OA
ENDBRANCH  82  85
ENDBRANCH  54  78
BRANCH  66  89
ATOM     89  C   UNL A   1      42.344  27.138  35.067  1.00  0.00     0.023 A 
ATOM     90  C   UNL A   1      41.370  26.602  35.932  1.00  0.00     0.012 A 
ATOM     91  C   UNL A   1      43.384  26.257  34.667  1.00  0.00     0.148 A 
ATOM     92  C   UNL A   1      41.468  25.307  36.456  1.00  0.00     0.002 A 
ATOM     93  C   UNL A   1      43.410  24.930  35.096  1.00  0.00     0.091 A 
ATOM     94  F   UNL A   1      44.374  26.706  33.884  1.00  0.00    -0.205 F 
ATOM     95  C   UNL A   1      42.479  24.464  36.023  1.00  0.00     0.022 A 
BRANCH  93  96
ATOM     96  S   UNL A   1      44.536  23.736  34.360  1.00  0.00     0.127 S 
ATOM     97  O   UNL A   1      44.171  22.504  35.054  1.00  0.00    -0.237 OA
ATOM     98  O   UNL A   1      44.155  23.773  32.946  1.00  0.00    -0.237 OA
ATOM     99  O   UNL A   1      45.870  24.256  34.629  1.00  0.00    -0.744 OA
ENDBRANCH  93  96
ENDBRANCH  66  89
ENDBRANCH  40  41
ENDBRANCH  32  35
ENDBRANCH  30  31
ENDBRANCH   1  30
TORSDOF 15
ENDMDL
MODEL 2
REMARK VINA RESULT:     -13.8      3.645      5.878
REMARK SMILES Cc1ccccc1[C@@H]1[NH2+][C@@H](C(=O)NCCCCNC(=O)c2ccc(-c3c4nc(c(-c5cccc(S(=O)(=O)[O-])c5F)c5ccc([nH]5)c(-c5cccc(S(=O)(=O)[O-])c5F)c5nc(c(-c6cccc(S(=O)(=O)[O-])c6F)c6ccc3[nH]6)C=C5)C=C4)cc2)CC2=c3ccccc3=N[C@H]21
REMARK SMILES IDX 16 1 15 2 14 3 13 4 11 5 12 6 10 8 8 9 9 10 93 11 85 14
REMARK SMILES IDX 92 15 84 16 86 17 91 18 87 19 90 20 88 21 89 22 7 23 1 24
REMARK SMILES IDX 2 25 3 26 4 27 6 28 5 29 17 30 18 31 19 32 20 34 21 35 22 36
REMARK SMILES IDX 83 37 23 38 82 39 24 40 25 41 26 42 76 43 27 44 81 45 75 46
REMARK SMILES IDX 77 47 28 48 80 49 74 50 73 51 29 53 61 54 41 55 60 56 42 57
REMARK SMILES IDX 45 58 59 59 78 60 43 61 44 62 58 64 79 65 46 66 30 67 31 68
REMARK SMILES IDX 39 69 32 70 34 71 40 72 33 73 35 74 36 75 37 76 38 77 62 78
REMARK SMILES IDX 63 79 71 80 64 81 66 82 72 83 65 84 67 85 68 86 69 87 70 88
REMARK SMILES IDX 47 89 48 90 56 91 49 92 51 93 57 94 50 95 52 96 53 97 54 98
REMARK SMILES IDX 55 99
REMARK H PARENT 13 7 9 12 9 13 18 33 77 52 45 63
REMARK Flexibility Score: inf
ROOT
ATOM      1  C   UNL A   1      32.191  30.288  26.442  1.00  0.00     0.023 C 
ENDROOT
BRANCH   1   2
ATOM      2  C   UNL A   1      32.144  29.417  25.195  1.00  0.00     0.023 C 
BRANCH   2   3
ATOM      3  C   UNL A   1      33.428  29.390  24.348  1.00  0.00     0.116 C 
BRANCH   3   4
ATOM      4  N   UNL A   1      33.558  28.314  23.368  1.00  0.00    -0.351 N 
ATOM      5  C   UNL A   1      33.518  26.950  23.504  1.00  0.00     0.278 C 
ATOM      6  O   UNL A   1      33.044  26.314  22.551  1.00  0.00    -0.268 OA
ATOM      7  H   UNL A   1      33.701  28.624  22.445  1.00  0.00     0.163 HD
BRANCH   5   8
ATOM      8  C   UNL A   1      34.192  26.195  24.691  1.00  0.00     0.277 C 
ATOM      9  C   UNL A   1      34.355  23.641  25.091  1.00  0.00     0.243 C 
ATOM     10  N   UNL A   1      34.638  24.832  24.242  1.00  0.00    -0.327 N 
ATOM     11  C   UNL A   1      33.630  23.824  26.463  1.00  0.00     0.196 C 
ATOM     12  H   UNL A   1      34.198  24.661  23.337  1.00  0.00     0.347 HD
ATOM     13  H   UNL A   1      35.656  24.898  24.262  1.00  0.00     0.347 HD
ATOM     14  C   UNL A   1      32.761  25.018  26.351  1.00  0.00    -0.024 C 
ATOM     15  N   UNL A   1      32.684  22.708  26.786  1.00  0.00    -0.270 NA
ATOM     16  C   UNL A   1      33.451  26.269  26.023  1.00  0.00     0.109 C 
ATOM     17  C   UNL A   1      31.477  24.729  26.470  1.00  0.00     0.002 A 
ATOM     18  C   UNL A   1      31.525  23.298  26.796  1.00  0.00     0.066 A 
ATOM     19  C   UNL A   1      30.258  25.443  26.302  1.00  0.00     0.010 A 
ATOM     20  C   UNL A   1      30.223  22.674  27.116  1.00  0.00     0.028 A 
ATOM     21  C   UNL A   1      29.108  24.790  26.528  1.00  0.00     0.001 A 
ATOM     22  C   UNL A   1      29.104  23.408  26.986  1.00  0.00     0.002 A 
BRANCH   9  23
ATOM     23  C   UNL A   1      35.616  22.786  25.292  1.00  0.00     0.015 A 
ATOM     24  C   UNL A   1      34.507  20.547  24.649  1.00  0.00     0.045 C 
ATOM     25  C   UNL A   1      35.692  21.400  25.015  1.00  0.00    -0.042 A 
ATOM     26  C   UNL A   1      36.950  20.767  25.008  1.00  0.00     0.004 A 
ATOM     27  C   UNL A   1      38.111  21.462  25.339  1.00  0.00     0.000 A 
ATOM     28  C   UNL A   1      36.797  23.452  25.680  1.00  0.00     0.010 A 
ATOM     29  C   UNL A   1      38.030  22.799  25.704  1.00  0.00     0.001 A 
ENDBRANCH   9  23
ENDBRANCH   5   8
ENDBRANCH   3   4
ENDBRANCH   2   3
ENDBRANCH   1   2
BRANCH   1  30
ATOM     30  C   UNL A   1      33.349  29.966  27.374  1.00  0.00     0.116 C 
BRANCH  30  31
ATOM     31  N   UNL A   1      33.959  31.117  28.031  1.00  0.00    -0.352 N 
ATOM     32  C   UNL A   1      35.131  31.146  28.778  1.00  0.00     0.251 C 
ATOM     33  H   UNL A   1      33.484  31.974  27.933  1.00  0.00     0.163 HD
ATOM     34  O   UNL A   1      35.466  32.179  29.355  1.00  0.00    -0.269 OA
BRANCH  32  35
ATOM     35  C   UNL A   1      36.010  29.950  28.760  1.00  0.00     0.039 A 
ATOM     36  C   UNL A   1      36.559  29.527  29.971  1.00  0.00     0.014 A 
ATOM     37  C   UNL A   1      36.543  29.506  27.553  1.00  0.00     0.014 A 
ATOM     38  C   UNL A   1      37.813  28.923  29.971  1.00  0.00     0.010 A 
ATOM     39  C   UNL A   1      37.834  29.025  27.549  1.00  0.00     0.010 A 
ATOM     40  C   UNL A   1      38.493  28.805  28.761  1.00  0.00    -0.014 A 
BRANCH  40  41
ATOM     41  C   UNL A   1      39.884  28.400  28.649  1.00  0.00     0.031 A 
ATOM     42  C   UNL A   1      40.185  26.968  28.517  1.00  0.00     0.074 A 
ATOM     43  C   UNL A   1      40.864  29.326  28.580  1.00  0.00     0.049 A 
ATOM     44  N   UNL A   1      41.313  26.428  28.820  1.00  0.00    -0.248 NA
ATOM     45  C   UNL A   1      39.179  26.018  28.066  1.00  0.00     0.031 C 
ATOM     46  C   UNL A   1      42.250  29.124  28.178  1.00  0.00     0.029 A 
ATOM     47  N   UNL A   1      40.840  30.627  29.089  1.00  0.00    -0.354 N 
ATOM     48  C   UNL A   1      41.281  25.130  28.356  1.00  0.00     0.074 A 
ATOM     49  C   UNL A   1      39.906  24.903  27.980  1.00  0.00     0.031 C 
ATOM     50  C   UNL A   1      42.997  30.115  28.690  1.00  0.00     0.029 A 
ATOM     51  C   UNL A   1      42.138  30.886  29.573  1.00  0.00     0.049 A 
ATOM     52  H   UNL A   1      40.071  31.240  29.106  1.00  0.00     0.167 HD
ATOM     53  C   UNL A   1      42.459  24.461  28.196  1.00  0.00     0.034 A 
ATOM     54  C   UNL A   1      42.414  31.215  30.870  1.00  0.00     0.034 A 
ATOM     55  C   UNL A   1      43.582  25.259  28.719  1.00  0.00     0.049 A 
ATOM     56  C   UNL A   1      43.366  30.232  31.533  1.00  0.00     0.074 A 
ATOM     57  C   UNL A   1      44.487  26.113  28.110  1.00  0.00     0.029 A 
ATOM     58  N   UNL A   1      43.684  25.493  30.088  1.00  0.00    -0.354 N 
ATOM     59  N   UNL A   1      43.762  29.113  30.992  1.00  0.00    -0.248 NA
ATOM     60  C   UNL A   1      43.900  30.411  32.881  1.00  0.00     0.031 C 
ATOM     61  C   UNL A   1      45.062  26.933  29.117  1.00  0.00     0.029 A 
ATOM     62  C   UNL A   1      44.538  26.558  30.342  1.00  0.00     0.049 A 
ATOM     63  H   UNL A   1      43.215  24.974  30.780  1.00  0.00     0.167 HD
ATOM     64  C   UNL A   1      44.431  28.360  31.922  1.00  0.00     0.074 A 
ATOM     65  C   UNL A   1      44.573  29.260  33.056  1.00  0.00     0.031 C 
ATOM     66  C   UNL A   1      44.743  27.042  31.708  1.00  0.00     0.034 A 
BRANCH  53  67
ATOM     67  C   UNL A   1      42.644  23.268  27.265  1.00  0.00     0.023 A 
ATOM     68  C   UNL A   1      41.916  22.095  27.569  1.00  0.00     0.012 A 
ATOM     69  C   UNL A   1      43.534  23.167  26.170  1.00  0.00     0.148 A 
ATOM     70  C   UNL A   1      42.135  20.877  26.914  1.00  0.00     0.002 A 
ATOM     71  C   UNL A   1      43.809  21.937  25.561  1.00  0.00     0.091 A 
ATOM     72  F   UNL A   1      44.060  24.271  25.637  1.00  0.00    -0.205 F 
ATOM     73  C   UNL A   1      43.112  20.787  25.935  1.00  0.00     0.022 A 
BRANCH  71  74
ATOM     74  S   UNL A   1      45.112  21.730  24.331  1.00  0.00     0.127 S 
ATOM     75  O   UNL A   1      44.813  20.405  23.786  1.00  0.00    -0.237 OA
ATOM     76  O   UNL A   1      44.855  22.837  23.413  1.00  0.00    -0.237 OA
ATOM     77  O   UNL A   1      46.373  21.802  25.060  1.00  0.00    -0.744 OA
ENDBRANCH  71  74
ENDBRANCH  53  67
BRANCH  54  78
ATOM     78  C   UNL A   1      41.270  31.897  31.555  1.00  0.00     0.023 A 
ATOM     79  C   UNL A   1      40.765  33.067  30.934  1.00  0.00     0.012 A 
ATOM     80  C   UNL A   1      40.446  31.197  32.450  1.00  0.00     0.148 A 
ATOM     81  C   UNL A   1      39.409  33.383  31.013  1.00  0.00     0.002 A 
ATOM     82  C   UNL A   1      39.100  31.540  32.546  1.00  0.00     0.091 A 
ATOM     83  F   UNL A   1      40.954  30.160  33.127  1.00  0.00    -0.205 F 
ATOM     84  C   UNL A   1      38.565  32.585  31.778  1.00  0.00     0.022 A 
BRANCH  82  85
ATOM     85  S   UNL A   1      38.000  30.565  33.579  1.00  0.00     0.127 S 
ATOM     86  O   UNL A   1      36.692  31.021  33.125  1.00  0.00    -0.237 OA
ATOM     87  O   UNL A   1      38.336  29.193  33.203  1.00  0.00    -0.237 OA
ATOM     88  O   UNL A   1      38.385  30.924  34.937  1.00  0.00    -0.744 OA
ENDBRANCH  82  85
ENDBRANCH  54  78
BRANCH  66  89
ATOM     89  C   UNL A   1      45.276  26.090  32.768  1.00  0.00     0.023 A 
ATOM     90  C   UNL A   1      46.629  25.698  32.818  1.00  0.00     0.012 A 
ATOM     91  C   UNL A   1      44.453  25.647  33.837  1.00  0.00     0.148 A 
ATOM     92  C   UNL A   1      47.120  24.835  33.806  1.00  0.00     0.002 A 
ATOM     93  C   UNL A   1      44.975  24.887  34.883  1.00  0.00     0.091 A 
ATOM     94  F   UNL A   1      43.145  25.937  33.836  1.00  0.00    -0.205 F 
ATOM     95  C   UNL A   1      46.297  24.444  34.850  1.00  0.00     0.022 A 
BRANCH  93  96
ATOM     96  S   UNL A   1      44.023  24.583  36.379  1.00  0.00     0.127 S 
ATOM     97  O   UNL A   1      42.890  23.816  35.868  1.00  0.00    -0.237 OA
ATOM     98  O   UNL A   1      44.961  23.811  37.198  1.00  0.00    -0.237 OA
ATOM     99  O   UNL A   1      43.720  25.905  36.910  1.00  0.00    -0.744 OA
ENDBRANCH  93  96
ENDBRANCH  66  89
ENDBRANCH  40  41
ENDBRANCH  32  35
ENDBRANCH  30  31
ENDBRANCH   1  30
TORSDOF 15
ENDMDL
MODEL 3
REMARK VINA RESULT:     -13.8      1.476      1.777
REMARK SMILES Cc1ccccc1[C@@H]1[NH2+][C@@H](C(=O)NCCCCNC(=O)c2ccc(-c3c4nc(c(-c5cccc(S(=O)(=O)[O-])c5F)c5ccc([nH]5)c(-c5cccc(S(=O)(=O)[O-])c5F)c5nc(c(-c6cccc(S(=O)(=O)[O-])c6F)c6ccc3[nH]6)C=C5)C=C4)cc2)CC2=c3ccccc3=N[C@H]21
REMARK SMILES IDX 16 1 15 2 14 3 13 4 11 5 12 6 10 8 8 9 9 10 93 11 85 14
REMARK SMILES IDX 92 15 84 16 86 17 91 18 87 19 90 20 88 21 89 22 7 23 1 24
REMARK SMILES IDX 2 25 3 26 4 27 6 28 5 29 17 30 18 31 19 32 20 34 21 35 22 36
REMARK SMILES IDX 83 37 23 38 82 39 24 40 25 41 26 42 76 43 27 44 81 45 75 46
REMARK SMILES IDX 77 47 28 48 80 49 74 50 73 51 29 53 61 54 41 55 60 56 42 57
REMARK SMILES IDX 45 58 59 59 78 60 43 61 44 62 58 64 79 65 46 66 30 67 31 68
REMARK SMILES IDX 39 69 32 70 34 71 40 72 33 73 35 74 36 75 37 76 38 77 62 78
REMARK SMILES IDX 63 79 71 80 64 81 66 82 72 83 65 84 67 85 68 86 69 87 70 88
REMARK SMILES IDX 47 89 48 90 56 91 49 92 51 93 57 94 50 95 52 96 53 97 54 98
REMARK SMILES IDX 55 99
REMARK H PARENT 13 7 9 12 9 13 18 33 77 52 45 63
REMARK Flexibility Score: inf
ROOT
ATOM      1  C   UNL A   1      34.456  33.063  28.606  1.00  0.00     0.023 C 
ENDROOT
BRANCH   1   2
ATOM      2  C   UNL A   1      34.657  31.749  27.866  1.00  0.00     0.023 C 
BRANCH   2   3
ATOM      3  C   UNL A   1      33.377  31.064  27.357  1.00  0.00     0.116 C 
BRANCH   3   4
ATOM      4  N   UNL A   1      33.345  29.604  27.388  1.00  0.00    -0.351 N 
ATOM      5  C   UNL A   1      33.593  28.668  26.417  1.00  0.00     0.278 C 
ATOM      6  O   UNL A   1      34.094  27.599  26.796  1.00  0.00    -0.268 OA
ATOM      7  H   UNL A   1      33.100  29.224  28.262  1.00  0.00     0.163 HD
BRANCH   5   8
ATOM      8  C   UNL A   1      33.114  28.828  24.941  1.00  0.00     0.277 C 
ATOM      9  C   UNL A   1      31.058  27.751  23.790  1.00  0.00     0.243 C 
ATOM     10  N   UNL A   1      31.627  28.616  24.862  1.00  0.00    -0.327 N 
ATOM     11  C   UNL A   1      32.008  27.104  22.732  1.00  0.00     0.196 C 
ATOM     12  H   UNL A   1      31.340  28.210  25.753  1.00  0.00     0.347 HD
ATOM     13  H   UNL A   1      31.269  29.542  24.633  1.00  0.00     0.347 HD
ATOM     14  C   UNL A   1      33.324  26.903  23.379  1.00  0.00    -0.024 C 
ATOM     15  N   UNL A   1      31.585  25.727  22.321  1.00  0.00    -0.270 NA
ATOM     16  C   UNL A   1      33.964  28.118  23.893  1.00  0.00     0.109 C 
ATOM     17  C   UNL A   1      33.658  25.628  23.476  1.00  0.00     0.002 A 
ATOM     18  C   UNL A   1      32.561  24.979  22.746  1.00  0.00     0.066 A 
ATOM     19  C   UNL A   1      34.699  24.898  24.116  1.00  0.00     0.010 A 
ATOM     20  C   UNL A   1      32.695  23.519  22.562  1.00  0.00     0.028 A 
ATOM     21  C   UNL A   1      34.711  23.564  23.976  1.00  0.00     0.001 A 
ATOM     22  C   UNL A   1      33.725  22.883  23.150  1.00  0.00     0.002 A 
BRANCH   9  23
ATOM     23  C   UNL A   1      29.894  28.449  23.069  1.00  0.00     0.015 A 
ATOM     24  C   UNL A   1      28.068  26.835  23.914  1.00  0.00     0.045 C 
ATOM     25  C   UNL A   1      28.536  28.071  23.195  1.00  0.00    -0.042 A 
ATOM     26  C   UNL A   1      27.535  28.919  22.684  1.00  0.00     0.004 A 
ATOM     27  C   UNL A   1      27.857  30.086  21.995  1.00  0.00     0.000 A 
ATOM     28  C   UNL A   1      30.196  29.605  22.317  1.00  0.00     0.010 A 
ATOM     29  C   UNL A   1      29.190  30.413  21.786  1.00  0.00     0.001 A 
ENDBRANCH   9  23
ENDBRANCH   5   8
ENDBRANCH   3   4
ENDBRANCH   2   3
ENDBRANCH   1   2
BRANCH   1  30
ATOM     30  C   UNL A   1      34.808  32.998  30.084  1.00  0.00     0.116 C 
BRANCH  30  31
ATOM     31  N   UNL A   1      34.018  33.864  30.952  1.00  0.00    -0.352 N 
ATOM     32  C   UNL A   1      34.320  34.275  32.245  1.00  0.00     0.251 C 
ATOM     33  H   UNL A   1      33.170  34.197  30.577  1.00  0.00     0.163 HD
ATOM     34  O   UNL A   1      33.502  34.930  32.889  1.00  0.00    -0.269 OA
BRANCH  32  35
ATOM     35  C   UNL A   1      35.682  34.007  32.770  1.00  0.00     0.039 A 
ATOM     36  C   UNL A   1      36.732  34.791  32.287  1.00  0.00     0.014 A 
ATOM     37  C   UNL A   1      35.945  32.808  33.425  1.00  0.00     0.014 A 
ATOM     38  C   UNL A   1      38.002  34.230  32.182  1.00  0.00     0.010 A 
ATOM     39  C   UNL A   1      37.163  32.201  33.211  1.00  0.00     0.010 A 
ATOM     40  C   UNL A   1      38.166  32.890  32.523  1.00  0.00    -0.014 A 
BRANCH  40  41
ATOM     41  C   UNL A   1      39.373  32.128  32.256  1.00  0.00     0.031 A 
ATOM     42  C   UNL A   1      39.251  30.868  31.509  1.00  0.00     0.074 A 
ATOM     43  C   UNL A   1      40.583  32.612  32.608  1.00  0.00     0.049 A 
ATOM     44  N   UNL A   1      40.107  29.908  31.553  1.00  0.00    -0.248 NA
ATOM     45  C   UNL A   1      38.090  30.585  30.678  1.00  0.00     0.031 C 
ATOM     46  C   UNL A   1      41.891  32.143  32.169  1.00  0.00     0.029 A 
ATOM     47  N   UNL A   1      40.869  33.513  33.638  1.00  0.00    -0.354 N 
ATOM     48  C   UNL A   1      39.762  29.009  30.565  1.00  0.00     0.074 A 
ATOM     49  C   UNL A   1      38.457  29.432  30.116  1.00  0.00     0.031 C 
ATOM     50  C   UNL A   1      42.811  32.521  33.071  1.00  0.00     0.029 A 
ATOM     51  C   UNL A   1      42.094  33.098  34.197  1.00  0.00     0.049 A 
ATOM     52  H   UNL A   1      40.324  34.283  33.917  1.00  0.00     0.167 HD
ATOM     53  C   UNL A   1      40.697  28.114  30.135  1.00  0.00     0.034 A 
ATOM     54  C   UNL A   1      42.253  32.750  35.508  1.00  0.00     0.034 A 
ATOM     55  C   UNL A   1      41.912  28.199  30.965  1.00  0.00     0.049 A 
ATOM     56  C   UNL A   1      42.755  31.325  35.678  1.00  0.00     0.074 A 
ATOM     57  C   UNL A   1      43.113  28.871  30.800  1.00  0.00     0.029 A 
ATOM     58  N   UNL A   1      41.868  27.798  32.298  1.00  0.00    -0.354 N 
ATOM     59  N   UNL A   1      42.879  30.468  34.703  1.00  0.00    -0.248 NA
ATOM     60  C   UNL A   1      43.105  30.742  36.972  1.00  0.00     0.031 C 
ATOM     61  C   UNL A   1      43.744  28.958  32.070  1.00  0.00     0.029 A 
ATOM     62  C   UNL A   1      42.950  28.311  33.002  1.00  0.00     0.049 A 
ATOM     63  H   UNL A   1      41.165  27.230  32.687  1.00  0.00     0.167 HD
ATOM     64  C   UNL A   1      43.143  29.222  35.212  1.00  0.00     0.074 A 
ATOM     65  C   UNL A   1      43.370  29.470  36.627  1.00  0.00     0.031 C 
ATOM     66  C   UNL A   1      43.077  28.089  34.443  1.00  0.00     0.034 A 
BRANCH  53  67
ATOM     67  C   UNL A   1      40.660  27.426  28.777  1.00  0.00     0.023 A 
ATOM     68  C   UNL A   1      39.707  26.396  28.602  1.00  0.00     0.012 A 
ATOM     69  C   UNL A   1      41.535  27.638  27.685  1.00  0.00     0.148 A 
ATOM     70  C   UNL A   1      39.692  25.560  27.478  1.00  0.00     0.002 A 
ATOM     71  C   UNL A   1      41.571  26.761  26.594  1.00  0.00     0.091 A 
ATOM     72  F   UNL A   1      42.282  28.743  27.636  1.00  0.00    -0.205 F 
ATOM     73  C   UNL A   1      40.651  25.716  26.491  1.00  0.00     0.022 A 
BRANCH  71  74
ATOM     74  S   UNL A   1      42.832  26.861  25.308  1.00  0.00     0.127 S 
ATOM     75  O   UNL A   1      42.640  25.599  24.590  1.00  0.00    -0.237 OA
ATOM     76  O   UNL A   1      42.428  28.051  24.564  1.00  0.00    -0.237 OA
ATOM     77  O   UNL A   1      44.112  26.960  26.001  1.00  0.00    -0.744 OA
ENDBRANCH  71  74
ENDBRANCH  53  67
BRANCH  54  78
ATOM     78  C   UNL A   1      41.272  33.428  36.414  1.00  0.00     0.023 A 
ATOM     79  C   UNL A   1      41.344  34.843  36.481  1.00  0.00     0.012 A 
ATOM     80  C   UNL A   1      40.078  32.794  36.787  1.00  0.00     0.148 A 
ATOM     81  C   UNL A   1      40.190  35.603  36.673  1.00  0.00     0.002 A 
ATOM     82  C   UNL A   1      38.939  33.562  37.008  1.00  0.00     0.091 A 
ATOM     83  F   UNL A   1      40.040  31.456  36.837  1.00  0.00    -0.205 F 
ATOM     84  C   UNL A   1      38.976  34.959  36.885  1.00  0.00     0.022 A 
BRANCH  82  85
ATOM     85  S   UNL A   1      37.369  32.758  37.348  1.00  0.00     0.127 S 
ATOM     86  O   UNL A   1      37.339  32.777  38.806  1.00  0.00    -0.237 OA
ATOM     87  O   UNL A   1      36.404  33.648  36.704  1.00  0.00    -0.237 OA
ATOM     88  O   UNL A   1      37.497  31.454  36.711  1.00  0.00    -0.744 OA
ENDBRANCH  82  85
ENDBRANCH  54  78
BRANCH  66  89
ATOM     89  C   UNL A   1      43.134  26.667  34.979  1.00  0.00     0.023 A 
ATOM     90  C   UNL A   1      41.973  25.911  35.239  1.00  0.00     0.012 A 
ATOM     91  C   UNL A   1      44.372  25.987  35.126  1.00  0.00     0.148 A 
ATOM     92  C   UNL A   1      42.029  24.596  35.716  1.00  0.00     0.002 A 
ATOM     93  C   UNL A   1      44.419  24.640  35.484  1.00  0.00     0.091 A 
ATOM     94  F   UNL A   1      45.523  26.650  34.943  1.00  0.00    -0.205 F 
ATOM     95  C   UNL A   1      43.253  23.953  35.822  1.00  0.00     0.022 A 
BRANCH  93  96
ATOM     96  S   UNL A   1      45.948  23.700  35.376  1.00  0.00     0.127 S 
ATOM     97  O   UNL A   1      46.752  24.301  36.436  1.00  0.00    -0.237 OA
ATOM     98  O   UNL A   1      45.499  22.333  35.654  1.00  0.00    -0.237 OA
ATOM     99  O   UNL A   1      46.423  23.903  34.014  1.00  0.00    -0.744 OA
ENDBRANCH  93  96
ENDBRANCH  66  89
ENDBRANCH  40  41
ENDBRANCH  32  35
ENDBRANCH  30  31
ENDBRANCH   1  30
TORSDOF 15
ENDMDL
