MODEL 1
REMARK VINA RESULT:     -12.6      0.000      0.000
REMARK SMILES O=C(NCCCCNC(=O)[C@@H]1[C@@H](C(=O)NCCCn2ccnc2)[C@@H]2C=C[C@H]1C2)c1ccc(-c2c3nc(c(-c4cccc(S(=O)(=O)[O-])c4F)c4ccc([nH]4)c(-c4cccc(S(=O)(=O)[O-])c4F)c4nc(c(-c5cccc(S(=O)(=O)[O-])c5F)c5ccc2[nH]5)C=C4)C=C3)cc1
REMARK SMILES IDX 6 1 5 2 4 3 3 4 1 5 2 6 29 8 30 9 91 10 31 11 90 12 32 13
REMARK SMILES IDX 33 14 34 15 84 16 35 17 89 18 83 19 85 20 36 21 88 22 82 23
REMARK SMILES IDX 81 24 37 26 69 27 49 28 68 29 50 30 53 31 67 32 86 33 51 34
REMARK SMILES IDX 52 35 66 37 87 38 54 39 38 40 39 41 47 42 40 43 42 44 48 45
REMARK SMILES IDX 41 46 43 47 44 48 45 49 46 50 70 51 71 52 79 53 72 54 74 55
REMARK SMILES IDX 80 56 73 57 75 58 76 59 77 60 78 61 55 62 56 63 64 64 57 65
REMARK SMILES IDX 59 66 65 67 58 68 60 69 61 70 62 71 63 72 7 73 8 74 9 75
REMARK SMILES IDX 10 77 11 78 12 79 27 80 24 81 26 82 28 83 25 84 13 85 14 86
REMARK SMILES IDX 15 87 16 89 17 90 18 91 19 92 20 93 23 94 21 95 22 96
REMARK H PARENT 3 7 85 25 53 36 8 76 15 88
REMARK Flexibility Score: inf
ROOT
ATOM      1  C   UNL A   1      31.833  29.363  26.261  1.00  0.00     0.023 C 
ENDROOT
BRANCH   1   2
ATOM      2  C   UNL A   1      33.178  30.086  26.334  1.00  0.00     0.023 C 
BRANCH   2   3
ATOM      3  C   UNL A   1      33.585  30.560  27.731  1.00  0.00     0.116 C 
BRANCH   3   4
ATOM      4  N   UNL A   1      34.216  31.866  27.777  1.00  0.00    -0.352 N 
ATOM      5  O   UNL A   1      35.670  33.525  27.771  1.00  0.00    -0.269 OA
ATOM      6  C   UNL A   1      35.508  32.307  27.886  1.00  0.00     0.251 C 
ATOM      7  H   UNL A   1      33.567  32.603  27.715  1.00  0.00     0.163 HD
BRANCH   6   8
ATOM      8  C   UNL A   1      36.682  31.444  28.180  1.00  0.00     0.039 A 
ATOM      9  C   UNL A   1      36.838  30.129  27.742  1.00  0.00     0.014 A 
ATOM     10  C   UNL A   1      37.699  32.012  28.970  1.00  0.00     0.014 A 
ATOM     11  C   UNL A   1      37.930  29.373  28.145  1.00  0.00     0.010 A 
ATOM     12  C   UNL A   1      38.814  31.271  29.354  1.00  0.00     0.010 A 
ATOM     13  C   UNL A   1      38.914  29.942  28.956  1.00  0.00    -0.014 A 
BRANCH  13  14
ATOM     14  C   UNL A   1      40.108  29.143  29.200  1.00  0.00     0.031 A 
ATOM     15  C   UNL A   1      40.338  28.793  30.631  1.00  0.00     0.074 A 
ATOM     16  C   UNL A   1      40.902  28.647  28.235  1.00  0.00     0.049 A 
ATOM     17  N   UNL A   1      41.317  29.162  31.394  1.00  0.00    -0.248 NA
ATOM     18  C   UNL A   1      39.289  28.033  31.323  1.00  0.00     0.031 C 
ATOM     19  C   UNL A   1      40.650  28.625  26.794  1.00  0.00     0.029 A 
ATOM     20  N   UNL A   1      42.054  27.926  28.366  1.00  0.00    -0.354 N 
ATOM     21  C   UNL A   1      41.113  28.508  32.610  1.00  0.00     0.074 A 
ATOM     22  C   UNL A   1      39.780  27.964  32.560  1.00  0.00     0.031 C 
ATOM     23  C   UNL A   1      41.476  27.720  26.220  1.00  0.00     0.029 A 
ATOM     24  C   UNL A   1      42.389  27.207  27.228  1.00  0.00     0.049 A 
ATOM     25  H   UNL A   1      42.594  27.919  29.190  1.00  0.00     0.167 HD
ATOM     26  C   UNL A   1      42.130  28.279  33.486  1.00  0.00     0.034 A 
ATOM     27  C   UNL A   1      43.290  26.199  27.148  1.00  0.00     0.034 A 
ATOM     28  C   UNL A   1      43.290  29.072  33.181  1.00  0.00     0.049 A 
ATOM     29  C   UNL A   1      44.196  26.303  28.314  1.00  0.00     0.074 A 
ATOM     30  C   UNL A   1      43.572  30.419  33.093  1.00  0.00     0.029 A 
ATOM     31  N   UNL A   1      44.345  28.423  32.590  1.00  0.00    -0.354 N 
ATOM     32  N   UNL A   1      45.069  27.257  28.474  1.00  0.00    -0.248 NA
ATOM     33  C   UNL A   1      43.887  25.530  29.507  1.00  0.00     0.031 C 
ATOM     34  C   UNL A   1      44.542  30.523  32.053  1.00  0.00     0.029 A 
ATOM     35  C   UNL A   1      44.814  29.233  31.595  1.00  0.00     0.049 A 
ATOM     36  H   UNL A   1      44.698  27.537  32.837  1.00  0.00     0.167 HD
ATOM     37  C   UNL A   1      45.076  27.493  29.842  1.00  0.00     0.074 A 
ATOM     38  C   UNL A   1      44.438  26.320  30.431  1.00  0.00     0.031 C 
ATOM     39  C   UNL A   1      45.331  28.740  30.337  1.00  0.00     0.034 A 
BRANCH  26  40
ATOM     40  C   UNL A   1      42.232  27.092  34.418  1.00  0.00     0.023 A 
ATOM     41  C   UNL A   1      41.687  27.239  35.716  1.00  0.00     0.012 A 
ATOM     42  C   UNL A   1      43.070  25.977  34.198  1.00  0.00     0.148 A 
ATOM     43  C   UNL A   1      42.015  26.362  36.756  1.00  0.00     0.002 A 
ATOM     44  C   UNL A   1      43.325  25.060  35.215  1.00  0.00     0.091 A 
ATOM     45  F   UNL A   1      43.739  25.859  33.049  1.00  0.00    -0.205 F 
ATOM     46  C   UNL A   1      42.829  25.268  36.503  1.00  0.00     0.022 A 
BRANCH  44  47
ATOM     47  S   UNL A   1      44.325  23.595  34.922  1.00  0.00     0.127 S 
ATOM     48  O   UNL A   1      44.505  23.091  36.286  1.00  0.00    -0.237 OA
ATOM     49  O   UNL A   1      43.432  22.790  34.083  1.00  0.00    -0.237 OA
ATOM     50  O   UNL A   1      45.516  24.065  34.247  1.00  0.00    -0.744 OA
ENDBRANCH  44  47
ENDBRANCH  26  40
BRANCH  27  51
ATOM     51  C   UNL A   1      43.299  25.010  26.266  1.00  0.00     0.023 A 
ATOM     52  C   UNL A   1      44.270  24.904  25.250  1.00  0.00     0.012 A 
ATOM     53  C   UNL A   1      42.542  23.862  26.587  1.00  0.00     0.148 A 
ATOM     54  C   UNL A   1      44.501  23.688  24.597  1.00  0.00     0.002 A 
ATOM     55  C   UNL A   1      42.767  22.658  25.927  1.00  0.00     0.091 A 
ATOM     56  F   UNL A   1      41.670  23.925  27.602  1.00  0.00    -0.205 F 
ATOM     57  C   UNL A   1      43.755  22.564  24.940  1.00  0.00     0.022 A 
BRANCH  55  58
ATOM     58  S   UNL A   1      41.853  21.163  26.333  1.00  0.00     0.127 S 
ATOM     59  O   UNL A   1      42.416  20.198  25.388  1.00  0.00    -0.237 OA
ATOM     60  O   UNL A   1      42.230  20.948  27.726  1.00  0.00    -0.237 OA
ATOM     61  O   UNL A   1      40.450  21.480  26.095  1.00  0.00    -0.744 OA
ENDBRANCH  55  58
ENDBRANCH  27  51
BRANCH  39  62
ATOM     62  C   UNL A   1      45.918  29.773  29.413  1.00  0.00     0.023 A 
ATOM     63  C   UNL A   1      47.307  29.881  29.193  1.00  0.00     0.012 A 
ATOM     64  C   UNL A   1      45.041  30.528  28.614  1.00  0.00     0.148 A 
ATOM     65  C   UNL A   1      47.810  30.745  28.219  1.00  0.00     0.002 A 
ATOM     66  C   UNL A   1      45.543  31.346  27.611  1.00  0.00     0.091 A 
ATOM     67  F   UNL A   1      43.722  30.410  28.832  1.00  0.00    -0.205 F 
ATOM     68  C   UNL A   1      46.928  31.467  27.417  1.00  0.00     0.022 A 
BRANCH  66  69
ATOM     69  S   UNL A   1      44.455  32.184  26.456  1.00  0.00     0.127 S 
ATOM     70  O   UNL A   1      43.957  33.299  27.259  1.00  0.00    -0.237 OA
ATOM     71  O   UNL A   1      45.371  32.567  25.379  1.00  0.00    -0.237 OA
ATOM     72  O   UNL A   1      43.459  31.196  26.060  1.00  0.00    -0.744 OA
ENDBRANCH  66  69
ENDBRANCH  39  62
ENDBRANCH  13  14
ENDBRANCH   6   8
ENDBRANCH   3   4
ENDBRANCH   2   3
ENDBRANCH   1   2
BRANCH   1  73
ATOM     73  C   UNL A   1      31.679  28.186  27.217  1.00  0.00     0.116 C 
BRANCH  73  74
ATOM     74  N   UNL A   1      30.901  27.092  26.664  1.00  0.00    -0.356 N 
ATOM     75  C   UNL A   1      31.178  26.111  25.771  1.00  0.00     0.224 C 
ATOM     76  H   UNL A   1      29.980  27.054  27.012  1.00  0.00     0.163 HD
ATOM     77  O   UNL A   1      30.298  25.251  25.623  1.00  0.00    -0.275 OA
BRANCH  75  78
ATOM     78  C   UNL A   1      32.445  25.992  24.923  1.00  0.00     0.098 C 
ATOM     79  C   UNL A   1      32.408  25.311  23.525  1.00  0.00     0.098 C 
ATOM     80  C   UNL A   1      33.590  25.250  25.664  1.00  0.00     0.025 C 
ATOM     81  C   UNL A   1      33.543  24.245  23.667  1.00  0.00     0.025 C 
ATOM     82  C   UNL A   1      33.213  23.813  25.904  1.00  0.00    -0.027 C 
ATOM     83  C   UNL A   1      34.572  25.014  24.512  1.00  0.00     0.017 C 
ATOM     84  C   UNL A   1      33.172  23.210  24.707  1.00  0.00    -0.027 C 
BRANCH  79  85
ATOM     85  C   UNL A   1      32.745  26.255  22.375  1.00  0.00     0.224 C 
ATOM     86  O   UNL A   1      33.766  26.139  21.695  1.00  0.00    -0.275 OA
ATOM     87  N   UNL A   1      31.884  27.241  22.007  1.00  0.00    -0.356 N 
ATOM     88  H   UNL A   1      32.196  27.791  21.254  1.00  0.00     0.163 HD
BRANCH  87  89
ATOM     89  C   UNL A   1      30.586  27.625  22.531  1.00  0.00     0.117 C 
BRANCH  89  90
ATOM     90  C   UNL A   1      30.547  29.110  22.897  1.00  0.00     0.043 C 
BRANCH  90  91
ATOM     91  C   UNL A   1      29.162  29.637  23.286  1.00  0.00     0.125 C 
BRANCH  91  92
ATOM     92  N   UNL A   1      28.709  30.744  22.470  1.00  0.00    -0.337 N 
ATOM     93  C   UNL A   1      28.493  30.726  21.121  1.00  0.00     0.107 A 
ATOM     94  C   UNL A   1      28.452  32.009  22.915  1.00  0.00     0.199 A 
ATOM     95  C   UNL A   1      28.056  31.995  20.817  1.00  0.00     0.130 A 
ATOM     96  N   UNL A   1      28.046  32.786  21.936  1.00  0.00    -0.245 NA
ENDBRANCH  91  92
ENDBRANCH  90  91
ENDBRANCH  89  90
ENDBRANCH  87  89
ENDBRANCH  79  85
ENDBRANCH  75  78
ENDBRANCH  73  74
ENDBRANCH   1  73
TORSDOF 19
ENDMDL
MODEL 2
REMARK VINA RESULT:     -12.0      1.657      2.017
REMARK SMILES O=C(NCCCCNC(=O)[C@@H]1[C@@H](C(=O)NCCCn2ccnc2)[C@@H]2C=C[C@H]1C2)c1ccc(-c2c3nc(c(-c4cccc(S(=O)(=O)[O-])c4F)c4ccc([nH]4)c(-c4cccc(S(=O)(=O)[O-])c4F)c4nc(c(-c5cccc(S(=O)(=O)[O-])c5F)c5ccc2[nH]5)C=C4)C=C3)cc1
REMARK SMILES IDX 6 1 5 2 4 3 3 4 1 5 2 6 29 8 30 9 91 10 31 11 90 12 32 13
REMARK SMILES IDX 33 14 34 15 84 16 35 17 89 18 83 19 85 20 36 21 88 22 82 23
REMARK SMILES IDX 81 24 37 26 69 27 49 28 68 29 50 30 53 31 67 32 86 33 51 34
REMARK SMILES IDX 52 35 66 37 87 38 54 39 38 40 39 41 47 42 40 43 42 44 48 45
REMARK SMILES IDX 41 46 43 47 44 48 45 49 46 50 70 51 71 52 79 53 72 54 74 55
REMARK SMILES IDX 80 56 73 57 75 58 76 59 77 60 78 61 55 62 56 63 64 64 57 65
REMARK SMILES IDX 59 66 65 67 58 68 60 69 61 70 62 71 63 72 7 73 8 74 9 75
REMARK SMILES IDX 10 77 11 78 12 79 27 80 24 81 26 82 28 83 25 84 13 85 14 86
REMARK SMILES IDX 15 87 16 89 17 90 18 91 19 92 20 93 23 94 21 95 22 96
REMARK H PARENT 3 7 85 25 53 36 8 76 15 88
REMARK Flexibility Score: inf
ROOT
ATOM      1  C   UNL A   1      31.730  28.407  27.267  1.00  0.00     0.023 C 
ENDROOT
BRANCH   1   2
ATOM      2  C   UNL A   1      32.104  29.754  26.648  1.00  0.00     0.023 C 
BRANCH   2   3
ATOM      3  C   UNL A   1      33.540  30.212  26.912  1.00  0.00     0.116 C 
BRANCH   3   4
ATOM      4  N   UNL A   1      33.681  31.240  27.925  1.00  0.00    -0.352 N 
ATOM      5  O   UNL A   1      34.473  32.678  29.400  1.00  0.00    -0.269 OA
ATOM      6  C   UNL A   1      34.707  31.674  28.721  1.00  0.00     0.251 C 
ATOM      7  H   UNL A   1      32.847  31.741  28.075  1.00  0.00     0.163 HD
BRANCH   6   8
ATOM      8  C   UNL A   1      36.025  30.999  28.857  1.00  0.00     0.039 A 
ATOM      9  C   UNL A   1      36.232  29.623  28.764  1.00  0.00     0.014 A 
ATOM     10  C   UNL A   1      37.135  31.829  29.105  1.00  0.00     0.014 A 
ATOM     11  C   UNL A   1      37.487  29.078  28.995  1.00  0.00     0.010 A 
ATOM     12  C   UNL A   1      38.405  31.293  29.307  1.00  0.00     0.010 A 
ATOM     13  C   UNL A   1      38.572  29.912  29.274  1.00  0.00    -0.014 A 
BRANCH  13  14
ATOM     14  C   UNL A   1      39.886  29.285  29.339  1.00  0.00     0.031 A 
ATOM     15  C   UNL A   1      40.427  29.122  30.718  1.00  0.00     0.074 A 
ATOM     16  C   UNL A   1      40.540  28.778  28.279  1.00  0.00     0.049 A 
ATOM     17  N   UNL A   1      41.475  29.680  31.233  1.00  0.00    -0.248 NA
ATOM     18  C   UNL A   1      39.637  28.330  31.670  1.00  0.00     0.031 C 
ATOM     19  C   UNL A   1      40.025  28.569  26.926  1.00  0.00     0.029 A 
ATOM     20  N   UNL A   1      41.781  28.210  28.236  1.00  0.00    -0.354 N 
ATOM     21  C   UNL A   1      41.593  29.145  32.517  1.00  0.00     0.074 A 
ATOM     22  C   UNL A   1      40.359  28.453  32.784  1.00  0.00     0.031 C 
ATOM     23  C   UNL A   1      40.838  27.705  26.277  1.00  0.00     0.029 A 
ATOM     24  C   UNL A   1      41.986  27.411  27.120  1.00  0.00     0.049 A 
ATOM     25  H   UNL A   1      42.463  28.353  28.931  1.00  0.00     0.167 HD
ATOM     26  C   UNL A   1      42.779  29.129  33.186  1.00  0.00     0.034 A 
ATOM     27  C   UNL A   1      42.980  26.508  26.946  1.00  0.00     0.034 A 
ATOM     28  C   UNL A   1      43.746  30.009  32.587  1.00  0.00     0.049 A 
ATOM     29  C   UNL A   1      44.069  26.841  27.892  1.00  0.00     0.074 A 
ATOM     30  C   UNL A   1      43.826  31.361  32.328  1.00  0.00     0.029 A 
ATOM     31  N   UNL A   1      44.746  29.421  31.853  1.00  0.00    -0.354 N 
ATOM     32  N   UNL A   1      44.823  27.898  27.790  1.00  0.00    -0.248 NA
ATOM     33  C   UNL A   1      44.096  26.175  29.185  1.00  0.00     0.031 C 
ATOM     34  C   UNL A   1      44.559  31.459  31.109  1.00  0.00     0.029 A 
ATOM     35  C   UNL A   1      44.907  30.165  30.717  1.00  0.00     0.049 A 
ATOM     36  H   UNL A   1      45.252  28.614  32.098  1.00  0.00     0.167 HD
ATOM     37  C   UNL A   1      45.058  28.283  29.103  1.00  0.00     0.074 A 
ATOM     38  C   UNL A   1      44.703  27.118  29.908  1.00  0.00     0.031 C 
ATOM     39  C   UNL A   1      45.235  29.597  29.428  1.00  0.00     0.034 A 
BRANCH  26  40
ATOM     40  C   UNL A   1      43.212  28.071  34.176  1.00  0.00     0.023 A 
ATOM     41  C   UNL A   1      43.650  28.513  35.447  1.00  0.00     0.012 A 
ATOM     42  C   UNL A   1      43.484  26.727  33.838  1.00  0.00     0.148 A 
ATOM     43  C   UNL A   1      44.380  27.683  36.305  1.00  0.00     0.002 A 
ATOM     44  C   UNL A   1      44.138  25.882  34.730  1.00  0.00     0.091 A 
ATOM     45  F   UNL A   1      43.239  26.286  32.601  1.00  0.00    -0.205 F 
ATOM     46  C   UNL A   1      44.619  26.364  35.948  1.00  0.00     0.022 A 
BRANCH  44  47
ATOM     47  S   UNL A   1      44.418  24.150  34.340  1.00  0.00     0.127 S 
ATOM     48  O   UNL A   1      45.247  23.729  35.473  1.00  0.00    -0.237 OA
ATOM     49  O   UNL A   1      43.052  23.619  34.349  1.00  0.00    -0.237 OA
ATOM     50  O   UNL A   1      45.054  24.140  33.039  1.00  0.00    -0.744 OA
ENDBRANCH  44  47
ENDBRANCH  26  40
BRANCH  27  51
ATOM     51  C   UNL A   1      42.978  25.238  26.186  1.00  0.00     0.023 A 
ATOM     52  C   UNL A   1      43.923  25.040  25.160  1.00  0.00     0.012 A 
ATOM     53  C   UNL A   1      42.240  24.122  26.638  1.00  0.00     0.148 A 
ATOM     54  C   UNL A   1      44.149  23.767  24.624  1.00  0.00     0.002 A 
ATOM     55  C   UNL A   1      42.460  22.860  26.095  1.00  0.00     0.091 A 
ATOM     56  F   UNL A   1      41.395  24.278  27.665  1.00  0.00    -0.205 F 
ATOM     57  C   UNL A   1      43.424  22.677  25.096  1.00  0.00     0.022 A 
BRANCH  55  58
ATOM     58  S   UNL A   1      41.573  21.406  26.670  1.00  0.00     0.127 S 
ATOM     59  O   UNL A   1      42.059  20.372  25.756  1.00  0.00    -0.237 OA
ATOM     60  O   UNL A   1      42.052  21.284  28.044  1.00  0.00    -0.237 OA
ATOM     61  O   UNL A   1      40.157  21.720  26.516  1.00  0.00    -0.744 OA
ENDBRANCH  55  58
ENDBRANCH  27  51
BRANCH  39  62
ATOM     62  C   UNL A   1      45.495  30.582  28.319  1.00  0.00     0.023 A 
ATOM     63  C   UNL A   1      44.450  31.255  27.653  1.00  0.00     0.012 A 
ATOM     64  C   UNL A   1      46.824  30.967  28.068  1.00  0.00     0.148 A 
ATOM     65  C   UNL A   1      44.727  32.271  26.736  1.00  0.00     0.002 A 
ATOM     66  C   UNL A   1      47.092  32.013  27.195  1.00  0.00     0.091 A 
ATOM     67  F   UNL A   1      47.806  30.320  28.713  1.00  0.00    -0.205 F 
ATOM     68  C   UNL A   1      46.047  32.660  26.517  1.00  0.00     0.022 A 
BRANCH  66  69
ATOM     69  S   UNL A   1      48.755  32.653  26.985  1.00  0.00     0.127 S 
ATOM     70  O   UNL A   1      48.546  33.745  26.037  1.00  0.00    -0.237 OA
ATOM     71  O   UNL A   1      49.104  33.079  28.342  1.00  0.00    -0.237 OA
ATOM     72  O   UNL A   1      49.551  31.535  26.493  1.00  0.00    -0.744 OA
ENDBRANCH  66  69
ENDBRANCH  39  62
ENDBRANCH  13  14
ENDBRANCH   6   8
ENDBRANCH   3   4
ENDBRANCH   2   3
ENDBRANCH   1   2
BRANCH   1  73
ATOM     73  C   UNL A   1      32.251  27.185  26.521  1.00  0.00     0.116 C 
BRANCH  73  74
ATOM     74  N   UNL A   1      31.569  25.955  26.879  1.00  0.00    -0.356 N 
ATOM     75  C   UNL A   1      31.792  24.649  26.592  1.00  0.00     0.224 C 
ATOM     76  H   UNL A   1      30.781  26.099  27.452  1.00  0.00     0.163 HD
ATOM     77  O   UNL A   1      31.069  23.835  27.183  1.00  0.00    -0.275 OA
BRANCH  75  78
ATOM     78  C   UNL A   1      32.818  24.105  25.597  1.00  0.00     0.098 C 
ATOM     79  C   UNL A   1      32.507  22.845  24.740  1.00  0.00     0.098 C 
ATOM     80  C   UNL A   1      34.178  23.769  26.268  1.00  0.00     0.025 C 
ATOM     81  C   UNL A   1      33.743  21.940  25.057  1.00  0.00     0.025 C 
ATOM     82  C   UNL A   1      34.015  22.629  27.237  1.00  0.00    -0.027 C 
ATOM     83  C   UNL A   1      34.866  22.987  25.145  1.00  0.00     0.017 C 
ATOM     84  C   UNL A   1      33.743  21.532  26.514  1.00  0.00    -0.027 C 
BRANCH  79  85
ATOM     85  C   UNL A   1      32.457  23.122  23.240  1.00  0.00     0.224 C 
ATOM     86  O   UNL A   1      33.211  22.571  22.436  1.00  0.00    -0.275 OA
ATOM     87  N   UNL A   1      31.520  23.954  22.716  1.00  0.00    -0.356 N 
ATOM     88  H   UNL A   1      31.574  24.062  21.739  1.00  0.00     0.163 HD
BRANCH  87  89
ATOM     89  C   UNL A   1      30.453  24.712  23.343  1.00  0.00     0.117 C 
BRANCH  89  90
ATOM     90  C   UNL A   1      30.658  26.219  23.167  1.00  0.00     0.043 C 
BRANCH  90  91
ATOM     91  C   UNL A   1      29.580  27.092  23.819  1.00  0.00     0.125 C 
BRANCH  91  92
ATOM     92  N   UNL A   1      29.294  28.308  23.087  1.00  0.00    -0.337 N 
ATOM     93  C   UNL A   1      30.205  29.219  22.634  1.00  0.00     0.107 A 
ATOM     94  C   UNL A   1      28.051  28.763  22.754  1.00  0.00     0.199 A 
ATOM     95  C   UNL A   1      29.456  30.177  21.990  1.00  0.00     0.130 A 
ATOM     96  N   UNL A   1      28.120  29.890  22.080  1.00  0.00    -0.245 NA
ENDBRANCH  91  92
ENDBRANCH  90  91
ENDBRANCH  89  90
ENDBRANCH  87  89
ENDBRANCH  79  85
ENDBRANCH  75  78
ENDBRANCH  73  74
ENDBRANCH   1  73
TORSDOF 19
ENDMDL
MODEL 3
REMARK VINA RESULT:     -12.0      1.519      2.108
REMARK SMILES O=C(NCCCCNC(=O)[C@@H]1[C@@H](C(=O)NCCCn2ccnc2)[C@@H]2C=C[C@H]1C2)c1ccc(-c2c3nc(c(-c4cccc(S(=O)(=O)[O-])c4F)c4ccc([nH]4)c(-c4cccc(S(=O)(=O)[O-])c4F)c4nc(c(-c5cccc(S(=O)(=O)[O-])c5F)c5ccc2[nH]5)C=C4)C=C3)cc1
REMARK SMILES IDX 6 1 5 2 4 3 3 4 1 5 2 6 29 8 30 9 91 10 31 11 90 12 32 13
REMARK SMILES IDX 33 14 34 15 84 16 35 17 89 18 83 19 85 20 36 21 88 22 82 23
REMARK SMILES IDX 81 24 37 26 69 27 49 28 68 29 50 30 53 31 67 32 86 33 51 34
REMARK SMILES IDX 52 35 66 37 87 38 54 39 38 40 39 41 47 42 40 43 42 44 48 45
REMARK SMILES IDX 41 46 43 47 44 48 45 49 46 50 70 51 71 52 79 53 72 54 74 55
REMARK SMILES IDX 80 56 73 57 75 58 76 59 77 60 78 61 55 62 56 63 64 64 57 65
REMARK SMILES IDX 59 66 65 67 58 68 60 69 61 70 62 71 63 72 7 73 8 74 9 75
REMARK SMILES IDX 10 77 11 78 12 79 27 80 24 81 26 82 28 83 25 84 13 85 14 86
REMARK SMILES IDX 15 87 16 89 17 90 18 91 19 92 20 93 23 94 21 95 22 96
REMARK H PARENT 3 7 85 25 53 36 8 76 15 88
REMARK Flexibility Score: inf
ROOT
ATOM      1  C   UNL A   1      31.577  28.352  27.191  1.00  0.00     0.023 C 
ENDROOT
BRANCH   1   2
ATOM      2  C   UNL A   1      32.288  29.672  26.896  1.00  0.00     0.023 C 
BRANCH   2   3
ATOM      3  C   UNL A   1      33.621  29.868  27.623  1.00  0.00     0.116 C 
BRANCH   3   4
ATOM      4  N   UNL A   1      33.999  31.250  27.849  1.00  0.00    -0.352 N 
ATOM      5  O   UNL A   1      35.123  33.131  28.115  1.00  0.00    -0.269 OA
ATOM      6  C   UNL A   1      35.182  31.898  28.087  1.00  0.00     0.251 C 
ATOM      7  H   UNL A   1      33.229  31.862  27.826  1.00  0.00     0.163 HD
BRANCH   6   8
ATOM      8  C   UNL A   1      36.481  31.228  28.361  1.00  0.00     0.039 A 
ATOM      9  C   UNL A   1      37.499  31.752  29.157  1.00  0.00     0.014 A 
ATOM     10  C   UNL A   1      36.682  29.973  27.754  1.00  0.00     0.014 A 
ATOM     11  C   UNL A   1      38.713  31.091  29.279  1.00  0.00     0.010 A 
ATOM     12  C   UNL A   1      37.886  29.288  27.897  1.00  0.00     0.010 A 
ATOM     13  C   UNL A   1      38.910  29.863  28.644  1.00  0.00    -0.014 A 
BRANCH  13  14
ATOM     14  C   UNL A   1      40.143  29.151  28.953  1.00  0.00     0.031 A 
ATOM     15  C   UNL A   1      40.350  28.870  30.402  1.00  0.00     0.074 A 
ATOM     16  C   UNL A   1      40.996  28.670  28.031  1.00  0.00     0.049 A 
ATOM     17  N   UNL A   1      41.279  29.328  31.178  1.00  0.00    -0.248 NA
ATOM     18  C   UNL A   1      39.328  28.072  31.093  1.00  0.00     0.031 C 
ATOM     19  C   UNL A   1      40.790  28.578  26.585  1.00  0.00     0.029 A 
ATOM     20  N   UNL A   1      42.185  28.029  28.223  1.00  0.00    -0.354 N 
ATOM     21  C   UNL A   1      41.079  28.708  32.412  1.00  0.00     0.074 A 
ATOM     22  C   UNL A   1      39.785  28.080  32.346  1.00  0.00     0.031 C 
ATOM     23  C   UNL A   1      41.688  27.707  26.071  1.00  0.00     0.029 A 
ATOM     24  C   UNL A   1      42.600  27.290  27.124  1.00  0.00     0.049 A 
ATOM     25  H   UNL A   1      42.699  28.086  29.061  1.00  0.00     0.167 HD
ATOM     26  C   UNL A   1      42.080  28.577  33.326  1.00  0.00     0.034 A 
ATOM     27  C   UNL A   1      43.563  26.339  27.110  1.00  0.00     0.034 A 
ATOM     28  C   UNL A   1      43.198  29.429  33.023  1.00  0.00     0.049 A 
ATOM     29  C   UNL A   1      44.424  26.543  28.296  1.00  0.00     0.074 A 
ATOM     30  C   UNL A   1      43.399  30.787  32.890  1.00  0.00     0.029 A 
ATOM     31  N   UNL A   1      44.309  28.826  32.489  1.00  0.00    -0.354 N 
ATOM     32  N   UNL A   1      45.231  27.555  28.444  1.00  0.00    -0.248 NA
ATOM     33  C   UNL A   1      44.127  25.798  29.509  1.00  0.00     0.031 C 
ATOM     34  C   UNL A   1      44.392  30.914  31.875  1.00  0.00     0.029 A 
ATOM     35  C   UNL A   1      44.758  29.627  31.476  1.00  0.00     0.049 A 
ATOM     36  H   UNL A   1      44.708  27.975  32.780  1.00  0.00     0.167 HD
ATOM     37  C   UNL A   1      45.181  27.843  29.800  1.00  0.00     0.074 A 
ATOM     38  C   UNL A   1      44.599  26.655  30.417  1.00  0.00     0.031 C 
ATOM     39  C   UNL A   1      45.342  29.120  30.254  1.00  0.00     0.034 A 
BRANCH  26  40
ATOM     40  C   UNL A   1      42.226  27.435  34.306  1.00  0.00     0.023 A 
ATOM     41  C   UNL A   1      41.853  27.681  35.649  1.00  0.00     0.012 A 
ATOM     42  C   UNL A   1      42.966  26.258  34.053  1.00  0.00     0.148 A 
ATOM     43  C   UNL A   1      42.254  26.838  36.691  1.00  0.00     0.002 A 
ATOM     44  C   UNL A   1      43.291  25.380  35.084  1.00  0.00     0.091 A 
ATOM     45  F   UNL A   1      43.484  26.040  32.842  1.00  0.00    -0.205 F 
ATOM     46  C   UNL A   1      42.968  25.684  36.407  1.00  0.00     0.022 A 
BRANCH  44  47
ATOM     47  S   UNL A   1      44.162  23.841  34.760  1.00  0.00     0.127 S 
ATOM     48  O   UNL A   1      43.204  23.143  33.899  1.00  0.00    -0.237 OA
ATOM     49  O   UNL A   1      45.366  24.321  34.077  1.00  0.00    -0.237 OA
ATOM     50  O   UNL A   1      44.407  23.252  36.060  1.00  0.00    -0.744 OA
ENDBRANCH  44  47
ENDBRANCH  26  40
BRANCH  27  51
ATOM     51  C   UNL A   1      43.673  25.120  26.276  1.00  0.00     0.023 A 
ATOM     52  C   UNL A   1      44.763  24.976  25.394  1.00  0.00     0.012 A 
ATOM     53  C   UNL A   1      42.872  23.987  26.536  1.00  0.00     0.148 A 
ATOM     54  C   UNL A   1      45.064  23.738  24.816  1.00  0.00     0.002 A 
ATOM     55  C   UNL A   1      43.168  22.760  25.950  1.00  0.00     0.091 A 
ATOM     56  F   UNL A   1      41.880  24.088  27.431  1.00  0.00    -0.205 F 
ATOM     57  C   UNL A   1      44.272  22.629  25.099  1.00  0.00     0.022 A 
BRANCH  55  58
ATOM     58  S   UNL A   1      42.198  21.284  26.287  1.00  0.00     0.127 S 
ATOM     59  O   UNL A   1      40.857  21.701  25.875  1.00  0.00    -0.237 OA
ATOM     60  O   UNL A   1      42.830  20.302  25.411  1.00  0.00    -0.237 OA
ATOM     61  O   UNL A   1      42.333  21.040  27.718  1.00  0.00    -0.744 OA
ENDBRANCH  55  58
ENDBRANCH  27  51
BRANCH  39  62
ATOM     62  C   UNL A   1      45.893  30.153  29.307  1.00  0.00     0.023 A 
ATOM     63  C   UNL A   1      47.278  30.309  29.088  1.00  0.00     0.012 A 
ATOM     64  C   UNL A   1      44.991  30.855  28.488  1.00  0.00     0.148 A 
ATOM     65  C   UNL A   1      47.751  31.169  28.094  1.00  0.00     0.002 A 
ATOM     66  C   UNL A   1      45.465  31.668  27.467  1.00  0.00     0.091 A 
ATOM     67  F   UNL A   1      43.677  30.693  28.706  1.00  0.00    -0.205 F 
ATOM     68  C   UNL A   1      46.844  31.838  27.274  1.00  0.00     0.022 A 
BRANCH  66  69
ATOM     69  S   UNL A   1      44.349  32.438  26.291  1.00  0.00     0.127 S 
ATOM     70  O   UNL A   1      45.258  32.822  25.213  1.00  0.00    -0.237 OA
ATOM     71  O   UNL A   1      43.435  31.342  25.959  1.00  0.00    -0.237 OA
ATOM     72  O   UNL A   1      43.716  33.539  27.006  1.00  0.00    -0.744 OA
ENDBRANCH  66  69
ENDBRANCH  39  62
ENDBRANCH  13  14
ENDBRANCH   6   8
ENDBRANCH   3   4
ENDBRANCH   2   3
ENDBRANCH   1   2
BRANCH   1  73
ATOM     73  C   UNL A   1      32.122  27.142  26.441  1.00  0.00     0.116 C 
BRANCH  73  74
ATOM     74  N   UNL A   1      31.546  25.884  26.878  1.00  0.00    -0.356 N 
ATOM     75  C   UNL A   1      31.838  24.586  26.617  1.00  0.00     0.224 C 
ATOM     76  H   UNL A   1      30.785  25.996  27.493  1.00  0.00     0.163 HD
ATOM     77  O   UNL A   1      31.207  23.747  27.277  1.00  0.00    -0.275 OA
BRANCH  75  78
ATOM     78  C   UNL A   1      32.837  24.075  25.579  1.00  0.00     0.098 C 
ATOM     79  C   UNL A   1      32.594  22.734  24.831  1.00  0.00     0.098 C 
ATOM     80  C   UNL A   1      34.271  23.921  26.157  1.00  0.00     0.025 C 
ATOM     81  C   UNL A   1      33.936  21.977  25.103  1.00  0.00     0.025 C 
ATOM     82  C   UNL A   1      34.298  22.841  27.206  1.00  0.00    -0.027 C 
ATOM     83  C   UNL A   1      34.950  23.132  25.033  1.00  0.00     0.017 C 
ATOM     84  C   UNL A   1      34.086  21.675  26.578  1.00  0.00    -0.027 C 
BRANCH  79  85
ATOM     85  C   UNL A   1      32.404  22.897  23.326  1.00  0.00     0.224 C 
ATOM     86  O   UNL A   1      33.124  22.335  22.499  1.00  0.00    -0.275 OA
ATOM     87  N   UNL A   1      31.375  23.633  22.829  1.00  0.00    -0.356 N 
ATOM     88  H   UNL A   1      31.343  23.672  21.846  1.00  0.00     0.163 HD
BRANCH  87  89
ATOM     89  C   UNL A   1      30.316  24.370  23.493  1.00  0.00     0.117 C 
BRANCH  89  90
ATOM     90  C   UNL A   1      30.451  25.877  23.259  1.00  0.00     0.043 C 
BRANCH  90  91
ATOM     91  C   UNL A   1      31.449  26.266  22.163  1.00  0.00     0.125 C 
BRANCH  91  92
ATOM     92  N   UNL A   1      32.355  27.328  22.551  1.00  0.00    -0.337 N 
ATOM     93  C   UNL A   1      33.720  27.287  22.517  1.00  0.00     0.107 A 
ATOM     94  C   UNL A   1      31.988  28.545  23.049  1.00  0.00     0.199 A 
ATOM     95  C   UNL A   1      34.121  28.527  22.958  1.00  0.00     0.130 A 
ATOM     96  N   UNL A   1      33.038  29.296  23.296  1.00  0.00    -0.245 NA
ENDBRANCH  91  92
ENDBRANCH  90  91
ENDBRANCH  89  90
ENDBRANCH  87  89
ENDBRANCH  79  85
ENDBRANCH  75  78
ENDBRANCH  73  74
ENDBRANCH   1  73
TORSDOF 19
ENDMDL
