MODEL 1
REMARK VINA RESULT:      -9.0      0.000      0.000
REMARK SMILES Cn1c(C[NH+](C)C)nnc1[C@@H]1CCC[N@@H+](Cc2ccccc2C(=O)NCCCCNC(=O)c2ccc(-c3c4nc(c(-c5cccc(S(=O)(=O)[O-])c5F)c5ccc([nH]5)c(-c5cccc(S(=O)(=O)[O-])c5F)c5nc(c(-c6cccc(S(=O)(=O)[O-])c6F)c6ccc3[nH]6)C=C5)C=C4)cc2)C1
REMARK SMILES IDX 26 1 25 2 23 3 24 4 22 6 17 7 18 8 19 9 21 10 20 11 16 12
REMARK SMILES IDX 15 13 11 14 12 15 96 16 13 17 14 18 10 20 3 21 8 22 2 23
REMARK SMILES IDX 9 24 1 25 4 26 5 27 6 28 7 29 27 31 28 32 29 33 30 34 31 35
REMARK SMILES IDX 32 37 33 38 34 39 95 40 35 41 94 42 36 43 37 44 38 45 88 46
REMARK SMILES IDX 39 47 93 48 87 49 89 50 40 51 92 52 86 53 85 54 41 56 73 57
REMARK SMILES IDX 53 58 72 59 54 60 57 61 71 62 90 63 55 64 56 65 70 67 91 68
REMARK SMILES IDX 58 69 42 70 43 71 51 72 44 73 46 74 52 75 45 76 47 77 48 78
REMARK SMILES IDX 49 79 50 80 74 81 75 82 83 83 76 84 78 85 84 86 77 87 79 88
REMARK SMILES IDX 80 89 81 90 82 91 59 92 60 93 68 94 61 95 63 96 69 97 62 98
REMARK SMILES IDX 64 99 65 100 66 101 67 102
REMARK H PARENT 25 5 15 19 5 30 30 36 89 55 57 66
REMARK Flexibility Score: inf
ROOT
ATOM      1  C   UNL A   1      48.423  26.283  26.054  1.00  0.00     0.116 C 
ENDROOT
BRANCH   1   2
ATOM      2  N   UNL A   1      47.271  25.576  25.531  1.00  0.00    -0.352 N 
ATOM      3  C   UNL A   1      45.925  25.875  25.527  1.00  0.00     0.251 C 
ATOM      4  O   UNL A   1      45.196  25.139  24.857  1.00  0.00    -0.269 OA
ATOM      5  H   UNL A   1      47.492  24.721  25.096  1.00  0.00     0.163 HD
BRANCH   3   6
ATOM      6  C   UNL A   1      45.265  26.963  26.325  1.00  0.00     0.048 A 
ATOM      7  C   UNL A   1      44.421  26.855  27.447  1.00  0.00     0.019 A 
ATOM      8  C   UNL A   1      43.830  28.033  27.970  1.00  0.00     0.010 A 
ATOM      9  C   UNL A   1      44.177  29.298  27.509  1.00  0.00     0.001 A 
ATOM     10  C   UNL A   1      45.661  28.261  25.928  1.00  0.00     0.014 A 
ATOM     11  C   UNL A   1      45.139  29.414  26.522  1.00  0.00     0.001 A 
BRANCH   7  12
ATOM     12  C   UNL A   1      44.132  25.603  28.223  1.00  0.00     0.299 C 
BRANCH  12  13
ATOM     13  N   UNL A   1      42.940  24.850  27.876  1.00  0.00    -0.331 N 
ATOM     14  C   UNL A   1      41.723  22.680  27.863  1.00  0.00     0.113 C 
ATOM     15  C   UNL A   1      40.484  23.399  27.322  1.00  0.00     0.023 C 
ATOM     16  C   UNL A   1      42.634  23.642  28.629  1.00  0.00     0.274 C 
ATOM     17  C   UNL A   1      40.811  24.719  26.629  1.00  0.00     0.062 C 
ATOM     18  C   UNL A   1      41.773  25.604  27.441  1.00  0.00     0.262 C 
ATOM     19  H   UNL A   1      43.303  24.457  27.007  1.00  0.00     0.348 HD
BRANCH  14  20
ATOM     20  C   UNL A   1      42.418  21.806  26.843  1.00  0.00     0.141 A 
ATOM     21  C   UNL A   1      43.274  20.152  25.652  1.00  0.00     0.187 A 
ATOM     22  N   UNL A   1      43.590  21.290  25.070  1.00  0.00    -0.129 NA
ATOM     23  N   UNL A   1      42.506  20.430  26.765  1.00  0.00    -0.313 N 
ATOM     24  N   UNL A   1      43.058  22.310  25.803  1.00  0.00    -0.135 NA
ATOM     25  C   UNL A   1      41.868  19.449  27.589  1.00  0.00     0.153 C 
BRANCH  21  26
ATOM     26  C   UNL A   1      43.603  18.794  25.107  1.00  0.00     0.340 C 
BRANCH  26  27
ATOM     27  N   UNL A   1      44.921  18.711  24.508  1.00  0.00    -0.333 N 
ATOM     28  C   UNL A   1      46.027  18.973  25.393  1.00  0.00     0.332 C 
ATOM     29  C   UNL A   1      45.019  19.108  23.122  1.00  0.00     0.332 C 
ATOM     30  H   UNL A   1      45.064  17.711  24.375  1.00  0.00     0.348 HD
ENDBRANCH  26  27
ENDBRANCH  21  26
ENDBRANCH  14  20
ENDBRANCH  12  13
ENDBRANCH   7  12
ENDBRANCH   3   6
ENDBRANCH   1   2
BRANCH   1  31
ATOM     31  C   UNL A   1      49.244  25.537  27.106  1.00  0.00     0.023 C 
BRANCH  31  32
ATOM     32  C   UNL A   1      50.758  25.477  26.867  1.00  0.00     0.023 C 
BRANCH  32  33
ATOM     33  C   UNL A   1      51.679  26.045  27.953  1.00  0.00     0.116 C 
BRANCH  33  34
ATOM     34  N   UNL A   1      52.479  27.187  27.529  1.00  0.00    -0.352 N 
ATOM     35  C   UNL A   1      52.218  28.542  27.520  1.00  0.00     0.251 C 
ATOM     36  H   UNL A   1      53.369  26.948  27.185  1.00  0.00     0.163 HD
ATOM     37  O   UNL A   1      53.099  29.284  27.075  1.00  0.00    -0.269 OA
BRANCH  35  38
ATOM     38  C   UNL A   1      50.954  29.153  28.031  1.00  0.00     0.039 A 
ATOM     39  C   UNL A   1      49.847  29.221  27.167  1.00  0.00     0.014 A 
ATOM     40  C   UNL A   1      50.839  29.728  29.299  1.00  0.00     0.014 A 
ATOM     41  C   UNL A   1      48.625  29.746  27.610  1.00  0.00     0.010 A 
ATOM     42  C   UNL A   1      49.629  30.238  29.753  1.00  0.00     0.010 A 
ATOM     43  C   UNL A   1      48.502  30.198  28.932  1.00  0.00    -0.014 A 
BRANCH  43  44
ATOM     44  C   UNL A   1      47.185  30.346  29.589  1.00  0.00     0.031 A 
ATOM     45  C   UNL A   1      46.530  29.218  30.323  1.00  0.00     0.074 A 
ATOM     46  C   UNL A   1      46.503  31.468  29.279  1.00  0.00     0.049 A 
ATOM     47  N   UNL A   1      45.366  29.195  30.916  1.00  0.00    -0.248 NA
ATOM     48  C   UNL A   1      47.258  27.941  30.374  1.00  0.00     0.031 C 
ATOM     49  C   UNL A   1      47.010  32.539  28.409  1.00  0.00     0.029 A 
ATOM     50  N   UNL A   1      45.235  31.873  29.593  1.00  0.00    -0.354 N 
ATOM     51  C   UNL A   1      45.212  27.904  31.405  1.00  0.00     0.074 A 
ATOM     52  C   UNL A   1      46.391  27.162  31.009  1.00  0.00     0.031 C 
ATOM     53  C   UNL A   1      46.060  33.468  28.250  1.00  0.00     0.029 A 
ATOM     54  C   UNL A   1      44.881  33.062  29.000  1.00  0.00     0.049 A 
ATOM     55  H   UNL A   1      44.636  31.364  30.184  1.00  0.00     0.167 HD
ATOM     56  C   UNL A   1      44.182  27.400  32.131  1.00  0.00     0.034 A 
ATOM     57  C   UNL A   1      43.732  33.758  29.065  1.00  0.00     0.034 A 
ATOM     58  C   UNL A   1      43.010  28.169  32.468  1.00  0.00     0.049 A 
ATOM     59  C   UNL A   1      42.645  33.222  29.946  1.00  0.00     0.074 A 
ATOM     60  C   UNL A   1      41.949  27.822  33.283  1.00  0.00     0.029 A 
ATOM     61  N   UNL A   1      42.735  29.439  31.974  1.00  0.00    -0.354 N 
ATOM     62  N   UNL A   1      42.609  32.089  30.607  1.00  0.00    -0.248 NA
ATOM     63  C   UNL A   1      41.470  34.077  30.144  1.00  0.00     0.031 C 
ATOM     64  C   UNL A   1      41.018  28.868  33.255  1.00  0.00     0.029 A 
ATOM     65  C   UNL A   1      41.518  29.886  32.457  1.00  0.00     0.049 A 
ATOM     66  H   UNL A   1      43.321  29.946  31.368  1.00  0.00     0.167 HD
ATOM     67  C   UNL A   1      41.429  32.110  31.335  1.00  0.00     0.074 A 
ATOM     68  C   UNL A   1      40.786  33.378  31.041  1.00  0.00     0.031 C 
ATOM     69  C   UNL A   1      40.922  31.169  32.169  1.00  0.00     0.034 A 
BRANCH  56  70
ATOM     70  C   UNL A   1      44.305  25.985  32.653  1.00  0.00     0.023 A 
ATOM     71  C   UNL A   1      44.157  24.906  31.754  1.00  0.00     0.012 A 
ATOM     72  C   UNL A   1      44.621  25.712  33.998  1.00  0.00     0.148 A 
ATOM     73  C   UNL A   1      44.270  23.585  32.191  1.00  0.00     0.002 A 
ATOM     74  C   UNL A   1      44.778  24.392  34.419  1.00  0.00     0.091 A 
ATOM     75  F   UNL A   1      44.756  26.740  34.848  1.00  0.00    -0.205 F 
ATOM     76  C   UNL A   1      44.588  23.330  33.521  1.00  0.00     0.022 A 
BRANCH  74  77
ATOM     77  S   UNL A   1      45.268  23.951  36.091  1.00  0.00     0.127 S 
ATOM     78  O   UNL A   1      44.155  24.487  36.877  1.00  0.00    -0.237 OA
ATOM     79  O   UNL A   1      45.310  22.487  36.023  1.00  0.00    -0.237 OA
ATOM     80  O   UNL A   1      46.555  24.584  36.318  1.00  0.00    -0.744 OA
ENDBRANCH  74  77
ENDBRANCH  56  70
BRANCH  57  81
ATOM     81  C   UNL A   1      43.640  35.086  28.398  1.00  0.00     0.023 A 
ATOM     82  C   UNL A   1      42.980  35.179  27.158  1.00  0.00     0.012 A 
ATOM     83  C   UNL A   1      44.103  36.263  29.020  1.00  0.00     0.148 A 
ATOM     84  C   UNL A   1      42.808  36.414  26.533  1.00  0.00     0.002 A 
ATOM     85  C   UNL A   1      43.885  37.496  28.415  1.00  0.00     0.091 A 
ATOM     86  F   UNL A   1      44.716  36.154  30.207  1.00  0.00    -0.205 F 
ATOM     87  C   UNL A   1      43.252  37.572  27.164  1.00  0.00     0.022 A 
BRANCH  85  88
ATOM     88  S   UNL A   1      44.297  39.053  29.212  1.00  0.00     0.127 S 
ATOM     89  O   UNL A   1      43.676  40.023  28.311  1.00  0.00    -0.237 OA
ATOM     90  O   UNL A   1      43.638  38.912  30.511  1.00  0.00    -0.237 OA
ATOM     91  O   UNL A   1      45.750  39.092  29.277  1.00  0.00    -0.744 OA
ENDBRANCH  85  88
ENDBRANCH  57  81
BRANCH  69  92
ATOM     92  C   UNL A   1      39.622  31.493  32.851  1.00  0.00     0.023 A 
ATOM     93  C   UNL A   1      38.399  31.179  32.227  1.00  0.00     0.012 A 
ATOM     94  C   UNL A   1      39.620  32.049  34.146  1.00  0.00     0.148 A 
ATOM     95  C   UNL A   1      37.191  31.443  32.869  1.00  0.00     0.002 A 
ATOM     96  C   UNL A   1      38.415  32.258  34.801  1.00  0.00     0.091 A 
ATOM     97  F   UNL A   1      40.796  32.361  34.708  1.00  0.00    -0.205 F 
ATOM     98  C   UNL A   1      37.199  31.970  34.159  1.00  0.00     0.022 A 
BRANCH  96  99
ATOM     99  S   UNL A   1      38.331  32.833  36.499  1.00  0.00     0.127 S 
ATOM    100  O   UNL A   1      38.950  31.723  37.220  1.00  0.00    -0.237 OA
ATOM    101  O   UNL A   1      39.135  34.054  36.450  1.00  0.00    -0.237 OA
ATOM    102  O   UNL A   1      36.919  33.049  36.784  1.00  0.00    -0.744 OA
ENDBRANCH  96  99
ENDBRANCH  69  92
ENDBRANCH  43  44
ENDBRANCH  35  38
ENDBRANCH  33  34
ENDBRANCH  32  33
ENDBRANCH  31  32
ENDBRANCH   1  31
TORSDOF 19
ENDMDL
MODEL 2
REMARK VINA RESULT:      -9.0      2.904      8.659
REMARK SMILES Cn1c(C[NH+](C)C)nnc1[C@@H]1CCC[N@@H+](Cc2ccccc2C(=O)NCCCCNC(=O)c2ccc(-c3c4nc(c(-c5cccc(S(=O)(=O)[O-])c5F)c5ccc([nH]5)c(-c5cccc(S(=O)(=O)[O-])c5F)c5nc(c(-c6cccc(S(=O)(=O)[O-])c6F)c6ccc3[nH]6)C=C5)C=C4)cc2)C1
REMARK SMILES IDX 26 1 25 2 23 3 24 4 22 6 17 7 18 8 19 9 21 10 20 11 16 12
REMARK SMILES IDX 15 13 11 14 12 15 96 16 13 17 14 18 10 20 3 21 8 22 2 23
REMARK SMILES IDX 9 24 1 25 4 26 5 27 6 28 7 29 27 31 28 32 29 33 30 34 31 35
REMARK SMILES IDX 32 37 33 38 34 39 95 40 35 41 94 42 36 43 37 44 38 45 88 46
REMARK SMILES IDX 39 47 93 48 87 49 89 50 40 51 92 52 86 53 85 54 41 56 73 57
REMARK SMILES IDX 53 58 72 59 54 60 57 61 71 62 90 63 55 64 56 65 70 67 91 68
REMARK SMILES IDX 58 69 42 70 43 71 51 72 44 73 46 74 52 75 45 76 47 77 48 78
REMARK SMILES IDX 49 79 50 80 74 81 75 82 83 83 76 84 78 85 84 86 77 87 79 88
REMARK SMILES IDX 80 89 81 90 82 91 59 92 60 93 68 94 61 95 63 96 69 97 62 98
REMARK SMILES IDX 64 99 65 100 66 101 67 102
REMARK H PARENT 25 5 15 19 5 30 30 36 89 55 57 66
REMARK Flexibility Score: inf
ROOT
ATOM      1  C   UNL A   1      37.255  32.502  29.421  1.00  0.00     0.116 C 
ENDROOT
BRANCH   1   2
ATOM      2  N   UNL A   1      36.764  31.513  28.483  1.00  0.00    -0.352 N 
ATOM      3  C   UNL A   1      36.906  30.142  28.423  1.00  0.00     0.251 C 
ATOM      4  O   UNL A   1      36.230  29.551  27.578  1.00  0.00    -0.269 OA
ATOM      5  H   UNL A   1      36.227  31.890  27.749  1.00  0.00     0.163 HD
BRANCH   3   6
ATOM      6  C   UNL A   1      37.864  29.323  29.240  1.00  0.00     0.048 A 
ATOM      7  C   UNL A   1      39.217  29.024  28.987  1.00  0.00     0.019 A 
ATOM      8  C   UNL A   1      39.892  28.135  29.861  1.00  0.00     0.010 A 
ATOM      9  C   UNL A   1      39.310  27.674  31.037  1.00  0.00     0.001 A 
ATOM     10  C   UNL A   1      37.324  28.906  30.479  1.00  0.00     0.014 A 
ATOM     11  C   UNL A   1      38.041  28.108  31.374  1.00  0.00     0.001 A 
BRANCH   7  12
ATOM     12  C   UNL A   1      40.072  29.623  27.909  1.00  0.00     0.299 C 
BRANCH  12  13
ATOM     13  N   UNL A   1      41.181  28.832  27.405  1.00  0.00    -0.331 N 
ATOM     14  C   UNL A   1      41.982  26.964  25.970  1.00  0.00     0.113 C 
ATOM     15  C   UNL A   1      43.426  27.369  26.282  1.00  0.00     0.023 C 
ATOM     16  C   UNL A   1      41.026  28.149  26.128  1.00  0.00     0.274 C 
ATOM     17  C   UNL A   1      43.558  28.179  27.568  1.00  0.00     0.062 C 
ATOM     18  C   UNL A   1      42.527  29.317  27.672  1.00  0.00     0.262 C 
ATOM     19  H   UNL A   1      41.075  28.058  28.060  1.00  0.00     0.348 HD
BRANCH  14  20
ATOM     20  C   UNL A   1      41.545  25.686  26.650  1.00  0.00     0.141 A 
ATOM     21  C   UNL A   1      41.215  23.600  27.304  1.00  0.00     0.187 A 
ATOM     22  N   UNL A   1      40.468  24.391  28.046  1.00  0.00    -0.129 NA
ATOM     23  N   UNL A   1      41.937  24.381  26.424  1.00  0.00    -0.313 N 
ATOM     24  N   UNL A   1      40.676  25.679  27.645  1.00  0.00    -0.135 NA
ATOM     25  C   UNL A   1      42.950  23.897  25.537  1.00  0.00     0.153 C 
BRANCH  21  26
ATOM     26  C   UNL A   1      41.332  22.116  27.490  1.00  0.00     0.340 C 
BRANCH  26  27
ATOM     27  N   UNL A   1      40.655  21.346  26.464  1.00  0.00    -0.333 N 
ATOM     28  C   UNL A   1      39.328  21.791  26.123  1.00  0.00     0.332 C 
ATOM     29  C   UNL A   1      40.958  19.934  26.420  1.00  0.00     0.332 C 
ATOM     30  H   UNL A   1      41.133  21.617  25.605  1.00  0.00     0.348 HD
ENDBRANCH  26  27
ENDBRANCH  21  26
ENDBRANCH  14  20
ENDBRANCH  12  13
ENDBRANCH   7  12
ENDBRANCH   3   6
ENDBRANCH   1   2
BRANCH   1  31
ATOM     31  C   UNL A   1      36.570  33.867  29.371  1.00  0.00     0.023 C 
BRANCH  31  32
ATOM     32  C   UNL A   1      35.069  33.885  29.691  1.00  0.00     0.023 C 
BRANCH  32  33
ATOM     33  C   UNL A   1      34.582  33.068  30.893  1.00  0.00     0.116 C 
BRANCH  33  34
ATOM     34  N   UNL A   1      34.627  33.781  32.164  1.00  0.00    -0.352 N 
ATOM     35  C   UNL A   1      35.580  33.829  33.160  1.00  0.00     0.251 C 
ATOM     36  H   UNL A   1      33.831  34.330  32.345  1.00  0.00     0.163 HD
ATOM     37  O   UNL A   1      35.327  34.519  34.152  1.00  0.00    -0.269 OA
BRANCH  35  38
ATOM     38  C   UNL A   1      36.892  33.115  33.097  1.00  0.00     0.039 A 
ATOM     39  C   UNL A   1      36.887  31.724  32.895  1.00  0.00     0.014 A 
ATOM     40  C   UNL A   1      38.119  33.749  33.303  1.00  0.00     0.014 A 
ATOM     41  C   UNL A   1      38.091  31.014  32.786  1.00  0.00     0.010 A 
ATOM     42  C   UNL A   1      39.317  33.057  33.184  1.00  0.00     0.010 A 
ATOM     43  C   UNL A   1      39.312  31.698  32.868  1.00  0.00    -0.014 A 
BRANCH  43  44
ATOM     44  C   UNL A   1      40.568  31.124  32.340  1.00  0.00     0.031 A 
ATOM     45  C   UNL A   1      41.259  29.976  33.006  1.00  0.00     0.074 A 
ATOM     46  C   UNL A   1      41.180  31.847  31.379  1.00  0.00     0.049 A 
ATOM     47  N   UNL A   1      42.382  29.394  32.675  1.00  0.00    -0.248 NA
ATOM     48  C   UNL A   1      40.630  29.427  34.217  1.00  0.00     0.031 C 
ATOM     49  C   UNL A   1      40.649  33.091  30.806  1.00  0.00     0.029 A 
ATOM     50  N   UNL A   1      42.390  31.692  30.762  1.00  0.00    -0.354 N 
ATOM     51  C   UNL A   1      42.603  28.416  33.637  1.00  0.00     0.074 A 
ATOM     52  C   UNL A   1      41.512  28.506  34.585  1.00  0.00     0.031 C 
ATOM     53  C   UNL A   1      41.533  33.590  29.934  1.00  0.00     0.029 A 
ATOM     54  C   UNL A   1      42.690  32.709  29.886  1.00  0.00     0.049 A 
ATOM     55  H   UNL A   1      42.988  30.927  30.928  1.00  0.00     0.167 HD
ATOM     56  C   UNL A   1      43.620  27.519  33.703  1.00  0.00     0.034 A 
ATOM     57  C   UNL A   1      43.775  32.902  29.116  1.00  0.00     0.034 A 
ATOM     58  C   UNL A   1      44.705  27.495  32.753  1.00  0.00     0.049 A 
ATOM     59  C   UNL A   1      44.841  31.849  29.142  1.00  0.00     0.074 A 
ATOM     60  C   UNL A   1      45.735  26.580  32.637  1.00  0.00     0.029 A 
ATOM     61  N   UNL A   1      44.913  28.456  31.772  1.00  0.00    -0.354 N 
ATOM     62  N   UNL A   1      44.922  30.783  29.902  1.00  0.00    -0.248 NA
ATOM     63  C   UNL A   1      45.932  31.986  28.171  1.00  0.00     0.031 C 
ATOM     64  C   UNL A   1      46.583  27.008  31.608  1.00  0.00     0.029 A 
ATOM     65  C   UNL A   1      46.058  28.165  31.052  1.00  0.00     0.049 A 
ATOM     66  H   UNL A   1      44.329  29.233  31.612  1.00  0.00     0.167 HD
ATOM     67  C   UNL A   1      46.047  30.095  29.475  1.00  0.00     0.074 A 
ATOM     68  C   UNL A   1      46.608  30.864  28.379  1.00  0.00     0.031 C 
ATOM     69  C   UNL A   1      46.571  28.936  29.944  1.00  0.00     0.034 A 
BRANCH  56  70
ATOM     70  C   UNL A   1      43.573  26.469  34.790  1.00  0.00     0.023 A 
ATOM     71  C   UNL A   1      42.974  25.220  34.515  1.00  0.00     0.012 A 
ATOM     72  C   UNL A   1      44.160  26.679  36.054  1.00  0.00     0.148 A 
ATOM     73  C   UNL A   1      42.916  24.221  35.488  1.00  0.00     0.002 A 
ATOM     74  C   UNL A   1      44.139  25.660  37.006  1.00  0.00     0.091 A 
ATOM     75  F   UNL A   1      44.723  27.868  36.311  1.00  0.00    -0.205 F 
ATOM     76  C   UNL A   1      43.505  24.439  36.728  1.00  0.00     0.022 A 
BRANCH  74  77
ATOM     77  S   UNL A   1      44.940  25.803  38.608  1.00  0.00     0.127 S 
ATOM     78  O   UNL A   1      44.901  24.418  39.083  1.00  0.00    -0.237 OA
ATOM     79  O   UNL A   1      46.277  26.279  38.242  1.00  0.00    -0.237 OA
ATOM     80  O   UNL A   1      44.148  26.748  39.376  1.00  0.00    -0.744 OA
ENDBRANCH  74  77
ENDBRANCH  56  70
BRANCH  57  81
ATOM     81  C   UNL A   1      43.807  34.050  28.169  1.00  0.00     0.023 A 
ATOM     82  C   UNL A   1      43.441  33.834  26.827  1.00  0.00     0.012 A 
ATOM     83  C   UNL A   1      44.093  35.361  28.601  1.00  0.00     0.148 A 
ATOM     84  C   UNL A   1      43.387  34.895  25.923  1.00  0.00     0.002 A 
ATOM     85  C   UNL A   1      43.990  36.421  27.706  1.00  0.00     0.091 A 
ATOM     86  F   UNL A   1      44.425  35.548  29.886  1.00  0.00    -0.205 F 
ATOM     87  C   UNL A   1      43.653  36.188  26.364  1.00  0.00     0.022 A 
BRANCH  85  88
ATOM     88  S   UNL A   1      44.180  38.136  28.210  1.00  0.00     0.127 S 
ATOM     89  O   UNL A   1      44.087  38.835  26.928  1.00  0.00    -0.237 OA
ATOM     90  O   UNL A   1      43.028  38.321  29.094  1.00  0.00    -0.237 OA
ATOM     91  O   UNL A   1      45.469  38.212  28.878  1.00  0.00    -0.744 OA
ENDBRANCH  85  88
ENDBRANCH  57  81
BRANCH  69  92
ATOM     92  C   UNL A   1      47.796  28.410  29.249  1.00  0.00     0.023 A 
ATOM     93  C   UNL A   1      49.077  28.829  29.661  1.00  0.00     0.012 A 
ATOM     94  C   UNL A   1      47.673  27.447  28.229  1.00  0.00     0.148 A 
ATOM     95  C   UNL A   1      50.217  28.319  29.044  1.00  0.00     0.002 A 
ATOM     96  C   UNL A   1      48.814  26.902  27.658  1.00  0.00     0.091 A 
ATOM     97  F   UNL A   1      46.443  27.083  27.839  1.00  0.00    -0.205 F 
ATOM     98  C   UNL A   1      50.087  27.347  28.053  1.00  0.00     0.022 A 
BRANCH  96  99
ATOM     99  S   UNL A   1      48.747  25.575  26.452  1.00  0.00     0.127 S 
ATOM    100  O   UNL A   1      48.257  24.461  27.263  1.00  0.00    -0.237 OA
ATOM    101  O   UNL A   1      47.784  26.091  25.480  1.00  0.00    -0.237 OA
ATOM    102  O   UNL A   1      50.102  25.423  25.941  1.00  0.00    -0.744 OA
ENDBRANCH  96  99
ENDBRANCH  69  92
ENDBRANCH  43  44
ENDBRANCH  35  38
ENDBRANCH  33  34
ENDBRANCH  32  33
ENDBRANCH  31  32
ENDBRANCH   1  31
TORSDOF 19
ENDMDL
MODEL 3
REMARK VINA RESULT:      -8.8      5.204      9.256
REMARK SMILES Cn1c(C[NH+](C)C)nnc1[C@@H]1CCC[N@@H+](Cc2ccccc2C(=O)NCCCCNC(=O)c2ccc(-c3c4nc(c(-c5cccc(S(=O)(=O)[O-])c5F)c5ccc([nH]5)c(-c5cccc(S(=O)(=O)[O-])c5F)c5nc(c(-c6cccc(S(=O)(=O)[O-])c6F)c6ccc3[nH]6)C=C5)C=C4)cc2)C1
REMARK SMILES IDX 26 1 25 2 23 3 24 4 22 6 17 7 18 8 19 9 21 10 20 11 16 12
REMARK SMILES IDX 15 13 11 14 12 15 96 16 13 17 14 18 10 20 3 21 8 22 2 23
REMARK SMILES IDX 9 24 1 25 4 26 5 27 6 28 7 29 27 31 28 32 29 33 30 34 31 35
REMARK SMILES IDX 32 37 33 38 34 39 95 40 35 41 94 42 36 43 37 44 38 45 88 46
REMARK SMILES IDX 39 47 93 48 87 49 89 50 40 51 92 52 86 53 85 54 41 56 73 57
REMARK SMILES IDX 53 58 72 59 54 60 57 61 71 62 90 63 55 64 56 65 70 67 91 68
REMARK SMILES IDX 58 69 42 70 43 71 51 72 44 73 46 74 52 75 45 76 47 77 48 78
REMARK SMILES IDX 49 79 50 80 74 81 75 82 83 83 76 84 78 85 84 86 77 87 79 88
REMARK SMILES IDX 80 89 81 90 82 91 59 92 60 93 68 94 61 95 63 96 69 97 62 98
REMARK SMILES IDX 64 99 65 100 66 101 67 102
REMARK H PARENT 25 5 15 19 5 30 30 36 89 55 57 66
REMARK Flexibility Score: inf
ROOT
ATOM      1  C   UNL A   1      38.844  28.766  28.397  1.00  0.00     0.116 C 
ENDROOT
BRANCH   1   2
ATOM      2  N   UNL A   1      38.031  28.715  29.596  1.00  0.00    -0.352 N 
ATOM      3  C   UNL A   1      37.069  29.564  30.100  1.00  0.00     0.251 C 
ATOM      4  O   UNL A   1      36.433  29.164  31.078  1.00  0.00    -0.269 OA
ATOM      5  H   UNL A   1      38.197  27.923  30.157  1.00  0.00     0.163 HD
BRANCH   3   6
ATOM      6  C   UNL A   1      36.785  30.956  29.611  1.00  0.00     0.048 A 
ATOM      7  C   UNL A   1      36.366  31.382  28.335  1.00  0.00     0.019 A 
ATOM      8  C   UNL A   1      36.264  32.773  28.082  1.00  0.00     0.010 A 
ATOM      9  C   UNL A   1      36.414  33.718  29.091  1.00  0.00     0.001 A 
ATOM     10  C   UNL A   1      36.854  31.930  30.634  1.00  0.00     0.014 A 
ATOM     11  C   UNL A   1      36.654  33.290  30.383  1.00  0.00     0.001 A 
BRANCH   7  12
ATOM     12  C   UNL A   1      35.925  30.498  27.205  1.00  0.00     0.299 C 
BRANCH  12  13
ATOM     13  N   UNL A   1      34.521  30.130  27.142  1.00  0.00    -0.331 N 
ATOM     14  C   UNL A   1      32.797  28.370  26.795  1.00  0.00     0.113 C 
ATOM     15  C   UNL A   1      31.714  29.381  27.182  1.00  0.00     0.023 C 
ATOM     16  C   UNL A   1      34.151  28.746  27.402  1.00  0.00     0.274 C 
ATOM     17  C   UNL A   1      32.156  30.831  27.006  1.00  0.00     0.062 C 
ATOM     18  C   UNL A   1      33.549  31.113  27.598  1.00  0.00     0.262 C 
ATOM     19  H   UNL A   1      34.439  30.172  26.126  1.00  0.00     0.348 HD
BRANCH  14  20
ATOM     20  C   UNL A   1      32.821  28.034  25.320  1.00  0.00     0.141 A 
ATOM     21  C   UNL A   1      32.411  27.319  23.269  1.00  0.00     0.187 A 
ATOM     22  N   UNL A   1      33.576  27.933  23.270  1.00  0.00    -0.129 NA
ATOM     23  N   UNL A   1      31.883  27.384  24.542  1.00  0.00    -0.313 N 
ATOM     24  N   UNL A   1      33.826  28.378  24.536  1.00  0.00    -0.135 NA
ATOM     25  C   UNL A   1      30.574  26.937  24.913  1.00  0.00     0.153 C 
BRANCH  21  26
ATOM     26  C   UNL A   1      31.741  26.761  22.048  1.00  0.00     0.340 C 
BRANCH  26  27
ATOM     27  N   UNL A   1      32.225  25.448  21.669  1.00  0.00    -0.333 N 
ATOM     28  C   UNL A   1      32.926  24.719  22.695  1.00  0.00     0.332 C 
ATOM     29  C   UNL A   1      32.631  25.290  20.291  1.00  0.00     0.332 C 
ATOM     30  H   UNL A   1      31.378  24.882  21.629  1.00  0.00     0.348 HD
ENDBRANCH  26  27
ENDBRANCH  21  26
ENDBRANCH  14  20
ENDBRANCH  12  13
ENDBRANCH   7  12
ENDBRANCH   3   6
ENDBRANCH   1   2
BRANCH   1  31
ATOM     31  C   UNL A   1      39.422  27.433  27.924  1.00  0.00     0.023 C 
BRANCH  31  32
ATOM     32  C   UNL A   1      40.563  26.851  28.767  1.00  0.00     0.023 C 
BRANCH  32  33
ATOM     33  C   UNL A   1      41.220  25.552  28.286  1.00  0.00     0.116 C 
BRANCH  33  34
ATOM     34  N   UNL A   1      41.716  25.599  26.916  1.00  0.00    -0.352 N 
ATOM     35  C   UNL A   1      42.423  26.561  26.225  1.00  0.00     0.251 C 
ATOM     36  H   UNL A   1      41.508  24.796  26.386  1.00  0.00     0.163 HD
ATOM     37  O   UNL A   1      42.693  26.324  25.044  1.00  0.00    -0.269 OA
BRANCH  35  38
ATOM     38  C   UNL A   1      42.891  27.847  26.825  1.00  0.00     0.039 A 
ATOM     39  C   UNL A   1      42.381  29.051  26.308  1.00  0.00     0.014 A 
ATOM     40  C   UNL A   1      43.865  27.916  27.824  1.00  0.00     0.014 A 
ATOM     41  C   UNL A   1      42.755  30.282  26.863  1.00  0.00     0.010 A 
ATOM     42  C   UNL A   1      44.232  29.130  28.390  1.00  0.00     0.010 A 
ATOM     43  C   UNL A   1      43.637  30.314  27.953  1.00  0.00    -0.014 A 
BRANCH  43  44
ATOM     44  C   UNL A   1      43.734  31.487  28.848  1.00  0.00     0.031 A 
ATOM     45  C   UNL A   1      42.761  31.720  29.962  1.00  0.00     0.074 A 
ATOM     46  C   UNL A   1      44.588  32.453  28.452  1.00  0.00     0.049 A 
ATOM     47  N   UNL A   1      42.704  32.719  30.802  1.00  0.00    -0.248 NA
ATOM     48  C   UNL A   1      41.696  30.721  30.140  1.00  0.00     0.031 C 
ATOM     49  C   UNL A   1      45.442  32.374  27.259  1.00  0.00     0.029 A 
ATOM     50  N   UNL A   1      44.838  33.701  28.952  1.00  0.00    -0.354 N 
ATOM     51  C   UNL A   1      41.596  32.481  31.605  1.00  0.00     0.074 A 
ATOM     52  C   UNL A   1      40.989  31.255  31.128  1.00  0.00     0.031 C 
ATOM     53  C   UNL A   1      46.109  33.525  27.114  1.00  0.00     0.029 A 
ATOM     54  C   UNL A   1      45.733  34.422  28.196  1.00  0.00     0.049 A 
ATOM     55  H   UNL A   1      44.419  34.049  29.772  1.00  0.00     0.167 HD
ATOM     56  C   UNL A   1      41.145  33.216  32.652  1.00  0.00     0.034 A 
ATOM     57  C   UNL A   1      46.208  35.668  28.365  1.00  0.00     0.034 A 
ATOM     58  C   UNL A   1      41.763  34.452  33.065  1.00  0.00     0.049 A 
ATOM     59  C   UNL A   1      45.761  36.423  29.579  1.00  0.00     0.074 A 
ATOM     60  C   UNL A   1      41.480  35.238  34.167  1.00  0.00     0.029 A 
ATOM     61  N   UNL A   1      42.775  35.097  32.364  1.00  0.00    -0.354 N 
ATOM     62  N   UNL A   1      44.871  36.076  30.478  1.00  0.00    -0.248 NA
ATOM     63  C   UNL A   1      46.420  37.707  29.842  1.00  0.00     0.031 C 
ATOM     64  C   UNL A   1      42.298  36.374  34.113  1.00  0.00     0.029 A 
ATOM     65  C   UNL A   1      43.122  36.276  33.002  1.00  0.00     0.049 A 
ATOM     66  H   UNL A   1      43.185  34.764  31.534  1.00  0.00     0.167 HD
ATOM     67  C   UNL A   1      44.891  37.076  31.439  1.00  0.00     0.074 A 
ATOM     68  C   UNL A   1      45.894  38.036  31.014  1.00  0.00     0.031 C 
ATOM     69  C   UNL A   1      44.149  37.193  32.568  1.00  0.00     0.034 A 
BRANCH  56  70
ATOM     70  C   UNL A   1      39.977  32.678  33.449  1.00  0.00     0.023 A 
ATOM     71  C   UNL A   1      40.146  31.498  34.205  1.00  0.00     0.012 A 
ATOM     72  C   UNL A   1      38.741  33.352  33.506  1.00  0.00     0.148 A 
ATOM     73  C   UNL A   1      39.097  30.971  34.960  1.00  0.00     0.002 A 
ATOM     74  C   UNL A   1      37.711  32.845  34.298  1.00  0.00     0.091 A 
ATOM     75  F   UNL A   1      38.585  34.470  32.783  1.00  0.00    -0.205 F 
ATOM     76  C   UNL A   1      37.884  31.649  35.012  1.00  0.00     0.022 A 
BRANCH  74  77
ATOM     77  S   UNL A   1      36.134  33.682  34.504  1.00  0.00     0.127 S 
ATOM     78  O   UNL A   1      35.233  32.803  33.758  1.00  0.00    -0.237 OA
ATOM     79  O   UNL A   1      35.952  33.640  35.958  1.00  0.00    -0.237 OA
ATOM     80  O   UNL A   1      36.306  35.015  33.953  1.00  0.00    -0.744 OA
ENDBRANCH  74  77
ENDBRANCH  56  70
BRANCH  57  81
ATOM     81  C   UNL A   1      47.259  36.183  27.444  1.00  0.00     0.023 A 
ATOM     82  C   UNL A   1      46.870  36.963  26.338  1.00  0.00     0.012 A 
ATOM     83  C   UNL A   1      48.631  35.997  27.705  1.00  0.00     0.148 A 
ATOM     84  C   UNL A   1      47.825  37.526  25.491  1.00  0.00     0.002 A 
ATOM     85  C   UNL A   1      49.579  36.601  26.885  1.00  0.00     0.091 A 
ATOM     86  F   UNL A   1      48.981  35.263  28.771  1.00  0.00    -0.205 F 
ATOM     87  C   UNL A   1      49.178  37.352  25.769  1.00  0.00     0.022 A 
BRANCH  85  88
ATOM     88  S   UNL A   1      51.340  36.550  27.239  1.00  0.00     0.127 S 
ATOM     89  O   UNL A   1      51.829  37.702  26.484  1.00  0.00    -0.237 OA
ATOM     90  O   UNL A   1      51.362  36.715  28.693  1.00  0.00    -0.237 OA
ATOM     91  O   UNL A   1      51.800  35.249  26.775  1.00  0.00    -0.744 OA
ENDBRANCH  85  88
ENDBRANCH  57  81
BRANCH  69  92
ATOM     92  C   UNL A   1      44.420  38.386  33.442  1.00  0.00     0.023 A 
ATOM     93  C   UNL A   1      45.379  38.304  34.471  1.00  0.00     0.012 A 
ATOM     94  C   UNL A   1      43.767  39.609  33.194  1.00  0.00     0.148 A 
ATOM     95  C   UNL A   1      45.661  39.416  35.261  1.00  0.00     0.002 A 
ATOM     96  C   UNL A   1      44.094  40.726  33.949  1.00  0.00     0.091 A 
ATOM     97  F   UNL A   1      42.841  39.654  32.225  1.00  0.00    -0.205 F 
ATOM     98  C   UNL A   1      45.029  40.629  34.993  1.00  0.00     0.022 A 
BRANCH  96  99
ATOM     99  S   UNL A   1      43.410  42.350  33.609  1.00  0.00     0.127 S 
ATOM    100  O   UNL A   1      42.046  42.211  34.116  1.00  0.00    -0.237 OA
ATOM    101  O   UNL A   1      44.272  43.221  34.407  1.00  0.00    -0.237 OA
ATOM    102  O   UNL A   1      43.521  42.542  32.169  1.00  0.00    -0.744 OA
ENDBRANCH  96  99
ENDBRANCH  69  92
ENDBRANCH  43  44
ENDBRANCH  35  38
ENDBRANCH  33  34
ENDBRANCH  32  33
ENDBRANCH  31  32
ENDBRANCH   1  31
TORSDOF 19
ENDMDL
