MODEL 1
REMARK VINA RESULT:     -11.4      0.000      0.000
REMARK SMILES NC(=O)c1c(F)cccc1N1CCC[C@H](CC(=O)NCCCCNC(=O)c2ccc(-c3c4nc(c(-c5cccc(S(=O)(=O)[O-])c5F)c5ccc([nH]5)c(-c5cccc(S(=O)(=O)[O-])c5F)c5nc(c(-c6cccc(S(=O)(=O)[O-])c6F)c6ccc3[nH]6)C=C5)C=C4)cc2)C1
REMARK SMILES IDX 21 1 20 2 19 3 17 4 18 5 16 7 15 8 11 9 12 10 90 11 13 12
REMARK SMILES IDX 14 13 10 14 4 15 5 16 6 17 7 18 9 19 8 20 2 21 1 22 3 25
REMARK SMILES IDX 22 26 23 27 24 28 25 29 26 31 27 32 28 33 89 34 29 35 88 36
REMARK SMILES IDX 30 37 31 38 32 39 82 40 33 41 87 42 81 43 83 44 34 45 86 46
REMARK SMILES IDX 80 47 79 48 35 50 67 51 47 52 66 53 48 54 51 55 65 56 84 57
REMARK SMILES IDX 49 58 50 59 64 61 85 62 52 63 36 64 37 65 45 66 38 67 40 68
REMARK SMILES IDX 46 69 39 70 41 71 42 72 43 73 44 74 68 75 69 76 77 77 70 78
REMARK SMILES IDX 72 79 78 80 71 81 73 82 74 83 75 84 76 85 53 86 54 87 62 88
REMARK SMILES IDX 55 89 57 90 63 91 56 92 58 93 59 94 60 95 61 96
REMARK H PARENT 19 6 1 23 1 24 24 30 83 49 51 60
REMARK Flexibility Score: inf
ROOT
ATOM      1  C   UNL A   1      33.709  28.756  24.434  1.00  0.00     0.023 C 
ENDROOT
BRANCH   1   2
ATOM      2  C   UNL A   1      32.987  28.395  23.137  1.00  0.00     0.116 C 
BRANCH   2   3
ATOM      3  N   UNL A   1      31.554  28.345  23.352  1.00  0.00    -0.356 N 
ATOM      4  C   UNL A   1      30.771  27.291  23.707  1.00  0.00     0.220 C 
ATOM      5  O   UNL A   1      29.546  27.423  23.689  1.00  0.00    -0.275 OA
ATOM      6  H   UNL A   1      31.079  29.198  23.221  1.00  0.00     0.163 HD
BRANCH   4   7
ATOM      7  C   UNL A   1      31.397  25.986  24.148  1.00  0.00     0.105 C 
BRANCH   7   8
ATOM      8  C   UNL A   1      31.402  25.789  25.679  1.00  0.00     0.018 C 
ATOM      9  N   UNL A   1      33.149  24.115  25.574  1.00  0.00    -0.371 N 
ATOM     10  C   UNL A   1      32.336  22.985  26.020  1.00  0.00     0.116 C 
ATOM     11  C   UNL A   1      32.821  25.425  26.137  1.00  0.00     0.120 C 
ATOM     12  C   UNL A   1      30.865  23.281  25.723  1.00  0.00     0.022 C 
ATOM     13  C   UNL A   1      30.464  24.682  26.194  1.00  0.00     0.008 C 
BRANCH   9  14
ATOM     14  C   UNL A   1      34.440  23.866  25.139  1.00  0.00     0.053 A 
ATOM     15  C   UNL A   1      34.791  23.458  23.840  1.00  0.00     0.098 A 
ATOM     16  C   UNL A   1      36.112  23.110  23.544  1.00  0.00     0.138 A 
ATOM     17  F   UNL A   1      36.455  22.703  22.312  1.00  0.00    -0.206 F 
ATOM     18  C   UNL A   1      37.105  23.171  24.517  1.00  0.00     0.040 A 
ATOM     19  C   UNL A   1      35.465  23.948  26.100  1.00  0.00     0.027 A 
ATOM     20  C   UNL A   1      36.784  23.601  25.799  1.00  0.00     0.005 A 
BRANCH  15  21
ATOM     21  C   UNL A   1      33.804  23.440  22.743  1.00  0.00     0.253 C 
ATOM     22  N   UNL A   1      33.019  22.324  22.653  1.00  0.00    -0.365 N 
ATOM     23  H   UNL A   1      32.342  22.253  21.943  1.00  0.00     0.159 HD
ATOM     24  H   UNL A   1      33.132  21.590  23.301  1.00  0.00     0.159 HD
ATOM     25  O   UNL A   1      33.675  24.375  21.964  1.00  0.00    -0.269 OA
ENDBRANCH  15  21
ENDBRANCH   9  14
ENDBRANCH   7   8
ENDBRANCH   4   7
ENDBRANCH   2   3
ENDBRANCH   1   2
BRANCH   1  26
ATOM     26  C   UNL A   1      32.836  29.432  25.479  1.00  0.00     0.023 C 
BRANCH  26  27
ATOM     27  C   UNL A   1      33.441  29.483  26.873  1.00  0.00     0.116 C 
BRANCH  27  28
ATOM     28  N   UNL A   1      33.549  30.830  27.424  1.00  0.00    -0.352 N 
ATOM     29  C   UNL A   1      34.596  31.360  28.145  1.00  0.00     0.251 C 
ATOM     30  H   UNL A   1      32.786  31.431  27.262  1.00  0.00     0.163 HD
ATOM     31  O   UNL A   1      34.536  32.493  28.610  1.00  0.00    -0.269 OA
BRANCH  29  32
ATOM     32  C   UNL A   1      35.775  30.505  28.388  1.00  0.00     0.039 A 
ATOM     33  C   UNL A   1      36.898  30.646  27.570  1.00  0.00     0.014 A 
ATOM     34  C   UNL A   1      35.810  29.681  29.515  1.00  0.00     0.014 A 
ATOM     35  C   UNL A   1      38.093  30.028  27.939  1.00  0.00     0.010 A 
ATOM     36  C   UNL A   1      37.023  29.150  29.929  1.00  0.00     0.010 A 
ATOM     37  C   UNL A   1      38.178  29.318  29.150  1.00  0.00    -0.014 A 
BRANCH  37  38
ATOM     38  C   UNL A   1      39.464  28.763  29.640  1.00  0.00     0.031 A 
ATOM     39  C   UNL A   1      40.187  29.439  30.772  1.00  0.00     0.074 A 
ATOM     40  C   UNL A   1      40.045  27.738  28.986  1.00  0.00     0.049 A 
ATOM     41  N   UNL A   1      41.365  29.172  31.271  1.00  0.00    -0.248 NA
ATOM     42  C   UNL A   1      39.520  30.595  31.395  1.00  0.00     0.031 C 
ATOM     43  C   UNL A   1      39.499  27.071  27.801  1.00  0.00     0.029 A 
ATOM     44  N   UNL A   1      41.240  27.096  29.204  1.00  0.00    -0.354 N 
ATOM     45  C   UNL A   1      41.604  30.158  32.219  1.00  0.00     0.074 A 
ATOM     46  C   UNL A   1      40.466  31.049  32.205  1.00  0.00     0.031 C 
ATOM     47  C   UNL A   1      40.352  26.114  27.402  1.00  0.00     0.029 A 
ATOM     48  C   UNL A   1      41.514  26.111  28.285  1.00  0.00     0.049 A 
ATOM     49  H   UNL A   1      41.843  27.323  29.949  1.00  0.00     0.167 HD
ATOM     50  C   UNL A   1      42.659  30.289  33.056  1.00  0.00     0.034 A 
ATOM     51  C   UNL A   1      42.582  25.296  28.165  1.00  0.00     0.034 A 
ATOM     52  C   UNL A   1      43.740  29.347  33.133  1.00  0.00     0.049 A 
ATOM     53  C   UNL A   1      43.688  25.384  29.181  1.00  0.00     0.074 A 
ATOM     54  C   UNL A   1      44.779  29.308  34.045  1.00  0.00     0.029 A 
ATOM     55  N   UNL A   1      43.920  28.277  32.271  1.00  0.00    -0.354 N 
ATOM     56  N   UNL A   1      43.808  26.208  30.194  1.00  0.00    -0.248 NA
ATOM     57  C   UNL A   1      44.785  24.412  29.066  1.00  0.00     0.031 C 
ATOM     58  C   UNL A   1      45.593  28.216  33.728  1.00  0.00     0.029 A 
ATOM     59  C   UNL A   1      45.055  27.571  32.625  1.00  0.00     0.049 A 
ATOM     60  H   UNL A   1      43.328  28.054  31.517  1.00  0.00     0.167 HD
ATOM     61  C   UNL A   1      44.978  25.843  30.849  1.00  0.00     0.074 A 
ATOM     62  C   UNL A   1      45.520  24.707  30.132  1.00  0.00     0.031 C 
ATOM     63  C   UNL A   1      45.556  26.409  31.936  1.00  0.00     0.034 A 
BRANCH  50  64
ATOM     64  C   UNL A   1      42.655  31.449  34.013  1.00  0.00     0.023 A 
ATOM     65  C   UNL A   1      43.288  32.654  33.643  1.00  0.00     0.012 A 
ATOM     66  C   UNL A   1      41.978  31.372  35.246  1.00  0.00     0.148 A 
ATOM     67  C   UNL A   1      43.276  33.754  34.499  1.00  0.00     0.002 A 
ATOM     68  C   UNL A   1      41.933  32.488  36.074  1.00  0.00     0.091 A 
ATOM     69  F   UNL A   1      41.407  30.210  35.592  1.00  0.00    -0.205 F 
ATOM     70  C   UNL A   1      42.589  33.675  35.707  1.00  0.00     0.022 A 
BRANCH  68  71
ATOM     71  S   UNL A   1      41.007  32.507  37.613  1.00  0.00     0.127 S 
ATOM     72  O   UNL A   1      41.874  31.724  38.490  1.00  0.00    -0.237 OA
ATOM     73  O   UNL A   1      40.954  33.936  37.926  1.00  0.00    -0.237 OA
ATOM     74  O   UNL A   1      39.714  31.909  37.307  1.00  0.00    -0.744 OA
ENDBRANCH  68  71
ENDBRANCH  50  64
BRANCH  51  75
ATOM     75  C   UNL A   1      42.590  24.262  27.092  1.00  0.00     0.023 A 
ATOM     76  C   UNL A   1      43.313  24.507  25.909  1.00  0.00     0.012 A 
ATOM     77  C   UNL A   1      41.971  23.008  27.273  1.00  0.00     0.148 A 
ATOM     78  C   UNL A   1      43.413  23.528  24.920  1.00  0.00     0.002 A 
ATOM     79  C   UNL A   1      42.120  22.019  26.308  1.00  0.00     0.091 A 
ATOM     80  F   UNL A   1      41.282  22.800  28.404  1.00  0.00    -0.205 F 
ATOM     81  C   UNL A   1      42.829  22.282  25.124  1.00  0.00     0.022 A 
BRANCH  79  82
ATOM     82  S   UNL A   1      41.527  20.339  26.544  1.00  0.00     0.127 S 
ATOM     83  O   UNL A   1      40.080  20.523  26.505  1.00  0.00    -0.237 OA
ATOM     84  O   UNL A   1      42.094  19.656  25.380  1.00  0.00    -0.237 OA
ATOM     85  O   UNL A   1      42.075  19.904  27.822  1.00  0.00    -0.744 OA
ENDBRANCH  79  82
ENDBRANCH  51  75
BRANCH  63  86
ATOM     86  C   UNL A   1      46.846  25.822  32.442  1.00  0.00     0.023 A 
ATOM     87  C   UNL A   1      48.070  26.353  31.991  1.00  0.00     0.012 A 
ATOM     88  C   UNL A   1      46.844  24.848  33.460  1.00  0.00     0.148 A 
ATOM     89  C   UNL A   1      49.275  25.914  32.538  1.00  0.00     0.002 A 
ATOM     90  C   UNL A   1      48.047  24.448  34.032  1.00  0.00     0.091 A 
ATOM     91  F   UNL A   1      45.668  24.342  33.861  1.00  0.00    -0.205 F 
ATOM     92  C   UNL A   1      49.263  24.975  33.568  1.00  0.00     0.022 A 
BRANCH  90  93
ATOM     93  S   UNL A   1      48.116  23.323  35.432  1.00  0.00     0.127 S 
ATOM     94  O   UNL A   1      47.300  24.027  36.420  1.00  0.00    -0.237 OA
ATOM     95  O   UNL A   1      47.506  22.109  34.889  1.00  0.00    -0.237 OA
ATOM     96  O   UNL A   1      49.529  23.189  35.765  1.00  0.00    -0.744 OA
ENDBRANCH  90  93
ENDBRANCH  63  86
ENDBRANCH  37  38
ENDBRANCH  29  32
ENDBRANCH  27  28
ENDBRANCH  26  27
ENDBRANCH   1  26
TORSDOF 17
ENDMDL
MODEL 2
REMARK VINA RESULT:     -11.3      3.056      8.668
REMARK SMILES NC(=O)c1c(F)cccc1N1CCC[C@H](CC(=O)NCCCCNC(=O)c2ccc(-c3c4nc(c(-c5cccc(S(=O)(=O)[O-])c5F)c5ccc([nH]5)c(-c5cccc(S(=O)(=O)[O-])c5F)c5nc(c(-c6cccc(S(=O)(=O)[O-])c6F)c6ccc3[nH]6)C=C5)C=C4)cc2)C1
REMARK SMILES IDX 21 1 20 2 19 3 17 4 18 5 16 7 15 8 11 9 12 10 90 11 13 12
REMARK SMILES IDX 14 13 10 14 4 15 5 16 6 17 7 18 9 19 8 20 2 21 1 22 3 25
REMARK SMILES IDX 22 26 23 27 24 28 25 29 26 31 27 32 28 33 89 34 29 35 88 36
REMARK SMILES IDX 30 37 31 38 32 39 82 40 33 41 87 42 81 43 83 44 34 45 86 46
REMARK SMILES IDX 80 47 79 48 35 50 67 51 47 52 66 53 48 54 51 55 65 56 84 57
REMARK SMILES IDX 49 58 50 59 64 61 85 62 52 63 36 64 37 65 45 66 38 67 40 68
REMARK SMILES IDX 46 69 39 70 41 71 42 72 43 73 44 74 68 75 69 76 77 77 70 78
REMARK SMILES IDX 72 79 78 80 71 81 73 82 74 83 75 84 76 85 53 86 54 87 62 88
REMARK SMILES IDX 55 89 57 90 63 91 56 92 58 93 59 94 60 95 61 96
REMARK H PARENT 19 6 1 23 1 24 24 30 83 49 51 60
REMARK Flexibility Score: inf
ROOT
ATOM      1  C   UNL A   1      31.430  30.793  26.134  1.00  0.00     0.023 C 
ENDROOT
BRANCH   1   2
ATOM      2  C   UNL A   1      31.831  29.708  27.134  1.00  0.00     0.116 C 
BRANCH   2   3
ATOM      3  N   UNL A   1      33.266  29.505  27.113  1.00  0.00    -0.356 N 
ATOM      4  C   UNL A   1      34.004  28.641  26.365  1.00  0.00     0.220 C 
ATOM      5  O   UNL A   1      35.205  28.516  26.608  1.00  0.00    -0.275 OA
ATOM      6  H   UNL A   1      33.780  30.074  27.729  1.00  0.00     0.163 HD
BRANCH   4   7
ATOM      7  C   UNL A   1      33.366  27.871  25.230  1.00  0.00     0.105 C 
BRANCH   7   8
ATOM      8  C   UNL A   1      33.710  28.429  23.832  1.00  0.00     0.018 C 
ATOM      9  N   UNL A   1      31.537  27.847  22.937  1.00  0.00    -0.371 N 
ATOM     10  C   UNL A   1      32.000  26.826  21.999  1.00  0.00     0.116 C 
ATOM     11  C   UNL A   1      32.434  28.977  23.178  1.00  0.00     0.120 C 
ATOM     12  C   UNL A   1      33.344  26.278  22.483  1.00  0.00     0.022 C 
ATOM     13  C   UNL A   1      34.314  27.403  22.855  1.00  0.00     0.008 C 
BRANCH   9  14
ATOM     14  C   UNL A   1      30.172  28.015  23.105  1.00  0.00     0.053 A 
ATOM     15  C   UNL A   1      29.329  27.133  23.804  1.00  0.00     0.098 A 
ATOM     16  C   UNL A   1      27.945  27.333  23.802  1.00  0.00     0.138 A 
ATOM     17  F   UNL A   1      27.129  26.488  24.452  1.00  0.00    -0.206 F 
ATOM     18  C   UNL A   1      27.376  28.406  23.124  1.00  0.00     0.040 A 
ATOM     19  C   UNL A   1      29.578  29.110  22.450  1.00  0.00     0.027 A 
ATOM     20  C   UNL A   1      28.195  29.305  22.452  1.00  0.00     0.005 A 
BRANCH  15  21
ATOM     21  C   UNL A   1      29.870  26.018  24.603  1.00  0.00     0.253 C 
ATOM     22  N   UNL A   1      29.907  24.796  23.990  1.00  0.00    -0.365 N 
ATOM     23  H   UNL A   1      30.258  24.013  24.472  1.00  0.00     0.159 HD
ATOM     24  H   UNL A   1      29.582  24.700  23.065  1.00  0.00     0.159 HD
ATOM     25  O   UNL A   1      30.283  26.171  25.745  1.00  0.00    -0.269 OA
ENDBRANCH  15  21
ENDBRANCH   9  14
ENDBRANCH   7   8
ENDBRANCH   4   7
ENDBRANCH   2   3
ENDBRANCH   1   2
BRANCH   1  26
ATOM     26  C   UNL A   1      31.250  32.176  26.737  1.00  0.00     0.023 C 
BRANCH  26  27
ATOM     27  C   UNL A   1      32.520  33.007  26.807  1.00  0.00     0.116 C 
BRANCH  27  28
ATOM     28  N   UNL A   1      32.401  34.207  27.630  1.00  0.00    -0.352 N 
ATOM     29  C   UNL A   1      33.234  34.610  28.650  1.00  0.00     0.251 C 
ATOM     30  H   UNL A   1      31.637  34.796  27.433  1.00  0.00     0.163 HD
ATOM     31  O   UNL A   1      32.986  35.613  29.311  1.00  0.00    -0.269 OA
BRANCH  29  32
ATOM     32  C   UNL A   1      34.409  33.772  28.961  1.00  0.00     0.039 A 
ATOM     33  C   UNL A   1      35.687  34.269  28.700  1.00  0.00     0.014 A 
ATOM     34  C   UNL A   1      34.235  32.566  29.646  1.00  0.00     0.014 A 
ATOM     35  C   UNL A   1      36.798  33.598  29.213  1.00  0.00     0.010 A 
ATOM     36  C   UNL A   1      35.334  31.957  30.234  1.00  0.00     0.010 A 
ATOM     37  C   UNL A   1      36.626  32.465  30.028  1.00  0.00    -0.014 A 
BRANCH  37  38
ATOM     38  C   UNL A   1      37.774  31.805  30.700  1.00  0.00     0.031 A 
ATOM     39  C   UNL A   1      38.548  30.736  29.980  1.00  0.00     0.074 A 
ATOM     40  C   UNL A   1      38.035  32.070  31.995  1.00  0.00     0.049 A 
ATOM     41  N   UNL A   1      39.508  29.973  30.430  1.00  0.00    -0.248 NA
ATOM     42  C   UNL A   1      38.161  30.455  28.586  1.00  0.00     0.031 C 
ATOM     43  C   UNL A   1      37.281  33.002  32.837  1.00  0.00     0.029 A 
ATOM     44  N   UNL A   1      38.986  31.555  32.842  1.00  0.00    -0.354 N 
ATOM     45  C   UNL A   1      39.797  29.087  29.400  1.00  0.00     0.074 A 
ATOM     46  C   UNL A   1      38.891  29.383  28.315  1.00  0.00     0.031 C 
ATOM     47  C   UNL A   1      37.802  32.997  34.075  1.00  0.00     0.029 A 
ATOM     48  C   UNL A   1      38.910  32.047  34.124  1.00  0.00     0.049 A 
ATOM     49  H   UNL A   1      39.658  30.895  32.557  1.00  0.00     0.167 HD
ATOM     50  C   UNL A   1      40.759  28.136  29.348  1.00  0.00     0.034 A 
ATOM     51  C   UNL A   1      39.648  31.767  35.217  1.00  0.00     0.034 A 
ATOM     52  C   UNL A   1      41.720  27.912  30.391  1.00  0.00     0.049 A 
ATOM     53  C   UNL A   1      40.787  30.791  35.100  1.00  0.00     0.074 A 
ATOM     54  C   UNL A   1      42.823  27.078  30.375  1.00  0.00     0.029 A 
ATOM     55  N   UNL A   1      41.696  28.526  31.633  1.00  0.00    -0.354 N 
ATOM     56  N   UNL A   1      41.167  30.095  34.055  1.00  0.00    -0.248 NA
ATOM     57  C   UNL A   1      41.623  30.588  36.292  1.00  0.00     0.031 C 
ATOM     58  C   UNL A   1      43.463  27.182  31.614  1.00  0.00     0.029 A 
ATOM     59  C   UNL A   1      42.763  28.088  32.396  1.00  0.00     0.049 A 
ATOM     60  H   UNL A   1      41.019  29.177  31.928  1.00  0.00     0.167 HD
ATOM     61  C   UNL A   1      42.296  29.390  34.454  1.00  0.00     0.074 A 
ATOM     62  C   UNL A   1      42.554  29.760  35.831  1.00  0.00     0.031 C 
ATOM     63  C   UNL A   1      43.040  28.504  33.748  1.00  0.00     0.034 A 
BRANCH  50  64
ATOM     64  C   UNL A   1      40.873  27.323  28.088  1.00  0.00     0.023 A 
ATOM     65  C   UNL A   1      41.484  27.891  26.951  1.00  0.00     0.012 A 
ATOM     66  C   UNL A   1      40.434  25.986  28.043  1.00  0.00     0.148 A 
ATOM     67  C   UNL A   1      41.628  27.152  25.778  1.00  0.00     0.002 A 
ATOM     68  C   UNL A   1      40.621  25.242  26.883  1.00  0.00     0.091 A 
ATOM     69  F   UNL A   1      39.830  25.473  29.123  1.00  0.00    -0.205 F 
ATOM     70  C   UNL A   1      41.207  25.825  25.748  1.00  0.00     0.022 A 
BRANCH  68  71
ATOM     71  S   UNL A   1      40.184  23.503  26.776  1.00  0.00     0.127 S 
ATOM     72  O   UNL A   1      38.787  23.575  26.355  1.00  0.00    -0.237 OA
ATOM     73  O   UNL A   1      41.106  23.014  25.749  1.00  0.00    -0.237 OA
ATOM     74  O   UNL A   1      40.414  22.952  28.104  1.00  0.00    -0.744 OA
ENDBRANCH  68  71
ENDBRANCH  50  64
BRANCH  51  75
ATOM     75  C   UNL A   1      39.381  32.504  36.483  1.00  0.00     0.023 A 
ATOM     76  C   UNL A   1      40.014  33.744  36.702  1.00  0.00     0.012 A 
ATOM     77  C   UNL A   1      38.437  32.039  37.421  1.00  0.00     0.148 A 
ATOM     78  C   UNL A   1      39.722  34.502  37.836  1.00  0.00     0.002 A 
ATOM     79  C   UNL A   1      38.111  32.825  38.521  1.00  0.00     0.091 A 
ATOM     80  F   UNL A   1      37.852  30.855  37.196  1.00  0.00    -0.205 F 
ATOM     81  C   UNL A   1      38.762  34.050  38.737  1.00  0.00     0.022 A 
BRANCH  79  82
ATOM     82  S   UNL A   1      36.787  32.396  39.659  1.00  0.00     0.127 S 
ATOM     83  O   UNL A   1      37.176  31.053  40.079  1.00  0.00    -0.237 OA
ATOM     84  O   UNL A   1      36.930  33.430  40.685  1.00  0.00    -0.237 OA
ATOM     85  O   UNL A   1      35.557  32.484  38.883  1.00  0.00    -0.744 OA
ENDBRANCH  79  82
ENDBRANCH  51  75
BRANCH  63  86
ATOM     86  C   UNL A   1      44.218  27.861  34.429  1.00  0.00     0.023 A 
ATOM     87  C   UNL A   1      45.443  28.551  34.487  1.00  0.00     0.012 A 
ATOM     88  C   UNL A   1      44.072  26.645  35.126  1.00  0.00     0.148 A 
ATOM     89  C   UNL A   1      46.512  28.036  35.220  1.00  0.00     0.002 A 
ATOM     90  C   UNL A   1      45.126  26.159  35.890  1.00  0.00     0.091 A 
ATOM     91  F   UNL A   1      42.902  25.994  35.041  1.00  0.00    -0.205 F 
ATOM     92  C   UNL A   1      46.348  26.850  35.933  1.00  0.00     0.022 A 
BRANCH  90  93
ATOM     93  S   UNL A   1      44.969  24.697  36.922  1.00  0.00     0.127 S 
ATOM     94  O   UNL A   1      44.352  23.746  36.000  1.00  0.00    -0.237 OA
ATOM     95  O   UNL A   1      46.361  24.402  37.263  1.00  0.00    -0.237 OA
ATOM     96  O   UNL A   1      44.145  25.096  38.056  1.00  0.00    -0.744 OA
ENDBRANCH  90  93
ENDBRANCH  63  86
ENDBRANCH  37  38
ENDBRANCH  29  32
ENDBRANCH  27  28
ENDBRANCH  26  27
ENDBRANCH   1  26
TORSDOF 17
ENDMDL
MODEL 3
REMARK VINA RESULT:     -11.2      2.487      3.478
REMARK SMILES NC(=O)c1c(F)cccc1N1CCC[C@H](CC(=O)NCCCCNC(=O)c2ccc(-c3c4nc(c(-c5cccc(S(=O)(=O)[O-])c5F)c5ccc([nH]5)c(-c5cccc(S(=O)(=O)[O-])c5F)c5nc(c(-c6cccc(S(=O)(=O)[O-])c6F)c6ccc3[nH]6)C=C5)C=C4)cc2)C1
REMARK SMILES IDX 21 1 20 2 19 3 17 4 18 5 16 7 15 8 11 9 12 10 90 11 13 12
REMARK SMILES IDX 14 13 10 14 4 15 5 16 6 17 7 18 9 19 8 20 2 21 1 22 3 25
REMARK SMILES IDX 22 26 23 27 24 28 25 29 26 31 27 32 28 33 89 34 29 35 88 36
REMARK SMILES IDX 30 37 31 38 32 39 82 40 33 41 87 42 81 43 83 44 34 45 86 46
REMARK SMILES IDX 80 47 79 48 35 50 67 51 47 52 66 53 48 54 51 55 65 56 84 57
REMARK SMILES IDX 49 58 50 59 64 61 85 62 52 63 36 64 37 65 45 66 38 67 40 68
REMARK SMILES IDX 46 69 39 70 41 71 42 72 43 73 44 74 68 75 69 76 77 77 70 78
REMARK SMILES IDX 72 79 78 80 71 81 73 82 74 83 75 84 76 85 53 86 54 87 62 88
REMARK SMILES IDX 55 89 57 90 63 91 56 92 58 93 59 94 60 95 61 96
REMARK H PARENT 19 6 1 23 1 24 24 30 83 49 51 60
REMARK Flexibility Score: inf
ROOT
ATOM      1  C   UNL A   1      31.454  29.472  24.470  1.00  0.00     0.023 C 
ENDROOT
BRANCH   1   2
ATOM      2  C   UNL A   1      32.965  29.245  24.415  1.00  0.00     0.116 C 
BRANCH   2   3
ATOM      3  N   UNL A   1      33.353  28.726  23.119  1.00  0.00    -0.356 N 
ATOM      4  C   UNL A   1      33.497  27.436  22.713  1.00  0.00     0.220 C 
ATOM      5  O   UNL A   1      33.985  27.208  21.605  1.00  0.00    -0.275 OA
ATOM      6  H   UNL A   1      33.540  29.407  22.432  1.00  0.00     0.163 HD
BRANCH   4   7
ATOM      7  C   UNL A   1      33.032  26.299  23.596  1.00  0.00     0.105 C 
BRANCH   7   8
ATOM      8  C   UNL A   1      33.877  26.124  24.877  1.00  0.00     0.018 C 
ATOM      9  N   UNL A   1      32.987  23.912  25.301  1.00  0.00    -0.371 N 
ATOM     10  C   UNL A   1      32.265  24.246  26.527  1.00  0.00     0.116 C 
ATOM     11  C   UNL A   1      34.231  24.641  25.049  1.00  0.00     0.120 C 
ATOM     12  C   UNL A   1      31.953  25.743  26.531  1.00  0.00     0.022 C 
ATOM     13  C   UNL A   1      33.187  26.579  26.176  1.00  0.00     0.008 C 
BRANCH   9  14
ATOM     14  C   UNL A   1      32.819  22.648  24.762  1.00  0.00     0.053 A 
ATOM     15  C   UNL A   1      33.429  21.476  25.242  1.00  0.00     0.098 A 
ATOM     16  C   UNL A   1      33.290  20.273  24.544  1.00  0.00     0.138 A 
ATOM     17  F   UNL A   1      33.883  19.152  24.983  1.00  0.00    -0.206 F 
ATOM     18  C   UNL A   1      32.540  20.205  23.374  1.00  0.00     0.040 A 
ATOM     19  C   UNL A   1      32.041  22.550  23.592  1.00  0.00     0.027 A 
ATOM     20  C   UNL A   1      31.904  21.346  22.900  1.00  0.00     0.005 A 
BRANCH  15  21
ATOM     21  C   UNL A   1      34.178  21.461  26.513  1.00  0.00     0.253 C 
ATOM     22  N   UNL A   1      35.520  21.711  26.428  1.00  0.00    -0.365 N 
ATOM     23  H   UNL A   1      36.073  21.715  27.243  1.00  0.00     0.159 HD
ATOM     24  H   UNL A   1      35.932  21.887  25.552  1.00  0.00     0.159 HD
ATOM     25  O   UNL A   1      33.633  21.255  27.590  1.00  0.00    -0.269 OA
ENDBRANCH  15  21
ENDBRANCH   9  14
ENDBRANCH   7   8
ENDBRANCH   4   7
ENDBRANCH   2   3
ENDBRANCH   1   2
BRANCH   1  26
ATOM     26  C   UNL A   1      31.012  30.580  25.412  1.00  0.00     0.023 C 
BRANCH  26  27
ATOM     27  C   UNL A   1      32.035  30.958  26.469  1.00  0.00     0.116 C 
BRANCH  27  28
ATOM     28  N   UNL A   1      31.949  32.347  26.909  1.00  0.00    -0.352 N 
ATOM     29  C   UNL A   1      32.891  33.065  27.612  1.00  0.00     0.251 C 
ATOM     30  H   UNL A   1      31.121  32.828  26.676  1.00  0.00     0.163 HD
ATOM     31  O   UNL A   1      32.668  34.214  27.979  1.00  0.00    -0.269 OA
BRANCH  29  32
ATOM     32  C   UNL A   1      34.159  32.393  27.960  1.00  0.00     0.039 A 
ATOM     33  C   UNL A   1      35.326  33.153  28.056  1.00  0.00     0.014 A 
ATOM     34  C   UNL A   1      34.149  31.047  28.332  1.00  0.00     0.014 A 
ATOM     35  C   UNL A   1      36.468  32.582  28.619  1.00  0.00     0.010 A 
ATOM     36  C   UNL A   1      35.254  30.514  28.979  1.00  0.00     0.010 A 
ATOM     37  C   UNL A   1      36.425  31.274  29.132  1.00  0.00    -0.014 A 
BRANCH  37  38
ATOM     38  C   UNL A   1      37.576  30.681  29.858  1.00  0.00     0.031 A 
ATOM     39  C   UNL A   1      37.870  31.107  31.269  1.00  0.00     0.074 A 
ATOM     40  C   UNL A   1      38.430  29.866  29.207  1.00  0.00     0.049 A 
ATOM     41  N   UNL A   1      38.884  30.787  32.029  1.00  0.00    -0.248 NA
ATOM     42  C   UNL A   1      36.927  32.052  31.892  1.00  0.00     0.031 C 
ATOM     43  C   UNL A   1      38.319  29.471  27.801  1.00  0.00     0.029 A 
ATOM     44  N   UNL A   1      39.582  29.250  29.633  1.00  0.00    -0.354 N 
ATOM     45  C   UNL A   1      38.732  31.534  33.191  1.00  0.00     0.074 A 
ATOM     46  C   UNL A   1      37.550  32.348  33.024  1.00  0.00     0.031 C 
ATOM     47  C   UNL A   1      39.353  28.675  27.484  1.00  0.00     0.029 A 
ATOM     48  C   UNL A   1      40.214  28.521  28.653  1.00  0.00     0.049 A 
ATOM     49  H   UNL A   1      39.922  29.324  30.554  1.00  0.00     0.167 HD
ATOM     50  C   UNL A   1      39.489  31.516  34.313  1.00  0.00     0.034 A 
ATOM     51  C   UNL A   1      41.359  27.809  28.690  1.00  0.00     0.034 A 
ATOM     52  C   UNL A   1      40.605  30.635  34.510  1.00  0.00     0.049 A 
ATOM     53  C   UNL A   1      42.118  27.710  29.985  1.00  0.00     0.074 A 
ATOM     54  C   UNL A   1      41.344  30.433  35.662  1.00  0.00     0.029 A 
ATOM     55  N   UNL A   1      41.141  29.807  33.537  1.00  0.00    -0.354 N 
ATOM     56  N   UNL A   1      41.853  28.279  31.136  1.00  0.00    -0.248 NA
ATOM     57  C   UNL A   1      43.307  26.846  30.001  1.00  0.00     0.031 C 
ATOM     58  C   UNL A   1      42.334  29.486  35.381  1.00  0.00     0.029 A 
ATOM     59  C   UNL A   1      42.204  29.093  34.058  1.00  0.00     0.049 A 
ATOM     60  H   UNL A   1      40.813  29.738  32.611  1.00  0.00     0.167 HD
ATOM     61  C   UNL A   1      42.827  27.827  32.020  1.00  0.00     0.074 A 
ATOM     62  C   UNL A   1      43.675  26.917  31.276  1.00  0.00     0.031 C 
ATOM     63  C   UNL A   1      43.008  28.150  33.323  1.00  0.00     0.034 A 
BRANCH  50  64
ATOM     64  C   UNL A   1      39.083  32.418  35.446  1.00  0.00     0.023 A 
ATOM     65  C   UNL A   1      38.150  31.956  36.397  1.00  0.00     0.012 A 
ATOM     66  C   UNL A   1      39.664  33.690  35.606  1.00  0.00     0.148 A 
ATOM     67  C   UNL A   1      37.776  32.760  37.474  1.00  0.00     0.002 A 
ATOM     68  C   UNL A   1      39.319  34.468  36.706  1.00  0.00     0.091 A 
ATOM     69  F   UNL A   1      40.527  34.123  34.677  1.00  0.00    -0.205 F 
ATOM     70  C   UNL A   1      38.369  34.009  37.634  1.00  0.00     0.022 A 
BRANCH  68  71
ATOM     71  S   UNL A   1      40.088  36.057  37.040  1.00  0.00     0.127 S 
ATOM     72  O   UNL A   1      39.295  36.536  38.170  1.00  0.00    -0.237 OA
ATOM     73  O   UNL A   1      41.460  35.673  37.377  1.00  0.00    -0.237 OA
ATOM     74  O   UNL A   1      39.962  36.826  35.810  1.00  0.00    -0.744 OA
ENDBRANCH  68  71
ENDBRANCH  50  64
BRANCH  51  75
ATOM     75  C   UNL A   1      41.785  27.057  27.476  1.00  0.00     0.023 A 
ATOM     76  C   UNL A   1      42.437  27.747  26.435  1.00  0.00     0.012 A 
ATOM     77  C   UNL A   1      41.639  25.658  27.388  1.00  0.00     0.148 A 
ATOM     78  C   UNL A   1      42.926  27.061  25.324  1.00  0.00     0.002 A 
ATOM     79  C   UNL A   1      42.176  24.974  26.303  1.00  0.00     0.091 A 
ATOM     80  F   UNL A   1      41.009  25.023  28.386  1.00  0.00    -0.205 F 
ATOM     81  C   UNL A   1      42.808  25.675  25.263  1.00  0.00     0.022 A 
BRANCH  79  82
ATOM     82  S   UNL A   1      42.200  23.180  26.205  1.00  0.00     0.127 S 
ATOM     83  O   UNL A   1      40.803  22.846  26.466  1.00  0.00    -0.237 OA
ATOM     84  O   UNL A   1      42.640  22.962  24.826  1.00  0.00    -0.237 OA
ATOM     85  O   UNL A   1      43.154  22.743  27.216  1.00  0.00    -0.744 OA
ENDBRANCH  79  82
ENDBRANCH  51  75
BRANCH  63  86
ATOM     86  C   UNL A   1      44.163  27.523  34.057  1.00  0.00     0.023 A 
ATOM     87  C   UNL A   1      45.359  28.249  34.210  1.00  0.00     0.012 A 
ATOM     88  C   UNL A   1      44.015  26.282  34.708  1.00  0.00     0.148 A 
ATOM     89  C   UNL A   1      46.397  27.744  34.993  1.00  0.00     0.002 A 
ATOM     90  C   UNL A   1      45.036  25.806  35.522  1.00  0.00     0.091 A 
ATOM     91  F   UNL A   1      42.874  25.598  34.533  1.00  0.00    -0.205 F 
ATOM     92  C   UNL A   1      46.230  26.533  35.661  1.00  0.00     0.022 A 
BRANCH  90  93
ATOM     93  S   UNL A   1      44.864  24.309  36.501  1.00  0.00     0.127 S 
ATOM     94  O   UNL A   1      43.568  24.519  37.142  1.00  0.00    -0.237 OA
ATOM     95  O   UNL A   1      44.878  23.263  35.478  1.00  0.00    -0.237 OA
ATOM     96  O   UNL A   1      46.012  24.286  37.399  1.00  0.00    -0.744 OA
ENDBRANCH  90  93
ENDBRANCH  63  86
ENDBRANCH  37  38
ENDBRANCH  29  32
ENDBRANCH  27  28
ENDBRANCH  26  27
ENDBRANCH   1  26
TORSDOF 17
ENDMDL
