MODEL 1
REMARK VINA RESULT:     -12.5      0.000      0.000
REMARK SMILES Cc1c(Cl)ccc2c1C=C(C(=O)NCCCCNC(=O)c1ccc(-c3c4nc(c(-c5cccc(S(=O)(=O)[O-])c5F)c5ccc([nH]5)c(-c5cccc(S(=O)(=O)[O-])c5F)c5nc(c(-c6cccc(S(=O)(=O)[O-])c6F)c6ccc3[nH]6)C=C5)C=C4)cc1)[C@@H](C(F)(F)F)O2
REMARK SMILES IDX 16 1 15 2 14 3 13 4 11 5 12 6 10 8 1 9 2 10 3 11 8 12 4 13
REMARK SMILES IDX 5 14 7 15 9 16 6 17 89 18 84 19 85 20 86 21 87 22 88 23
REMARK SMILES IDX 17 24 18 25 19 26 20 28 21 29 22 30 83 31 23 32 82 33 24 34
REMARK SMILES IDX 25 35 26 36 76 37 27 38 81 39 75 40 77 41 28 42 80 43 74 44
REMARK SMILES IDX 73 45 29 47 61 48 41 49 60 50 42 51 45 52 59 53 78 54 43 55
REMARK SMILES IDX 44 56 58 58 79 59 46 60 30 61 31 62 39 63 32 64 34 65 40 66
REMARK SMILES IDX 33 67 35 68 36 69 37 70 38 71 62 72 63 73 71 74 64 75 66 76
REMARK SMILES IDX 72 77 65 78 67 79 68 80 69 81 70 82 47 83 48 84 56 85 49 86
REMARK SMILES IDX 51 87 57 88 50 89 52 90 53 91 54 92 55 93
REMARK H PARENT 13 7 18 27 77 46 45 57
REMARK Flexibility Score: inf
ROOT
ATOM      1  C   UNL A   1      31.497  32.265  26.827  1.00  0.00     0.023 C 
ENDROOT
BRANCH   1   2
ATOM      2  C   UNL A   1      31.627  30.766  26.547  1.00  0.00     0.023 C 
BRANCH   2   3
ATOM      3  C   UNL A   1      33.061  30.246  26.594  1.00  0.00     0.116 C 
BRANCH   3   4
ATOM      4  N   UNL A   1      33.490  29.729  25.307  1.00  0.00    -0.352 N 
ATOM      5  C   UNL A   1      33.518  28.532  24.680  1.00  0.00     0.251 C 
ATOM      6  O   UNL A   1      33.998  28.544  23.543  1.00  0.00    -0.270 OA
ATOM      7  H   UNL A   1      33.862  30.443  24.739  1.00  0.00     0.163 HD
BRANCH   5   8
ATOM      8  C   UNL A   1      33.015  27.244  25.246  1.00  0.00     0.067 C 
ATOM      9  C   UNL A   1      35.549  23.784  24.696  1.00  0.00     0.047 C 
ATOM     10  C   UNL A   1      34.261  23.729  25.480  1.00  0.00    -0.021 A 
ATOM     11  C   UNL A   1      33.825  22.523  26.067  1.00  0.00     0.044 A 
ATOM     12  C   UNL A   1      33.487  24.895  25.692  1.00  0.00     0.022 A 
ATOM     13  Cl  UNL A   1      34.732  21.053  25.943  1.00  0.00    -0.084 Cl
ATOM     14  C   UNL A   1      32.638  22.464  26.802  1.00  0.00     0.024 A 
ATOM     15  C   UNL A   1      32.290  24.811  26.418  1.00  0.00     0.128 A 
ATOM     16  C   UNL A   1      33.893  26.224  25.224  1.00  0.00     0.026 C 
ATOM     17  C   UNL A   1      31.868  23.608  26.975  1.00  0.00     0.048 A 
ATOM     18  O   UNL A   1      31.491  25.890  26.669  1.00  0.00    -0.475 OA
ATOM     19  C   UNL A   1      31.629  27.025  25.772  1.00  0.00     0.314 C 
BRANCH  19  20
ATOM     20  C   UNL A   1      30.573  26.923  24.656  1.00  0.00     0.429 C 
ATOM     21  F   UNL A   1      31.077  26.251  23.589  1.00  0.00    -0.167 F 
ATOM     22  F   UNL A   1      29.466  26.251  25.044  1.00  0.00    -0.167 F 
ATOM     23  F   UNL A   1      30.167  28.135  24.212  1.00  0.00    -0.167 F 
ENDBRANCH  19  20
ENDBRANCH   5   8
ENDBRANCH   3   4
ENDBRANCH   2   3
ENDBRANCH   1   2
BRANCH   1  24
ATOM     24  C   UNL A   1      32.796  32.972  27.216  1.00  0.00     0.116 C 
BRANCH  24  25
ATOM     25  N   UNL A   1      32.581  34.285  27.810  1.00  0.00    -0.352 N 
ATOM     26  C   UNL A   1      33.276  34.867  28.841  1.00  0.00     0.251 C 
ATOM     27  H   UNL A   1      31.849  34.820  27.425  1.00  0.00     0.163 HD
ATOM     28  O   UNL A   1      32.935  35.951  29.302  1.00  0.00    -0.269 OA
BRANCH  26  29
ATOM     29  C   UNL A   1      34.427  34.139  29.401  1.00  0.00     0.039 A 
ATOM     30  C   UNL A   1      35.713  34.490  28.989  1.00  0.00     0.014 A 
ATOM     31  C   UNL A   1      34.221  33.179  30.396  1.00  0.00     0.014 A 
ATOM     32  C   UNL A   1      36.812  33.910  29.622  1.00  0.00     0.010 A 
ATOM     33  C   UNL A   1      35.318  32.633  31.051  1.00  0.00     0.010 A 
ATOM     34  C   UNL A   1      36.619  32.999  30.672  1.00  0.00    -0.014 A 
BRANCH  34  35
ATOM     35  C   UNL A   1      37.769  32.401  31.386  1.00  0.00     0.031 A 
ATOM     36  C   UNL A   1      38.504  31.249  30.770  1.00  0.00     0.074 A 
ATOM     37  C   UNL A   1      38.096  32.846  32.614  1.00  0.00     0.049 A 
ATOM     38  N   UNL A   1      39.490  30.547  31.261  1.00  0.00    -0.248 NA
ATOM     39  C   UNL A   1      38.062  30.816  29.433  1.00  0.00     0.031 C 
ATOM     40  C   UNL A   1      37.415  33.924  33.335  1.00  0.00     0.029 A 
ATOM     41  N   UNL A   1      39.072  32.428  33.483  1.00  0.00    -0.354 N 
ATOM     42  C   UNL A   1      39.767  29.575  30.311  1.00  0.00     0.074 A 
ATOM     43  C   UNL A   1      38.835  29.761  29.222  1.00  0.00     0.031 C 
ATOM     44  C   UNL A   1      37.996  34.084  34.536  1.00  0.00     0.029 A 
ATOM     45  C   UNL A   1      39.076  33.111  34.676  1.00  0.00     0.049 A 
ATOM     46  H   UNL A   1      39.709  31.708  33.272  1.00  0.00     0.167 HD
ATOM     47  C   UNL A   1      40.736  28.631  30.330  1.00  0.00     0.034 A 
ATOM     48  C   UNL A   1      39.865  32.968  35.760  1.00  0.00     0.034 A 
ATOM     49  C   UNL A   1      41.697  28.484  31.385  1.00  0.00     0.049 A 
ATOM     50  C   UNL A   1      40.951  31.929  35.743  1.00  0.00     0.074 A 
ATOM     51  C   UNL A   1      42.767  27.611  31.456  1.00  0.00     0.029 A 
ATOM     52  N   UNL A   1      41.707  29.232  32.551  1.00  0.00    -0.354 N 
ATOM     53  N   UNL A   1      41.282  31.101  34.781  1.00  0.00    -0.248 NA
ATOM     54  C   UNL A   1      41.789  31.818  36.946  1.00  0.00     0.031 C 
ATOM     55  C   UNL A   1      43.429  27.835  32.667  1.00  0.00     0.029 A 
ATOM     56  C   UNL A   1      42.765  28.843  33.350  1.00  0.00     0.049 A 
ATOM     57  H   UNL A   1      41.058  29.937  32.777  1.00  0.00     0.167 HD
ATOM     58  C   UNL A   1      42.374  30.384  35.254  1.00  0.00     0.074 A 
ATOM     59  C   UNL A   1      42.662  30.886  36.582  1.00  0.00     0.031 C 
ATOM     60  C   UNL A   1      43.066  29.389  34.648  1.00  0.00     0.034 A 
BRANCH  47  61
ATOM     61  C   UNL A   1      40.853  27.735  29.132  1.00  0.00     0.023 A 
ATOM     62  C   UNL A   1      40.057  26.574  29.071  1.00  0.00     0.012 A 
ATOM     63  C   UNL A   1      41.697  28.060  28.054  1.00  0.00     0.148 A 
ATOM     64  C   UNL A   1      40.109  25.738  27.960  1.00  0.00     0.002 A 
ATOM     65  C   UNL A   1      41.726  27.233  26.937  1.00  0.00     0.091 A 
ATOM     66  F   UNL A   1      42.459  29.158  28.149  1.00  0.00    -0.205 F 
ATOM     67  C   UNL A   1      40.936  26.071  26.891  1.00  0.00     0.022 A 
BRANCH  65  68
ATOM     68  S   UNL A   1      42.727  27.587  25.490  1.00  0.00     0.127 S 
ATOM     69  O   UNL A   1      42.490  26.399  24.670  1.00  0.00    -0.237 OA
ATOM     70  O   UNL A   1      42.108  28.812  24.982  1.00  0.00    -0.237 OA
ATOM     71  O   UNL A   1      44.092  27.746  25.970  1.00  0.00    -0.744 OA
ENDBRANCH  65  68
ENDBRANCH  47  61
BRANCH  48  72
ATOM     72  C   UNL A   1      39.703  33.892  36.913  1.00  0.00     0.023 A 
ATOM     73  C   UNL A   1      40.089  35.237  36.766  1.00  0.00     0.012 A 
ATOM     74  C   UNL A   1      39.123  33.467  38.124  1.00  0.00     0.148 A 
ATOM     75  C   UNL A   1      39.912  36.145  37.809  1.00  0.00     0.002 A 
ATOM     76  C   UNL A   1      38.918  34.385  39.148  1.00  0.00     0.091 A 
ATOM     77  F   UNL A   1      38.768  32.180  38.239  1.00  0.00    -0.205 F 
ATOM     78  C   UNL A   1      39.319  35.722  38.997  1.00  0.00     0.022 A 
BRANCH  76  79
ATOM     79  S   UNL A   1      38.077  33.963  40.679  1.00  0.00     0.127 S 
ATOM     80  O   UNL A   1      39.037  33.060  41.309  1.00  0.00    -0.237 OA
ATOM     81  O   UNL A   1      37.949  35.273  41.320  1.00  0.00    -0.237 OA
ATOM     82  O   UNL A   1      36.813  33.358  40.282  1.00  0.00    -0.744 OA
ENDBRANCH  76  79
ENDBRANCH  48  72
BRANCH  60  83
ATOM     83  C   UNL A   1      44.204  28.761  35.400  1.00  0.00     0.023 A 
ATOM     84  C   UNL A   1      45.485  29.338  35.308  1.00  0.00     0.012 A 
ATOM     85  C   UNL A   1      43.980  27.697  36.294  1.00  0.00     0.148 A 
ATOM     86  C   UNL A   1      46.530  28.863  36.096  1.00  0.00     0.002 A 
ATOM     87  C   UNL A   1      45.020  27.249  37.099  1.00  0.00     0.091 A 
ATOM     88  F   UNL A   1      42.753  27.158  36.352  1.00  0.00    -0.205 F 
ATOM     89  C   UNL A   1      46.296  27.829  36.999  1.00  0.00     0.022 A 
BRANCH  87  90
ATOM     90  S   UNL A   1      44.796  25.976  38.346  1.00  0.00     0.127 S 
ATOM     91  O   UNL A   1      46.158  25.813  38.854  1.00  0.00    -0.237 OA
ATOM     92  O   UNL A   1      43.868  26.615  39.281  1.00  0.00    -0.237 OA
ATOM     93  O   UNL A   1      44.250  24.819  37.649  1.00  0.00    -0.744 OA
ENDBRANCH  87  90
ENDBRANCH  60  83
ENDBRANCH  34  35
ENDBRANCH  26  29
ENDBRANCH  24  25
ENDBRANCH   1  24
TORSDOF 15
ENDMDL
MODEL 2
REMARK VINA RESULT:     -12.4      0.360      7.801
REMARK SMILES Cc1c(Cl)ccc2c1C=C(C(=O)NCCCCNC(=O)c1ccc(-c3c4nc(c(-c5cccc(S(=O)(=O)[O-])c5F)c5ccc([nH]5)c(-c5cccc(S(=O)(=O)[O-])c5F)c5nc(c(-c6cccc(S(=O)(=O)[O-])c6F)c6ccc3[nH]6)C=C5)C=C4)cc1)[C@@H](C(F)(F)F)O2
REMARK SMILES IDX 16 1 15 2 14 3 13 4 11 5 12 6 10 8 1 9 2 10 3 11 8 12 4 13
REMARK SMILES IDX 5 14 7 15 9 16 6 17 89 18 84 19 85 20 86 21 87 22 88 23
REMARK SMILES IDX 17 24 18 25 19 26 20 28 21 29 22 30 83 31 23 32 82 33 24 34
REMARK SMILES IDX 25 35 26 36 76 37 27 38 81 39 75 40 77 41 28 42 80 43 74 44
REMARK SMILES IDX 73 45 29 47 61 48 41 49 60 50 42 51 45 52 59 53 78 54 43 55
REMARK SMILES IDX 44 56 58 58 79 59 46 60 30 61 31 62 39 63 32 64 34 65 40 66
REMARK SMILES IDX 33 67 35 68 36 69 37 70 38 71 62 72 63 73 71 74 64 75 66 76
REMARK SMILES IDX 72 77 65 78 67 79 68 80 69 81 70 82 47 83 48 84 56 85 49 86
REMARK SMILES IDX 51 87 57 88 50 89 52 90 53 91 54 92 55 93
REMARK H PARENT 13 7 18 27 77 46 45 57
REMARK Flexibility Score: inf
ROOT
ATOM      1  C   UNL A   1      31.759  32.260  26.859  1.00  0.00     0.023 C 
ENDROOT
BRANCH   1   2
ATOM      2  C   UNL A   1      31.877  30.734  26.823  1.00  0.00     0.023 C 
BRANCH   2   3
ATOM      3  C   UNL A   1      33.307  30.224  26.673  1.00  0.00     0.116 C 
BRANCH   3   4
ATOM      4  N   UNL A   1      33.574  29.751  25.327  1.00  0.00    -0.352 N 
ATOM      5  C   UNL A   1      33.472  28.587  24.648  1.00  0.00     0.251 C 
ATOM      6  O   UNL A   1      33.833  28.632  23.468  1.00  0.00    -0.270 OA
ATOM      7  H   UNL A   1      33.923  30.473  24.755  1.00  0.00     0.163 HD
BRANCH   5   8
ATOM      8  C   UNL A   1      32.961  27.299  25.206  1.00  0.00     0.067 C 
ATOM      9  C   UNL A   1      35.709  23.960  25.161  1.00  0.00     0.047 C 
ATOM     10  C   UNL A   1      34.332  23.869  25.773  1.00  0.00    -0.021 A 
ATOM     11  C   UNL A   1      33.881  22.667  26.357  1.00  0.00     0.044 A 
ATOM     12  C   UNL A   1      33.482  25.000  25.825  1.00  0.00     0.022 A 
ATOM     13  Cl  UNL A   1      34.865  21.244  26.424  1.00  0.00    -0.084 Cl
ATOM     14  C   UNL A   1      32.611  22.575  26.933  1.00  0.00     0.024 A 
ATOM     15  C   UNL A   1      32.205  24.881  26.391  1.00  0.00     0.128 A 
ATOM     16  C   UNL A   1      33.883  26.327  25.349  1.00  0.00     0.026 C 
ATOM     17  C   UNL A   1      31.771  23.682  26.947  1.00  0.00     0.048 A 
ATOM     18  O   UNL A   1      31.329  25.925  26.483  1.00  0.00    -0.475 OA
ATOM     19  C   UNL A   1      31.529  27.028  25.557  1.00  0.00     0.314 C 
BRANCH  19  20
ATOM     20  C   UNL A   1      30.637  26.821  24.319  1.00  0.00     0.429 C 
ATOM     21  F   UNL A   1      31.374  26.353  23.278  1.00  0.00    -0.167 F 
ATOM     22  F   UNL A   1      29.654  25.918  24.529  1.00  0.00    -0.167 F 
ATOM     23  F   UNL A   1      30.045  27.966  23.909  1.00  0.00    -0.167 F 
ENDBRANCH  19  20
ENDBRANCH   5   8
ENDBRANCH   3   4
ENDBRANCH   2   3
ENDBRANCH   1   2
BRANCH   1  24
ATOM     24  C   UNL A   1      32.878  32.984  27.608  1.00  0.00     0.116 C 
BRANCH  24  25
ATOM     25  N   UNL A   1      32.528  34.346  27.990  1.00  0.00    -0.352 N 
ATOM     26  C   UNL A   1      33.089  35.115  28.979  1.00  0.00     0.251 C 
ATOM     27  H   UNL A   1      31.800  34.767  27.476  1.00  0.00     0.163 HD
ATOM     28  O   UNL A   1      32.640  36.222  29.252  1.00  0.00    -0.269 OA
BRANCH  26  29
ATOM     29  C   UNL A   1      34.229  34.559  29.728  1.00  0.00     0.039 A 
ATOM     30  C   UNL A   1      33.985  33.870  30.916  1.00  0.00     0.014 A 
ATOM     31  C   UNL A   1      35.518  34.651  29.195  1.00  0.00     0.014 A 
ATOM     32  C   UNL A   1      35.039  33.215  31.552  1.00  0.00     0.010 A 
ATOM     33  C   UNL A   1      36.558  33.965  29.809  1.00  0.00     0.010 A 
ATOM     34  C   UNL A   1      36.325  33.239  30.988  1.00  0.00    -0.014 A 
BRANCH  34  35
ATOM     35  C   UNL A   1      37.450  32.518  31.622  1.00  0.00     0.031 A 
ATOM     36  C   UNL A   1      37.960  32.972  32.956  1.00  0.00     0.074 A 
ATOM     37  C   UNL A   1      38.055  31.512  30.962  1.00  0.00     0.049 A 
ATOM     38  N   UNL A   1      38.974  32.519  33.645  1.00  0.00    -0.248 NA
ATOM     39  C   UNL A   1      37.250  34.094  33.594  1.00  0.00     0.031 C 
ATOM     40  C   UNL A   1      37.679  31.022  29.634  1.00  0.00     0.029 A 
ATOM     41  N   UNL A   1      39.131  30.736  31.311  1.00  0.00    -0.354 N 
ATOM     42  C   UNL A   1      39.042  33.315  34.779  1.00  0.00     0.074 A 
ATOM     43  C   UNL A   1      37.982  34.294  34.680  1.00  0.00     0.031 C 
ATOM     44  C   UNL A   1      38.510  30.027  29.282  1.00  0.00     0.029 A 
ATOM     45  C   UNL A   1      39.485  29.821  30.348  1.00  0.00     0.049 A 
ATOM     46  H   UNL A   1      39.604  30.826  32.169  1.00  0.00     0.167 HD
ATOM     47  C   UNL A   1      39.892  33.218  35.826  1.00  0.00     0.034 A 
ATOM     48  C   UNL A   1      40.485  28.917  30.331  1.00  0.00     0.034 A 
ATOM     49  C   UNL A   1      40.906  32.210  35.950  1.00  0.00     0.049 A 
ATOM     50  C   UNL A   1      41.398  28.811  31.521  1.00  0.00     0.074 A 
ATOM     51  C   UNL A   1      41.762  31.980  37.012  1.00  0.00     0.029 A 
ATOM     52  N   UNL A   1      41.197  31.263  34.982  1.00  0.00    -0.354 N 
ATOM     53  N   UNL A   1      41.368  29.490  32.643  1.00  0.00    -0.248 NA
ATOM     54  C   UNL A   1      42.467  27.804  31.456  1.00  0.00     0.031 C 
ATOM     55  C   UNL A   1      42.571  30.886  36.686  1.00  0.00     0.029 A 
ATOM     56  C   UNL A   1      42.221  30.443  35.420  1.00  0.00     0.049 A 
ATOM     57  H   UNL A   1      40.743  31.185  34.112  1.00  0.00     0.167 HD
ATOM     58  C   UNL A   1      42.398  28.981  33.424  1.00  0.00     0.074 A 
ATOM     59  C   UNL A   1      43.025  27.925  32.655  1.00  0.00     0.031 C 
ATOM     60  C   UNL A   1      42.798  29.365  34.660  1.00  0.00     0.034 A 
BRANCH  47  61
ATOM     61  C   UNL A   1      39.705  34.181  36.962  1.00  0.00     0.023 A 
ATOM     62  C   UNL A   1      40.056  35.532  36.771  1.00  0.00     0.012 A 
ATOM     63  C   UNL A   1      39.140  33.772  38.184  1.00  0.00     0.148 A 
ATOM     64  C   UNL A   1      39.862  36.464  37.788  1.00  0.00     0.002 A 
ATOM     65  C   UNL A   1      38.927  34.712  39.185  1.00  0.00     0.091 A 
ATOM     66  F   UNL A   1      38.835  32.477  38.345  1.00  0.00    -0.205 F 
ATOM     67  C   UNL A   1      39.291  36.056  38.990  1.00  0.00     0.022 A 
BRANCH  65  68
ATOM     68  S   UNL A   1      38.163  34.303  40.758  1.00  0.00     0.127 S 
ATOM     69  O   UNL A   1      37.875  35.631  41.300  1.00  0.00    -0.237 OA
ATOM     70  O   UNL A   1      36.983  33.546  40.338  1.00  0.00    -0.237 OA
ATOM     71  O   UNL A   1      39.151  33.532  41.499  1.00  0.00    -0.744 OA
ENDBRANCH  65  68
ENDBRANCH  47  61
BRANCH  48  72
ATOM     72  C   UNL A   1      40.613  27.985  29.180  1.00  0.00     0.023 A 
ATOM     73  C   UNL A   1      39.785  26.848  29.128  1.00  0.00     0.012 A 
ATOM     74  C   UNL A   1      41.499  28.244  28.116  1.00  0.00     0.148 A 
ATOM     75  C   UNL A   1      39.843  25.975  28.043  1.00  0.00     0.002 A 
ATOM     76  C   UNL A   1      41.529  27.387  27.021  1.00  0.00     0.091 A 
ATOM     77  F   UNL A   1      42.279  29.331  28.191  1.00  0.00    -0.205 F 
ATOM     78  C   UNL A   1      40.708  26.248  26.986  1.00  0.00     0.022 A 
BRANCH  76  79
ATOM     79  S   UNL A   1      42.537  27.701  25.567  1.00  0.00     0.127 S 
ATOM     80  O   UNL A   1      42.250  26.529  24.745  1.00  0.00    -0.237 OA
ATOM     81  O   UNL A   1      41.967  28.956  25.074  1.00  0.00    -0.237 OA
ATOM     82  O   UNL A   1      43.906  27.809  26.052  1.00  0.00    -0.744 OA
ENDBRANCH  76  79
ENDBRANCH  48  72
BRANCH  60  83
ATOM     83  C   UNL A   1      43.969  28.654  35.275  1.00  0.00     0.023 A 
ATOM     84  C   UNL A   1      45.269  29.131  35.020  1.00  0.00     0.012 A 
ATOM     85  C   UNL A   1      43.777  27.612  36.202  1.00  0.00     0.148 A 
ATOM     86  C   UNL A   1      46.364  28.579  35.680  1.00  0.00     0.002 A 
ATOM     87  C   UNL A   1      44.871  27.087  36.879  1.00  0.00     0.091 A 
ATOM     88  F   UNL A   1      42.529  27.169  36.416  1.00  0.00    -0.205 F 
ATOM     89  C   UNL A   1      46.165  27.568  36.617  1.00  0.00     0.022 A 
BRANCH  87  90
ATOM     90  S   UNL A   1      44.706  25.838  38.159  1.00  0.00     0.127 S 
ATOM     91  O   UNL A   1      43.795  26.492  39.098  1.00  0.00    -0.237 OA
ATOM     92  O   UNL A   1      44.124  24.714  37.425  1.00  0.00    -0.237 OA
ATOM     93  O   UNL A   1      46.052  25.598  38.664  1.00  0.00    -0.744 OA
ENDBRANCH  87  90
ENDBRANCH  60  83
ENDBRANCH  34  35
ENDBRANCH  26  29
ENDBRANCH  24  25
ENDBRANCH   1  24
TORSDOF 15
ENDMDL
MODEL 3
REMARK VINA RESULT:     -12.3      6.608      9.981
REMARK SMILES Cc1c(Cl)ccc2c1C=C(C(=O)NCCCCNC(=O)c1ccc(-c3c4nc(c(-c5cccc(S(=O)(=O)[O-])c5F)c5ccc([nH]5)c(-c5cccc(S(=O)(=O)[O-])c5F)c5nc(c(-c6cccc(S(=O)(=O)[O-])c6F)c6ccc3[nH]6)C=C5)C=C4)cc1)[C@@H](C(F)(F)F)O2
REMARK SMILES IDX 16 1 15 2 14 3 13 4 11 5 12 6 10 8 1 9 2 10 3 11 8 12 4 13
REMARK SMILES IDX 5 14 7 15 9 16 6 17 89 18 84 19 85 20 86 21 87 22 88 23
REMARK SMILES IDX 17 24 18 25 19 26 20 28 21 29 22 30 83 31 23 32 82 33 24 34
REMARK SMILES IDX 25 35 26 36 76 37 27 38 81 39 75 40 77 41 28 42 80 43 74 44
REMARK SMILES IDX 73 45 29 47 61 48 41 49 60 50 42 51 45 52 59 53 78 54 43 55
REMARK SMILES IDX 44 56 58 58 79 59 46 60 30 61 31 62 39 63 32 64 34 65 40 66
REMARK SMILES IDX 33 67 35 68 36 69 37 70 38 71 62 72 63 73 71 74 64 75 66 76
REMARK SMILES IDX 72 77 65 78 67 79 68 80 69 81 70 82 47 83 48 84 56 85 49 86
REMARK SMILES IDX 51 87 57 88 50 89 52 90 53 91 54 92 55 93
REMARK H PARENT 13 7 18 27 77 46 45 57
REMARK Flexibility Score: inf
ROOT
ATOM      1  C   UNL A   1      38.184  19.940  24.823  1.00  0.00     0.023 C 
ENDROOT
BRANCH   1   2
ATOM      2  C   UNL A   1      37.089  21.002  24.690  1.00  0.00     0.023 C 
BRANCH   2   3
ATOM      3  C   UNL A   1      37.281  22.209  25.603  1.00  0.00     0.116 C 
BRANCH   3   4
ATOM      4  N   UNL A   1      36.155  22.391  26.501  1.00  0.00    -0.352 N 
ATOM      5  C   UNL A   1      34.982  23.062  26.495  1.00  0.00     0.251 C 
ATOM      6  O   UNL A   1      34.299  22.941  27.517  1.00  0.00    -0.270 OA
ATOM      7  H   UNL A   1      36.280  21.892  27.341  1.00  0.00     0.163 HD
BRANCH   5   8
ATOM      8  C   UNL A   1      34.468  23.902  25.371  1.00  0.00     0.067 C 
ATOM      9  C   UNL A   1      32.261  27.452  26.478  1.00  0.00     0.047 C 
ATOM     10  C   UNL A   1      32.572  27.106  25.043  1.00  0.00    -0.021 A 
ATOM     11  C   UNL A   1      32.140  27.939  23.990  1.00  0.00     0.044 A 
ATOM     12  C   UNL A   1      33.350  25.967  24.720  1.00  0.00     0.022 A 
ATOM     13  Cl  UNL A   1      31.252  29.399  24.270  1.00  0.00    -0.084 Cl
ATOM     14  C   UNL A   1      32.430  27.631  22.658  1.00  0.00     0.024 A 
ATOM     15  C   UNL A   1      33.615  25.667  23.377  1.00  0.00     0.128 A 
ATOM     16  C   UNL A   1      33.944  25.089  25.732  1.00  0.00     0.026 C 
ATOM     17  C   UNL A   1      33.165  26.492  22.351  1.00  0.00     0.048 A 
ATOM     18  O   UNL A   1      34.361  24.592  22.985  1.00  0.00    -0.475 OA
ATOM     19  C   UNL A   1      34.465  23.492  23.930  1.00  0.00     0.314 C 
BRANCH  19  20
ATOM     20  C   UNL A   1      33.387  22.441  23.608  1.00  0.00     0.429 C 
ATOM     21  F   UNL A   1      33.844  21.193  23.890  1.00  0.00    -0.167 F 
ATOM     22  F   UNL A   1      32.260  22.609  24.335  1.00  0.00    -0.167 F 
ATOM     23  F   UNL A   1      33.024  22.450  22.305  1.00  0.00    -0.167 F 
ENDBRANCH  19  20
ENDBRANCH   5   8
ENDBRANCH   3   4
ENDBRANCH   2   3
ENDBRANCH   1   2
BRANCH   1  24
ATOM     24  C   UNL A   1      39.263  20.240  25.863  1.00  0.00     0.116 C 
BRANCH  24  25
ATOM     25  N   UNL A   1      40.289  19.208  25.942  1.00  0.00    -0.352 N 
ATOM     26  C   UNL A   1      41.633  19.373  26.172  1.00  0.00     0.251 C 
ATOM     27  H   UNL A   1      39.983  18.281  25.815  1.00  0.00     0.163 HD
ATOM     28  O   UNL A   1      42.404  18.421  26.129  1.00  0.00    -0.269 OA
BRANCH  26  29
ATOM     29  C   UNL A   1      42.130  20.733  26.442  1.00  0.00     0.039 A 
ATOM     30  C   UNL A   1      42.341  21.600  25.368  1.00  0.00     0.014 A 
ATOM     31  C   UNL A   1      42.296  21.160  27.762  1.00  0.00     0.014 A 
ATOM     32  C   UNL A   1      42.668  22.931  25.623  1.00  0.00     0.010 A 
ATOM     33  C   UNL A   1      42.583  22.496  28.013  1.00  0.00     0.010 A 
ATOM     34  C   UNL A   1      42.766  23.390  26.946  1.00  0.00    -0.014 A 
BRANCH  34  35
ATOM     35  C   UNL A   1      43.071  24.807  27.242  1.00  0.00     0.031 A 
ATOM     36  C   UNL A   1      44.456  25.329  27.004  1.00  0.00     0.074 A 
ATOM     37  C   UNL A   1      42.127  25.593  27.792  1.00  0.00     0.049 A 
ATOM     38  N   UNL A   1      44.941  26.515  27.259  1.00  0.00    -0.248 NA
ATOM     39  C   UNL A   1      45.430  24.392  26.419  1.00  0.00     0.031 C 
ATOM     40  C   UNL A   1      40.761  25.176  28.119  1.00  0.00     0.029 A 
ATOM     41  N   UNL A   1      42.181  26.903  28.196  1.00  0.00    -0.354 N 
ATOM     42  C   UNL A   1      46.279  26.459  26.895  1.00  0.00     0.074 A 
ATOM     43  C   UNL A   1      46.538  25.118  26.419  1.00  0.00     0.031 C 
ATOM     44  C   UNL A   1      40.107  26.211  28.671  1.00  0.00     0.029 A 
ATOM     45  C   UNL A   1      41.008  27.356  28.753  1.00  0.00     0.049 A 
ATOM     46  H   UNL A   1      42.982  27.465  28.096  1.00  0.00     0.167 HD
ATOM     47  C   UNL A   1      47.201  27.447  26.923  1.00  0.00     0.034 A 
ATOM     48  C   UNL A   1      40.698  28.562  29.270  1.00  0.00     0.034 A 
ATOM     49  C   UNL A   1      46.928  28.793  27.341  1.00  0.00     0.049 A 
ATOM     50  C   UNL A   1      41.734  29.651  29.263  1.00  0.00     0.074 A 
ATOM     51  C   UNL A   1      47.777  29.884  27.327  1.00  0.00     0.029 A 
ATOM     52  N   UNL A   1      45.714  29.230  27.843  1.00  0.00    -0.354 N 
ATOM     53  N   UNL A   1      42.959  29.617  28.796  1.00  0.00    -0.248 NA
ATOM     54  C   UNL A   1      41.343  30.950  29.831  1.00  0.00     0.031 C 
ATOM     55  C   UNL A   1      47.072  30.987  27.819  1.00  0.00     0.029 A 
ATOM     56  C   UNL A   1      45.787  30.577  28.144  1.00  0.00     0.049 A 
ATOM     57  H   UNL A   1      44.917  28.666  27.968  1.00  0.00     0.167 HD
ATOM     58  C   UNL A   1      43.479  30.890  28.996  1.00  0.00     0.074 A 
ATOM     59  C   UNL A   1      42.431  31.679  29.611  1.00  0.00     0.031 C 
ATOM     60  C   UNL A   1      44.718  31.357  28.709  1.00  0.00     0.034 A 
BRANCH  47  61
ATOM     61  C   UNL A   1      48.575  27.127  26.410  1.00  0.00     0.023 A 
ATOM     62  C   UNL A   1      49.483  26.470  27.263  1.00  0.00     0.012 A 
ATOM     63  C   UNL A   1      48.949  27.422  25.086  1.00  0.00     0.148 A 
ATOM     64  C   UNL A   1      50.753  26.122  26.812  1.00  0.00     0.002 A 
ATOM     65  C   UNL A   1      50.210  27.050  24.635  1.00  0.00     0.091 A 
ATOM     66  F   UNL A   1      48.073  28.067  24.303  1.00  0.00    -0.205 F 
ATOM     67  C   UNL A   1      51.114  26.404  25.497  1.00  0.00     0.022 A 
BRANCH  65  68
ATOM     68  S   UNL A   1      50.764  27.330  22.950  1.00  0.00     0.127 S 
ATOM     69  O   UNL A   1      50.785  28.792  22.887  1.00  0.00    -0.237 OA
ATOM     70  O   UNL A   1      52.084  26.700  22.952  1.00  0.00    -0.237 OA
ATOM     71  O   UNL A   1      49.781  26.688  22.089  1.00  0.00    -0.744 OA
ENDBRANCH  65  68
ENDBRANCH  47  61
BRANCH  48  72
ATOM     72  C   UNL A   1      39.317  28.819  29.756  1.00  0.00     0.023 A 
ATOM     73  C   UNL A   1      38.984  28.467  31.078  1.00  0.00     0.012 A 
ATOM     74  C   UNL A   1      38.355  29.455  28.947  1.00  0.00     0.148 A 
ATOM     75  C   UNL A   1      37.713  28.733  31.585  1.00  0.00     0.002 A 
ATOM     76  C   UNL A   1      37.101  29.747  29.470  1.00  0.00     0.091 A 
ATOM     77  F   UNL A   1      38.696  29.776  27.692  1.00  0.00    -0.205 F 
ATOM     78  C   UNL A   1      36.774  29.380  30.786  1.00  0.00     0.022 A 
BRANCH  76  79
ATOM     79  S   UNL A   1      35.854  30.662  28.555  1.00  0.00     0.127 S 
ATOM     80  O   UNL A   1      35.053  31.237  29.632  1.00  0.00    -0.237 OA
ATOM     81  O   UNL A   1      36.673  31.623  27.814  1.00  0.00    -0.237 OA
ATOM     82  O   UNL A   1      35.174  29.679  27.723  1.00  0.00    -0.744 OA
ENDBRANCH  76  79
ENDBRANCH  48  72
BRANCH  60  83
ATOM     83  C   UNL A   1      45.030  32.786  29.053  1.00  0.00     0.023 A 
ATOM     84  C   UNL A   1      45.637  33.074  30.290  1.00  0.00     0.012 A 
ATOM     85  C   UNL A   1      44.849  33.813  28.108  1.00  0.00     0.148 A 
ATOM     86  C   UNL A   1      46.060  34.368  30.583  1.00  0.00     0.002 A 
ATOM     87  C   UNL A   1      45.301  35.095  28.395  1.00  0.00     0.091 A 
ATOM     88  F   UNL A   1      44.255  33.513  26.943  1.00  0.00    -0.205 F 
ATOM     89  C   UNL A   1      45.904  35.375  29.633  1.00  0.00     0.022 A 
BRANCH  87  90
ATOM     90  S   UNL A   1      45.215  36.439  27.206  1.00  0.00     0.127 S 
ATOM     91  O   UNL A   1      45.790  37.547  27.966  1.00  0.00    -0.237 OA
ATOM     92  O   UNL A   1      46.057  35.943  26.116  1.00  0.00    -0.237 OA
ATOM     93  O   UNL A   1      43.807  36.584  26.863  1.00  0.00    -0.744 OA
ENDBRANCH  87  90
ENDBRANCH  60  83
ENDBRANCH  34  35
ENDBRANCH  26  29
ENDBRANCH  24  25
ENDBRANCH   1  24
TORSDOF 15
ENDMDL
