MODEL 1
REMARK VINA RESULT:     -12.9      0.000      0.000
REMARK SMILES Cc1ccc(C(=O)NCCCCNC(=O)c2ccc(-c3c4nc(c(-c5cccc(S(=O)(=O)[O-])c5F)c5ccc([nH]5)c(-c5cccc(S(=O)(=O)[O-])c5F)c5nc(c(-c6cccc(S(=O)(=O)[O-])c6F)c6ccc3[nH]6)C=C5)C=C4)cc2)cc1S(=O)(=O)C[C@@H]1C[C@H]2CC[C@@H]1C2
REMARK SMILES IDX 10 1 9 2 8 3 6 4 7 5 5 7 1 8 2 9 3 10 80 11 4 12 79 13 81 14
REMARK SMILES IDX 82 15 83 16 84 17 85 18 86 19 90 20 87 21 89 22 91 23 88 24
REMARK SMILES IDX 11 25 12 26 13 27 14 28 15 30 16 31 17 32 78 33 18 34 77 35
REMARK SMILES IDX 19 36 20 37 21 38 71 39 22 40 76 41 70 42 72 43 23 44 75 45
REMARK SMILES IDX 69 46 68 47 24 49 56 50 36 51 55 52 37 53 40 54 54 55 73 56
REMARK SMILES IDX 38 57 39 58 53 60 74 61 41 62 25 63 26 64 34 65 27 66 29 67
REMARK SMILES IDX 35 68 28 69 30 70 31 71 32 72 33 73 57 74 58 75 66 76 59 77
REMARK SMILES IDX 61 78 67 79 60 80 62 81 63 82 64 83 65 84 42 85 43 86 51 87
REMARK SMILES IDX 44 88 46 89 52 90 45 91 47 92 48 93 49 94 50 95
REMARK H PARENT 8 6 13 29 72 48 40 59
REMARK Flexibility Score: inf
ROOT
ATOM      1  C   UNL A   1      36.131  23.918  25.193  1.00  0.00     0.023 C 
ENDROOT
BRANCH   1   2
ATOM      2  C   UNL A   1      35.506  23.705  23.810  1.00  0.00     0.116 C 
BRANCH   2   3
ATOM      3  N   UNL A   1      34.462  22.690  23.750  1.00  0.00    -0.352 N 
ATOM      4  C   UNL A   1      33.103  22.694  23.959  1.00  0.00     0.251 C 
ATOM      5  O   UNL A   1      32.497  21.631  23.811  1.00  0.00    -0.269 OA
ATOM      6  H   UNL A   1      34.808  21.802  23.505  1.00  0.00     0.163 HD
BRANCH   4   7
ATOM      7  C   UNL A   1      32.341  23.867  24.476  1.00  0.00     0.041 A 
ATOM      8  C   UNL A   1      31.462  27.621  26.341  1.00  0.00     0.046 C 
ATOM      9  C   UNL A   1      31.504  26.312  25.617  1.00  0.00    -0.032 A 
ATOM     10  C   UNL A   1      31.829  25.205  26.426  1.00  0.00     0.005 A 
ATOM     11  C   UNL A   1      31.387  26.107  24.233  1.00  0.00     0.071 A 
ATOM     12  C   UNL A   1      32.271  24.009  25.863  1.00  0.00     0.014 A 
ATOM     13  C   UNL A   1      31.752  24.853  23.688  1.00  0.00     0.034 A 
BRANCH  11  14
ATOM     14  S   UNL A   1      31.097  27.385  23.004  1.00  0.00     0.178 S 
ATOM     15  O   UNL A   1      32.125  28.378  23.249  1.00  0.00    -0.224 OA
ATOM     16  O   UNL A   1      31.047  26.701  21.719  1.00  0.00    -0.224 OA
BRANCH  14  17
ATOM     17  C   UNL A   1      29.530  28.205  23.156  1.00  0.00     0.146 C 
BRANCH  17  18
ATOM     18  C   UNL A   1      29.498  29.653  22.684  1.00  0.00     0.008 C 
ATOM     19  C   UNL A   1      29.670  30.687  23.827  1.00  0.00     0.008 C 
ATOM     20  C   UNL A   1      28.123  30.074  22.105  1.00  0.00    -0.007 C 
ATOM     21  C   UNL A   1      28.535  31.692  23.561  1.00  0.00    -0.011 C 
ATOM     22  C   UNL A   1      28.364  31.274  21.187  1.00  0.00     0.004 C 
ATOM     23  C   UNL A   1      27.391  30.731  23.277  1.00  0.00     0.007 C 
ATOM     24  C   UNL A   1      28.738  32.373  22.190  1.00  0.00     0.004 C 
ENDBRANCH  17  18
ENDBRANCH  14  17
ENDBRANCH  11  14
ENDBRANCH   4   7
ENDBRANCH   2   3
ENDBRANCH   1   2
BRANCH   1  25
ATOM     25  C   UNL A   1      36.739  22.697  25.902  1.00  0.00     0.023 C 
BRANCH  25  26
ATOM     26  C   UNL A   1      38.174  22.373  25.518  1.00  0.00     0.116 C 
BRANCH  26  27
ATOM     27  N   UNL A   1      39.029  22.163  26.677  1.00  0.00    -0.352 N 
ATOM     28  C   UNL A   1      39.927  22.998  27.305  1.00  0.00     0.251 C 
ATOM     29  H   UNL A   1      38.951  21.270  27.083  1.00  0.00     0.163 HD
ATOM     30  O   UNL A   1      40.880  22.462  27.868  1.00  0.00    -0.269 OA
BRANCH  28  31
ATOM     31  C   UNL A   1      39.705  24.457  27.442  1.00  0.00     0.039 A 
ATOM     32  C   UNL A   1      40.288  25.333  26.506  1.00  0.00     0.014 A 
ATOM     33  C   UNL A   1      39.165  24.982  28.607  1.00  0.00     0.014 A 
ATOM     34  C   UNL A   1      40.490  26.675  26.833  1.00  0.00     0.010 A 
ATOM     35  C   UNL A   1      39.295  26.304  28.902  1.00  0.00     0.010 A 
ATOM     36  C   UNL A   1      40.080  27.104  28.080  1.00  0.00    -0.014 A 
BRANCH  36  37
ATOM     37  C   UNL A   1      40.432  28.339  28.745  1.00  0.00     0.031 A 
ATOM     38  C   UNL A   1      39.523  29.476  28.602  1.00  0.00     0.074 A 
ATOM     39  C   UNL A   1      41.203  28.137  29.839  1.00  0.00     0.049 A 
ATOM     40  N   UNL A   1      39.647  30.572  29.255  1.00  0.00    -0.248 NA
ATOM     41  C   UNL A   1      38.370  29.456  27.703  1.00  0.00     0.031 C 
ATOM     42  C   UNL A   1      41.163  28.790  31.142  1.00  0.00     0.029 A 
ATOM     43  N   UNL A   1      42.257  27.235  29.963  1.00  0.00    -0.354 N 
ATOM     44  C   UNL A   1      38.436  31.216  29.156  1.00  0.00     0.074 A 
ATOM     45  C   UNL A   1      37.758  30.592  28.051  1.00  0.00     0.031 C 
ATOM     46  C   UNL A   1      42.281  28.472  31.824  1.00  0.00     0.029 A 
ATOM     47  C   UNL A   1      43.155  27.772  30.895  1.00  0.00     0.049 A 
ATOM     48  H   UNL A   1      42.353  26.380  29.486  1.00  0.00     0.167 HD
ATOM     49  C   UNL A   1      38.088  32.068  30.156  1.00  0.00     0.034 A 
ATOM     50  C   UNL A   1      44.338  28.273  30.412  1.00  0.00     0.034 A 
ATOM     51  C   UNL A   1      39.238  32.306  31.046  1.00  0.00     0.049 A 
ATOM     52  C   UNL A   1      44.414  29.788  30.521  1.00  0.00     0.074 A 
ATOM     53  C   UNL A   1      39.559  31.868  32.319  1.00  0.00     0.029 A 
ATOM     54  N   UNL A   1      40.416  32.822  30.503  1.00  0.00    -0.354 N 
ATOM     55  N   UNL A   1      43.390  30.559  30.771  1.00  0.00    -0.248 NA
ATOM     56  C   UNL A   1      45.653  30.550  30.415  1.00  0.00     0.031 C 
ATOM     57  C   UNL A   1      40.975  31.978  32.467  1.00  0.00     0.029 A 
ATOM     58  C   UNL A   1      41.505  32.535  31.313  1.00  0.00     0.049 A 
ATOM     59  H   UNL A   1      40.467  33.324  29.658  1.00  0.00     0.167 HD
ATOM     60  C   UNL A   1      43.766  31.872  30.778  1.00  0.00     0.074 A 
ATOM     61  C   UNL A   1      45.210  31.806  30.608  1.00  0.00     0.031 C 
ATOM     62  C   UNL A   1      42.860  32.895  30.887  1.00  0.00     0.034 A 
BRANCH  49  63
ATOM     63  C   UNL A   1      36.681  32.544  30.464  1.00  0.00     0.023 A 
ATOM     64  C   UNL A   1      36.129  32.131  31.697  1.00  0.00     0.012 A 
ATOM     65  C   UNL A   1      35.817  33.285  29.614  1.00  0.00     0.148 A 
ATOM     66  C   UNL A   1      34.813  32.434  32.069  1.00  0.00     0.002 A 
ATOM     67  C   UNL A   1      34.529  33.653  30.019  1.00  0.00     0.091 A 
ATOM     68  F   UNL A   1      36.181  33.562  28.359  1.00  0.00    -0.205 F 
ATOM     69  C   UNL A   1      34.019  33.213  31.241  1.00  0.00     0.022 A 
BRANCH  67  70
ATOM     70  S   UNL A   1      33.465  34.719  29.025  1.00  0.00     0.127 S 
ATOM     71  O   UNL A   1      32.854  33.768  28.097  1.00  0.00    -0.237 OA
ATOM     72  O   UNL A   1      32.548  35.267  30.025  1.00  0.00    -0.237 OA
ATOM     73  O   UNL A   1      34.341  35.711  28.411  1.00  0.00    -0.744 OA
ENDBRANCH  67  70
ENDBRANCH  49  63
BRANCH  50  74
ATOM     74  C   UNL A   1      44.850  27.425  29.271  1.00  0.00     0.023 A 
ATOM     75  C   UNL A   1      45.072  26.055  29.579  1.00  0.00     0.012 A 
ATOM     76  C   UNL A   1      44.607  27.777  27.928  1.00  0.00     0.148 A 
ATOM     77  C   UNL A   1      44.824  25.058  28.633  1.00  0.00     0.002 A 
ATOM     78  C   UNL A   1      44.402  26.772  26.978  1.00  0.00     0.091 A 
ATOM     79  F   UNL A   1      44.511  29.074  27.611  1.00  0.00    -0.205 F 
ATOM     80  C   UNL A   1      44.442  25.416  27.345  1.00  0.00     0.022 A 
BRANCH  78  81
ATOM     81  S   UNL A   1      43.991  27.165  25.270  1.00  0.00     0.127 S 
ATOM     82  O   UNL A   1      43.422  25.903  24.806  1.00  0.00    -0.237 OA
ATOM     83  O   UNL A   1      43.020  28.254  25.401  1.00  0.00    -0.237 OA
ATOM     84  O   UNL A   1      45.250  27.566  24.660  1.00  0.00    -0.744 OA
ENDBRANCH  78  81
ENDBRANCH  50  74
BRANCH  62  85
ATOM     85  C   UNL A   1      43.180  34.350  30.601  1.00  0.00     0.023 A 
ATOM     86  C   UNL A   1      43.554  35.248  31.619  1.00  0.00     0.012 A 
ATOM     87  C   UNL A   1      43.265  34.833  29.268  1.00  0.00     0.148 A 
ATOM     88  C   UNL A   1      43.901  36.575  31.350  1.00  0.00     0.002 A 
ATOM     89  C   UNL A   1      43.733  36.116  28.997  1.00  0.00     0.091 A 
ATOM     90  F   UNL A   1      42.874  34.057  28.247  1.00  0.00    -0.205 F 
ATOM     91  C   UNL A   1      44.011  37.005  30.037  1.00  0.00     0.022 A 
BRANCH  89  92
ATOM     92  S   UNL A   1      44.147  36.627  27.323  1.00  0.00     0.127 S 
ATOM     93  O   UNL A   1      45.087  35.587  26.914  1.00  0.00    -0.237 OA
ATOM     94  O   UNL A   1      42.847  36.571  26.652  1.00  0.00    -0.237 OA
ATOM     95  O   UNL A   1      44.692  37.971  27.451  1.00  0.00    -0.744 OA
ENDBRANCH  89  92
ENDBRANCH  62  85
ENDBRANCH  36  37
ENDBRANCH  28  31
ENDBRANCH  26  27
ENDBRANCH  25  26
ENDBRANCH   1  25
TORSDOF 17
ENDMDL
MODEL 2
REMARK VINA RESULT:     -12.3      1.663      2.185
REMARK SMILES Cc1ccc(C(=O)NCCCCNC(=O)c2ccc(-c3c4nc(c(-c5cccc(S(=O)(=O)[O-])c5F)c5ccc([nH]5)c(-c5cccc(S(=O)(=O)[O-])c5F)c5nc(c(-c6cccc(S(=O)(=O)[O-])c6F)c6ccc3[nH]6)C=C5)C=C4)cc2)cc1S(=O)(=O)C[C@@H]1C[C@H]2CC[C@@H]1C2
REMARK SMILES IDX 10 1 9 2 8 3 6 4 7 5 5 7 1 8 2 9 3 10 80 11 4 12 79 13 81 14
REMARK SMILES IDX 82 15 83 16 84 17 85 18 86 19 90 20 87 21 89 22 91 23 88 24
REMARK SMILES IDX 11 25 12 26 13 27 14 28 15 30 16 31 17 32 78 33 18 34 77 35
REMARK SMILES IDX 19 36 20 37 21 38 71 39 22 40 76 41 70 42 72 43 23 44 75 45
REMARK SMILES IDX 69 46 68 47 24 49 56 50 36 51 55 52 37 53 40 54 54 55 73 56
REMARK SMILES IDX 38 57 39 58 53 60 74 61 41 62 25 63 26 64 34 65 27 66 29 67
REMARK SMILES IDX 35 68 28 69 30 70 31 71 32 72 33 73 57 74 58 75 66 76 59 77
REMARK SMILES IDX 61 78 67 79 60 80 62 81 63 82 64 83 65 84 42 85 43 86 51 87
REMARK SMILES IDX 44 88 46 89 52 90 45 91 47 92 48 93 49 94 50 95
REMARK H PARENT 8 6 13 29 72 48 40 59
REMARK Flexibility Score: inf
ROOT
ATOM      1  C   UNL A   1      36.140  23.411  25.358  1.00  0.00     0.023 C 
ENDROOT
BRANCH   1   2
ATOM      2  C   UNL A   1      35.399  22.108  25.680  1.00  0.00     0.116 C 
BRANCH   2   3
ATOM      3  N   UNL A   1      34.626  22.123  26.915  1.00  0.00    -0.352 N 
ATOM      4  C   UNL A   1      33.350  22.515  27.247  1.00  0.00     0.251 C 
ATOM      5  O   UNL A   1      32.995  22.379  28.420  1.00  0.00    -0.269 OA
ATOM      6  H   UNL A   1      35.130  21.773  27.685  1.00  0.00     0.163 HD
BRANCH   4   7
ATOM      7  C   UNL A   1      32.420  23.210  26.311  1.00  0.00     0.041 A 
ATOM      8  C   UNL A   1      29.826  26.182  24.643  1.00  0.00     0.046 C 
ATOM      9  C   UNL A   1      30.701  25.017  24.984  1.00  0.00    -0.032 A 
ATOM     10  C   UNL A   1      30.243  24.237  26.064  1.00  0.00     0.005 A 
ATOM     11  C   UNL A   1      31.958  24.715  24.437  1.00  0.00     0.071 A 
ATOM     12  C   UNL A   1      31.100  23.368  26.738  1.00  0.00     0.014 A 
ATOM     13  C   UNL A   1      32.779  23.760  25.082  1.00  0.00     0.034 A 
BRANCH  11  14
ATOM     14  S   UNL A   1      32.789  25.641  23.141  1.00  0.00     0.178 S 
ATOM     15  O   UNL A   1      33.884  24.790  22.718  1.00  0.00    -0.224 OA
ATOM     16  O   UNL A   1      31.753  26.012  22.186  1.00  0.00    -0.224 OA
BRANCH  14  17
ATOM     17  C   UNL A   1      33.497  27.178  23.680  1.00  0.00     0.146 C 
BRANCH  17  18
ATOM     18  C   UNL A   1      32.745  27.893  24.793  1.00  0.00     0.008 C 
ATOM     19  C   UNL A   1      32.924  29.434  24.779  1.00  0.00     0.008 C 
ATOM     20  C   UNL A   1      33.274  27.544  26.207  1.00  0.00    -0.007 C 
ATOM     21  C   UNL A   1      33.256  29.760  26.247  1.00  0.00    -0.011 C 
ATOM     22  C   UNL A   1      32.147  27.836  27.200  1.00  0.00     0.004 C 
ATOM     23  C   UNL A   1      34.266  28.661  26.540  1.00  0.00     0.007 C 
ATOM     24  C   UNL A   1      32.073  29.368  27.159  1.00  0.00     0.004 C 
ENDBRANCH  17  18
ENDBRANCH  14  17
ENDBRANCH  11  14
ENDBRANCH   4   7
ENDBRANCH   2   3
ENDBRANCH   1   2
BRANCH   1  25
ATOM     25  C   UNL A   1      37.608  23.530  25.798  1.00  0.00     0.023 C 
BRANCH  25  26
ATOM     26  C   UNL A   1      38.418  22.246  25.708  1.00  0.00     0.116 C 
BRANCH  26  27
ATOM     27  N   UNL A   1      39.305  22.065  26.847  1.00  0.00    -0.352 N 
ATOM     28  C   UNL A   1      40.234  22.908  27.417  1.00  0.00     0.251 C 
ATOM     29  H   UNL A   1      39.227  21.188  27.288  1.00  0.00     0.163 HD
ATOM     30  O   UNL A   1      41.197  22.378  27.970  1.00  0.00    -0.269 OA
BRANCH  28  31
ATOM     31  C   UNL A   1      40.037  24.374  27.509  1.00  0.00     0.039 A 
ATOM     32  C   UNL A   1      40.699  25.217  26.596  1.00  0.00     0.014 A 
ATOM     33  C   UNL A   1      39.432  24.936  28.624  1.00  0.00     0.014 A 
ATOM     34  C   UNL A   1      40.909  26.561  26.908  1.00  0.00     0.010 A 
ATOM     35  C   UNL A   1      39.572  26.261  28.900  1.00  0.00     0.010 A 
ATOM     36  C   UNL A   1      40.428  27.026  28.116  1.00  0.00    -0.014 A 
BRANCH  36  37
ATOM     37  C   UNL A   1      40.763  28.268  28.777  1.00  0.00     0.031 A 
ATOM     38  C   UNL A   1      39.852  29.400  28.608  1.00  0.00     0.074 A 
ATOM     39  C   UNL A   1      41.515  28.078  29.886  1.00  0.00     0.049 A 
ATOM     40  N   UNL A   1      39.960  30.501  29.255  1.00  0.00    -0.248 NA
ATOM     41  C   UNL A   1      38.715  29.367  27.689  1.00  0.00     0.031 C 
ATOM     42  C   UNL A   1      41.448  28.740  31.183  1.00  0.00     0.029 A 
ATOM     43  N   UNL A   1      42.569  27.181  30.037  1.00  0.00    -0.354 N 
ATOM     44  C   UNL A   1      38.749  31.140  29.129  1.00  0.00     0.074 A 
ATOM     45  C   UNL A   1      38.093  30.504  28.017  1.00  0.00     0.031 C 
ATOM     46  C   UNL A   1      42.555  28.433  31.888  1.00  0.00     0.029 A 
ATOM     47  C   UNL A   1      43.449  27.729  30.980  1.00  0.00     0.049 A 
ATOM     48  H   UNL A   1      42.678  26.322  29.568  1.00  0.00     0.167 HD
ATOM     49  C   UNL A   1      38.379  31.998  30.116  1.00  0.00     0.034 A 
ATOM     50  C   UNL A   1      44.639  28.231  30.514  1.00  0.00     0.034 A 
ATOM     51  C   UNL A   1      39.512  32.248  31.024  1.00  0.00     0.049 A 
ATOM     52  C   UNL A   1      44.706  29.747  30.612  1.00  0.00     0.074 A 
ATOM     53  C   UNL A   1      39.811  31.822  32.306  1.00  0.00     0.029 A 
ATOM     54  N   UNL A   1      40.697  32.765  30.498  1.00  0.00    -0.354 N 
ATOM     55  N   UNL A   1      43.675  30.516  30.838  1.00  0.00    -0.248 NA
ATOM     56  C   UNL A   1      45.944  30.514  30.523  1.00  0.00     0.031 C 
ATOM     57  C   UNL A   1      41.224  31.939  32.479  1.00  0.00     0.029 A 
ATOM     58  C   UNL A   1      41.772  32.488  31.329  1.00  0.00     0.049 A 
ATOM     59  H   UNL A   1      40.762  33.259  29.650  1.00  0.00     0.167 HD
ATOM     60  C   UNL A   1      44.046  31.830  30.841  1.00  0.00     0.074 A 
ATOM     61  C   UNL A   1      45.493  31.769  30.698  1.00  0.00     0.031 C 
ATOM     62  C   UNL A   1      43.133  32.850  30.926  1.00  0.00     0.034 A 
BRANCH  49  63
ATOM     63  C   UNL A   1      36.965  32.471  30.395  1.00  0.00     0.023 A 
ATOM     64  C   UNL A   1      36.350  31.972  31.564  1.00  0.00     0.012 A 
ATOM     65  C   UNL A   1      36.151  33.289  29.566  1.00  0.00     0.148 A 
ATOM     66  C   UNL A   1      35.022  32.266  31.897  1.00  0.00     0.002 A 
ATOM     67  C   UNL A   1      34.850  33.645  29.938  1.00  0.00     0.091 A 
ATOM     68  F   UNL A   1      36.577  33.657  28.355  1.00  0.00    -0.205 F 
ATOM     69  C   UNL A   1      34.278  33.120  31.097  1.00  0.00     0.022 A 
BRANCH  67  70
ATOM     70  S   UNL A   1      33.847  34.802  28.983  1.00  0.00     0.127 S 
ATOM     71  O   UNL A   1      34.456  34.716  27.655  1.00  0.00    -0.237 OA
ATOM     72  O   UNL A   1      32.511  34.212  29.077  1.00  0.00    -0.237 OA
ATOM     73  O   UNL A   1      33.977  36.095  29.643  1.00  0.00    -0.744 OA
ENDBRANCH  67  70
ENDBRANCH  49  63
BRANCH  50  74
ATOM     74  C   UNL A   1      45.174  27.376  29.390  1.00  0.00     0.023 A 
ATOM     75  C   UNL A   1      45.414  26.014  29.718  1.00  0.00     0.012 A 
ATOM     76  C   UNL A   1      44.939  27.706  28.040  1.00  0.00     0.148 A 
ATOM     77  C   UNL A   1      45.190  25.001  28.783  1.00  0.00     0.002 A 
ATOM     78  C   UNL A   1      44.759  26.686  27.101  1.00  0.00     0.091 A 
ATOM     79  F   UNL A   1      44.826  28.998  27.705  1.00  0.00    -0.205 F 
ATOM     80  C   UNL A   1      44.815  25.336  27.487  1.00  0.00     0.022 A 
BRANCH  78  81
ATOM     81  S   UNL A   1      44.358  27.051  25.385  1.00  0.00     0.127 S 
ATOM     82  O   UNL A   1      45.667  27.417  24.849  1.00  0.00    -0.237 OA
ATOM     83  O   UNL A   1      43.835  25.779  24.884  1.00  0.00    -0.237 OA
ATOM     84  O   UNL A   1      43.368  28.116  25.445  1.00  0.00    -0.744 OA
ENDBRANCH  78  81
ENDBRANCH  50  74
BRANCH  62  85
ATOM     85  C   UNL A   1      43.453  34.305  30.633  1.00  0.00     0.023 A 
ATOM     86  C   UNL A   1      43.878  35.194  31.640  1.00  0.00     0.012 A 
ATOM     87  C   UNL A   1      43.485  34.794  29.301  1.00  0.00     0.148 A 
ATOM     88  C   UNL A   1      44.224  36.519  31.363  1.00  0.00     0.002 A 
ATOM     89  C   UNL A   1      43.951  36.075  29.017  1.00  0.00     0.091 A 
ATOM     90  F   UNL A   1      43.044  34.027  28.294  1.00  0.00    -0.205 F 
ATOM     91  C   UNL A   1      44.281  36.956  30.048  1.00  0.00     0.022 A 
BRANCH  89  92
ATOM     92  S   UNL A   1      44.297  36.592  27.329  1.00  0.00     0.127 S 
ATOM     93  O   UNL A   1      45.206  35.543  26.873  1.00  0.00    -0.237 OA
ATOM     94  O   UNL A   1      42.968  36.555  26.716  1.00  0.00    -0.237 OA
ATOM     95  O   UNL A   1      44.864  37.929  27.441  1.00  0.00    -0.744 OA
ENDBRANCH  89  92
ENDBRANCH  62  85
ENDBRANCH  36  37
ENDBRANCH  28  31
ENDBRANCH  26  27
ENDBRANCH  25  26
ENDBRANCH   1  25
TORSDOF 17
ENDMDL
MODEL 3
REMARK VINA RESULT:     -12.3      4.190      9.932
REMARK SMILES Cc1ccc(C(=O)NCCCCNC(=O)c2ccc(-c3c4nc(c(-c5cccc(S(=O)(=O)[O-])c5F)c5ccc([nH]5)c(-c5cccc(S(=O)(=O)[O-])c5F)c5nc(c(-c6cccc(S(=O)(=O)[O-])c6F)c6ccc3[nH]6)C=C5)C=C4)cc2)cc1S(=O)(=O)C[C@@H]1C[C@H]2CC[C@@H]1C2
REMARK SMILES IDX 10 1 9 2 8 3 6 4 7 5 5 7 1 8 2 9 3 10 80 11 4 12 79 13 81 14
REMARK SMILES IDX 82 15 83 16 84 17 85 18 86 19 90 20 87 21 89 22 91 23 88 24
REMARK SMILES IDX 11 25 12 26 13 27 14 28 15 30 16 31 17 32 78 33 18 34 77 35
REMARK SMILES IDX 19 36 20 37 21 38 71 39 22 40 76 41 70 42 72 43 23 44 75 45
REMARK SMILES IDX 69 46 68 47 24 49 56 50 36 51 55 52 37 53 40 54 54 55 73 56
REMARK SMILES IDX 38 57 39 58 53 60 74 61 41 62 25 63 26 64 34 65 27 66 29 67
REMARK SMILES IDX 35 68 28 69 30 70 31 71 32 72 33 73 57 74 58 75 66 76 59 77
REMARK SMILES IDX 61 78 67 79 60 80 62 81 63 82 64 83 65 84 42 85 43 86 51 87
REMARK SMILES IDX 44 88 46 89 52 90 45 91 47 92 48 93 49 94 50 95
REMARK H PARENT 8 6 13 29 72 48 40 59
REMARK Flexibility Score: inf
ROOT
ATOM      1  C   UNL A   1      32.380  29.514  24.923  1.00  0.00     0.023 C 
ENDROOT
BRANCH   1   2
ATOM      2  C   UNL A   1      33.675  28.708  24.778  1.00  0.00     0.116 C 
BRANCH   2   3
ATOM      3  N   UNL A   1      33.762  27.885  23.578  1.00  0.00    -0.352 N 
ATOM      4  C   UNL A   1      33.425  26.586  23.275  1.00  0.00     0.251 C 
ATOM      5  O   UNL A   1      33.628  26.195  22.124  1.00  0.00    -0.269 OA
ATOM      6  H   UNL A   1      34.148  28.368  22.812  1.00  0.00     0.163 HD
BRANCH   4   7
ATOM      7  C   UNL A   1      32.954  25.590  24.280  1.00  0.00     0.041 A 
ATOM      8  C   UNL A   1      30.732  22.410  26.095  1.00  0.00     0.046 C 
ATOM      9  C   UNL A   1      31.662  23.509  25.687  1.00  0.00    -0.032 A 
ATOM     10  C   UNL A   1      31.048  24.766  25.523  1.00  0.00     0.005 A 
ATOM     11  C   UNL A   1      33.016  23.384  25.336  1.00  0.00     0.071 A 
ATOM     12  C   UNL A   1      31.673  25.783  24.802  1.00  0.00     0.014 A 
ATOM     13  C   UNL A   1      33.663  24.463  24.687  1.00  0.00     0.034 A 
BRANCH  11  14
ATOM     14  S   UNL A   1      33.968  21.860  25.352  1.00  0.00     0.178 S 
ATOM     15  O   UNL A   1      35.223  22.199  24.709  1.00  0.00    -0.224 OA
ATOM     16  O   UNL A   1      33.968  21.402  26.735  1.00  0.00    -0.224 OA
BRANCH  14  17
ATOM     17  C   UNL A   1      33.243  20.534  24.422  1.00  0.00     0.146 C 
BRANCH  17  18
ATOM     18  C   UNL A   1      33.477  19.136  24.979  1.00  0.00     0.008 C 
ATOM     19  C   UNL A   1      34.869  18.548  24.627  1.00  0.00     0.008 C 
ATOM     20  C   UNL A   1      32.537  18.070  24.361  1.00  0.00    -0.007 C 
ATOM     21  C   UNL A   1      34.531  17.133  24.122  1.00  0.00    -0.011 C 
ATOM     22  C   UNL A   1      32.462  16.903  25.348  1.00  0.00     0.004 C 
ATOM     23  C   UNL A   1      33.347  17.449  23.221  1.00  0.00     0.007 C 
ATOM     24  C   UNL A   1      33.873  16.310  25.250  1.00  0.00     0.004 C 
ENDBRANCH  17  18
ENDBRANCH  14  17
ENDBRANCH  11  14
ENDBRANCH   4   7
ENDBRANCH   2   3
ENDBRANCH   1   2
BRANCH   1  25
ATOM     25  C   UNL A   1      32.165  30.301  26.227  1.00  0.00     0.023 C 
BRANCH  25  26
ATOM     26  C   UNL A   1      33.281  30.174  27.251  1.00  0.00     0.116 C 
BRANCH  26  27
ATOM     27  N   UNL A   1      34.263  31.241  27.143  1.00  0.00    -0.352 N 
ATOM     28  C   UNL A   1      35.482  31.420  27.759  1.00  0.00     0.251 C 
ATOM     29  H   UNL A   1      34.014  31.961  26.519  1.00  0.00     0.163 HD
ATOM     30  O   UNL A   1      35.848  32.581  27.937  1.00  0.00    -0.269 OA
BRANCH  28  31
ATOM     31  C   UNL A   1      36.397  30.295  28.067  1.00  0.00     0.039 A 
ATOM     32  C   UNL A   1      36.318  29.667  29.325  1.00  0.00     0.014 A 
ATOM     33  C   UNL A   1      37.489  30.029  27.253  1.00  0.00     0.014 A 
ATOM     34  C   UNL A   1      37.406  28.948  29.820  1.00  0.00     0.010 A 
ATOM     35  C   UNL A   1      38.525  29.270  27.700  1.00  0.00     0.010 A 
ATOM     36  C   UNL A   1      38.535  28.859  29.029  1.00  0.00    -0.014 A 
BRANCH  36  37
ATOM     37  C   UNL A   1      39.857  28.430  29.426  1.00  0.00     0.031 A 
ATOM     38  C   UNL A   1      40.245  27.051  29.133  1.00  0.00     0.074 A 
ATOM     39  C   UNL A   1      40.740  29.454  29.483  1.00  0.00     0.049 A 
ATOM     40  N   UNL A   1      41.432  26.594  29.302  1.00  0.00    -0.248 NA
ATOM     41  C   UNL A   1      39.308  26.063  28.598  1.00  0.00     0.031 C 
ATOM     42  C   UNL A   1      42.135  29.507  29.067  1.00  0.00     0.029 A 
ATOM     43  N   UNL A   1      40.504  30.733  29.983  1.00  0.00    -0.354 N 
ATOM     44  C   UNL A   1      41.503  25.430  28.574  1.00  0.00     0.074 A 
ATOM     45  C   UNL A   1      40.137  25.053  28.320  1.00  0.00     0.031 C 
ATOM     46  C   UNL A   1      42.696  30.630  29.559  1.00  0.00     0.029 A 
ATOM     47  C   UNL A   1      41.725  31.219  30.469  1.00  0.00     0.049 A 
ATOM     48  H   UNL A   1      39.641  31.206  29.994  1.00  0.00     0.167 HD
ATOM     49  C   UNL A   1      42.721  25.043  28.114  1.00  0.00     0.034 A 
ATOM     50  C   UNL A   1      41.877  31.289  31.832  1.00  0.00     0.034 A 
ATOM     51  C   UNL A   1      43.781  25.866  28.725  1.00  0.00     0.049 A 
ATOM     52  C   UNL A   1      42.879  30.272  32.355  1.00  0.00     0.074 A 
ATOM     53  C   UNL A   1      44.574  26.895  28.249  1.00  0.00     0.029 A 
ATOM     54  N   UNL A   1      43.894  25.897  30.116  1.00  0.00    -0.354 N 
ATOM     55  N   UNL A   1      43.334  29.263  31.662  1.00  0.00    -0.248 NA
ATOM     56  C   UNL A   1      43.492  30.340  33.678  1.00  0.00     0.031 C 
ATOM     57  C   UNL A   1      45.031  27.642  29.378  1.00  0.00     0.029 A 
ATOM     58  C   UNL A   1      44.566  27.035  30.535  1.00  0.00     0.049 A 
ATOM     59  H   UNL A   1      43.544  25.202  30.719  1.00  0.00     0.167 HD
ATOM     60  C   UNL A   1      44.194  28.513  32.411  1.00  0.00     0.074 A 
ATOM     61  C   UNL A   1      44.305  29.268  33.650  1.00  0.00     0.031 C 
ATOM     62  C   UNL A   1      44.713  27.324  31.964  1.00  0.00     0.034 A 
BRANCH  49  63
ATOM     63  C   UNL A   1      42.971  24.067  26.980  1.00  0.00     0.023 A 
ATOM     64  C   UNL A   1      43.549  24.597  25.806  1.00  0.00     0.012 A 
ATOM     65  C   UNL A   1      42.606  22.696  26.928  1.00  0.00     0.148 A 
ATOM     66  C   UNL A   1      43.760  23.823  24.658  1.00  0.00     0.002 A 
ATOM     67  C   UNL A   1      42.886  21.904  25.810  1.00  0.00     0.091 A 
ATOM     68  F   UNL A   1      41.890  22.151  27.915  1.00  0.00    -0.205 F 
ATOM     69  C   UNL A   1      43.449  22.471  24.666  1.00  0.00     0.022 A 
BRANCH  67  70
ATOM     70  S   UNL A   1      42.572  20.127  25.771  1.00  0.00     0.127 S 
ATOM     71  O   UNL A   1      41.126  20.073  25.558  1.00  0.00    -0.237 OA
ATOM     72  O   UNL A   1      43.372  19.692  24.626  1.00  0.00    -0.237 OA
ATOM     73  O   UNL A   1      43.031  19.605  27.053  1.00  0.00    -0.744 OA
ENDBRANCH  67  70
ENDBRANCH  49  63
BRANCH  50  74
ATOM     74  C   UNL A   1      40.583  31.701  32.493  1.00  0.00     0.023 A 
ATOM     75  C   UNL A   1      39.684  30.642  32.791  1.00  0.00     0.012 A 
ATOM     76  C   UNL A   1      40.489  32.889  33.245  1.00  0.00     0.148 A 
ATOM     77  C   UNL A   1      38.893  30.675  33.943  1.00  0.00     0.002 A 
ATOM     78  C   UNL A   1      39.661  32.929  34.371  1.00  0.00     0.091 A 
ATOM     79  F   UNL A   1      41.252  33.933  32.896  1.00  0.00    -0.205 F 
ATOM     80  C   UNL A   1      38.919  31.801  34.759  1.00  0.00     0.022 A 
BRANCH  78  81
ATOM     81  S   UNL A   1      39.579  34.387  35.423  1.00  0.00     0.127 S 
ATOM     82  O   UNL A   1      38.859  33.872  36.585  1.00  0.00    -0.237 OA
ATOM     83  O   UNL A   1      40.987  34.699  35.676  1.00  0.00    -0.237 OA
ATOM     84  O   UNL A   1      38.885  35.389  34.629  1.00  0.00    -0.744 OA
ENDBRANCH  78  81
ENDBRANCH  50  74
BRANCH  62  85
ATOM     85  C   UNL A   1      45.419  26.316  32.851  1.00  0.00     0.023 A 
ATOM     86  C   UNL A   1      46.818  26.306  33.006  1.00  0.00     0.012 A 
ATOM     87  C   UNL A   1      44.683  25.433  33.686  1.00  0.00     0.148 A 
ATOM     88  C   UNL A   1      47.466  25.413  33.864  1.00  0.00     0.002 A 
ATOM     89  C   UNL A   1      45.325  24.636  34.630  1.00  0.00     0.091 A 
ATOM     90  F   UNL A   1      43.352  25.344  33.559  1.00  0.00    -0.205 F 
ATOM     91  C   UNL A   1      46.718  24.590  34.692  1.00  0.00     0.022 A 
BRANCH  89  92
ATOM     92  S   UNL A   1      44.399  23.760  35.899  1.00  0.00     0.127 S 
ATOM     93  O   UNL A   1      43.482  22.952  35.099  1.00  0.00    -0.237 OA
ATOM     94  O   UNL A   1      45.448  22.998  36.578  1.00  0.00    -0.237 OA
ATOM     95  O   UNL A   1      43.791  24.797  36.721  1.00  0.00    -0.744 OA
ENDBRANCH  89  92
ENDBRANCH  62  85
ENDBRANCH  36  37
ENDBRANCH  28  31
ENDBRANCH  26  27
ENDBRANCH  25  26
ENDBRANCH   1  25
TORSDOF 17
ENDMDL
