MODEL 1
REMARK VINA RESULT:     -12.3      0.000      0.000
REMARK SMILES O=C(NCCCCNC(=O)c1cccc([C@@H]2CCC[N@@H+](Cc3ccc(C[NH+]4CCCC4)s3)C2)c1)c1ccc(-c2c3nc(c(-c4cccc(S(=O)(=O)[O-])c4F)c4ccc([nH]4)c(-c4cccc(S(=O)(=O)[O-])c4F)c4nc(c(-c5cccc(S(=O)(=O)[O-])c5F)c5ccc2[nH]5)C=C4)C=C3)cc1
REMARK SMILES IDX 6 1 5 2 4 3 3 4 1 5 2 6 35 8 36 9 97 10 37 11 96 12 38 13
REMARK SMILES IDX 39 14 40 15 90 16 41 17 95 18 89 19 91 20 42 21 94 22 88 23
REMARK SMILES IDX 87 24 43 26 75 27 55 28 74 29 56 30 59 31 73 32 92 33 57 34
REMARK SMILES IDX 58 35 72 37 93 38 60 39 44 40 45 41 53 42 46 43 48 44 54 45
REMARK SMILES IDX 47 46 49 47 50 48 51 49 52 50 76 51 77 52 85 53 78 54 80 55
REMARK SMILES IDX 86 56 79 57 81 58 82 59 83 60 84 61 61 62 62 63 70 64 63 65
REMARK SMILES IDX 65 66 71 67 64 68 66 69 67 70 68 71 69 72 7 73 8 74 9 75
REMARK SMILES IDX 10 77 11 78 12 79 34 80 13 81 15 82 14 83 16 84 17 85 33 86
REMARK SMILES IDX 18 87 20 88 19 89 21 91 22 92 23 93 32 94 24 95 25 96 26 97
REMARK SMILES IDX 27 98 28 99 31 100 29 102 30 103
REMARK H PARENT 3 7 91 25 59 36 8 76 20 90 27 101
REMARK Flexibility Score: inf
ROOT
ATOM      1  C   UNL A   1      31.615  30.472  26.686  1.00  0.00     0.023 C 
ENDROOT
BRANCH   1   2
ATOM      2  C   UNL A   1      31.786  31.979  26.537  1.00  0.00     0.023 C 
BRANCH   2   3
ATOM      3  C   UNL A   1      32.780  32.611  27.503  1.00  0.00     0.116 C 
BRANCH   3   4
ATOM      4  N   UNL A   1      32.520  34.022  27.757  1.00  0.00    -0.352 N 
ATOM      5  O   UNL A   1      32.640  36.000  28.834  1.00  0.00    -0.269 OA
ATOM      6  C   UNL A   1      33.088  34.868  28.685  1.00  0.00     0.251 C 
ATOM      7  H   UNL A   1      31.835  34.432  27.181  1.00  0.00     0.163 HD
BRANCH   6   8
ATOM      8  C   UNL A   1      34.207  34.385  29.524  1.00  0.00     0.039 A 
ATOM      9  C   UNL A   1      35.528  34.587  29.124  1.00  0.00     0.014 A 
ATOM     10  C   UNL A   1      33.934  33.677  30.698  1.00  0.00     0.014 A 
ATOM     11  C   UNL A   1      36.553  33.904  29.766  1.00  0.00     0.010 A 
ATOM     12  C   UNL A   1      34.982  33.086  31.411  1.00  0.00     0.010 A 
ATOM     13  C   UNL A   1      36.296  33.143  30.918  1.00  0.00    -0.014 A 
BRANCH  13  14
ATOM     14  C   UNL A   1      37.422  32.447  31.596  1.00  0.00     0.031 A 
ATOM     15  C   UNL A   1      38.185  31.338  30.917  1.00  0.00     0.074 A 
ATOM     16  C   UNL A   1      37.775  32.839  32.837  1.00  0.00     0.049 A 
ATOM     17  N   UNL A   1      39.218  30.663  31.354  1.00  0.00    -0.248 NA
ATOM     18  C   UNL A   1      37.725  30.923  29.582  1.00  0.00     0.031 C 
ATOM     19  C   UNL A   1      37.097  33.880  33.615  1.00  0.00     0.029 A 
ATOM     20  N   UNL A   1      38.788  32.419  33.660  1.00  0.00    -0.354 N 
ATOM     21  C   UNL A   1      39.501  29.715  30.377  1.00  0.00     0.074 A 
ATOM     22  C   UNL A   1      38.525  29.896  29.324  1.00  0.00     0.031 C 
ATOM     23  C   UNL A   1      37.736  34.046  34.781  1.00  0.00     0.029 A 
ATOM     24  C   UNL A   1      38.827  33.082  34.864  1.00  0.00     0.049 A 
ATOM     25  H   UNL A   1      39.426  31.712  33.413  1.00  0.00     0.167 HD
ATOM     26  C   UNL A   1      40.487  28.783  30.355  1.00  0.00     0.034 A 
ATOM     27  C   UNL A   1      39.636  32.926  35.928  1.00  0.00     0.034 A 
ATOM     28  C   UNL A   1      41.475  28.627  31.391  1.00  0.00     0.049 A 
ATOM     29  C   UNL A   1      40.727  31.897  35.867  1.00  0.00     0.074 A 
ATOM     30  C   UNL A   1      42.557  27.764  31.425  1.00  0.00     0.029 A 
ATOM     31  N   UNL A   1      41.496  29.336  32.582  1.00  0.00    -0.354 N 
ATOM     32  N   UNL A   1      41.051  31.094  34.883  1.00  0.00    -0.248 NA
ATOM     33  C   UNL A   1      41.584  31.772  37.054  1.00  0.00     0.031 C 
ATOM     34  C   UNL A   1      43.204  27.919  32.656  1.00  0.00     0.029 A 
ATOM     35  C   UNL A   1      42.559  28.918  33.366  1.00  0.00     0.049 A 
ATOM     36  H   UNL A   1      40.849  30.035  32.835  1.00  0.00     0.167 HD
ATOM     37  C   UNL A   1      42.177  30.402  35.313  1.00  0.00     0.074 A 
ATOM     38  C   UNL A   1      42.486  30.892  36.642  1.00  0.00     0.031 C 
ATOM     39  C   UNL A   1      42.887  29.445  34.667  1.00  0.00     0.034 A 
BRANCH  26  40
ATOM     40  C   UNL A   1      40.555  27.855  29.165  1.00  0.00     0.023 A 
ATOM     41  C   UNL A   1      39.666  26.766  29.065  1.00  0.00     0.012 A 
ATOM     42  C   UNL A   1      41.464  28.100  28.117  1.00  0.00     0.148 A 
ATOM     43  C   UNL A   1      39.711  25.910  27.963  1.00  0.00     0.002 A 
ATOM     44  C   UNL A   1      41.470  27.273  26.999  1.00  0.00     0.091 A 
ATOM     45  F   UNL A   1      42.314  29.131  28.233  1.00  0.00    -0.205 F 
ATOM     46  C   UNL A   1      40.605  26.170  26.927  1.00  0.00     0.022 A 
BRANCH  44  47
ATOM     47  S   UNL A   1      42.524  27.575  25.575  1.00  0.00     0.127 S 
ATOM     48  O   UNL A   1      41.932  28.793  25.024  1.00  0.00    -0.237 OA
ATOM     49  O   UNL A   1      43.835  27.764  26.196  1.00  0.00    -0.237 OA
ATOM     50  O   UNL A   1      42.415  26.390  24.737  1.00  0.00    -0.744 OA
ENDBRANCH  44  47
ENDBRANCH  26  40
BRANCH  27  51
ATOM     51  C   UNL A   1      39.473  33.804  37.119  1.00  0.00     0.023 A 
ATOM     52  C   UNL A   1      39.935  35.134  37.068  1.00  0.00     0.012 A 
ATOM     53  C   UNL A   1      38.835  33.341  38.286  1.00  0.00     0.148 A 
ATOM     54  C   UNL A   1      39.793  35.977  38.170  1.00  0.00     0.002 A 
ATOM     55  C   UNL A   1      38.644  34.204  39.357  1.00  0.00     0.091 A 
ATOM     56  F   UNL A   1      38.407  32.071  38.313  1.00  0.00    -0.205 F 
ATOM     57  C   UNL A   1      39.139  35.516  39.310  1.00  0.00     0.022 A 
BRANCH  55  58
ATOM     58  S   UNL A   1      37.698  33.740  40.812  1.00  0.00     0.127 S 
ATOM     59  O   UNL A   1      38.612  32.818  41.480  1.00  0.00    -0.237 OA
ATOM     60  O   UNL A   1      37.525  35.030  41.480  1.00  0.00    -0.237 OA
ATOM     61  O   UNL A   1      36.464  33.151  40.310  1.00  0.00    -0.744 OA
ENDBRANCH  55  58
ENDBRANCH  27  51
BRANCH  39  62
ATOM     62  C   UNL A   1      44.113  28.904  35.357  1.00  0.00     0.023 A 
ATOM     63  C   UNL A   1      45.373  29.494  35.138  1.00  0.00     0.012 A 
ATOM     64  C   UNL A   1      44.000  27.834  36.268  1.00  0.00     0.148 A 
ATOM     65  C   UNL A   1      46.508  29.000  35.781  1.00  0.00     0.002 A 
ATOM     66  C   UNL A   1      45.124  27.384  36.947  1.00  0.00     0.091 A 
ATOM     67  F   UNL A   1      42.796  27.271  36.448  1.00  0.00    -0.205 F 
ATOM     68  C   UNL A   1      46.382  27.953  36.692  1.00  0.00     0.022 A 
BRANCH  66  69
ATOM     69  S   UNL A   1      45.036  26.114  38.213  1.00  0.00     0.127 S 
ATOM     70  O   UNL A   1      46.390  26.147  38.764  1.00  0.00    -0.237 OA
ATOM     71  O   UNL A   1      44.002  26.637  39.106  1.00  0.00    -0.237 OA
ATOM     72  O   UNL A   1      44.671  24.884  37.524  1.00  0.00    -0.744 OA
ENDBRANCH  66  69
ENDBRANCH  39  62
ENDBRANCH  13  14
ENDBRANCH   6   8
ENDBRANCH   3   4
ENDBRANCH   2   3
ENDBRANCH   1   2
BRANCH   1  73
ATOM     73  C   UNL A   1      31.977  29.661  25.448  1.00  0.00     0.116 C 
BRANCH  73  74
ATOM     74  N   UNL A   1      31.024  29.830  24.357  1.00  0.00    -0.352 N 
ATOM     75  C   UNL A   1      30.892  29.087  23.204  1.00  0.00     0.251 C 
ATOM     76  H   UNL A   1      30.389  30.575  24.459  1.00  0.00     0.163 HD
ATOM     77  O   UNL A   1      30.133  29.443  22.313  1.00  0.00    -0.269 OA
BRANCH  75  78
ATOM     78  C   UNL A   1      31.677  27.843  23.048  1.00  0.00     0.040 A 
ATOM     79  C   UNL A   1      32.942  27.870  22.471  1.00  0.00     0.014 A 
ATOM     80  C   UNL A   1      31.139  26.634  23.491  1.00  0.00     0.018 A 
ATOM     81  C   UNL A   1      33.688  26.692  22.413  1.00  0.00     0.001 A 
ATOM     82  C   UNL A   1      31.878  25.448  23.475  1.00  0.00    -0.039 A 
ATOM     83  C   UNL A   1      33.169  25.495  22.928  1.00  0.00     0.004 A 
BRANCH  82  84
ATOM     84  C   UNL A   1      31.337  24.170  24.102  1.00  0.00     0.074 C 
ATOM     85  C   UNL A   1      30.921  24.313  25.576  1.00  0.00     0.020 C 
ATOM     86  C   UNL A   1      32.309  22.978  23.948  1.00  0.00     0.270 C 
ATOM     87  C   UNL A   1      32.094  24.291  26.554  1.00  0.00     0.062 C 
ATOM     88  N   UNL A   1      33.469  23.062  24.844  1.00  0.00    -0.330 N 
ATOM     89  C   UNL A   1      33.084  23.162  26.258  1.00  0.00     0.262 C 
ATOM     90  H   UNL A   1      33.941  23.938  24.621  1.00  0.00     0.348 HD
BRANCH  88  91
ATOM     91  C   UNL A   1      34.449  21.991  24.597  1.00  0.00     0.310 C 
BRANCH  91  92
ATOM     92  C   UNL A   1      35.862  22.322  24.978  1.00  0.00     0.059 A 
ATOM     93  C   UNL A   1      36.407  23.541  25.324  1.00  0.00     0.022 A 
ATOM     94  S   UNL A   1      37.040  21.080  25.014  1.00  0.00    -0.134 S 
ATOM     95  C   UNL A   1      37.779  23.434  25.685  1.00  0.00     0.022 A 
ATOM     96  C   UNL A   1      38.214  22.123  25.690  1.00  0.00     0.059 A 
BRANCH  96  97
ATOM     97  C   UNL A   1      39.518  21.568  26.186  1.00  0.00     0.310 C 
BRANCH  97  98
ATOM     98  N   UNL A   1      40.472  22.563  26.699  1.00  0.00    -0.331 N 
ATOM     99  C   UNL A   1      41.699  22.711  25.909  1.00  0.00     0.262 C 
ATOM    100  C   UNL A   1      40.875  22.371  28.094  1.00  0.00     0.262 C 
ATOM    101  H   UNL A   1      39.914  23.413  26.622  1.00  0.00     0.348 HD
ATOM    102  C   UNL A   1      42.788  21.965  26.658  1.00  0.00     0.067 C 
ATOM    103  C   UNL A   1      42.365  22.051  28.110  1.00  0.00     0.067 C 
ENDBRANCH  97  98
ENDBRANCH  96  97
ENDBRANCH  91  92
ENDBRANCH  88  91
ENDBRANCH  82  84
ENDBRANCH  75  78
ENDBRANCH  73  74
ENDBRANCH   1  73
TORSDOF 19
ENDMDL
MODEL 2
REMARK VINA RESULT:     -12.2      0.588      7.465
REMARK SMILES O=C(NCCCCNC(=O)c1cccc([C@@H]2CCC[N@@H+](Cc3ccc(C[NH+]4CCCC4)s3)C2)c1)c1ccc(-c2c3nc(c(-c4cccc(S(=O)(=O)[O-])c4F)c4ccc([nH]4)c(-c4cccc(S(=O)(=O)[O-])c4F)c4nc(c(-c5cccc(S(=O)(=O)[O-])c5F)c5ccc2[nH]5)C=C4)C=C3)cc1
REMARK SMILES IDX 6 1 5 2 4 3 3 4 1 5 2 6 35 8 36 9 97 10 37 11 96 12 38 13
REMARK SMILES IDX 39 14 40 15 90 16 41 17 95 18 89 19 91 20 42 21 94 22 88 23
REMARK SMILES IDX 87 24 43 26 75 27 55 28 74 29 56 30 59 31 73 32 92 33 57 34
REMARK SMILES IDX 58 35 72 37 93 38 60 39 44 40 45 41 53 42 46 43 48 44 54 45
REMARK SMILES IDX 47 46 49 47 50 48 51 49 52 50 76 51 77 52 85 53 78 54 80 55
REMARK SMILES IDX 86 56 79 57 81 58 82 59 83 60 84 61 61 62 62 63 70 64 63 65
REMARK SMILES IDX 65 66 71 67 64 68 66 69 67 70 68 71 69 72 7 73 8 74 9 75
REMARK SMILES IDX 10 77 11 78 12 79 34 80 13 81 15 82 14 83 16 84 17 85 33 86
REMARK SMILES IDX 18 87 20 88 19 89 21 91 22 92 23 93 32 94 24 95 25 96 26 97
REMARK SMILES IDX 27 98 28 99 31 100 29 102 30 103
REMARK H PARENT 3 7 91 25 59 36 8 76 20 90 27 101
REMARK Flexibility Score: inf
ROOT
ATOM      1  C   UNL A   1      31.808  30.034  27.039  1.00  0.00     0.023 C 
ENDROOT
BRANCH   1   2
ATOM      2  C   UNL A   1      31.889  31.488  26.590  1.00  0.00     0.023 C 
BRANCH   2   3
ATOM      3  C   UNL A   1      33.007  32.297  27.237  1.00  0.00     0.116 C 
BRANCH   3   4
ATOM      4  N   UNL A   1      32.608  33.656  27.585  1.00  0.00    -0.352 N 
ATOM      5  O   UNL A   1      32.540  35.561  28.789  1.00  0.00    -0.269 OA
ATOM      6  C   UNL A   1      33.100  34.493  28.562  1.00  0.00     0.251 C 
ATOM      7  H   UNL A   1      31.877  34.030  27.041  1.00  0.00     0.163 HD
BRANCH   6   8
ATOM      8  C   UNL A   1      34.272  34.073  29.362  1.00  0.00     0.039 A 
ATOM      9  C   UNL A   1      35.560  34.435  28.968  1.00  0.00     0.014 A 
ATOM     10  C   UNL A   1      34.087  33.267  30.488  1.00  0.00     0.014 A 
ATOM     11  C   UNL A   1      36.657  33.819  29.557  1.00  0.00     0.010 A 
ATOM     12  C   UNL A   1      35.199  32.741  31.154  1.00  0.00     0.010 A 
ATOM     13  C   UNL A   1      36.493  32.963  30.659  1.00  0.00    -0.014 A 
BRANCH  13  14
ATOM     14  C   UNL A   1      37.693  32.343  31.283  1.00  0.00     0.031 A 
ATOM     15  C   UNL A   1      38.223  32.819  32.611  1.00  0.00     0.074 A 
ATOM     16  C   UNL A   1      38.299  31.319  30.649  1.00  0.00     0.049 A 
ATOM     17  N   UNL A   1      39.229  32.354  33.309  1.00  0.00    -0.248 NA
ATOM     18  C   UNL A   1      37.548  33.969  33.235  1.00  0.00     0.031 C 
ATOM     19  C   UNL A   1      37.901  30.786  29.343  1.00  0.00     0.029 A 
ATOM     20  N   UNL A   1      39.367  30.540  31.012  1.00  0.00    -0.354 N 
ATOM     21  C   UNL A   1      39.341  33.180  34.422  1.00  0.00     0.074 A 
ATOM     22  C   UNL A   1      38.303  34.182  34.305  1.00  0.00     0.031 C 
ATOM     23  C   UNL A   1      38.685  29.744  29.034  1.00  0.00     0.029 A 
ATOM     24  C   UNL A   1      39.682  29.575  30.085  1.00  0.00     0.049 A 
ATOM     25  H   UNL A   1      39.861  30.661  31.855  1.00  0.00     0.167 HD
ATOM     26  C   UNL A   1      40.223  33.108  35.451  1.00  0.00     0.034 A 
ATOM     27  C   UNL A   1      40.671  28.663  30.067  1.00  0.00     0.034 A 
ATOM     28  C   UNL A   1      41.234  32.091  35.579  1.00  0.00     0.049 A 
ATOM     29  C   UNL A   1      41.622  28.598  31.227  1.00  0.00     0.074 A 
ATOM     30  C   UNL A   1      42.124  31.889  36.620  1.00  0.00     0.029 A 
ATOM     31  N   UNL A   1      41.503  31.115  34.632  1.00  0.00    -0.354 N 
ATOM     32  N   UNL A   1      41.634  29.312  32.326  1.00  0.00    -0.248 NA
ATOM     33  C   UNL A   1      42.679  27.581  31.159  1.00  0.00     0.031 C 
ATOM     34  C   UNL A   1      42.960  30.820  36.282  1.00  0.00     0.029 A 
ATOM     35  C   UNL A   1      42.557  30.320  35.054  1.00  0.00     0.049 A 
ATOM     36  H   UNL A   1      41.017  31.003  33.782  1.00  0.00     0.167 HD
ATOM     37  C   UNL A   1      42.668  28.800  33.101  1.00  0.00     0.074 A 
ATOM     38  C   UNL A   1      43.250  27.707  32.349  1.00  0.00     0.031 C 
ATOM     39  C   UNL A   1      43.098  29.204  34.321  1.00  0.00     0.034 A 
BRANCH  26  40
ATOM     40  C   UNL A   1      40.132  34.158  36.533  1.00  0.00     0.023 A 
ATOM     41  C   UNL A   1      40.492  35.492  36.256  1.00  0.00     0.012 A 
ATOM     42  C   UNL A   1      39.634  33.830  37.810  1.00  0.00     0.148 A 
ATOM     43  C   UNL A   1      40.399  36.474  37.245  1.00  0.00     0.002 A 
ATOM     44  C   UNL A   1      39.498  34.822  38.775  1.00  0.00     0.091 A 
ATOM     45  F   UNL A   1      39.311  32.554  38.063  1.00  0.00    -0.205 F 
ATOM     46  C   UNL A   1      39.894  36.141  38.499  1.00  0.00     0.022 A 
BRANCH  44  47
ATOM     47  S   UNL A   1      38.776  34.510  40.391  1.00  0.00     0.127 S 
ATOM     48  O   UNL A   1      37.547  33.805  40.033  1.00  0.00    -0.237 OA
ATOM     49  O   UNL A   1      39.795  33.673  41.027  1.00  0.00    -0.237 OA
ATOM     50  O   UNL A   1      38.593  35.816  41.007  1.00  0.00    -0.744 OA
ENDBRANCH  44  47
ENDBRANCH  26  40
BRANCH  27  51
ATOM     51  C   UNL A   1      40.777  27.705  28.932  1.00  0.00     0.023 A 
ATOM     52  C   UNL A   1      39.898  26.607  28.868  1.00  0.00     0.012 A 
ATOM     53  C   UNL A   1      41.719  27.894  27.902  1.00  0.00     0.148 A 
ATOM     54  C   UNL A   1      39.975  25.696  27.815  1.00  0.00     0.002 A 
ATOM     55  C   UNL A   1      41.750  27.017  26.826  1.00  0.00     0.091 A 
ATOM     56  F   UNL A   1      42.548  28.944  27.986  1.00  0.00    -0.205 F 
ATOM     57  C   UNL A   1      40.894  25.906  26.790  1.00  0.00     0.022 A 
BRANCH  55  58
ATOM     58  S   UNL A   1      42.807  27.281  25.397  1.00  0.00     0.127 S 
ATOM     59  O   UNL A   1      44.109  27.490  26.024  1.00  0.00    -0.237 OA
ATOM     60  O   UNL A   1      42.663  26.013  24.681  1.00  0.00    -0.237 OA
ATOM     61  O   UNL A   1      42.250  28.432  24.702  1.00  0.00    -0.744 OA
ENDBRANCH  55  58
ENDBRANCH  27  51
BRANCH  39  62
ATOM     62  C   UNL A   1      44.216  28.418  34.958  1.00  0.00     0.023 A 
ATOM     63  C   UNL A   1      45.554  28.648  34.581  1.00  0.00     0.012 A 
ATOM     64  C   UNL A   1      43.936  27.483  35.974  1.00  0.00     0.148 A 
ATOM     65  C   UNL A   1      46.591  27.928  35.174  1.00  0.00     0.002 A 
ATOM     66  C   UNL A   1      44.977  26.811  36.601  1.00  0.00     0.091 A 
ATOM     67  F   UNL A   1      42.655  27.263  36.306  1.00  0.00    -0.205 F 
ATOM     68  C   UNL A   1      46.304  27.019  36.191  1.00  0.00     0.022 A 
BRANCH  66  69
ATOM     69  S   UNL A   1      44.707  25.703  37.988  1.00  0.00     0.127 S 
ATOM     70  O   UNL A   1      43.993  24.598  37.351  1.00  0.00    -0.237 OA
ATOM     71  O   UNL A   1      46.074  25.387  38.403  1.00  0.00    -0.237 OA
ATOM     72  O   UNL A   1      43.940  26.463  38.965  1.00  0.00    -0.744 OA
ENDBRANCH  66  69
ENDBRANCH  39  62
ENDBRANCH  13  14
ENDBRANCH   6   8
ENDBRANCH   3   4
ENDBRANCH   2   3
ENDBRANCH   1   2
BRANCH   1  73
ATOM     73  C   UNL A   1      31.807  29.014  25.908  1.00  0.00     0.116 C 
BRANCH  73  74
ATOM     74  N   UNL A   1      31.091  29.475  24.725  1.00  0.00    -0.352 N 
ATOM     75  C   UNL A   1      31.129  28.972  23.443  1.00  0.00     0.251 C 
ATOM     76  H   UNL A   1      30.501  30.252  24.861  1.00  0.00     0.163 HD
ATOM     77  O   UNL A   1      30.577  29.560  22.522  1.00  0.00    -0.269 OA
BRANCH  75  78
ATOM     78  C   UNL A   1      31.841  27.702  23.181  1.00  0.00     0.040 A 
ATOM     79  C   UNL A   1      33.078  27.701  22.547  1.00  0.00     0.014 A 
ATOM     80  C   UNL A   1      31.263  26.497  23.584  1.00  0.00     0.018 A 
ATOM     81  C   UNL A   1      33.760  26.493  22.389  1.00  0.00     0.001 A 
ATOM     82  C   UNL A   1      31.940  25.281  23.468  1.00  0.00    -0.039 A 
ATOM     83  C   UNL A   1      33.205  25.296  22.862  1.00  0.00     0.004 A 
BRANCH  82  84
ATOM     84  C   UNL A   1      31.363  23.996  24.050  1.00  0.00     0.074 C 
ATOM     85  C   UNL A   1      30.901  24.114  25.513  1.00  0.00     0.020 C 
ATOM     86  C   UNL A   1      32.327  22.796  23.903  1.00  0.00     0.270 C 
ATOM     87  C   UNL A   1      32.041  24.058  26.528  1.00  0.00     0.062 C 
ATOM     88  N   UNL A   1      33.457  22.848  24.838  1.00  0.00    -0.330 N 
ATOM     89  C   UNL A   1      33.027  22.923  26.241  1.00  0.00     0.262 C 
ATOM     90  H   UNL A   1      33.946  23.722  24.649  1.00  0.00     0.348 HD
BRANCH  88  91
ATOM     91  C   UNL A   1      34.432  21.770  24.601  1.00  0.00     0.310 C 
BRANCH  91  92
ATOM     92  C   UNL A   1      35.848  22.101  24.972  1.00  0.00     0.059 A 
ATOM     93  C   UNL A   1      36.385  23.309  25.367  1.00  0.00     0.022 A 
ATOM     94  S   UNL A   1      37.041  20.875  24.926  1.00  0.00    -0.134 S 
ATOM     95  C   UNL A   1      37.764  23.203  25.697  1.00  0.00     0.022 A 
ATOM     96  C   UNL A   1      38.215  21.899  25.630  1.00  0.00     0.059 A 
BRANCH  96  97
ATOM     97  C   UNL A   1      39.535  21.338  26.075  1.00  0.00     0.310 C 
BRANCH  97  98
ATOM     98  N   UNL A   1      40.506  22.326  26.568  1.00  0.00    -0.331 N 
ATOM     99  C   UNL A   1      41.734  22.441  25.772  1.00  0.00     0.262 C 
ATOM    100  C   UNL A   1      40.910  22.153  27.965  1.00  0.00     0.262 C 
ATOM    101  H   UNL A   1      39.962  23.184  26.476  1.00  0.00     0.348 HD
ATOM    102  C   UNL A   1      42.812  21.691  26.532  1.00  0.00     0.067 C 
ATOM    103  C   UNL A   1      42.395  21.809  27.983  1.00  0.00     0.067 C 
ENDBRANCH  97  98
ENDBRANCH  96  97
ENDBRANCH  91  92
ENDBRANCH  88  91
ENDBRANCH  82  84
ENDBRANCH  75  78
ENDBRANCH  73  74
ENDBRANCH   1  73
TORSDOF 19
ENDMDL
MODEL 3
REMARK VINA RESULT:     -11.4      5.646     12.292
REMARK SMILES O=C(NCCCCNC(=O)c1cccc([C@@H]2CCC[N@@H+](Cc3ccc(C[NH+]4CCCC4)s3)C2)c1)c1ccc(-c2c3nc(c(-c4cccc(S(=O)(=O)[O-])c4F)c4ccc([nH]4)c(-c4cccc(S(=O)(=O)[O-])c4F)c4nc(c(-c5cccc(S(=O)(=O)[O-])c5F)c5ccc2[nH]5)C=C4)C=C3)cc1
REMARK SMILES IDX 6 1 5 2 4 3 3 4 1 5 2 6 35 8 36 9 97 10 37 11 96 12 38 13
REMARK SMILES IDX 39 14 40 15 90 16 41 17 95 18 89 19 91 20 42 21 94 22 88 23
REMARK SMILES IDX 87 24 43 26 75 27 55 28 74 29 56 30 59 31 73 32 92 33 57 34
REMARK SMILES IDX 58 35 72 37 93 38 60 39 44 40 45 41 53 42 46 43 48 44 54 45
REMARK SMILES IDX 47 46 49 47 50 48 51 49 52 50 76 51 77 52 85 53 78 54 80 55
REMARK SMILES IDX 86 56 79 57 81 58 82 59 83 60 84 61 61 62 62 63 70 64 63 65
REMARK SMILES IDX 65 66 71 67 64 68 66 69 67 70 68 71 69 72 7 73 8 74 9 75
REMARK SMILES IDX 10 77 11 78 12 79 34 80 13 81 15 82 14 83 16 84 17 85 33 86
REMARK SMILES IDX 18 87 20 88 19 89 21 91 22 92 23 93 32 94 24 95 25 96 26 97
REMARK SMILES IDX 27 98 28 99 31 100 29 102 30 103
REMARK H PARENT 3 7 91 25 59 36 8 76 20 90 27 101
REMARK Flexibility Score: inf
ROOT
ATOM      1  C   UNL A   1      38.460  22.547  25.632  1.00  0.00     0.023 C 
ENDROOT
BRANCH   1   2
ATOM      2  C   UNL A   1      38.819  21.080  25.429  1.00  0.00     0.023 C 
BRANCH   2   3
ATOM      3  C   UNL A   1      39.534  20.427  26.605  1.00  0.00     0.116 C 
BRANCH   3   4
ATOM      4  N   UNL A   1      40.493  19.406  26.201  1.00  0.00    -0.352 N 
ATOM      5  O   UNL A   1      42.459  18.564  25.484  1.00  0.00    -0.269 OA
ATOM      6  C   UNL A   1      41.842  19.520  25.943  1.00  0.00     0.251 C 
ATOM      7  H   UNL A   1      40.122  18.500  26.098  1.00  0.00     0.163 HD
BRANCH   6   8
ATOM      8  C   UNL A   1      42.523  20.813  26.177  1.00  0.00     0.039 A 
ATOM      9  C   UNL A   1      42.838  21.219  27.475  1.00  0.00     0.014 A 
ATOM     10  C   UNL A   1      42.805  21.651  25.096  1.00  0.00     0.014 A 
ATOM     11  C   UNL A   1      43.223  22.533  27.708  1.00  0.00     0.010 A 
ATOM     12  C   UNL A   1      43.307  22.936  25.327  1.00  0.00     0.010 A 
ATOM     13  C   UNL A   1      43.463  23.411  26.639  1.00  0.00    -0.014 A 
BRANCH  13  14
ATOM     14  C   UNL A   1      43.902  24.803  26.926  1.00  0.00     0.031 A 
ATOM     15  C   UNL A   1      42.972  25.808  27.557  1.00  0.00     0.074 A 
ATOM     16  C   UNL A   1      45.169  25.158  26.632  1.00  0.00     0.049 A 
ATOM     17  N   UNL A   1      43.215  27.044  27.912  1.00  0.00    -0.248 NA
ATOM     18  C   UNL A   1      41.588  25.376  27.814  1.00  0.00     0.031 C 
ATOM     19  C   UNL A   1      46.159  24.288  25.991  1.00  0.00     0.029 A 
ATOM     20  N   UNL A   1      45.845  26.334  26.834  1.00  0.00    -0.354 N 
ATOM     21  C   UNL A   1      42.010  27.554  28.384  1.00  0.00     0.074 A 
ATOM     22  C   UNL A   1      41.033  26.493  28.265  1.00  0.00     0.031 C 
ATOM     23  C   UNL A   1      47.324  24.943  25.891  1.00  0.00     0.029 A 
ATOM     24  C   UNL A   1      47.149  26.299  26.399  1.00  0.00     0.049 A 
ATOM     25  H   UNL A   1      45.437  27.126  27.252  1.00  0.00     0.167 HD
ATOM     26  C   UNL A   1      41.743  28.789  28.878  1.00  0.00     0.034 A 
ATOM     27  C   UNL A   1      48.099  27.252  26.390  1.00  0.00     0.034 A 
ATOM     28  C   UNL A   1      42.727  29.830  29.023  1.00  0.00     0.049 A 
ATOM     29  C   UNL A   1      47.778  28.604  26.957  1.00  0.00     0.074 A 
ATOM     30  C   UNL A   1      42.571  31.088  29.582  1.00  0.00     0.029 A 
ATOM     31  N   UNL A   1      44.042  29.747  28.595  1.00  0.00    -0.354 N 
ATOM     32  N   UNL A   1      46.666  29.025  27.510  1.00  0.00    -0.248 NA
ATOM     33  C   UNL A   1      48.852  29.605  26.927  1.00  0.00     0.031 C 
ATOM     34  C   UNL A   1      43.781  31.780  29.450  1.00  0.00     0.029 A 
ATOM     35  C   UNL A   1      44.705  30.934  28.859  1.00  0.00     0.049 A 
ATOM     36  H   UNL A   1      44.447  28.958  28.166  1.00  0.00     0.167 HD
ATOM     37  C   UNL A   1      46.922  30.323  27.935  1.00  0.00     0.074 A 
ATOM     38  C   UNL A   1      48.298  30.613  27.587  1.00  0.00     0.031 C 
ATOM     39  C   UNL A   1      46.089  31.196  28.552  1.00  0.00     0.034 A 
BRANCH  26  40
ATOM     40  C   UNL A   1      40.326  29.086  29.308  1.00  0.00     0.023 A 
ATOM     41  C   UNL A   1      39.367  29.488  28.357  1.00  0.00     0.012 A 
ATOM     42  C   UNL A   1      39.933  28.911  30.651  1.00  0.00     0.148 A 
ATOM     43  C   UNL A   1      38.051  29.752  28.741  1.00  0.00     0.002 A 
ATOM     44  C   UNL A   1      38.609  29.128  31.017  1.00  0.00     0.091 A 
ATOM     45  F   UNL A   1      40.860  28.544  31.547  1.00  0.00    -0.205 F 
ATOM     46  C   UNL A   1      37.671  29.562  30.067  1.00  0.00     0.022 A 
BRANCH  44  47
ATOM     47  S   UNL A   1      38.003  28.828  32.682  1.00  0.00     0.127 S 
ATOM     48  O   UNL A   1      38.133  27.376  32.785  1.00  0.00    -0.237 OA
ATOM     49  O   UNL A   1      38.955  29.584  33.497  1.00  0.00    -0.237 OA
ATOM     50  O   UNL A   1      36.641  29.339  32.711  1.00  0.00    -0.744 OA
ENDBRANCH  44  47
ENDBRANCH  26  40
BRANCH  27  51
ATOM     51  C   UNL A   1      49.458  26.939  25.870  1.00  0.00     0.023 A 
ATOM     52  C   UNL A   1      50.368  26.239  26.686  1.00  0.00     0.012 A 
ATOM     53  C   UNL A   1      49.843  27.301  24.565  1.00  0.00     0.148 A 
ATOM     54  C   UNL A   1      51.647  25.932  26.222  1.00  0.00     0.002 A 
ATOM     55  C   UNL A   1      51.096  26.941  24.089  1.00  0.00     0.091 A 
ATOM     56  F   UNL A   1      48.962  27.972  23.808  1.00  0.00    -0.205 F 
ATOM     57  C   UNL A   1      52.008  26.275  24.922  1.00  0.00     0.022 A 
BRANCH  55  58
ATOM     58  S   UNL A   1      51.599  27.221  22.387  1.00  0.00     0.127 S 
ATOM     59  O   UNL A   1      52.831  26.441  22.308  1.00  0.00    -0.237 OA
ATOM     60  O   UNL A   1      50.468  26.665  21.645  1.00  0.00    -0.237 OA
ATOM     61  O   UNL A   1      51.757  28.663  22.254  1.00  0.00    -0.744 OA
ENDBRANCH  55  58
ENDBRANCH  27  51
BRANCH  39  62
ATOM     62  C   UNL A   1      46.659  32.532  28.957  1.00  0.00     0.023 A 
ATOM     63  C   UNL A   1      47.328  32.679  30.187  1.00  0.00     0.012 A 
ATOM     64  C   UNL A   1      46.570  33.635  28.083  1.00  0.00     0.148 A 
ATOM     65  C   UNL A   1      47.863  33.912  30.561  1.00  0.00     0.002 A 
ATOM     66  C   UNL A   1      47.154  34.844  28.437  1.00  0.00     0.091 A 
ATOM     67  F   UNL A   1      45.911  33.482  26.925  1.00  0.00    -0.205 F 
ATOM     68  C   UNL A   1      47.785  34.990  29.682  1.00  0.00     0.022 A 
BRANCH  66  69
ATOM     69  S   UNL A   1      47.193  36.252  27.323  1.00  0.00     0.127 S 
ATOM     70  O   UNL A   1      47.956  37.227  28.102  1.00  0.00    -0.237 OA
ATOM     71  O   UNL A   1      47.901  35.711  26.163  1.00  0.00    -0.237 OA
ATOM     72  O   UNL A   1      45.803  36.604  27.071  1.00  0.00    -0.744 OA
ENDBRANCH  66  69
ENDBRANCH  39  62
ENDBRANCH  13  14
ENDBRANCH   6   8
ENDBRANCH   3   4
ENDBRANCH   2   3
ENDBRANCH   1   2
BRANCH   1  73
ATOM     73  C   UNL A   1      36.989  22.882  25.413  1.00  0.00     0.116 C 
BRANCH  73  74
ATOM     74  N   UNL A   1      36.222  22.919  26.652  1.00  0.00    -0.352 N 
ATOM     75  C   UNL A   1      34.933  22.491  26.881  1.00  0.00     0.251 C 
ATOM     76  H   UNL A   1      36.689  23.302  27.429  1.00  0.00     0.163 HD
ATOM     77  O   UNL A   1      34.376  22.722  27.946  1.00  0.00    -0.269 OA
BRANCH  75  78
ATOM     78  C   UNL A   1      34.218  21.740  25.826  1.00  0.00     0.040 A 
ATOM     79  C   UNL A   1      34.150  20.352  25.866  1.00  0.00     0.014 A 
ATOM     80  C   UNL A   1      33.602  22.438  24.786  1.00  0.00     0.018 A 
ATOM     81  C   UNL A   1      33.398  19.680  24.901  1.00  0.00     0.001 A 
ATOM     82  C   UNL A   1      32.817  21.792  23.828  1.00  0.00    -0.039 A 
ATOM     83  C   UNL A   1      32.722  20.395  23.902  1.00  0.00     0.004 A 
BRANCH  82  84
ATOM     84  C   UNL A   1      32.027  22.579  22.791  1.00  0.00     0.074 C 
ATOM     85  C   UNL A   1      32.896  23.350  21.782  1.00  0.00     0.020 C 
ATOM     86  C   UNL A   1      30.999  23.539  23.434  1.00  0.00     0.270 C 
ATOM     87  C   UNL A   1      33.470  24.655  22.331  1.00  0.00     0.062 C 
ATOM     88  N   UNL A   1      31.619  24.728  24.032  1.00  0.00    -0.330 N 
ATOM     89  C   UNL A   1      32.422  25.492  23.068  1.00  0.00     0.262 C 
ATOM     90  H   UNL A   1      32.276  24.387  24.734  1.00  0.00     0.348 HD
BRANCH  88  91
ATOM     91  C   UNL A   1      30.646  25.567  24.751  1.00  0.00     0.310 C 
BRANCH  91  92
ATOM     92  C   UNL A   1      30.607  27.006  24.324  1.00  0.00     0.059 A 
ATOM     93  C   UNL A   1      31.250  28.095  24.877  1.00  0.00     0.022 A 
ATOM     94  S   UNL A   1      29.660  27.461  22.974  1.00  0.00    -0.134 S 
ATOM     95  C   UNL A   1      31.012  29.289  24.142  1.00  0.00     0.022 A 
ATOM     96  C   UNL A   1      30.269  29.058  23.001  1.00  0.00     0.059 A 
BRANCH  96  97
ATOM     97  C   UNL A   1      29.963  30.000  21.871  1.00  0.00     0.310 C 
BRANCH  97  98
ATOM     98  N   UNL A   1      28.593  30.533  21.849  1.00  0.00    -0.331 N 
ATOM     99  C   UNL A   1      28.490  31.968  21.562  1.00  0.00     0.262 C 
ATOM    100  C   UNL A   1      27.810  30.276  23.060  1.00  0.00     0.262 C 
ATOM    101  H   UNL A   1      28.199  30.003  21.072  1.00  0.00     0.348 HD
ATOM    102  C   UNL A   1      28.241  32.657  22.891  1.00  0.00     0.067 C 
ATOM    103  C   UNL A   1      27.511  31.618  23.717  1.00  0.00     0.067 C 
ENDBRANCH  97  98
ENDBRANCH  96  97
ENDBRANCH  91  92
ENDBRANCH  88  91
ENDBRANCH  82  84
ENDBRANCH  75  78
ENDBRANCH  73  74
ENDBRANCH   1  73
TORSDOF 19
ENDMDL
