MODEL 1
REMARK VINA RESULT:     -11.6      0.000      0.000
REMARK SMILES CCC[C@@H](C(=O)N1CC[C@@](C)(C(=O)NCCCCNC(=O)c2ccc(-c3c4nc(c(-c5cccc(S(=O)(=O)[O-])c5F)c5ccc([nH]5)c(-c5cccc(S(=O)(=O)[O-])c5F)c5nc(c(-c6cccc(S(=O)(=O)[O-])c6F)c6ccc3[nH]6)C=C5)C=C4)cc2)C1)c1ccccc1
REMARK SMILES IDX 16 1 15 2 14 3 12 4 13 5 10 7 7 8 8 9 85 10 9 11 11 12 5 13
REMARK SMILES IDX 6 14 4 15 3 16 2 17 1 18 86 19 87 20 91 21 88 22 90 23 89 24
REMARK SMILES IDX 17 25 18 26 19 27 20 28 21 30 22 31 23 32 84 33 24 34 83 35
REMARK SMILES IDX 25 36 26 37 27 38 77 39 28 40 82 41 76 42 78 43 29 44 81 45
REMARK SMILES IDX 75 46 74 47 30 49 62 50 42 51 61 52 43 53 46 54 60 55 79 56
REMARK SMILES IDX 44 57 45 58 59 60 80 61 47 62 31 63 32 64 40 65 33 66 35 67
REMARK SMILES IDX 41 68 34 69 36 70 37 71 38 72 39 73 63 74 64 75 72 76 65 77
REMARK SMILES IDX 67 78 73 79 66 80 68 81 69 82 70 83 71 84 48 85 49 86 57 87
REMARK SMILES IDX 50 88 52 89 58 90 51 91 53 92 54 93 55 94 56 95
REMARK H PARENT 14 6 19 29 78 48 46 59
REMARK Flexibility Score: inf
ROOT
ATOM      1  C   UNL A   1      32.957  28.947  22.995  1.00  0.00     0.023 C 
ENDROOT
BRANCH   1   2
ATOM      2  C   UNL A   1      31.882  27.935  22.605  1.00  0.00     0.116 C 
BRANCH   2   3
ATOM      3  N   UNL A   1      32.398  26.998  21.634  1.00  0.00    -0.356 N 
ATOM      4  C   UNL A   1      32.744  25.690  21.737  1.00  0.00     0.227 C 
ATOM      5  O   UNL A   1      33.271  25.203  20.733  1.00  0.00    -0.274 OA
ATOM      6  H   UNL A   1      32.521  27.377  20.734  1.00  0.00     0.163 HD
BRANCH   4   7
ATOM      7  C   UNL A   1      32.393  24.835  22.970  1.00  0.00     0.066 C 
ATOM      8  N   UNL A   1      33.970  23.082  23.569  1.00  0.00    -0.341 N 
ATOM      9  C   UNL A   1      34.387  24.303  24.225  1.00  0.00     0.120 C 
ATOM     10  C   UNL A   1      32.831  23.373  22.712  1.00  0.00     0.136 C 
ATOM     11  C   UNL A   1      33.139  25.170  24.270  1.00  0.00     0.040 C 
ATOM     12  C   UNL A   1      30.867  24.874  23.157  1.00  0.00     0.024 C 
BRANCH   8  13
ATOM     13  C   UNL A   1      33.973  21.880  24.266  1.00  0.00     0.230 C 
ATOM     14  O   UNL A   1      35.033  21.359  24.614  1.00  0.00    -0.274 OA
BRANCH  13  15
ATOM     15  C   UNL A   1      32.577  21.214  24.458  1.00  0.00     0.108 C 
BRANCH  15  16
ATOM     16  C   UNL A   1      31.896  21.543  25.814  1.00  0.00     0.018 C 
BRANCH  16  17
ATOM     17  C   UNL A   1      32.429  22.662  26.714  1.00  0.00    -0.002 C 
ATOM     18  C   UNL A   1      33.278  22.202  27.887  1.00  0.00     0.004 C 
ENDBRANCH  16  17
ENDBRANCH  15  16
BRANCH  15  19
ATOM     19  C   UNL A   1      32.665  19.684  24.208  1.00  0.00    -0.036 A 
ATOM     20  C   UNL A   1      32.906  18.821  25.294  1.00  0.00     0.004 A 
ATOM     21  C   UNL A   1      32.539  19.095  22.935  1.00  0.00     0.004 A 
ATOM     22  C   UNL A   1      33.010  17.437  25.113  1.00  0.00     0.000 A 
ATOM     23  C   UNL A   1      32.671  17.716  22.751  1.00  0.00     0.000 A 
ATOM     24  C   UNL A   1      32.902  16.885  23.840  1.00  0.00     0.000 A 
ENDBRANCH  15  19
ENDBRANCH  13  15
ENDBRANCH   8  13
ENDBRANCH   4   7
ENDBRANCH   2   3
ENDBRANCH   1   2
BRANCH   1  25
ATOM     25  C   UNL A   1      34.078  28.374  23.864  1.00  0.00     0.023 C 
BRANCH  25  26
ATOM     26  C   UNL A   1      34.014  28.753  25.338  1.00  0.00     0.116 C 
BRANCH  26  27
ATOM     27  N   UNL A   1      33.170  29.913  25.591  1.00  0.00    -0.352 N 
ATOM     28  C   UNL A   1      33.243  30.815  26.628  1.00  0.00     0.251 C 
ATOM     29  H   UNL A   1      32.455  30.074  24.935  1.00  0.00     0.163 HD
ATOM     30  O   UNL A   1      32.389  31.679  26.766  1.00  0.00    -0.269 OA
BRANCH  28  31
ATOM     31  C   UNL A   1      34.355  30.691  27.590  1.00  0.00     0.039 A 
ATOM     32  C   UNL A   1      34.446  29.539  28.374  1.00  0.00     0.014 A 
ATOM     33  C   UNL A   1      35.343  31.677  27.647  1.00  0.00     0.014 A 
ATOM     34  C   UNL A   1      35.580  29.335  29.160  1.00  0.00     0.010 A 
ATOM     35  C   UNL A   1      36.498  31.442  28.380  1.00  0.00     0.010 A 
ATOM     36  C   UNL A   1      36.632  30.264  29.133  1.00  0.00    -0.014 A 
BRANCH  36  37
ATOM     37  C   UNL A   1      37.909  30.014  29.846  1.00  0.00     0.031 A 
ATOM     38  C   UNL A   1      38.931  29.088  29.254  1.00  0.00     0.074 A 
ATOM     39  C   UNL A   1      38.088  30.527  31.079  1.00  0.00     0.049 A 
ATOM     40  N   UNL A   1      40.058  28.670  29.768  1.00  0.00    -0.248 NA
ATOM     41  C   UNL A   1      38.634  28.535  27.922  1.00  0.00     0.031 C 
ATOM     42  C   UNL A   1      37.132  31.382  31.788  1.00  0.00     0.029 A 
ATOM     43  N   UNL A   1      39.122  30.378  31.969  1.00  0.00    -0.354 N 
ATOM     44  C   UNL A   1      40.585  27.777  28.844  1.00  0.00     0.074 A 
ATOM     45  C   UNL A   1      39.641  27.691  27.750  1.00  0.00     0.031 C 
ATOM     46  C   UNL A   1      37.628  31.687  32.998  1.00  0.00     0.029 A 
ATOM     47  C   UNL A   1      38.917  31.024  33.166  1.00  0.00     0.049 A 
ATOM     48  H   UNL A   1      39.933  29.857  31.770  1.00  0.00     0.167 HD
ATOM     49  C   UNL A   1      41.764  27.112  28.886  1.00  0.00     0.034 A 
ATOM     50  C   UNL A   1      39.680  31.073  34.275  1.00  0.00     0.034 A 
ATOM     51  C   UNL A   1      42.720  27.241  29.951  1.00  0.00     0.049 A 
ATOM     52  C   UNL A   1      40.992  30.337  34.290  1.00  0.00     0.074 A 
ATOM     53  C   UNL A   1      43.990  26.699  30.038  1.00  0.00     0.029 A 
ATOM     54  N   UNL A   1      42.509  27.956  31.120  1.00  0.00    -0.354 N 
ATOM     55  N   UNL A   1      41.555  29.634  33.336  1.00  0.00    -0.248 NA
ATOM     56  C   UNL A   1      41.787  30.420  35.523  1.00  0.00     0.031 C 
ATOM     57  C   UNL A   1      44.540  27.072  31.269  1.00  0.00     0.029 A 
ATOM     58  C   UNL A   1      43.616  27.855  31.944  1.00  0.00     0.049 A 
ATOM     59  H   UNL A   1      41.691  28.461  31.333  1.00  0.00     0.167 HD
ATOM     60  C   UNL A   1      42.781  29.220  33.840  1.00  0.00     0.074 A 
ATOM     61  C   UNL A   1      42.888  29.764  35.179  1.00  0.00     0.031 C 
ATOM     62  C   UNL A   1      43.728  28.446  33.254  1.00  0.00     0.034 A 
BRANCH  49  63
ATOM     63  C   UNL A   1      42.106  26.234  27.713  1.00  0.00     0.023 A 
ATOM     64  C   UNL A   1      42.793  26.786  26.612  1.00  0.00     0.012 A 
ATOM     65  C   UNL A   1      41.780  24.864  27.707  1.00  0.00     0.148 A 
ATOM     66  C   UNL A   1      43.116  25.999  25.508  1.00  0.00     0.002 A 
ATOM     67  C   UNL A   1      42.142  24.076  26.620  1.00  0.00     0.091 A 
ATOM     68  F   UNL A   1      41.102  24.361  28.748  1.00  0.00    -0.205 F 
ATOM     69  C   UNL A   1      42.799  24.644  25.516  1.00  0.00     0.022 A 
BRANCH  67  70
ATOM     70  S   UNL A   1      41.836  22.307  26.576  1.00  0.00     0.127 S 
ATOM     71  O   UNL A   1      42.482  21.925  25.322  1.00  0.00    -0.237 OA
ATOM     72  O   UNL A   1      42.523  21.840  27.782  1.00  0.00    -0.237 OA
ATOM     73  O   UNL A   1      40.388  22.158  26.615  1.00  0.00    -0.744 OA
ENDBRANCH  67  70
ENDBRANCH  49  63
BRANCH  50  74
ATOM     74  C   UNL A   1      39.261  31.916  35.429  1.00  0.00     0.023 A 
ATOM     75  C   UNL A   1      39.568  33.291  35.414  1.00  0.00     0.012 A 
ATOM     76  C   UNL A   1      38.530  31.387  36.510  1.00  0.00     0.148 A 
ATOM     77  C   UNL A   1      39.172  34.120  36.463  1.00  0.00     0.002 A 
ATOM     78  C   UNL A   1      38.097  32.229  37.529  1.00  0.00     0.091 A 
ATOM     79  F   UNL A   1      38.259  30.074  36.513  1.00  0.00    -0.205 F 
ATOM     80  C   UNL A   1      38.429  33.593  37.515  1.00  0.00     0.022 A 
BRANCH  78  81
ATOM     81  S   UNL A   1      37.027  31.664  38.858  1.00  0.00     0.127 S 
ATOM     82  O   UNL A   1      36.820  30.264  38.501  1.00  0.00    -0.237 OA
ATOM     83  O   UNL A   1      37.868  31.882  40.036  1.00  0.00    -0.237 OA
ATOM     84  O   UNL A   1      35.848  32.517  38.800  1.00  0.00    -0.744 OA
ENDBRANCH  78  81
ENDBRANCH  50  74
BRANCH  62  85
ATOM     85  C   UNL A   1      44.975  28.151  34.043  1.00  0.00     0.023 A 
ATOM     86  C   UNL A   1      46.061  29.048  33.986  1.00  0.00     0.012 A 
ATOM     87  C   UNL A   1      45.038  27.039  34.905  1.00  0.00     0.148 A 
ATOM     88  C   UNL A   1      47.200  28.830  34.760  1.00  0.00     0.002 A 
ATOM     89  C   UNL A   1      46.160  26.853  35.706  1.00  0.00     0.091 A 
ATOM     90  F   UNL A   1      44.002  26.188  34.930  1.00  0.00    -0.205 F 
ATOM     91  C   UNL A   1      47.244  27.742  35.628  1.00  0.00     0.022 A 
BRANCH  89  92
ATOM     92  S   UNL A   1      46.267  25.533  36.920  1.00  0.00     0.127 S 
ATOM     93  O   UNL A   1      46.249  24.344  36.070  1.00  0.00    -0.237 OA
ATOM     94  O   UNL A   1      47.554  25.804  37.562  1.00  0.00    -0.237 OA
ATOM     95  O   UNL A   1      45.111  25.695  37.792  1.00  0.00    -0.744 OA
ENDBRANCH  89  92
ENDBRANCH  62  85
ENDBRANCH  36  37
ENDBRANCH  28  31
ENDBRANCH  26  27
ENDBRANCH  25  26
ENDBRANCH   1  25
TORSDOF 19
ENDMDL
MODEL 2
REMARK VINA RESULT:     -11.4      1.361      7.773
REMARK SMILES CCC[C@@H](C(=O)N1CC[C@@](C)(C(=O)NCCCCNC(=O)c2ccc(-c3c4nc(c(-c5cccc(S(=O)(=O)[O-])c5F)c5ccc([nH]5)c(-c5cccc(S(=O)(=O)[O-])c5F)c5nc(c(-c6cccc(S(=O)(=O)[O-])c6F)c6ccc3[nH]6)C=C5)C=C4)cc2)C1)c1ccccc1
REMARK SMILES IDX 16 1 15 2 14 3 12 4 13 5 10 7 7 8 8 9 85 10 9 11 11 12 5 13
REMARK SMILES IDX 6 14 4 15 3 16 2 17 1 18 86 19 87 20 91 21 88 22 90 23 89 24
REMARK SMILES IDX 17 25 18 26 19 27 20 28 21 30 22 31 23 32 84 33 24 34 83 35
REMARK SMILES IDX 25 36 26 37 27 38 77 39 28 40 82 41 76 42 78 43 29 44 81 45
REMARK SMILES IDX 75 46 74 47 30 49 62 50 42 51 61 52 43 53 46 54 60 55 79 56
REMARK SMILES IDX 44 57 45 58 59 60 80 61 47 62 31 63 32 64 40 65 33 66 35 67
REMARK SMILES IDX 41 68 34 69 36 70 37 71 38 72 39 73 63 74 64 75 72 76 65 77
REMARK SMILES IDX 67 78 73 79 66 80 68 81 69 82 70 83 71 84 48 85 49 86 57 87
REMARK SMILES IDX 50 88 52 89 58 90 51 91 53 92 54 93 55 94 56 95
REMARK H PARENT 14 6 19 29 78 48 46 59
REMARK Flexibility Score: inf
ROOT
ATOM      1  C   UNL A   1      32.355  29.140  25.509  1.00  0.00     0.023 C 
ENDROOT
BRANCH   1   2
ATOM      2  C   UNL A   1      31.300  28.039  25.433  1.00  0.00     0.116 C 
BRANCH   2   3
ATOM      3  N   UNL A   1      30.804  27.906  24.082  1.00  0.00    -0.356 N 
ATOM      4  C   UNL A   1      31.218  27.144  23.039  1.00  0.00     0.227 C 
ATOM      5  O   UNL A   1      30.642  27.356  21.968  1.00  0.00    -0.274 OA
ATOM      6  H   UNL A   1      30.024  28.472  23.882  1.00  0.00     0.163 HD
BRANCH   4   7
ATOM      7  C   UNL A   1      32.245  26.006  23.201  1.00  0.00     0.066 C 
ATOM      8  N   UNL A   1      31.522  24.054  24.459  1.00  0.00    -0.341 N 
ATOM      9  C   UNL A   1      31.151  23.857  23.074  1.00  0.00     0.120 C 
ATOM     10  C   UNL A   1      32.090  25.384  24.610  1.00  0.00     0.136 C 
ATOM     11  C   UNL A   1      32.062  24.784  22.288  1.00  0.00     0.040 C 
ATOM     12  C   UNL A   1      33.652  26.613  23.073  1.00  0.00     0.024 C 
BRANCH   8  13
ATOM     13  C   UNL A   1      32.092  23.013  25.183  1.00  0.00     0.230 C 
ATOM     14  O   UNL A   1      32.148  23.060  26.412  1.00  0.00    -0.274 OA
BRANCH  13  15
ATOM     15  C   UNL A   1      32.739  21.880  24.329  1.00  0.00     0.108 C 
BRANCH  15  16
ATOM     16  C   UNL A   1      32.303  20.448  24.739  1.00  0.00     0.018 C 
BRANCH  16  17
ATOM     17  C   UNL A   1      32.963  19.213  24.119  1.00  0.00    -0.002 C 
ATOM     18  C   UNL A   1      32.277  18.663  22.880  1.00  0.00     0.004 C 
ENDBRANCH  16  17
ENDBRANCH  15  16
BRANCH  15  19
ATOM     19  C   UNL A   1      34.284  22.032  24.304  1.00  0.00    -0.036 A 
ATOM     20  C   UNL A   1      35.059  21.352  25.263  1.00  0.00     0.004 A 
ATOM     21  C   UNL A   1      34.971  22.843  23.380  1.00  0.00     0.004 A 
ATOM     22  C   UNL A   1      36.454  21.473  25.288  1.00  0.00     0.000 A 
ATOM     23  C   UNL A   1      36.361  22.986  23.424  1.00  0.00     0.000 A 
ATOM     24  C   UNL A   1      37.104  22.298  24.375  1.00  0.00     0.000 A 
ENDBRANCH  15  19
ENDBRANCH  13  15
ENDBRANCH   8  13
ENDBRANCH   4   7
ENDBRANCH   2   3
ENDBRANCH   1   2
BRANCH   1  25
ATOM     25  C   UNL A   1      31.819  30.498  25.965  1.00  0.00     0.023 C 
BRANCH  25  26
ATOM     26  C   UNL A   1      32.416  31.028  27.263  1.00  0.00     0.116 C 
BRANCH  26  27
ATOM     27  N   UNL A   1      32.612  32.471  27.252  1.00  0.00    -0.352 N 
ATOM     28  C   UNL A   1      33.714  33.188  27.660  1.00  0.00     0.251 C 
ATOM     29  H   UNL A   1      31.859  33.004  26.909  1.00  0.00     0.163 HD
ATOM     30  O   UNL A   1      33.687  34.410  27.693  1.00  0.00    -0.269 OA
BRANCH  28  31
ATOM     31  C   UNL A   1      34.915  32.448  28.090  1.00  0.00     0.039 A 
ATOM     32  C   UNL A   1      36.119  33.140  28.239  1.00  0.00     0.014 A 
ATOM     33  C   UNL A   1      34.820  31.095  28.423  1.00  0.00     0.014 A 
ATOM     34  C   UNL A   1      37.215  32.490  28.805  1.00  0.00     0.010 A 
ATOM     35  C   UNL A   1      35.893  30.469  29.045  1.00  0.00     0.010 A 
ATOM     36  C   UNL A   1      37.095  31.164  29.252  1.00  0.00    -0.014 A 
BRANCH  36  37
ATOM     37  C   UNL A   1      38.194  30.488  29.983  1.00  0.00     0.031 A 
ATOM     38  C   UNL A   1      38.504  30.873  31.400  1.00  0.00     0.074 A 
ATOM     39  C   UNL A   1      38.986  29.616  29.326  1.00  0.00     0.049 A 
ATOM     40  N   UNL A   1      39.479  30.468  32.169  1.00  0.00    -0.248 NA
ATOM     41  C   UNL A   1      37.616  31.867  32.026  1.00  0.00     0.031 C 
ATOM     42  C   UNL A   1      38.828  29.218  27.925  1.00  0.00     0.029 A 
ATOM     43  N   UNL A   1      40.100  28.932  29.741  1.00  0.00    -0.354 N 
ATOM     44  C   UNL A   1      39.349  31.183  33.352  1.00  0.00     0.074 A 
ATOM     45  C   UNL A   1      38.216  32.069  33.190  1.00  0.00     0.031 C 
ATOM     46  C   UNL A   1      39.803  28.356  27.600  1.00  0.00     0.029 A 
ATOM     47  C   UNL A   1      40.675  28.165  28.754  1.00  0.00     0.049 A 
ATOM     48  H   UNL A   1      40.456  28.985  30.657  1.00  0.00     0.167 HD
ATOM     49  C   UNL A   1      40.086  31.089  34.484  1.00  0.00     0.034 A 
ATOM     50  C   UNL A   1      41.782  27.398  28.777  1.00  0.00     0.034 A 
ATOM     51  C   UNL A   1      41.179  30.170  34.656  1.00  0.00     0.049 A 
ATOM     52  C   UNL A   1      42.575  27.299  30.052  1.00  0.00     0.074 A 
ATOM     53  C   UNL A   1      41.918  29.917  35.797  1.00  0.00     0.029 A 
ATOM     54  N   UNL A   1      41.694  29.359  33.657  1.00  0.00    -0.354 N 
ATOM     55  N   UNL A   1      42.336  27.853  31.216  1.00  0.00    -0.248 NA
ATOM     56  C   UNL A   1      43.775  26.451  30.024  1.00  0.00     0.031 C 
ATOM     57  C   UNL A   1      42.894  28.965  35.482  1.00  0.00     0.029 A 
ATOM     58  C   UNL A   1      42.754  28.618  34.148  1.00  0.00     0.049 A 
ATOM     59  H   UNL A   1      41.356  29.318  32.733  1.00  0.00     0.167 HD
ATOM     60  C   UNL A   1      43.334  27.395  32.068  1.00  0.00     0.074 A 
ATOM     61  C   UNL A   1      44.172  26.505  31.290  1.00  0.00     0.031 C 
ATOM     62  C   UNL A   1      43.547  27.697  33.373  1.00  0.00     0.034 A 
BRANCH  49  63
ATOM     63  C   UNL A   1      39.691  31.963  35.643  1.00  0.00     0.023 A 
ATOM     64  C   UNL A   1      40.255  33.250  35.764  1.00  0.00     0.012 A 
ATOM     65  C   UNL A   1      38.745  31.532  36.593  1.00  0.00     0.148 A 
ATOM     66  C   UNL A   1      39.914  34.078  36.831  1.00  0.00     0.002 A 
ATOM     67  C   UNL A   1      38.379  32.380  37.632  1.00  0.00     0.091 A 
ATOM     68  F   UNL A   1      38.239  30.296  36.481  1.00  0.00    -0.205 F 
ATOM     69  C   UNL A   1      38.970  33.648  37.759  1.00  0.00     0.022 A 
BRANCH  67  70
ATOM     70  S   UNL A   1      37.119  31.935  38.833  1.00  0.00     0.127 S 
ATOM     71  O   UNL A   1      37.771  32.290  40.092  1.00  0.00    -0.237 OA
ATOM     72  O   UNL A   1      36.006  32.809  38.457  1.00  0.00    -0.237 OA
ATOM     73  O   UNL A   1      36.866  30.516  38.628  1.00  0.00    -0.744 OA
ENDBRANCH  67  70
ENDBRANCH  49  63
BRANCH  50  74
ATOM     74  C   UNL A   1      42.156  26.597  27.578  1.00  0.00     0.023 A 
ATOM     75  C   UNL A   1      42.869  27.225  26.536  1.00  0.00     0.012 A 
ATOM     76  C   UNL A   1      41.858  25.225  27.476  1.00  0.00     0.148 A 
ATOM     77  C   UNL A   1      43.259  26.507  25.407  1.00  0.00     0.002 A 
ATOM     78  C   UNL A   1      42.293  24.504  26.369  1.00  0.00     0.091 A 
ATOM     79  F   UNL A   1      41.168  24.649  28.471  1.00  0.00    -0.205 F 
ATOM     80  C   UNL A   1      42.981  25.145  25.327  1.00  0.00     0.022 A 
BRANCH  78  81
ATOM     81  S   UNL A   1      42.092  22.722  26.239  1.00  0.00     0.127 S 
ATOM     82  O   UNL A   1      40.640  22.581  26.278  1.00  0.00    -0.237 OA
ATOM     83  O   UNL A   1      42.705  22.444  24.939  1.00  0.00    -0.237 OA
ATOM     84  O   UNL A   1      42.816  22.164  27.373  1.00  0.00    -0.744 OA
ENDBRANCH  78  81
ENDBRANCH  50  74
BRANCH  62  85
ATOM     85  C   UNL A   1      44.721  27.048  34.056  1.00  0.00     0.023 A 
ATOM     86  C   UNL A   1      45.990  27.656  33.982  1.00  0.00     0.012 A 
ATOM     87  C   UNL A   1      44.551  25.892  34.842  1.00  0.00     0.148 A 
ATOM     88  C   UNL A   1      47.078  27.110  34.662  1.00  0.00     0.002 A 
ATOM     89  C   UNL A   1      45.630  25.378  35.552  1.00  0.00     0.091 A 
ATOM     90  F   UNL A   1      43.340  25.319  34.883  1.00  0.00    -0.205 F 
ATOM     91  C   UNL A   1      46.895  25.980  35.456  1.00  0.00     0.022 A 
BRANCH  89  92
ATOM     92  S   UNL A   1      45.469  23.983  36.672  1.00  0.00     0.127 S 
ATOM     93  O   UNL A   1      44.589  24.529  37.704  1.00  0.00    -0.237 OA
ATOM     94  O   UNL A   1      44.851  22.968  35.819  1.00  0.00    -0.237 OA
ATOM     95  O   UNL A   1      46.821  23.662  37.110  1.00  0.00    -0.744 OA
ENDBRANCH  89  92
ENDBRANCH  62  85
ENDBRANCH  36  37
ENDBRANCH  28  31
ENDBRANCH  26  27
ENDBRANCH  25  26
ENDBRANCH   1  25
TORSDOF 19
ENDMDL
MODEL 3
REMARK VINA RESULT:     -11.3      5.220      8.225
REMARK SMILES CCC[C@@H](C(=O)N1CC[C@@](C)(C(=O)NCCCCNC(=O)c2ccc(-c3c4nc(c(-c5cccc(S(=O)(=O)[O-])c5F)c5ccc([nH]5)c(-c5cccc(S(=O)(=O)[O-])c5F)c5nc(c(-c6cccc(S(=O)(=O)[O-])c6F)c6ccc3[nH]6)C=C5)C=C4)cc2)C1)c1ccccc1
REMARK SMILES IDX 16 1 15 2 14 3 12 4 13 5 10 7 7 8 8 9 85 10 9 11 11 12 5 13
REMARK SMILES IDX 6 14 4 15 3 16 2 17 1 18 86 19 87 20 91 21 88 22 90 23 89 24
REMARK SMILES IDX 17 25 18 26 19 27 20 28 21 30 22 31 23 32 84 33 24 34 83 35
REMARK SMILES IDX 25 36 26 37 27 38 77 39 28 40 82 41 76 42 78 43 29 44 81 45
REMARK SMILES IDX 75 46 74 47 30 49 62 50 42 51 61 52 43 53 46 54 60 55 79 56
REMARK SMILES IDX 44 57 45 58 59 60 80 61 47 62 31 63 32 64 40 65 33 66 35 67
REMARK SMILES IDX 41 68 34 69 36 70 37 71 38 72 39 73 63 74 64 75 72 76 65 77
REMARK SMILES IDX 67 78 73 79 66 80 68 81 69 82 70 83 71 84 48 85 49 86 57 87
REMARK SMILES IDX 50 88 52 89 58 90 51 91 53 92 54 93 55 94 56 95
REMARK H PARENT 14 6 19 29 78 48 46 59
REMARK Flexibility Score: inf
ROOT
ATOM      1  C   UNL A   1      35.833  20.825  24.972  1.00  0.00     0.023 C 
ENDROOT
BRANCH   1   2
ATOM      2  C   UNL A   1      34.310  20.827  25.082  1.00  0.00     0.116 C 
BRANCH   2   3
ATOM      3  N   UNL A   1      33.901  21.150  26.430  1.00  0.00    -0.356 N 
ATOM      4  C   UNL A   1      33.152  22.166  26.927  1.00  0.00     0.227 C 
ATOM      5  O   UNL A   1      33.088  22.221  28.159  1.00  0.00    -0.274 OA
ATOM      6  H   UNL A   1      34.226  20.519  27.112  1.00  0.00     0.163 HD
BRANCH   4   7
ATOM      7  C   UNL A   1      32.336  23.111  26.025  1.00  0.00     0.066 C 
ATOM      8  N   UNL A   1      32.545  25.495  26.467  1.00  0.00    -0.341 N 
ATOM      9  C   UNL A   1      33.593  25.117  25.544  1.00  0.00     0.120 C 
ATOM     10  C   UNL A   1      31.821  24.300  26.873  1.00  0.00     0.136 C 
ATOM     11  C   UNL A   1      33.108  23.826  24.905  1.00  0.00     0.040 C 
ATOM     12  C   UNL A   1      31.131  22.327  25.480  1.00  0.00     0.024 C 
BRANCH   8  13
ATOM     13  C   UNL A   1      31.816  26.660  26.255  1.00  0.00     0.230 C 
ATOM     14  O   UNL A   1      31.039  27.078  27.114  1.00  0.00    -0.274 OA
BRANCH  13  15
ATOM     15  C   UNL A   1      31.972  27.298  24.842  1.00  0.00     0.108 C 
BRANCH  15  16
ATOM     16  C   UNL A   1      32.946  28.506  24.794  1.00  0.00     0.018 C 
BRANCH  16  17
ATOM     17  C   UNL A   1      34.176  28.493  23.882  1.00  0.00    -0.002 C 
ATOM     18  C   UNL A   1      33.881  28.552  22.393  1.00  0.00     0.004 C 
ENDBRANCH  16  17
ENDBRANCH  15  16
BRANCH  15  19
ATOM     19  C   UNL A   1      30.581  27.650  24.247  1.00  0.00    -0.036 A 
ATOM     20  C   UNL A   1      29.570  26.669  24.232  1.00  0.00     0.004 A 
ATOM     21  C   UNL A   1      30.268  28.904  23.689  1.00  0.00     0.004 A 
ATOM     22  C   UNL A   1      28.307  26.936  23.691  1.00  0.00     0.000 A 
ATOM     23  C   UNL A   1      29.016  29.160  23.123  1.00  0.00     0.000 A 
ATOM     24  C   UNL A   1      28.033  28.179  23.127  1.00  0.00     0.000 A 
ENDBRANCH  15  19
ENDBRANCH  13  15
ENDBRANCH   8  13
ENDBRANCH   4   7
ENDBRANCH   2   3
ENDBRANCH   1   2
BRANCH   1  25
ATOM     25  C   UNL A   1      36.438  22.167  24.554  1.00  0.00     0.023 C 
BRANCH  25  26
ATOM     26  C   UNL A   1      37.226  22.888  25.640  1.00  0.00     0.116 C 
BRANCH  26  27
ATOM     27  N   UNL A   1      38.344  22.105  26.149  1.00  0.00    -0.352 N 
ATOM     28  C   UNL A   1      39.486  22.549  26.775  1.00  0.00     0.251 C 
ATOM     29  H   UNL A   1      38.274  21.130  26.028  1.00  0.00     0.163 HD
ATOM     30  O   UNL A   1      40.391  21.774  27.048  1.00  0.00    -0.269 OA
BRANCH  28  31
ATOM     31  C   UNL A   1      39.607  23.988  27.078  1.00  0.00     0.039 A 
ATOM     32  C   UNL A   1      39.333  24.431  28.374  1.00  0.00     0.014 A 
ATOM     33  C   UNL A   1      40.072  24.871  26.101  1.00  0.00     0.014 A 
ATOM     34  C   UNL A   1      39.607  25.756  28.715  1.00  0.00     0.010 A 
ATOM     35  C   UNL A   1      40.403  26.171  26.461  1.00  0.00     0.010 A 
ATOM     36  C   UNL A   1      40.185  26.621  27.772  1.00  0.00    -0.014 A 
BRANCH  36  37
ATOM     37  C   UNL A   1      40.618  27.992  28.138  1.00  0.00     0.031 A 
ATOM     38  C   UNL A   1      42.075  28.350  28.121  1.00  0.00     0.074 A 
ATOM     39  C   UNL A   1      39.706  28.870  28.600  1.00  0.00     0.049 A 
ATOM     40  N   UNL A   1      42.654  29.460  28.498  1.00  0.00    -0.248 NA
ATOM     41  C   UNL A   1      43.007  27.315  27.645  1.00  0.00     0.031 C 
ATOM     42  C   UNL A   1      38.270  28.611  28.732  1.00  0.00     0.029 A 
ATOM     43  N   UNL A   1      39.856  30.149  29.076  1.00  0.00    -0.354 N 
ATOM     44  C   UNL A   1      44.018  29.245  28.343  1.00  0.00     0.074 A 
ATOM     45  C   UNL A   1      44.182  27.888  27.865  1.00  0.00     0.031 C 
ATOM     46  C   UNL A   1      37.672  29.696  29.246  1.00  0.00     0.029 A 
ATOM     47  C   UNL A   1      38.681  30.716  29.512  1.00  0.00     0.049 A 
ATOM     48  H   UNL A   1      40.722  30.615  29.104  1.00  0.00     0.167 HD
ATOM     49  C   UNL A   1      45.040  30.108  28.550  1.00  0.00     0.034 A 
ATOM     50  C   UNL A   1      38.446  31.920  30.069  1.00  0.00     0.034 A 
ATOM     51  C   UNL A   1      44.866  31.470  28.976  1.00  0.00     0.049 A 
ATOM     52  C   UNL A   1      39.598  32.866  30.274  1.00  0.00     0.074 A 
ATOM     53  C   UNL A   1      45.824  32.458  29.109  1.00  0.00     0.029 A 
ATOM     54  N   UNL A   1      43.655  32.033  29.347  1.00  0.00    -0.354 N 
ATOM     55  N   UNL A   1      40.861  32.707  29.961  1.00  0.00    -0.248 NA
ATOM     56  C   UNL A   1      39.288  34.166  30.885  1.00  0.00     0.031 C 
ATOM     57  C   UNL A   1      45.194  33.616  29.578  1.00  0.00     0.029 A 
ATOM     58  C   UNL A   1      43.842  33.351  29.727  1.00  0.00     0.049 A 
ATOM     59  H   UNL A   1      42.789  31.565  29.342  1.00  0.00     0.167 HD
ATOM     60  C   UNL A   1      41.492  33.897  30.306  1.00  0.00     0.074 A 
ATOM     61  C   UNL A   1      40.468  34.773  30.837  1.00  0.00     0.031 C 
ATOM     62  C   UNL A   1      42.803  34.228  30.206  1.00  0.00     0.034 A 
BRANCH  49  63
ATOM     63  C   UNL A   1      46.432  29.617  28.256  1.00  0.00     0.023 A 
ATOM     64  C   UNL A   1      46.995  29.851  26.985  1.00  0.00     0.012 A 
ATOM     65  C   UNL A   1      47.194  28.955  29.238  1.00  0.00     0.148 A 
ATOM     66  C   UNL A   1      48.278  29.400  26.682  1.00  0.00     0.002 A 
ATOM     67  C   UNL A   1      48.489  28.544  28.941  1.00  0.00     0.091 A 
ATOM     68  F   UNL A   1      46.634  28.714  30.432  1.00  0.00    -0.205 F 
ATOM     69  C   UNL A   1      49.028  28.756  27.661  1.00  0.00     0.022 A 
BRANCH  67  70
ATOM     70  S   UNL A   1      49.551  27.769  30.164  1.00  0.00     0.127 S 
ATOM     71  O   UNL A   1      50.819  27.680  29.442  1.00  0.00    -0.237 OA
ATOM     72  O   UNL A   1      49.539  28.746  31.254  1.00  0.00    -0.237 OA
ATOM     73  O   UNL A   1      48.915  26.499  30.489  1.00  0.00    -0.744 OA
ENDBRANCH  67  70
ENDBRANCH  49  63
BRANCH  50  74
ATOM     74  C   UNL A   1      37.051  32.329  30.391  1.00  0.00     0.023 A 
ATOM     75  C   UNL A   1      36.578  32.157  31.708  1.00  0.00     0.012 A 
ATOM     76  C   UNL A   1      36.208  32.923  29.431  1.00  0.00     0.148 A 
ATOM     77  C   UNL A   1      35.287  32.550  32.058  1.00  0.00     0.002 A 
ATOM     78  C   UNL A   1      34.939  33.356  29.799  1.00  0.00     0.091 A 
ATOM     79  F   UNL A   1      36.671  33.066  28.181  1.00  0.00    -0.205 F 
ATOM     80  C   UNL A   1      34.471  33.157  31.108  1.00  0.00     0.022 A 
BRANCH  78  81
ATOM     81  S   UNL A   1      33.866  34.263  28.678  1.00  0.00     0.127 S 
ATOM     82  O   UNL A   1      32.779  34.666  29.565  1.00  0.00    -0.237 OA
ATOM     83  O   UNL A   1      34.740  35.351  28.239  1.00  0.00    -0.237 OA
ATOM     84  O   UNL A   1      33.512  33.319  27.627  1.00  0.00    -0.744 OA
ENDBRANCH  78  81
ENDBRANCH  50  74
BRANCH  62  85
ATOM     85  C   UNL A   1      43.212  35.602  30.662  1.00  0.00     0.023 A 
ATOM     86  C   UNL A   1      43.603  35.802  32.001  1.00  0.00     0.012 A 
ATOM     87  C   UNL A   1      43.296  36.671  29.748  1.00  0.00     0.148 A 
ATOM     88  C   UNL A   1      44.049  37.051  32.429  1.00  0.00     0.002 A 
ATOM     89  C   UNL A   1      43.784  37.902  30.173  1.00  0.00     0.091 A 
ATOM     90  F   UNL A   1      42.902  36.465  28.484  1.00  0.00    -0.205 F 
ATOM     91  C   UNL A   1      44.152  38.096  31.514  1.00  0.00     0.022 A 
BRANCH  89  92
ATOM     92  S   UNL A   1      44.038  39.277  29.045  1.00  0.00     0.127 S 
ATOM     93  O   UNL A   1      44.587  40.296  29.938  1.00  0.00    -0.237 OA
ATOM     94  O   UNL A   1      44.998  38.723  28.090  1.00  0.00    -0.237 OA
ATOM     95  O   UNL A   1      42.730  39.581  28.481  1.00  0.00    -0.744 OA
ENDBRANCH  89  92
ENDBRANCH  62  85
ENDBRANCH  36  37
ENDBRANCH  28  31
ENDBRANCH  26  27
ENDBRANCH  25  26
ENDBRANCH   1  25
TORSDOF 19
ENDMDL
