MODEL 1
REMARK VINA RESULT:     -11.3      0.000      0.000
REMARK SMILES CC[C@@H](C(=O)NCCCCNC(=O)c1ccc(-c2c3nc(c(-c4cccc(S(=O)(=O)[O-])c4F)c4ccc([nH]4)c(-c4cccc(S(=O)(=O)[O-])c4F)c4nc(c(-c5cccc(S(=O)(=O)[O-])c5F)c5ccc2[nH]5)C=C4)C=C3)cc1)[N@@H+](C)Cc1cccc(C)n1
REMARK SMILES IDX 8 1 7 2 6 3 4 4 5 5 3 7 2 8 1 9 77 10 78 11 79 13 80 14
REMARK SMILES IDX 81 15 86 16 82 17 84 18 83 19 85 20 9 21 10 22 11 23 12 24
REMARK SMILES IDX 13 26 14 27 15 28 76 29 16 30 75 31 17 32 18 33 19 34 69 35
REMARK SMILES IDX 20 36 74 37 68 38 70 39 21 40 73 41 67 42 66 43 22 45 54 46
REMARK SMILES IDX 34 47 53 48 35 49 38 50 52 51 71 52 36 53 37 54 51 56 72 57
REMARK SMILES IDX 39 58 23 59 24 60 32 61 25 62 27 63 33 64 26 65 28 66 29 67
REMARK SMILES IDX 30 68 31 69 55 70 56 71 64 72 57 73 59 74 65 75 58 76 60 77
REMARK SMILES IDX 61 78 62 79 63 80 40 81 41 82 49 83 42 84 44 85 50 86 43 87
REMARK SMILES IDX 45 88 46 89 47 90 48 91
REMARK H PARENT 6 6 77 12 11 25 70 44 38 55
REMARK Flexibility Score: inf
ROOT
ATOM      1  C   UNL A   1      32.211  27.480  27.074  1.00  0.00     0.023 C 
ENDROOT
BRANCH   1   2
ATOM      2  C   UNL A   1      31.724  26.397  26.108  1.00  0.00     0.116 C 
BRANCH   2   3
ATOM      3  N   UNL A   1      31.168  25.297  26.859  1.00  0.00    -0.351 N 
ATOM      4  C   UNL A   1      31.004  23.992  26.504  1.00  0.00     0.278 C 
ATOM      5  O   UNL A   1      30.180  23.365  27.176  1.00  0.00    -0.268 OA
ATOM      6  H   UNL A   1      30.861  25.523  27.766  1.00  0.00     0.163 HD
BRANCH   4   7
ATOM      7  C   UNL A   1      31.888  23.334  25.392  1.00  0.00     0.273 C 
BRANCH   7   8
ATOM      8  C   UNL A   1      31.231  23.186  23.998  1.00  0.00     0.072 C 
ATOM      9  C   UNL A   1      30.516  24.404  23.437  1.00  0.00     0.011 C 
ENDBRANCH   7   8
BRANCH   7  10
ATOM     10  N   UNL A   1      32.351  21.959  25.809  1.00  0.00    -0.322 N 
ATOM     11  C   UNL A   1      32.597  21.098  24.648  1.00  0.00     0.333 C 
ATOM     12  H   UNL A   1      31.586  21.563  26.355  1.00  0.00     0.348 HD
BRANCH  10  13
ATOM     13  C   UNL A   1      33.554  21.993  26.686  1.00  0.00     0.320 C 
BRANCH  13  14
ATOM     14  C   UNL A   1      34.882  22.277  26.005  1.00  0.00     0.095 A 
ATOM     15  C   UNL A   1      35.308  23.556  25.666  1.00  0.00     0.030 A 
ATOM     16  N   UNL A   1      35.649  21.181  25.758  1.00  0.00    -0.252 NA
ATOM     17  C   UNL A   1      36.559  23.714  25.076  1.00  0.00     0.004 A 
ATOM     18  C   UNL A   1      36.858  21.345  25.178  1.00  0.00     0.038 A 
ATOM     19  C   UNL A   1      37.348  22.596  24.827  1.00  0.00     0.023 A 
ATOM     20  C   UNL A   1      37.638  20.096  24.906  1.00  0.00     0.067 C 
ENDBRANCH  13  14
ENDBRANCH  10  13
ENDBRANCH   7  10
ENDBRANCH   4   7
ENDBRANCH   2   3
ENDBRANCH   1   2
BRANCH   1  21
ATOM     21  C   UNL A   1      31.695  28.886  26.775  1.00  0.00     0.023 C 
BRANCH  21  22
ATOM     22  C   UNL A   1      32.706  29.810  26.121  1.00  0.00     0.116 C 
BRANCH  22  23
ATOM     23  N   UNL A   1      32.472  31.213  26.428  1.00  0.00    -0.352 N 
ATOM     24  C   UNL A   1      33.199  32.048  27.240  1.00  0.00     0.251 C 
ATOM     25  H   UNL A   1      31.686  31.618  25.995  1.00  0.00     0.163 HD
ATOM     26  O   UNL A   1      32.770  33.169  27.505  1.00  0.00    -0.269 OA
BRANCH  24  27
ATOM     27  C   UNL A   1      34.477  31.579  27.811  1.00  0.00     0.039 A 
ATOM     28  C   UNL A   1      35.519  32.492  27.977  1.00  0.00     0.014 A 
ATOM     29  C   UNL A   1      34.636  30.248  28.208  1.00  0.00     0.014 A 
ATOM     30  C   UNL A   1      36.701  32.079  28.589  1.00  0.00     0.010 A 
ATOM     31  C   UNL A   1      35.771  29.869  28.914  1.00  0.00     0.010 A 
ATOM     32  C   UNL A   1      36.826  30.771  29.091  1.00  0.00    -0.014 A 
BRANCH  32  33
ATOM     33  C   UNL A   1      38.062  30.345  29.793  1.00  0.00     0.031 A 
ATOM     34  C   UNL A   1      38.352  30.828  31.189  1.00  0.00     0.074 A 
ATOM     35  C   UNL A   1      38.945  29.553  29.153  1.00  0.00     0.049 A 
ATOM     36  N   UNL A   1      39.346  30.513  31.977  1.00  0.00    -0.248 NA
ATOM     37  C   UNL A   1      37.425  31.817  31.768  1.00  0.00     0.031 C 
ATOM     38  C   UNL A   1      38.830  29.107  27.762  1.00  0.00     0.029 A 
ATOM     39  N   UNL A   1      40.116  28.985  29.585  1.00  0.00    -0.354 N 
ATOM     40  C   UNL A   1      39.180  31.278  33.126  1.00  0.00     0.074 A 
ATOM     41  C   UNL A   1      38.020  32.114  32.913  1.00  0.00     0.031 C 
ATOM     42  C   UNL A   1      39.868  28.310  27.468  1.00  0.00     0.029 A 
ATOM     43  C   UNL A   1      40.734  28.206  28.637  1.00  0.00     0.049 A 
ATOM     44  H   UNL A   1      40.480  29.123  30.490  1.00  0.00     0.167 HD
ATOM     45  C   UNL A   1      39.902  31.261  34.270  1.00  0.00     0.034 A 
ATOM     46  C   UNL A   1      41.865  27.477  28.706  1.00  0.00     0.034 A 
ATOM     47  C   UNL A   1      41.033  30.401  34.489  1.00  0.00     0.049 A 
ATOM     48  C   UNL A   1      42.612  27.422  30.012  1.00  0.00     0.074 A 
ATOM     49  C   UNL A   1      41.783  30.240  35.641  1.00  0.00     0.029 A 
ATOM     50  N   UNL A   1      41.582  29.560  33.533  1.00  0.00    -0.354 N 
ATOM     51  N   UNL A   1      42.338  28.022  31.145  1.00  0.00    -0.248 NA
ATOM     52  C   UNL A   1      43.794  26.552  30.061  1.00  0.00     0.031 C 
ATOM     53  C   UNL A   1      42.805  29.323  35.369  1.00  0.00     0.029 A 
ATOM     54  C   UNL A   1      42.666  28.883  34.063  1.00  0.00     0.049 A 
ATOM     55  H   UNL A   1      41.249  29.461  32.612  1.00  0.00     0.167 HD
ATOM     56  C   UNL A   1      43.291  27.573  32.053  1.00  0.00     0.074 A 
ATOM     57  C   UNL A   1      44.130  26.631  31.340  1.00  0.00     0.031 C 
ATOM     58  C   UNL A   1      43.464  27.917  33.352  1.00  0.00     0.034 A 
BRANCH  45  59
ATOM     59  C   UNL A   1      39.458  32.165  35.393  1.00  0.00     0.023 A 
ATOM     60  C   UNL A   1      38.562  31.678  36.369  1.00  0.00     0.012 A 
ATOM     61  C   UNL A   1      39.961  33.475  35.513  1.00  0.00     0.148 A 
ATOM     62  C   UNL A   1      38.145  32.491  37.422  1.00  0.00     0.002 A 
ATOM     63  C   UNL A   1      39.579  34.262  36.593  1.00  0.00     0.091 A 
ATOM     64  F   UNL A   1      40.792  33.929  34.564  1.00  0.00    -0.205 F 
ATOM     65  C   UNL A   1      38.662  33.778  37.539  1.00  0.00     0.022 A 
BRANCH  63  66
ATOM     66  S   UNL A   1      40.250  35.903  36.882  1.00  0.00     0.127 S 
ATOM     67  O   UNL A   1      39.724  36.642  35.736  1.00  0.00    -0.237 OA
ATOM     68  O   UNL A   1      39.646  36.259  38.167  1.00  0.00    -0.237 OA
ATOM     69  O   UNL A   1      41.698  35.747  36.912  1.00  0.00    -0.744 OA
ENDBRANCH  63  66
ENDBRANCH  45  59
BRANCH  46  70
ATOM     70  C   UNL A   1      42.311  26.676  27.531  1.00  0.00     0.023 A 
ATOM     71  C   UNL A   1      43.101  27.280  26.534  1.00  0.00     0.012 A 
ATOM     72  C   UNL A   1      41.977  25.313  27.409  1.00  0.00     0.148 A 
ATOM     73  C   UNL A   1      43.519  26.554  25.418  1.00  0.00     0.002 A 
ATOM     74  C   UNL A   1      42.445  24.580  26.325  1.00  0.00     0.091 A 
ATOM     75  F   UNL A   1      41.218  24.758  28.365  1.00  0.00    -0.205 F 
ATOM     76  C   UNL A   1      43.199  25.203  25.318  1.00  0.00     0.022 A 
BRANCH  74  77
ATOM     77  S   UNL A   1      42.197  22.807  26.184  1.00  0.00     0.127 S 
ATOM     78  O   UNL A   1      42.791  22.526  24.880  1.00  0.00    -0.237 OA
ATOM     79  O   UNL A   1      42.958  22.306  27.330  1.00  0.00    -0.237 OA
ATOM     80  O   UNL A   1      40.759  22.603  26.284  1.00  0.00    -0.744 OA
ENDBRANCH  74  77
ENDBRANCH  46  70
BRANCH  58  81
ATOM     81  C   UNL A   1      44.579  27.239  34.105  1.00  0.00     0.023 A 
ATOM     82  C   UNL A   1      45.890  27.756  34.045  1.00  0.00     0.012 A 
ATOM     83  C   UNL A   1      44.317  26.112  34.908  1.00  0.00     0.148 A 
ATOM     84  C   UNL A   1      46.929  27.131  34.732  1.00  0.00     0.002 A 
ATOM     85  C   UNL A   1      45.348  25.528  35.634  1.00  0.00     0.091 A 
ATOM     86  F   UNL A   1      43.069  25.623  34.939  1.00  0.00    -0.205 F 
ATOM     87  C   UNL A   1      46.657  26.025  35.534  1.00  0.00     0.022 A 
BRANCH  85  88
ATOM     88  S   UNL A   1      45.065  24.166  36.770  1.00  0.00     0.127 S 
ATOM     89  O   UNL A   1      44.074  24.738  37.680  1.00  0.00    -0.237 OA
ATOM     90  O   UNL A   1      44.548  23.123  35.883  1.00  0.00    -0.237 OA
ATOM     91  O   UNL A   1      46.361  23.865  37.362  1.00  0.00    -0.744 OA
ENDBRANCH  85  88
ENDBRANCH  58  81
ENDBRANCH  32  33
ENDBRANCH  24  27
ENDBRANCH  22  23
ENDBRANCH  21  22
ENDBRANCH   1  21
TORSDOF 18
ENDMDL
MODEL 2
REMARK VINA RESULT:     -11.2      1.578      2.224
REMARK SMILES CC[C@@H](C(=O)NCCCCNC(=O)c1ccc(-c2c3nc(c(-c4cccc(S(=O)(=O)[O-])c4F)c4ccc([nH]4)c(-c4cccc(S(=O)(=O)[O-])c4F)c4nc(c(-c5cccc(S(=O)(=O)[O-])c5F)c5ccc2[nH]5)C=C4)C=C3)cc1)[N@@H+](C)Cc1cccc(C)n1
REMARK SMILES IDX 8 1 7 2 6 3 4 4 5 5 3 7 2 8 1 9 77 10 78 11 79 13 80 14
REMARK SMILES IDX 81 15 86 16 82 17 84 18 83 19 85 20 9 21 10 22 11 23 12 24
REMARK SMILES IDX 13 26 14 27 15 28 76 29 16 30 75 31 17 32 18 33 19 34 69 35
REMARK SMILES IDX 20 36 74 37 68 38 70 39 21 40 73 41 67 42 66 43 22 45 54 46
REMARK SMILES IDX 34 47 53 48 35 49 38 50 52 51 71 52 36 53 37 54 51 56 72 57
REMARK SMILES IDX 39 58 23 59 24 60 32 61 25 62 27 63 33 64 26 65 28 66 29 67
REMARK SMILES IDX 30 68 31 69 55 70 56 71 64 72 57 73 59 74 65 75 58 76 60 77
REMARK SMILES IDX 61 78 62 79 63 80 40 81 41 82 49 83 42 84 44 85 50 86 43 87
REMARK SMILES IDX 45 88 46 89 47 90 48 91
REMARK H PARENT 6 6 77 12 11 25 70 44 38 55
REMARK Flexibility Score: inf
ROOT
ATOM      1  C   UNL A   1      31.095  28.910  24.025  1.00  0.00     0.023 C 
ENDROOT
BRANCH   1   2
ATOM      2  C   UNL A   1      30.641  27.742  23.146  1.00  0.00     0.116 C 
BRANCH   2   3
ATOM      3  N   UNL A   1      31.689  27.406  22.212  1.00  0.00    -0.351 N 
ATOM      4  C   UNL A   1      32.757  26.573  22.361  1.00  0.00     0.278 C 
ATOM      5  O   UNL A   1      33.679  26.755  21.561  1.00  0.00    -0.268 OA
ATOM      6  H   UNL A   1      31.622  27.845  21.334  1.00  0.00     0.163 HD
BRANCH   4   7
ATOM      7  C   UNL A   1      32.741  25.409  23.408  1.00  0.00     0.273 C 
BRANCH   7   8
ATOM      8  C   UNL A   1      33.908  25.394  24.426  1.00  0.00     0.072 C 
ATOM      9  C   UNL A   1      33.539  25.381  25.900  1.00  0.00     0.011 C 
ENDBRANCH   7   8
BRANCH   7  10
ATOM     10  N   UNL A   1      32.736  24.063  22.724  1.00  0.00    -0.322 N 
ATOM     11  C   UNL A   1      34.057  23.428  22.774  1.00  0.00     0.333 C 
ATOM     12  H   UNL A   1      32.498  24.248  21.750  1.00  0.00     0.348 HD
BRANCH  10  13
ATOM     13  C   UNL A   1      31.702  23.140  23.268  1.00  0.00     0.320 C 
BRANCH  13  14
ATOM     14  C   UNL A   1      32.208  21.859  23.909  1.00  0.00     0.095 A 
ATOM     15  C   UNL A   1      32.712  21.800  25.204  1.00  0.00     0.030 A 
ATOM     16  N   UNL A   1      32.119  20.749  23.128  1.00  0.00    -0.252 NA
ATOM     17  C   UNL A   1      33.117  20.569  25.712  1.00  0.00     0.004 A 
ATOM     18  C   UNL A   1      32.522  19.561  23.629  1.00  0.00     0.038 A 
ATOM     19  C   UNL A   1      33.023  19.432  24.917  1.00  0.00     0.023 A 
ATOM     20  C   UNL A   1      32.426  18.385  22.706  1.00  0.00     0.067 C 
ENDBRANCH  13  14
ENDBRANCH  10  13
ENDBRANCH   7  10
ENDBRANCH   4   7
ENDBRANCH   2   3
ENDBRANCH   1   2
BRANCH   1  21
ATOM     21  C   UNL A   1      31.682  28.508  25.375  1.00  0.00     0.023 C 
BRANCH  21  22
ATOM     22  C   UNL A   1      32.877  29.332  25.822  1.00  0.00     0.116 C 
BRANCH  22  23
ATOM     23  N   UNL A   1      32.519  30.693  26.192  1.00  0.00    -0.352 N 
ATOM     24  C   UNL A   1      33.146  31.538  27.072  1.00  0.00     0.251 C 
ATOM     25  H   UNL A   1      31.717  31.057  25.750  1.00  0.00     0.163 HD
ATOM     26  O   UNL A   1      32.619  32.605  27.378  1.00  0.00    -0.269 OA
BRANCH  24  27
ATOM     27  C   UNL A   1      34.439  31.142  27.667  1.00  0.00     0.039 A 
ATOM     28  C   UNL A   1      35.418  32.116  27.866  1.00  0.00     0.014 A 
ATOM     29  C   UNL A   1      34.671  29.820  28.055  1.00  0.00     0.014 A 
ATOM     30  C   UNL A   1      36.610  31.770  28.500  1.00  0.00     0.010 A 
ATOM     31  C   UNL A   1      35.812  29.503  28.782  1.00  0.00     0.010 A 
ATOM     32  C   UNL A   1      36.805  30.466  28.991  1.00  0.00    -0.014 A 
BRANCH  32  33
ATOM     33  C   UNL A   1      38.049  30.110  29.717  1.00  0.00     0.031 A 
ATOM     34  C   UNL A   1      38.313  30.655  31.095  1.00  0.00     0.074 A 
ATOM     35  C   UNL A   1      38.963  29.323  29.113  1.00  0.00     0.049 A 
ATOM     36  N   UNL A   1      39.311  30.404  31.900  1.00  0.00    -0.248 NA
ATOM     37  C   UNL A   1      37.349  31.633  31.629  1.00  0.00     0.031 C 
ATOM     38  C   UNL A   1      38.872  28.822  27.739  1.00  0.00     0.029 A 
ATOM     39  N   UNL A   1      40.149  28.813  29.573  1.00  0.00    -0.354 N 
ATOM     40  C   UNL A   1      39.111  31.206  33.018  1.00  0.00     0.074 A 
ATOM     41  C   UNL A   1      37.925  31.994  32.766  1.00  0.00     0.031 C 
ATOM     42  C   UNL A   1      39.938  28.049  27.482  1.00  0.00     0.029 A 
ATOM     43  C   UNL A   1      40.799  28.019  28.659  1.00  0.00     0.049 A 
ATOM     44  H   UNL A   1      40.502  28.997  30.474  1.00  0.00     0.167 HD
ATOM     45  C   UNL A   1      39.825  31.257  34.166  1.00  0.00     0.034 A 
ATOM     46  C   UNL A   1      41.954  27.331  28.764  1.00  0.00     0.034 A 
ATOM     47  C   UNL A   1      40.983  30.444  34.425  1.00  0.00     0.049 A 
ATOM     48  C   UNL A   1      42.692  27.351  30.074  1.00  0.00     0.074 A 
ATOM     49  C   UNL A   1      41.729  30.353  35.586  1.00  0.00     0.029 A 
ATOM     50  N   UNL A   1      41.566  29.587  33.505  1.00  0.00    -0.354 N 
ATOM     51  N   UNL A   1      42.391  27.985  31.182  1.00  0.00    -0.248 NA
ATOM     52  C   UNL A   1      43.903  26.524  30.164  1.00  0.00     0.031 C 
ATOM     53  C   UNL A   1      42.783  29.461  35.356  1.00  0.00     0.029 A 
ATOM     54  C   UNL A   1      42.668  28.968  34.067  1.00  0.00     0.049 A 
ATOM     55  H   UNL A   1      41.243  29.441  32.586  1.00  0.00     0.167 HD
ATOM     56  C   UNL A   1      43.351  27.603  32.112  1.00  0.00     0.074 A 
ATOM     57  C   UNL A   1      44.227  26.664  31.441  1.00  0.00     0.031 C 
ATOM     58  C   UNL A   1      43.503  28.002  33.399  1.00  0.00     0.034 A 
BRANCH  45  59
ATOM     59  C   UNL A   1      39.343  32.188  35.250  1.00  0.00     0.023 A 
ATOM     60  C   UNL A   1      38.378  31.739  36.178  1.00  0.00     0.012 A 
ATOM     61  C   UNL A   1      39.875  33.484  35.385  1.00  0.00     0.148 A 
ATOM     62  C   UNL A   1      37.925  32.577  37.196  1.00  0.00     0.002 A 
ATOM     63  C   UNL A   1      39.454  34.296  36.431  1.00  0.00     0.091 A 
ATOM     64  F   UNL A   1      40.773  33.903  34.481  1.00  0.00    -0.205 F 
ATOM     65  C   UNL A   1      38.470  33.850  37.329  1.00  0.00     0.022 A 
BRANCH  63  66
ATOM     66  S   UNL A   1      40.154  35.921  36.741  1.00  0.00     0.127 S 
ATOM     67  O   UNL A   1      41.571  35.604  36.909  1.00  0.00    -0.237 OA
ATOM     68  O   UNL A   1      39.832  36.635  35.505  1.00  0.00    -0.237 OA
ATOM     69  O   UNL A   1      39.484  36.429  37.930  1.00  0.00    -0.744 OA
ENDBRANCH  63  66
ENDBRANCH  45  59
BRANCH  46  70
ATOM     70  C   UNL A   1      42.434  26.502  27.623  1.00  0.00     0.023 A 
ATOM     71  C   UNL A   1      43.298  27.067  26.664  1.00  0.00     0.012 A 
ATOM     72  C   UNL A   1      42.060  25.150  27.496  1.00  0.00     0.148 A 
ATOM     73  C   UNL A   1      43.751  26.313  25.581  1.00  0.00     0.002 A 
ATOM     74  C   UNL A   1      42.561  24.388  26.447  1.00  0.00     0.091 A 
ATOM     75  F   UNL A   1      41.231  24.633  28.414  1.00  0.00    -0.205 F 
ATOM     76  C   UNL A   1      43.390  24.973  25.477  1.00  0.00     0.022 A 
BRANCH  74  77
ATOM     77  S   UNL A   1      42.259  22.624  26.311  1.00  0.00     0.127 S 
ATOM     78  O   UNL A   1      40.800  22.572  26.274  1.00  0.00    -0.237 OA
ATOM     79  O   UNL A   1      42.920  22.303  25.045  1.00  0.00    -0.237 OA
ATOM     80  O   UNL A   1      42.885  22.026  27.482  1.00  0.00    -0.744 OA
ENDBRANCH  74  77
ENDBRANCH  46  70
BRANCH  58  81
ATOM     81  C   UNL A   1      44.635  27.392  34.183  1.00  0.00     0.023 A 
ATOM     82  C   UNL A   1      45.916  27.980  34.152  1.00  0.00     0.012 A 
ATOM     83  C   UNL A   1      44.416  26.256  34.988  1.00  0.00     0.148 A 
ATOM     84  C   UNL A   1      46.971  27.417  34.869  1.00  0.00     0.002 A 
ATOM     85  C   UNL A   1      45.458  25.735  35.744  1.00  0.00     0.091 A 
ATOM     86  F   UNL A   1      43.195  25.700  34.992  1.00  0.00    -0.205 F 
ATOM     87  C   UNL A   1      46.741  26.303  35.672  1.00  0.00     0.022 A 
BRANCH  85  88
ATOM     88  S   UNL A   1      45.223  24.366  36.882  1.00  0.00     0.127 S 
ATOM     89  O   UNL A   1      44.755  23.310  35.985  1.00  0.00    -0.237 OA
ATOM     90  O   UNL A   1      46.574  24.164  37.409  1.00  0.00    -0.237 OA
ATOM     91  O   UNL A   1      44.256  24.828  37.868  1.00  0.00    -0.744 OA
ENDBRANCH  85  88
ENDBRANCH  58  81
ENDBRANCH  32  33
ENDBRANCH  24  27
ENDBRANCH  22  23
ENDBRANCH  21  22
ENDBRANCH   1  21
TORSDOF 18
ENDMDL
MODEL 3
REMARK VINA RESULT:     -11.1      1.943      3.858
REMARK SMILES CC[C@@H](C(=O)NCCCCNC(=O)c1ccc(-c2c3nc(c(-c4cccc(S(=O)(=O)[O-])c4F)c4ccc([nH]4)c(-c4cccc(S(=O)(=O)[O-])c4F)c4nc(c(-c5cccc(S(=O)(=O)[O-])c5F)c5ccc2[nH]5)C=C4)C=C3)cc1)[N@@H+](C)Cc1cccc(C)n1
REMARK SMILES IDX 8 1 7 2 6 3 4 4 5 5 3 7 2 8 1 9 77 10 78 11 79 13 80 14
REMARK SMILES IDX 81 15 86 16 82 17 84 18 83 19 85 20 9 21 10 22 11 23 12 24
REMARK SMILES IDX 13 26 14 27 15 28 76 29 16 30 75 31 17 32 18 33 19 34 69 35
REMARK SMILES IDX 20 36 74 37 68 38 70 39 21 40 73 41 67 42 66 43 22 45 54 46
REMARK SMILES IDX 34 47 53 48 35 49 38 50 52 51 71 52 36 53 37 54 51 56 72 57
REMARK SMILES IDX 39 58 23 59 24 60 32 61 25 62 27 63 33 64 26 65 28 66 29 67
REMARK SMILES IDX 30 68 31 69 55 70 56 71 64 72 57 73 59 74 65 75 58 76 60 77
REMARK SMILES IDX 61 78 62 79 63 80 40 81 41 82 49 83 42 84 44 85 50 86 43 87
REMARK SMILES IDX 45 88 46 89 47 90 48 91
REMARK H PARENT 6 6 77 12 11 25 70 44 38 55
REMARK Flexibility Score: inf
ROOT
ATOM      1  C   UNL A   1      31.910  27.843  27.455  1.00  0.00     0.023 C 
ENDROOT
BRANCH   1   2
ATOM      2  C   UNL A   1      32.047  26.838  26.309  1.00  0.00     0.116 C 
BRANCH   2   3
ATOM      3  N   UNL A   1      30.744  26.323  25.960  1.00  0.00    -0.351 N 
ATOM      4  C   UNL A   1      30.118  26.278  24.752  1.00  0.00     0.278 C 
ATOM      5  O   UNL A   1      28.893  26.135  24.800  1.00  0.00    -0.268 OA
ATOM      6  H   UNL A   1      30.230  25.947  26.710  1.00  0.00     0.163 HD
BRANCH   4   7
ATOM      7  C   UNL A   1      30.930  26.298  23.413  1.00  0.00     0.273 C 
BRANCH   7   8
ATOM      8  C   UNL A   1      32.159  25.357  23.348  1.00  0.00     0.072 C 
ATOM      9  C   UNL A   1      31.908  23.919  22.927  1.00  0.00     0.011 C 
ENDBRANCH   7   8
BRANCH   7  10
ATOM     10  N   UNL A   1      31.423  27.689  23.097  1.00  0.00    -0.322 N 
ATOM     11  C   UNL A   1      32.856  27.696  22.787  1.00  0.00     0.333 C 
ATOM     12  H   UNL A   1      31.268  28.237  23.943  1.00  0.00     0.348 HD
BRANCH  10  13
ATOM     13  C   UNL A   1      30.658  28.340  21.998  1.00  0.00     0.320 C 
BRANCH  13  14
ATOM     14  C   UNL A   1      29.872  29.587  22.366  1.00  0.00     0.095 A 
ATOM     15  C   UNL A   1      29.792  30.086  23.661  1.00  0.00     0.030 A 
ATOM     16  N   UNL A   1      29.253  30.206  21.324  1.00  0.00    -0.252 NA
ATOM     17  C   UNL A   1      29.075  31.257  23.888  1.00  0.00     0.004 A 
ATOM     18  C   UNL A   1      28.553  31.338  21.558  1.00  0.00     0.038 A 
ATOM     19  C   UNL A   1      28.445  31.894  22.825  1.00  0.00     0.023 A 
ATOM     20  C   UNL A   1      27.870  31.951  20.374  1.00  0.00     0.067 C 
ENDBRANCH  13  14
ENDBRANCH  10  13
ENDBRANCH   7  10
ENDBRANCH   4   7
ENDBRANCH   2   3
ENDBRANCH   1   2
BRANCH   1  21
ATOM     21  C   UNL A   1      31.511  29.254  27.028  1.00  0.00     0.023 C 
BRANCH  21  22
ATOM     22  C   UNL A   1      32.628  30.070  26.402  1.00  0.00     0.116 C 
BRANCH  22  23
ATOM     23  N   UNL A   1      32.484  31.499  26.636  1.00  0.00    -0.352 N 
ATOM     24  C   UNL A   1      33.285  32.335  27.373  1.00  0.00     0.251 C 
ATOM     25  H   UNL A   1      31.706  31.923  26.207  1.00  0.00     0.163 HD
ATOM     26  O   UNL A   1      32.929  33.492  27.586  1.00  0.00    -0.269 OA
BRANCH  24  27
ATOM     27  C   UNL A   1      34.556  31.826  27.927  1.00  0.00     0.039 A 
ATOM     28  C   UNL A   1      35.648  32.689  28.016  1.00  0.00     0.014 A 
ATOM     29  C   UNL A   1      34.658  30.509  28.384  1.00  0.00     0.014 A 
ATOM     30  C   UNL A   1      36.826  32.243  28.611  1.00  0.00     0.010 A 
ATOM     31  C   UNL A   1      35.795  30.103  29.073  1.00  0.00     0.010 A 
ATOM     32  C   UNL A   1      36.901  30.956  29.173  1.00  0.00    -0.014 A 
BRANCH  32  33
ATOM     33  C   UNL A   1      38.135  30.498  29.857  1.00  0.00     0.031 A 
ATOM     34  C   UNL A   1      38.445  30.954  31.258  1.00  0.00     0.074 A 
ATOM     35  C   UNL A   1      39.000  29.702  29.197  1.00  0.00     0.049 A 
ATOM     36  N   UNL A   1      39.440  30.609  32.033  1.00  0.00    -0.248 NA
ATOM     37  C   UNL A   1      37.539  31.947  31.861  1.00  0.00     0.031 C 
ATOM     38  C   UNL A   1      38.865  29.282  27.799  1.00  0.00     0.029 A 
ATOM     39  N   UNL A   1      40.165  29.109  29.609  1.00  0.00    -0.354 N 
ATOM     40  C   UNL A   1      39.296  31.358  33.195  1.00  0.00     0.074 A 
ATOM     41  C   UNL A   1      38.148  32.216  33.006  1.00  0.00     0.031 C 
ATOM     42  C   UNL A   1      39.887  28.473  27.483  1.00  0.00     0.029 A 
ATOM     43  C   UNL A   1      40.762  28.335  28.643  1.00  0.00     0.049 A 
ATOM     44  H   UNL A   1      40.539  29.225  30.513  1.00  0.00     0.167 HD
ATOM     45  C   UNL A   1      40.028  31.310  34.333  1.00  0.00     0.034 A 
ATOM     46  C   UNL A   1      41.882  27.587  28.690  1.00  0.00     0.034 A 
ATOM     47  C   UNL A   1      41.146  30.428  34.528  1.00  0.00     0.049 A 
ATOM     48  C   UNL A   1      42.638  27.498  29.988  1.00  0.00     0.074 A 
ATOM     49  C   UNL A   1      41.904  30.236  35.669  1.00  0.00     0.029 A 
ATOM     50  N   UNL A   1      41.673  29.595  33.553  1.00  0.00    -0.354 N 
ATOM     51  N   UNL A   1      42.384  28.084  31.133  1.00  0.00    -0.248 NA
ATOM     52  C   UNL A   1      43.807  26.609  30.013  1.00  0.00     0.031 C 
ATOM     53  C   UNL A   1      42.908  29.307  35.374  1.00  0.00     0.029 A 
ATOM     54  C   UNL A   1      42.751  28.892  34.062  1.00  0.00     0.049 A 
ATOM     55  H   UNL A   1      41.331  29.516  32.633  1.00  0.00     0.167 HD
ATOM     56  C   UNL A   1      43.337  27.604  32.025  1.00  0.00     0.074 A 
ATOM     57  C   UNL A   1      44.155  26.661  31.290  1.00  0.00     0.031 C 
ATOM     58  C   UNL A   1      43.527  27.924  33.329  1.00  0.00     0.034 A 
BRANCH  45  59
ATOM     59  C   UNL A   1      39.608  32.203  35.474  1.00  0.00     0.023 A 
ATOM     60  C   UNL A   1      38.779  31.688  36.494  1.00  0.00     0.012 A 
ATOM     61  C   UNL A   1      40.070  33.529  35.566  1.00  0.00     0.148 A 
ATOM     62  C   UNL A   1      38.386  32.491  37.564  1.00  0.00     0.002 A 
ATOM     63  C   UNL A   1      39.714  34.307  36.661  1.00  0.00     0.091 A 
ATOM     64  F   UNL A   1      40.837  34.009  34.576  1.00  0.00    -0.205 F 
ATOM     65  C   UNL A   1      38.862  33.795  37.653  1.00  0.00     0.022 A 
BRANCH  63  66
ATOM     66  S   UNL A   1      40.341  35.972  36.914  1.00  0.00     0.127 S 
ATOM     67  O   UNL A   1      39.771  36.306  38.218  1.00  0.00    -0.237 OA
ATOM     68  O   UNL A   1      41.788  35.757  36.918  1.00  0.00    -0.237 OA
ATOM     69  O   UNL A   1      39.846  36.763  35.796  1.00  0.00    -0.744 OA
ENDBRANCH  63  66
ENDBRANCH  45  59
BRANCH  46  70
ATOM     70  C   UNL A   1      42.304  26.799  27.498  1.00  0.00     0.023 A 
ATOM     71  C   UNL A   1      43.009  27.432  26.456  1.00  0.00     0.012 A 
ATOM     72  C   UNL A   1      42.033  25.420  27.403  1.00  0.00     0.148 A 
ATOM     73  C   UNL A   1      43.403  26.718  25.325  1.00  0.00     0.002 A 
ATOM     74  C   UNL A   1      42.480  24.701  26.301  1.00  0.00     0.091 A 
ATOM     75  F   UNL A   1      41.355  24.837  28.401  1.00  0.00    -0.205 F 
ATOM     76  C   UNL A   1      43.147  25.352  25.251  1.00  0.00     0.022 A 
BRANCH  74  77
ATOM     77  S   UNL A   1      42.314  22.917  26.185  1.00  0.00     0.127 S 
ATOM     78  O   UNL A   1      40.865  22.746  26.260  1.00  0.00    -0.237 OA
ATOM     79  O   UNL A   1      42.900  22.646  24.871  1.00  0.00    -0.237 OA
ATOM     80  O   UNL A   1      43.075  22.378  27.303  1.00  0.00    -0.744 OA
ENDBRANCH  74  77
ENDBRANCH  46  70
BRANCH  58  81
ATOM     81  C   UNL A   1      44.637  27.217  34.060  1.00  0.00     0.023 A 
ATOM     82  C   UNL A   1      45.952  27.722  34.011  1.00  0.00     0.012 A 
ATOM     83  C   UNL A   1      44.366  26.070  34.834  1.00  0.00     0.148 A 
ATOM     84  C   UNL A   1      46.987  27.069  34.679  1.00  0.00     0.002 A 
ATOM     85  C   UNL A   1      45.392  25.458  35.542  1.00  0.00     0.091 A 
ATOM     86  F   UNL A   1      43.113  25.593  34.854  1.00  0.00    -0.205 F 
ATOM     87  C   UNL A   1      46.707  25.945  35.452  1.00  0.00     0.022 A 
BRANCH  85  88
ATOM     88  S   UNL A   1      45.100  24.069  36.642  1.00  0.00     0.127 S 
ATOM     89  O   UNL A   1      44.188  24.654  37.624  1.00  0.00    -0.237 OA
ATOM     90  O   UNL A   1      44.484  23.088  35.746  1.00  0.00    -0.237 OA
ATOM     91  O   UNL A   1      46.407  23.682  37.152  1.00  0.00    -0.744 OA
ENDBRANCH  85  88
ENDBRANCH  58  81
ENDBRANCH  32  33
ENDBRANCH  24  27
ENDBRANCH  22  23
ENDBRANCH  21  22
ENDBRANCH   1  21
TORSDOF 18
ENDMDL
