MODEL 1
REMARK VINA RESULT:     -13.3      0.000      0.000
REMARK SMILES Cc1c(/C=C/C(=O)NCCCCNC(=O)c2ccc(-c3c4nc(c(-c5cccc(S(=O)(=O)[O-])c5F)c5ccc([nH]5)c(-c5cccc(S(=O)(=O)[O-])c5F)c5nc(c(-c6cccc(S(=O)(=O)[O-])c6F)c6ccc3[nH]6)C=C5)C=C4)cc2)cccc1C(=O)N1C[C@@H](C)[C@@H](C)C1
REMARK SMILES IDX 10 1 9 2 8 3 6 4 7 5 5 7 4 8 3 9 1 10 2 11 82 12 79 13 81 14
REMARK SMILES IDX 80 15 83 16 84 17 85 18 86 19 91 20 87 21 89 22 88 23 90 24
REMARK SMILES IDX 11 25 12 26 13 27 14 28 15 30 16 31 17 32 78 33 18 34 77 35
REMARK SMILES IDX 19 36 20 37 21 38 71 39 22 40 76 41 70 42 72 43 23 44 75 45
REMARK SMILES IDX 69 46 68 47 24 49 56 50 36 51 55 52 37 53 40 54 54 55 73 56
REMARK SMILES IDX 38 57 39 58 53 60 74 61 41 62 25 63 26 64 34 65 27 66 29 67
REMARK SMILES IDX 35 68 28 69 30 70 31 71 32 72 33 73 57 74 58 75 66 76 59 77
REMARK SMILES IDX 61 78 67 79 60 80 62 81 63 82 64 83 65 84 42 85 43 86 51 87
REMARK SMILES IDX 44 88 46 89 52 90 45 91 47 92 48 93 49 94 50 95
REMARK H PARENT 8 6 13 29 72 48 40 59
REMARK Flexibility Score: inf
ROOT
ATOM      1  C   UNL A   1      31.985  29.708  24.990  1.00  0.00     0.023 C 
ENDROOT
BRANCH   1   2
ATOM      2  C   UNL A   1      31.510  28.576  24.065  1.00  0.00     0.116 C 
BRANCH   2   3
ATOM      3  N   UNL A   1      32.443  28.311  22.979  1.00  0.00    -0.353 N 
ATOM      4  C   UNL A   1      33.306  27.282  22.738  1.00  0.00     0.243 C 
ATOM      5  O   UNL A   1      33.951  27.271  21.689  1.00  0.00    -0.270 OA
ATOM      6  H   UNL A   1      32.454  29.010  22.286  1.00  0.00     0.163 HD
BRANCH   4   7
ATOM      7  C   UNL A   1      33.428  26.126  23.663  1.00  0.00     0.072 C 
ATOM      8  C   UNL A   1      33.957  24.949  23.305  1.00  0.00     0.014 C 
BRANCH   8   9
ATOM      9  C   UNL A   1      34.223  23.770  24.154  1.00  0.00    -0.022 A 
ATOM     10  C   UNL A   1      32.178  22.653  23.166  1.00  0.00     0.046 C 
ATOM     11  C   UNL A   1      33.358  22.627  24.107  1.00  0.00    -0.031 A 
ATOM     12  C   UNL A   1      33.638  21.519  24.947  1.00  0.00     0.043 A 
ATOM     13  C   UNL A   1      35.281  23.812  25.073  1.00  0.00     0.008 A 
ATOM     14  C   UNL A   1      34.720  21.602  25.847  1.00  0.00     0.014 A 
ATOM     15  C   UNL A   1      35.525  22.737  25.919  1.00  0.00     0.001 A 
BRANCH  12  16
ATOM     16  C   UNL A   1      32.750  20.324  25.160  1.00  0.00     0.254 C 
ATOM     17  O   UNL A   1      31.596  20.527  25.549  1.00  0.00    -0.269 OA
BRANCH  16  18
ATOM     18  N   UNL A   1      33.162  19.051  24.818  1.00  0.00    -0.338 N 
ATOM     19  C   UNL A   1      32.407  17.906  25.288  1.00  0.00     0.123 C 
ATOM     20  C   UNL A   1      34.504  18.673  24.398  1.00  0.00     0.123 C 
ATOM     21  C   UNL A   1      33.420  16.785  25.463  1.00  0.00     0.010 C 
ATOM     22  C   UNL A   1      34.523  17.133  24.450  1.00  0.00     0.010 C 
ATOM     23  C   UNL A   1      32.772  15.415  25.313  1.00  0.00     0.010 C 
ATOM     24  C   UNL A   1      34.315  16.527  23.071  1.00  0.00     0.010 C 
ENDBRANCH  16  18
ENDBRANCH  12  16
ENDBRANCH   8   9
ENDBRANCH   4   7
ENDBRANCH   2   3
ENDBRANCH   1   2
BRANCH   1  25
ATOM     25  C   UNL A   1      33.239  29.446  25.839  1.00  0.00     0.023 C 
BRANCH  25  26
ATOM     26  C   UNL A   1      33.260  30.091  27.214  1.00  0.00     0.116 C 
BRANCH  26  27
ATOM     27  N   UNL A   1      34.196  31.212  27.273  1.00  0.00    -0.352 N 
ATOM     28  C   UNL A   1      35.284  31.420  28.091  1.00  0.00     0.251 C 
ATOM     29  H   UNL A   1      34.022  31.932  26.624  1.00  0.00     0.163 HD
ATOM     30  O   UNL A   1      35.494  32.581  28.467  1.00  0.00    -0.269 OA
BRANCH  28  31
ATOM     31  C   UNL A   1      36.235  30.336  28.400  1.00  0.00     0.039 A 
ATOM     32  C   UNL A   1      36.293  29.750  29.673  1.00  0.00     0.014 A 
ATOM     33  C   UNL A   1      37.241  30.056  27.487  1.00  0.00     0.014 A 
ATOM     34  C   UNL A   1      37.452  29.071  30.055  1.00  0.00     0.010 A 
ATOM     35  C   UNL A   1      38.235  29.184  27.767  1.00  0.00     0.010 A 
ATOM     36  C   UNL A   1      38.445  28.893  29.103  1.00  0.00    -0.014 A 
BRANCH  36  37
ATOM     37  C   UNL A   1      39.819  28.493  29.308  1.00  0.00     0.031 A 
ATOM     38  C   UNL A   1      40.198  27.131  28.981  1.00  0.00     0.074 A 
ATOM     39  C   UNL A   1      40.711  29.511  29.354  1.00  0.00     0.049 A 
ATOM     40  N   UNL A   1      41.391  26.688  29.099  1.00  0.00    -0.248 NA
ATOM     41  C   UNL A   1      39.241  26.161  28.477  1.00  0.00     0.031 C 
ATOM     42  C   UNL A   1      42.101  29.558  28.927  1.00  0.00     0.029 A 
ATOM     43  N   UNL A   1      40.491  30.788  29.848  1.00  0.00    -0.354 N 
ATOM     44  C   UNL A   1      41.434  25.468  28.469  1.00  0.00     0.074 A 
ATOM     45  C   UNL A   1      40.055  25.139  28.202  1.00  0.00     0.031 C 
ATOM     46  C   UNL A   1      42.670  30.679  29.412  1.00  0.00     0.029 A 
ATOM     47  C   UNL A   1      41.711  31.291  30.315  1.00  0.00     0.049 A 
ATOM     48  H   UNL A   1      39.627  31.259  29.867  1.00  0.00     0.167 HD
ATOM     49  C   UNL A   1      42.661  24.974  28.152  1.00  0.00     0.034 A 
ATOM     50  C   UNL A   1      41.850  31.419  31.675  1.00  0.00     0.034 A 
ATOM     51  C   UNL A   1      43.720  25.851  28.708  1.00  0.00     0.049 A 
ATOM     52  C   UNL A   1      42.774  30.357  32.260  1.00  0.00     0.074 A 
ATOM     53  C   UNL A   1      44.492  26.890  28.215  1.00  0.00     0.029 A 
ATOM     54  N   UNL A   1      43.812  25.944  30.086  1.00  0.00    -0.354 N 
ATOM     55  N   UNL A   1      43.447  29.487  31.554  1.00  0.00    -0.248 NA
ATOM     56  C   UNL A   1      42.955  30.156  33.696  1.00  0.00     0.031 C 
ATOM     57  C   UNL A   1      44.960  27.661  29.334  1.00  0.00     0.029 A 
ATOM     58  C   UNL A   1      44.506  27.069  30.503  1.00  0.00     0.049 A 
ATOM     59  H   UNL A   1      43.425  25.283  30.705  1.00  0.00     0.167 HD
ATOM     60  C   UNL A   1      43.960  28.526  32.379  1.00  0.00     0.074 A 
ATOM     61  C   UNL A   1      43.665  29.016  33.718  1.00  0.00     0.031 C 
ATOM     62  C   UNL A   1      44.540  27.367  31.936  1.00  0.00     0.034 A 
BRANCH  49  63
ATOM     63  C   UNL A   1      42.942  23.820  27.208  1.00  0.00     0.023 A 
ATOM     64  C   UNL A   1      43.804  24.091  26.125  1.00  0.00     0.012 A 
ATOM     65  C   UNL A   1      42.410  22.508  27.257  1.00  0.00     0.148 A 
ATOM     66  C   UNL A   1      44.085  23.146  25.133  1.00  0.00     0.002 A 
ATOM     67  C   UNL A   1      42.665  21.569  26.255  1.00  0.00     0.091 A 
ATOM     68  F   UNL A   1      41.673  22.114  28.290  1.00  0.00    -0.205 F 
ATOM     69  C   UNL A   1      43.505  21.888  25.188  1.00  0.00     0.022 A 
BRANCH  67  70
ATOM     70  S   UNL A   1      41.921  19.925  26.245  1.00  0.00     0.127 S 
ATOM     71  O   UNL A   1      42.589  19.297  25.104  1.00  0.00    -0.237 OA
ATOM     72  O   UNL A   1      42.319  19.395  27.549  1.00  0.00    -0.237 OA
ATOM     73  O   UNL A   1      40.486  20.115  26.067  1.00  0.00    -0.744 OA
ENDBRANCH  67  70
ENDBRANCH  49  63
BRANCH  50  74
ATOM     74  C   UNL A   1      40.552  31.903  32.287  1.00  0.00     0.023 A 
ATOM     75  C   UNL A   1      39.573  30.896  32.484  1.00  0.00     0.012 A 
ATOM     76  C   UNL A   1      40.502  33.044  33.107  1.00  0.00     0.148 A 
ATOM     77  C   UNL A   1      38.802  30.883  33.649  1.00  0.00     0.002 A 
ATOM     78  C   UNL A   1      39.650  33.063  34.214  1.00  0.00     0.091 A 
ATOM     79  F   UNL A   1      41.321  34.071  32.852  1.00  0.00    -0.205 F 
ATOM     80  C   UNL A   1      38.857  31.953  34.529  1.00  0.00     0.022 A 
BRANCH  78  81
ATOM     81  S   UNL A   1      39.633  34.477  35.319  1.00  0.00     0.127 S 
ATOM     82  O   UNL A   1      39.066  35.512  34.458  1.00  0.00    -0.237 OA
ATOM     83  O   UNL A   1      38.753  34.046  36.405  1.00  0.00    -0.237 OA
ATOM     84  O   UNL A   1      41.025  34.646  35.710  1.00  0.00    -0.744 OA
ENDBRANCH  78  81
ENDBRANCH  50  74
BRANCH  62  85
ATOM     85  C   UNL A   1      45.204  26.409  32.900  1.00  0.00     0.023 A 
ATOM     86  C   UNL A   1      46.597  26.202  32.825  1.00  0.00     0.012 A 
ATOM     87  C   UNL A   1      44.480  25.589  33.798  1.00  0.00     0.148 A 
ATOM     88  C   UNL A   1      47.252  25.294  33.658  1.00  0.00     0.002 A 
ATOM     89  C   UNL A   1      45.119  24.598  34.532  1.00  0.00     0.091 A 
ATOM     90  F   UNL A   1      43.175  25.799  33.997  1.00  0.00    -0.205 F 
ATOM     91  C   UNL A   1      46.509  24.474  34.497  1.00  0.00     0.022 A 
BRANCH  89  92
ATOM     92  S   UNL A   1      44.200  23.350  35.441  1.00  0.00     0.127 S 
ATOM     93  O   UNL A   1      45.280  22.553  36.026  1.00  0.00    -0.237 OA
ATOM     94  O   UNL A   1      43.456  24.164  36.399  1.00  0.00    -0.237 OA
ATOM     95  O   UNL A   1      43.403  22.640  34.451  1.00  0.00    -0.744 OA
ENDBRANCH  89  92
ENDBRANCH  62  85
ENDBRANCH  36  37
ENDBRANCH  28  31
ENDBRANCH  26  27
ENDBRANCH  25  26
ENDBRANCH   1  25
TORSDOF 17
ENDMDL
MODEL 2
REMARK VINA RESULT:     -13.2      1.708      2.222
REMARK SMILES Cc1c(/C=C/C(=O)NCCCCNC(=O)c2ccc(-c3c4nc(c(-c5cccc(S(=O)(=O)[O-])c5F)c5ccc([nH]5)c(-c5cccc(S(=O)(=O)[O-])c5F)c5nc(c(-c6cccc(S(=O)(=O)[O-])c6F)c6ccc3[nH]6)C=C5)C=C4)cc2)cccc1C(=O)N1C[C@@H](C)[C@@H](C)C1
REMARK SMILES IDX 10 1 9 2 8 3 6 4 7 5 5 7 4 8 3 9 1 10 2 11 82 12 79 13 81 14
REMARK SMILES IDX 80 15 83 16 84 17 85 18 86 19 91 20 87 21 89 22 88 23 90 24
REMARK SMILES IDX 11 25 12 26 13 27 14 28 15 30 16 31 17 32 78 33 18 34 77 35
REMARK SMILES IDX 19 36 20 37 21 38 71 39 22 40 76 41 70 42 72 43 23 44 75 45
REMARK SMILES IDX 69 46 68 47 24 49 56 50 36 51 55 52 37 53 40 54 54 55 73 56
REMARK SMILES IDX 38 57 39 58 53 60 74 61 41 62 25 63 26 64 34 65 27 66 29 67
REMARK SMILES IDX 35 68 28 69 30 70 31 71 32 72 33 73 57 74 58 75 66 76 59 77
REMARK SMILES IDX 61 78 67 79 60 80 62 81 63 82 64 83 65 84 42 85 43 86 51 87
REMARK SMILES IDX 44 88 46 89 52 90 45 91 47 92 48 93 49 94 50 95
REMARK H PARENT 8 6 13 29 72 48 40 59
REMARK Flexibility Score: inf
ROOT
ATOM      1  C   UNL A   1      31.883  30.078  25.460  1.00  0.00     0.023 C 
ENDROOT
BRANCH   1   2
ATOM      2  C   UNL A   1      31.355  29.151  24.354  1.00  0.00     0.116 C 
BRANCH   2   3
ATOM      3  N   UNL A   1      32.364  28.845  23.350  1.00  0.00    -0.353 N 
ATOM      4  C   UNL A   1      33.191  27.775  23.174  1.00  0.00     0.243 C 
ATOM      5  O   UNL A   1      33.923  27.736  22.185  1.00  0.00    -0.270 OA
ATOM      6  H   UNL A   1      32.470  29.546  22.667  1.00  0.00     0.163 HD
BRANCH   4   7
ATOM      7  C   UNL A   1      33.174  26.608  24.095  1.00  0.00     0.072 C 
ATOM      8  C   UNL A   1      34.022  25.578  23.993  1.00  0.00     0.014 C 
BRANCH   8   9
ATOM      9  C   UNL A   1      34.169  24.421  24.901  1.00  0.00    -0.022 A 
ATOM     10  C   UNL A   1      35.458  23.218  23.085  1.00  0.00     0.046 C 
ATOM     11  C   UNL A   1      34.869  23.244  24.474  1.00  0.00    -0.031 A 
ATOM     12  C   UNL A   1      34.977  22.148  25.368  1.00  0.00     0.043 A 
ATOM     13  C   UNL A   1      33.541  24.449  26.154  1.00  0.00     0.008 A 
ATOM     14  C   UNL A   1      34.339  22.226  26.623  1.00  0.00     0.014 A 
ATOM     15  C   UNL A   1      33.621  23.356  27.009  1.00  0.00     0.001 A 
BRANCH  12  16
ATOM     16  C   UNL A   1      35.512  20.782  25.033  1.00  0.00     0.254 C 
ATOM     17  O   UNL A   1      36.737  20.630  25.028  1.00  0.00    -0.269 OA
BRANCH  16  18
ATOM     18  N   UNL A   1      34.669  19.703  24.860  1.00  0.00    -0.338 N 
ATOM     19  C   UNL A   1      35.233  18.386  24.639  1.00  0.00     0.123 C 
ATOM     20  C   UNL A   1      33.276  19.767  24.441  1.00  0.00     0.123 C 
ATOM     21  C   UNL A   1      34.239  17.652  23.752  1.00  0.00     0.010 C 
ATOM     22  C   UNL A   1      32.894  18.315  24.092  1.00  0.00     0.010 C 
ATOM     23  C   UNL A   1      34.318  16.144  23.949  1.00  0.00     0.010 C 
ATOM     24  C   UNL A   1      32.141  17.648  25.231  1.00  0.00     0.010 C 
ENDBRANCH  16  18
ENDBRANCH  12  16
ENDBRANCH   8   9
ENDBRANCH   4   7
ENDBRANCH   2   3
ENDBRANCH   1   2
BRANCH   1  25
ATOM     25  C   UNL A   1      33.221  29.701  26.116  1.00  0.00     0.023 C 
BRANCH  25  26
ATOM     26  C   UNL A   1      33.520  30.361  27.451  1.00  0.00     0.116 C 
BRANCH  26  27
ATOM     27  N   UNL A   1      34.550  31.390  27.328  1.00  0.00    -0.352 N 
ATOM     28  C   UNL A   1      35.747  31.535  27.994  1.00  0.00     0.251 C 
ATOM     29  H   UNL A   1      34.358  32.091  26.664  1.00  0.00     0.163 HD
ATOM     30  O   UNL A   1      36.104  32.688  28.272  1.00  0.00    -0.269 OA
BRANCH  28  31
ATOM     31  C   UNL A   1      36.631  30.382  28.249  1.00  0.00     0.039 A 
ATOM     32  C   UNL A   1      36.642  29.725  29.488  1.00  0.00     0.014 A 
ATOM     33  C   UNL A   1      37.627  30.095  27.328  1.00  0.00     0.014 A 
ATOM     34  C   UNL A   1      37.757  28.961  29.840  1.00  0.00     0.010 A 
ATOM     35  C   UNL A   1      38.567  29.152  27.567  1.00  0.00     0.010 A 
ATOM     36  C   UNL A   1      38.747  28.777  28.886  1.00  0.00    -0.014 A 
BRANCH  36  37
ATOM     37  C   UNL A   1      40.095  28.288  29.077  1.00  0.00     0.031 A 
ATOM     38  C   UNL A   1      40.351  26.875  28.873  1.00  0.00     0.074 A 
ATOM     39  C   UNL A   1      41.064  29.229  28.988  1.00  0.00     0.049 A 
ATOM     40  N   UNL A   1      41.510  26.349  28.989  1.00  0.00    -0.248 NA
ATOM     41  C   UNL A   1      39.300  25.942  28.505  1.00  0.00     0.031 C 
ATOM     42  C   UNL A   1      42.432  29.121  28.506  1.00  0.00     0.029 A 
ATOM     43  N   UNL A   1      40.966  30.562  29.361  1.00  0.00    -0.354 N 
ATOM     44  C   UNL A   1      41.430  25.075  28.483  1.00  0.00     0.074 A 
ATOM     45  C   UNL A   1      40.018  24.836  28.302  1.00  0.00     0.031 C 
ATOM     46  C   UNL A   1      43.108  30.234  28.856  1.00  0.00     0.029 A 
ATOM     47  C   UNL A   1      42.241  31.006  29.729  1.00  0.00     0.049 A 
ATOM     48  H   UNL A   1      40.143  31.102  29.366  1.00  0.00     0.167 HD
ATOM     49  C   UNL A   1      42.599  24.454  28.170  1.00  0.00     0.034 A 
ATOM     50  C   UNL A   1      42.452  31.252  31.064  1.00  0.00     0.034 A 
ATOM     51  C   UNL A   1      43.747  25.290  28.596  1.00  0.00     0.049 A 
ATOM     52  C   UNL A   1      43.316  30.179  31.716  1.00  0.00     0.074 A 
ATOM     53  C   UNL A   1      44.574  26.211  27.973  1.00  0.00     0.029 A 
ATOM     54  N   UNL A   1      43.909  25.508  29.953  1.00  0.00    -0.354 N 
ATOM     55  N   UNL A   1      43.887  29.193  31.074  1.00  0.00    -0.248 NA
ATOM     56  C   UNL A   1      43.546  30.103  33.157  1.00  0.00     0.031 C 
ATOM     57  C   UNL A   1      45.151  27.045  28.992  1.00  0.00     0.029 A 
ATOM     58  C   UNL A   1      44.706  26.607  30.229  1.00  0.00     0.049 A 
ATOM     59  H   UNL A   1      43.500  24.943  30.649  1.00  0.00     0.167 HD
ATOM     60  C   UNL A   1      44.361  28.277  31.971  1.00  0.00     0.074 A 
ATOM     61  C   UNL A   1      44.166  28.916  33.265  1.00  0.00     0.031 C 
ATOM     62  C   UNL A   1      44.828  27.037  31.624  1.00  0.00     0.034 A 
BRANCH  49  63
ATOM     63  C   UNL A   1      42.746  23.196  27.335  1.00  0.00     0.023 A 
ATOM     64  C   UNL A   1      41.916  22.109  27.685  1.00  0.00     0.012 A 
ATOM     65  C   UNL A   1      43.645  22.963  26.265  1.00  0.00     0.148 A 
ATOM     66  C   UNL A   1      42.002  20.864  27.054  1.00  0.00     0.002 A 
ATOM     67  C   UNL A   1      43.754  21.713  25.650  1.00  0.00     0.091 A 
ATOM     68  F   UNL A   1      44.396  23.949  25.784  1.00  0.00    -0.205 F 
ATOM     69  C   UNL A   1      42.932  20.659  26.046  1.00  0.00     0.022 A 
BRANCH  67  70
ATOM     70  S   UNL A   1      44.960  21.366  24.353  1.00  0.00     0.127 S 
ATOM     71  O   UNL A   1      44.678  19.963  24.046  1.00  0.00    -0.237 OA
ATOM     72  O   UNL A   1      44.571  22.308  23.305  1.00  0.00    -0.237 OA
ATOM     73  O   UNL A   1      46.278  21.598  24.933  1.00  0.00    -0.744 OA
ENDBRANCH  67  70
ENDBRANCH  49  63
BRANCH  50  74
ATOM     74  C   UNL A   1      41.225  31.897  31.673  1.00  0.00     0.023 A 
ATOM     75  C   UNL A   1      40.719  33.012  30.955  1.00  0.00     0.012 A 
ATOM     76  C   UNL A   1      40.334  31.172  32.484  1.00  0.00     0.148 A 
ATOM     77  C   UNL A   1      39.341  33.181  30.801  1.00  0.00     0.002 A 
ATOM     78  C   UNL A   1      38.962  31.421  32.397  1.00  0.00     0.091 A 
ATOM     79  F   UNL A   1      40.809  30.207  33.279  1.00  0.00    -0.205 F 
ATOM     80  C   UNL A   1      38.459  32.371  31.500  1.00  0.00     0.022 A 
BRANCH  78  81
ATOM     81  S   UNL A   1      37.804  30.448  33.363  1.00  0.00     0.127 S 
ATOM     82  O   UNL A   1      38.024  30.982  34.706  1.00  0.00    -0.237 OA
ATOM     83  O   UNL A   1      36.507  30.794  32.783  1.00  0.00    -0.237 OA
ATOM     84  O   UNL A   1      38.211  29.070  33.135  1.00  0.00    -0.744 OA
ENDBRANCH  78  81
ENDBRANCH  50  74
BRANCH  62  85
ATOM     85  C   UNL A   1      45.459  26.125  32.653  1.00  0.00     0.023 A 
ATOM     86  C   UNL A   1      46.854  25.919  32.635  1.00  0.00     0.012 A 
ATOM     87  C   UNL A   1      44.706  25.346  33.561  1.00  0.00     0.148 A 
ATOM     88  C   UNL A   1      47.480  25.050  33.530  1.00  0.00     0.002 A 
ATOM     89  C   UNL A   1      45.319  24.390  34.361  1.00  0.00     0.091 A 
ATOM     90  F   UNL A   1      43.395  25.561  33.705  1.00  0.00    -0.205 F 
ATOM     91  C   UNL A   1      46.710  24.268  34.380  1.00  0.00     0.022 A 
BRANCH  89  92
ATOM     92  S   UNL A   1      44.370  23.182  35.293  1.00  0.00     0.127 S 
ATOM     93  O   UNL A   1      43.632  24.039  36.225  1.00  0.00    -0.237 OA
ATOM     94  O   UNL A   1      43.552  22.572  34.248  1.00  0.00    -0.237 OA
ATOM     95  O   UNL A   1      45.347  22.312  35.930  1.00  0.00    -0.744 OA
ENDBRANCH  89  92
ENDBRANCH  62  85
ENDBRANCH  36  37
ENDBRANCH  28  31
ENDBRANCH  26  27
ENDBRANCH  25  26
ENDBRANCH   1  25
TORSDOF 17
ENDMDL
MODEL 3
REMARK VINA RESULT:     -13.0      3.779     10.221
REMARK SMILES Cc1c(/C=C/C(=O)NCCCCNC(=O)c2ccc(-c3c4nc(c(-c5cccc(S(=O)(=O)[O-])c5F)c5ccc([nH]5)c(-c5cccc(S(=O)(=O)[O-])c5F)c5nc(c(-c6cccc(S(=O)(=O)[O-])c6F)c6ccc3[nH]6)C=C5)C=C4)cc2)cccc1C(=O)N1C[C@@H](C)[C@@H](C)C1
REMARK SMILES IDX 10 1 9 2 8 3 6 4 7 5 5 7 4 8 3 9 1 10 2 11 82 12 79 13 81 14
REMARK SMILES IDX 80 15 83 16 84 17 85 18 86 19 91 20 87 21 89 22 88 23 90 24
REMARK SMILES IDX 11 25 12 26 13 27 14 28 15 30 16 31 17 32 78 33 18 34 77 35
REMARK SMILES IDX 19 36 20 37 21 38 71 39 22 40 76 41 70 42 72 43 23 44 75 45
REMARK SMILES IDX 69 46 68 47 24 49 56 50 36 51 55 52 37 53 40 54 54 55 73 56
REMARK SMILES IDX 38 57 39 58 53 60 74 61 41 62 25 63 26 64 34 65 27 66 29 67
REMARK SMILES IDX 35 68 28 69 30 70 31 71 32 72 33 73 57 74 58 75 66 76 59 77
REMARK SMILES IDX 61 78 67 79 60 80 62 81 63 82 64 83 65 84 42 85 43 86 51 87
REMARK SMILES IDX 44 88 46 89 52 90 45 91 47 92 48 93 49 94 50 95
REMARK H PARENT 8 6 13 29 72 48 40 59
REMARK Flexibility Score: inf
ROOT
ATOM      1  C   UNL A   1      37.366  20.860  24.642  1.00  0.00     0.023 C 
ENDROOT
BRANCH   1   2
ATOM      2  C   UNL A   1      36.032  20.746  25.396  1.00  0.00     0.116 C 
BRANCH   2   3
ATOM      3  N   UNL A   1      35.265  19.572  25.005  1.00  0.00    -0.353 N 
ATOM      4  C   UNL A   1      33.994  19.419  24.534  1.00  0.00     0.243 C 
ATOM      5  O   UNL A   1      33.602  18.298  24.212  1.00  0.00    -0.270 OA
ATOM      6  H   UNL A   1      35.759  18.726  25.098  1.00  0.00     0.163 HD
BRANCH   4   7
ATOM      7  C   UNL A   1      33.092  20.580  24.313  1.00  0.00     0.072 C 
ATOM      8  C   UNL A   1      33.535  21.820  24.073  1.00  0.00     0.014 C 
BRANCH   8   9
ATOM      9  C   UNL A   1      32.747  23.024  23.740  1.00  0.00    -0.022 A 
ATOM     10  C   UNL A   1      34.800  24.436  24.187  1.00  0.00     0.046 C 
ATOM     11  C   UNL A   1      33.346  24.326  23.793  1.00  0.00    -0.031 A 
ATOM     12  C   UNL A   1      32.554  25.460  23.480  1.00  0.00     0.043 A 
ATOM     13  C   UNL A   1      31.380  22.892  23.457  1.00  0.00     0.008 A 
ATOM     14  C   UNL A   1      31.187  25.277  23.190  1.00  0.00     0.014 A 
ATOM     15  C   UNL A   1      30.602  24.012  23.188  1.00  0.00     0.001 A 
BRANCH  12  16
ATOM     16  C   UNL A   1      32.959  26.899  23.655  1.00  0.00     0.254 C 
ATOM     17  O   UNL A   1      33.333  27.516  22.654  1.00  0.00    -0.269 OA
BRANCH  16  18
ATOM     18  N   UNL A   1      32.803  27.548  24.863  1.00  0.00    -0.338 N 
ATOM     19  C   UNL A   1      33.159  28.949  24.971  1.00  0.00     0.123 C 
ATOM     20  C   UNL A   1      32.729  26.911  26.171  1.00  0.00     0.123 C 
ATOM     21  C   UNL A   1      33.634  29.148  26.402  1.00  0.00     0.010 C 
ATOM     22  C   UNL A   1      32.882  28.060  27.187  1.00  0.00     0.010 C 
ATOM     23  C   UNL A   1      33.426  30.583  26.868  1.00  0.00     0.010 C 
ATOM     24  C   UNL A   1      31.534  28.505  27.731  1.00  0.00     0.010 C 
ENDBRANCH  16  18
ENDBRANCH  12  16
ENDBRANCH   8   9
ENDBRANCH   4   7
ENDBRANCH   2   3
ENDBRANCH   1   2
BRANCH   1  25
ATOM     25  C   UNL A   1      38.612  21.226  25.463  1.00  0.00     0.023 C 
BRANCH  25  26
ATOM     26  C   UNL A   1      38.592  22.587  26.137  1.00  0.00     0.116 C 
BRANCH  26  27
ATOM     27  N   UNL A   1      39.478  22.631  27.298  1.00  0.00    -0.352 N 
ATOM     28  C   UNL A   1      40.285  23.645  27.763  1.00  0.00     0.251 C 
ATOM     29  H   UNL A   1      39.502  21.804  27.832  1.00  0.00     0.163 HD
ATOM     30  O   UNL A   1      41.375  23.320  28.252  1.00  0.00    -0.269 OA
BRANCH  28  31
ATOM     31  C   UNL A   1      39.819  25.044  27.802  1.00  0.00     0.039 A 
ATOM     32  C   UNL A   1      40.011  25.912  26.717  1.00  0.00     0.014 A 
ATOM     33  C   UNL A   1      39.396  25.568  29.014  1.00  0.00     0.014 A 
ATOM     34  C   UNL A   1      39.971  27.291  26.937  1.00  0.00     0.010 A 
ATOM     35  C   UNL A   1      39.100  26.880  29.158  1.00  0.00     0.010 A 
ATOM     36  C   UNL A   1      39.606  27.738  28.198  1.00  0.00    -0.014 A 
BRANCH  36  37
ATOM     37  C   UNL A   1      39.760  29.063  28.757  1.00  0.00     0.031 A 
ATOM     38  C   UNL A   1      38.749  30.059  28.457  1.00  0.00     0.074 A 
ATOM     39  C   UNL A   1      40.562  29.137  29.845  1.00  0.00     0.049 A 
ATOM     40  N   UNL A   1      38.777  31.249  28.924  1.00  0.00    -0.248 NA
ATOM     41  C   UNL A   1      37.608  29.773  27.605  1.00  0.00     0.031 C 
ATOM     42  C   UNL A   1      40.494  30.020  30.999  1.00  0.00     0.029 A 
ATOM     43  N   UNL A   1      41.679  28.358  30.109  1.00  0.00    -0.354 N 
ATOM     44  C   UNL A   1      37.558  31.821  28.651  1.00  0.00     0.074 A 
ATOM     45  C   UNL A   1      36.917  30.907  27.737  1.00  0.00     0.031 C 
ATOM     46  C   UNL A   1      41.646  29.921  31.693  1.00  0.00     0.029 A 
ATOM     47  C   UNL A   1      42.555  29.108  30.903  1.00  0.00     0.049 A 
ATOM     48  H   UNL A   1      41.830  27.439  29.794  1.00  0.00     0.167 HD
ATOM     49  C   UNL A   1      37.223  32.937  29.352  1.00  0.00     0.034 A 
ATOM     50  C   UNL A   1      43.716  29.541  30.310  1.00  0.00     0.034 A 
ATOM     51  C   UNL A   1      38.366  33.370  30.192  1.00  0.00     0.049 A 
ATOM     52  C   UNL A   1      43.689  31.036  30.017  1.00  0.00     0.074 A 
ATOM     53  C   UNL A   1      38.740  33.182  31.513  1.00  0.00     0.029 A 
ATOM     54  N   UNL A   1      39.512  33.792  29.540  1.00  0.00    -0.354 N 
ATOM     55  N   UNL A   1      42.729  31.847  30.377  1.00  0.00    -0.248 NA
ATOM     56  C   UNL A   1      44.718  31.717  29.234  1.00  0.00     0.031 C 
ATOM     57  C   UNL A   1      40.157  33.405  31.605  1.00  0.00     0.029 A 
ATOM     58  C   UNL A   1      40.633  33.765  30.354  1.00  0.00     0.049 A 
ATOM     59  H   UNL A   1      39.529  34.081  28.599  1.00  0.00     0.167 HD
ATOM     60  C   UNL A   1      42.880  33.047  29.741  1.00  0.00     0.074 A 
ATOM     61  C   UNL A   1      44.169  32.932  29.072  1.00  0.00     0.031 C 
ATOM     62  C   UNL A   1      41.936  34.038  29.743  1.00  0.00     0.034 A 
BRANCH  49  63
ATOM     63  C   UNL A   1      35.840  33.552  29.441  1.00  0.00     0.023 A 
ATOM     64  C   UNL A   1      35.101  33.614  28.241  1.00  0.00     0.012 A 
ATOM     65  C   UNL A   1      35.209  34.112  30.580  1.00  0.00     0.148 A 
ATOM     66  C   UNL A   1      33.847  34.228  28.159  1.00  0.00     0.002 A 
ATOM     67  C   UNL A   1      33.969  34.750  30.499  1.00  0.00     0.091 A 
ATOM     68  F   UNL A   1      35.768  34.013  31.782  1.00  0.00    -0.205 F 
ATOM     69  C   UNL A   1      33.285  34.810  29.285  1.00  0.00     0.022 A 
BRANCH  67  70
ATOM     70  S   UNL A   1      33.192  35.555  31.915  1.00  0.00     0.127 S 
ATOM     71  O   UNL A   1      34.306  36.320  32.477  1.00  0.00    -0.237 OA
ATOM     72  O   UNL A   1      32.155  36.369  31.281  1.00  0.00    -0.237 OA
ATOM     73  O   UNL A   1      32.698  34.493  32.784  1.00  0.00    -0.744 OA
ENDBRANCH  67  70
ENDBRANCH  49  63
BRANCH  50  74
ATOM     74  C   UNL A   1      44.263  28.464  29.395  1.00  0.00     0.023 A 
ATOM     75  C   UNL A   1      44.391  27.183  29.991  1.00  0.00     0.012 A 
ATOM     76  C   UNL A   1      44.108  28.532  27.999  1.00  0.00     0.148 A 
ATOM     77  C   UNL A   1      44.050  26.036  29.271  1.00  0.00     0.002 A 
ATOM     78  C   UNL A   1      43.869  27.363  27.273  1.00  0.00     0.091 A 
ATOM     79  F   UNL A   1      44.126  29.726  27.395  1.00  0.00    -0.205 F 
ATOM     80  C   UNL A   1      43.763  26.125  27.918  1.00  0.00     0.022 A 
BRANCH  78  81
ATOM     81  S   UNL A   1      43.586  27.440  25.502  1.00  0.00     0.127 S 
ATOM     82  O   UNL A   1      42.473  28.383  25.425  1.00  0.00    -0.237 OA
ATOM     83  O   UNL A   1      44.851  27.957  24.980  1.00  0.00    -0.237 OA
ATOM     84  O   UNL A   1      43.302  26.065  25.122  1.00  0.00    -0.744 OA
ENDBRANCH  78  81
ENDBRANCH  50  74
BRANCH  62  85
ATOM     85  C   UNL A   1      42.223  35.390  29.128  1.00  0.00     0.023 A 
ATOM     86  C   UNL A   1      41.868  35.632  27.785  1.00  0.00     0.012 A 
ATOM     87  C   UNL A   1      42.963  36.398  29.789  1.00  0.00     0.148 A 
ATOM     88  C   UNL A   1      42.155  36.844  27.155  1.00  0.00     0.002 A 
ATOM     89  C   UNL A   1      43.356  37.550  29.119  1.00  0.00     0.091 A 
ATOM     90  F   UNL A   1      43.244  36.283  31.090  1.00  0.00    -0.205 F 
ATOM     91  C   UNL A   1      42.919  37.796  27.816  1.00  0.00     0.022 A 
BRANCH  89  92
ATOM     92  S   UNL A   1      44.544  38.699  29.824  1.00  0.00     0.127 S 
ATOM     93  O   UNL A   1      45.760  37.883  29.864  1.00  0.00    -0.237 OA
ATOM     94  O   UNL A   1      44.559  39.765  28.826  1.00  0.00    -0.237 OA
ATOM     95  O   UNL A   1      44.023  39.058  31.135  1.00  0.00    -0.744 OA
ENDBRANCH  89  92
ENDBRANCH  62  85
ENDBRANCH  36  37
ENDBRANCH  28  31
ENDBRANCH  26  27
ENDBRANCH  25  26
ENDBRANCH   1  25
TORSDOF 17
ENDMDL
