MODEL 1
REMARK VINA RESULT:     -12.9      0.000      0.000
REMARK SMILES COc1ccc2c(c1)c(CC(=O)NCCCCNC(=O)c1ccc(-c3c4nc(c(-c5cccc(S(=O)(=O)[O-])c5F)c5ccc([nH]5)c(-c5cccc(S(=O)(=O)[O-])c5F)c5nc(c(-c6cccc(S(=O)(=O)[O-])c6F)c6ccc3[nH]6)C=C5)C=C4)cc1)c(C)n2C(=O)c1ccc(Cl)cc1
REMARK SMILES IDX 15 1 14 2 13 3 11 4 12 5 10 7 9 8 3 9 4 10 8 11 5 12 7 13
REMARK SMILES IDX 6 14 86 15 84 16 85 17 2 18 1 19 87 20 88 21 89 22 90 23
REMARK SMILES IDX 95 24 91 25 94 26 92 27 93 28 16 29 17 30 18 31 19 32 20 34
REMARK SMILES IDX 21 35 22 36 83 37 23 38 82 39 24 40 25 41 26 42 76 43 27 44
REMARK SMILES IDX 81 45 75 46 77 47 28 48 80 49 74 50 73 51 29 53 61 54 41 55
REMARK SMILES IDX 60 56 42 57 45 58 59 59 78 60 43 61 44 62 58 64 79 65 46 66
REMARK SMILES IDX 30 67 31 68 39 69 32 70 34 71 40 72 33 73 35 74 36 75 37 76
REMARK SMILES IDX 38 77 62 78 63 79 71 80 64 81 66 82 72 83 65 84 67 85 68 86
REMARK SMILES IDX 69 87 70 88 47 89 48 90 56 91 49 92 51 93 57 94 50 95 52 96
REMARK SMILES IDX 53 97 54 98 55 99
REMARK H PARENT 13 6 18 33 77 52 45 63
REMARK Flexibility Score: inf
ROOT
ATOM      1  C   UNL A   1      31.744  28.473  27.343  1.00  0.00     0.023 C 
ENDROOT
BRANCH   1   2
ATOM      2  C   UNL A   1      31.250  27.456  26.318  1.00  0.00     0.116 C 
BRANCH   2   3
ATOM      3  N   UNL A   1      31.096  26.132  26.884  1.00  0.00    -0.356 N 
ATOM      4  C   UNL A   1      31.820  25.009  26.597  1.00  0.00     0.224 C 
ATOM      5  O   UNL A   1      31.574  23.976  27.223  1.00  0.00    -0.275 OA
ATOM      6  H   UNL A   1      30.385  26.029  27.555  1.00  0.00     0.163 HD
BRANCH   4   7
ATOM      7  C   UNL A   1      32.947  25.071  25.575  1.00  0.00     0.138 C 
BRANCH   7   8
ATOM      8  C   UNL A   1      33.298  23.733  24.982  1.00  0.00    -0.009 A 
ATOM      9  C   UNL A   1      36.849  22.555  25.751  1.00  0.00     0.119 A 
ATOM     10  C   UNL A   1      36.793  21.410  24.975  1.00  0.00     0.048 A 
ATOM     11  C   UNL A   1      35.727  23.382  25.832  1.00  0.00     0.057 A 
ATOM     12  C   UNL A   1      35.628  21.071  24.276  1.00  0.00     0.031 A 
ATOM     13  C   UNL A   1      34.537  23.058  25.138  1.00  0.00     0.008 A 
ATOM     14  C   UNL A   1      34.476  21.874  24.398  1.00  0.00     0.057 A 
ATOM     15  N   UNL A   1      33.157  21.728  23.926  1.00  0.00    -0.280 N 
ATOM     16  C   UNL A   1      32.502  22.952  24.149  1.00  0.00     0.028 A 
ATOM     17  C   UNL A   1      31.148  23.313  23.616  1.00  0.00     0.065 C 
BRANCH   9  18
ATOM     18  O   UNL A   1      37.927  22.970  26.483  1.00  0.00    -0.497 OA
ATOM     19  C   UNL A   1      38.216  24.361  26.431  1.00  0.00     0.278 C 
ENDBRANCH   9  18
BRANCH  15  20
ATOM     20  C   UNL A   1      32.594  20.560  23.332  1.00  0.00     0.262 C 
ATOM     21  O   UNL A   1      32.036  20.655  22.235  1.00  0.00    -0.268 OA
BRANCH  20  22
ATOM     22  C   UNL A   1      32.638  19.204  23.901  1.00  0.00     0.040 A 
ATOM     23  C   UNL A   1      32.484  18.983  25.274  1.00  0.00     0.015 A 
ATOM     24  C   UNL A   1      32.880  18.137  23.027  1.00  0.00     0.015 A 
ATOM     25  C   UNL A   1      32.676  17.696  25.783  1.00  0.00     0.021 A 
ATOM     26  C   UNL A   1      33.058  16.853  23.541  1.00  0.00     0.021 A 
ATOM     27  C   UNL A   1      32.979  16.642  24.918  1.00  0.00     0.041 A 
ATOM     28  Cl  UNL A   1      33.290  15.074  25.552  1.00  0.00    -0.084 Cl
ENDBRANCH  20  22
ENDBRANCH  15  20
ENDBRANCH   7   8
ENDBRANCH   4   7
ENDBRANCH   2   3
ENDBRANCH   1   2
BRANCH   1  29
ATOM     29  C   UNL A   1      33.242  28.794  27.232  1.00  0.00     0.023 C 
BRANCH  29  30
ATOM     30  C   UNL A   1      33.537  30.242  26.834  1.00  0.00     0.116 C 
BRANCH  30  31
ATOM     31  N   UNL A   1      33.729  31.118  27.973  1.00  0.00    -0.352 N 
ATOM     32  C   UNL A   1      34.815  31.586  28.655  1.00  0.00     0.251 C 
ATOM     33  H   UNL A   1      32.878  31.452  28.340  1.00  0.00     0.163 HD
ATOM     34  O   UNL A   1      34.584  32.466  29.488  1.00  0.00    -0.269 OA
BRANCH  32  35
ATOM     35  C   UNL A   1      36.194  31.054  28.525  1.00  0.00     0.039 A 
ATOM     36  C   UNL A   1      36.526  29.807  27.996  1.00  0.00     0.014 A 
ATOM     37  C   UNL A   1      37.210  31.837  29.106  1.00  0.00     0.014 A 
ATOM     38  C   UNL A   1      37.795  29.286  28.185  1.00  0.00     0.010 A 
ATOM     39  C   UNL A   1      38.489  31.329  29.276  1.00  0.00     0.010 A 
ATOM     40  C   UNL A   1      38.744  30.021  28.891  1.00  0.00    -0.014 A 
BRANCH  40  41
ATOM     41  C   UNL A   1      40.000  29.355  29.197  1.00  0.00     0.031 A 
ATOM     42  C   UNL A   1      40.417  29.445  30.624  1.00  0.00     0.074 A 
ATOM     43  C   UNL A   1      40.701  28.689  28.259  1.00  0.00     0.049 A 
ATOM     44  N   UNL A   1      41.440  30.064  31.120  1.00  0.00    -0.248 NA
ATOM     45  C   UNL A   1      39.493  28.903  31.632  1.00  0.00     0.031 C 
ATOM     46  C   UNL A   1      40.289  28.315  26.902  1.00  0.00     0.029 A 
ATOM     47  N   UNL A   1      41.911  28.083  28.382  1.00  0.00    -0.354 N 
ATOM     48  C   UNL A   1      41.398  29.815  32.491  1.00  0.00     0.074 A 
ATOM     49  C   UNL A   1      40.113  29.226  32.768  1.00  0.00     0.031 C 
ATOM     50  C   UNL A   1      41.094  27.326  26.451  1.00  0.00     0.029 A 
ATOM     51  C   UNL A   1      42.159  27.116  27.413  1.00  0.00     0.049 A 
ATOM     52  H   UNL A   1      42.554  28.308  29.093  1.00  0.00     0.167 HD
ATOM     53  C   UNL A   1      42.494  29.917  33.291  1.00  0.00     0.034 A 
ATOM     54  C   UNL A   1      43.118  26.158  27.478  1.00  0.00     0.034 A 
ATOM     55  C   UNL A   1      43.577  30.615  32.663  1.00  0.00     0.049 A 
ATOM     56  C   UNL A   1      44.134  26.643  28.445  1.00  0.00     0.074 A 
ATOM     57  C   UNL A   1      43.789  31.906  32.228  1.00  0.00     0.029 A 
ATOM     58  N   UNL A   1      44.534  29.845  32.051  1.00  0.00    -0.354 N 
ATOM     59  N   UNL A   1      44.866  27.703  28.255  1.00  0.00    -0.248 NA
ATOM     60  C   UNL A   1      44.028  26.186  29.822  1.00  0.00     0.031 C 
ATOM     61  C   UNL A   1      44.540  31.766  31.025  1.00  0.00     0.029 A 
ATOM     62  C   UNL A   1      44.783  30.405  30.827  1.00  0.00     0.049 A 
ATOM     63  H   UNL A   1      44.962  29.040  32.423  1.00  0.00     0.167 HD
ATOM     64  C   UNL A   1      44.950  28.295  29.509  1.00  0.00     0.074 A 
ATOM     65  C   UNL A   1      44.497  27.269  30.446  1.00  0.00     0.031 C 
ATOM     66  C   UNL A   1      45.109  29.643  29.643  1.00  0.00     0.034 A 
BRANCH  53  67
ATOM     67  C   UNL A   1      42.698  29.085  34.523  1.00  0.00     0.023 A 
ATOM     68  C   UNL A   1      43.068  29.719  35.725  1.00  0.00     0.012 A 
ATOM     69  C   UNL A   1      42.785  27.674  34.472  1.00  0.00     0.148 A 
ATOM     70  C   UNL A   1      43.498  28.979  36.833  1.00  0.00     0.002 A 
ATOM     71  C   UNL A   1      43.151  26.940  35.592  1.00  0.00     0.091 A 
ATOM     72  F   UNL A   1      42.629  27.052  33.297  1.00  0.00    -0.205 F 
ATOM     73  C   UNL A   1      43.525  27.588  36.771  1.00  0.00     0.022 A 
BRANCH  71  74
ATOM     74  S   UNL A   1      43.188  25.145  35.573  1.00  0.00     0.127 S 
ATOM     75  O   UNL A   1      44.206  24.885  34.558  1.00  0.00    -0.237 OA
ATOM     76  O   UNL A   1      43.591  24.843  36.947  1.00  0.00    -0.237 OA
ATOM     77  O   UNL A   1      41.832  24.731  35.242  1.00  0.00    -0.744 OA
ENDBRANCH  71  74
ENDBRANCH  53  67
BRANCH  54  78
ATOM     78  C   UNL A   1      43.043  24.724  27.095  1.00  0.00     0.023 A 
ATOM     79  C   UNL A   1      41.804  24.055  27.210  1.00  0.00     0.012 A 
ATOM     80  C   UNL A   1      44.058  24.109  26.328  1.00  0.00     0.148 A 
ATOM     81  C   UNL A   1      41.563  22.855  26.531  1.00  0.00     0.002 A 
ATOM     82  C   UNL A   1      43.816  22.908  25.664  1.00  0.00     0.091 A 
ATOM     83  F   UNL A   1      45.225  24.745  26.167  1.00  0.00    -0.205 F 
ATOM     84  C   UNL A   1      42.563  22.289  25.746  1.00  0.00     0.022 A 
BRANCH  82  85
ATOM     85  S   UNL A   1      45.055  22.123  24.622  1.00  0.00     0.127 S 
ATOM     86  O   UNL A   1      46.164  21.936  25.559  1.00  0.00    -0.237 OA
ATOM     87  O   UNL A   1      44.379  20.893  24.221  1.00  0.00    -0.237 OA
ATOM     88  O   UNL A   1      45.332  23.073  23.551  1.00  0.00    -0.744 OA
ENDBRANCH  82  85
ENDBRANCH  54  78
BRANCH  66  89
ATOM     89  C   UNL A   1      45.414  30.442  28.403  1.00  0.00     0.023 A 
ATOM     90  C   UNL A   1      44.399  30.973  27.579  1.00  0.00     0.012 A 
ATOM     91  C   UNL A   1      46.746  30.821  28.178  1.00  0.00     0.148 A 
ATOM     92  C   UNL A   1      44.710  31.865  26.548  1.00  0.00     0.002 A 
ATOM     93  C   UNL A   1      47.048  31.732  27.177  1.00  0.00     0.091 A 
ATOM     94  F   UNL A   1      47.689  30.314  28.986  1.00  0.00    -0.205 F 
ATOM     95  C   UNL A   1      46.035  32.255  26.355  1.00  0.00     0.022 A 
BRANCH  93  96
ATOM     96  S   UNL A   1      48.712  32.356  26.939  1.00  0.00     0.127 S 
ATOM     97  O   UNL A   1      49.024  32.906  28.257  1.00  0.00    -0.237 OA
ATOM     98  O   UNL A   1      49.452  31.142  26.592  1.00  0.00    -0.237 OA
ATOM     99  O   UNL A   1      48.630  33.335  25.862  1.00  0.00    -0.744 OA
ENDBRANCH  93  96
ENDBRANCH  66  89
ENDBRANCH  40  41
ENDBRANCH  32  35
ENDBRANCH  30  31
ENDBRANCH  29  30
ENDBRANCH   1  29
TORSDOF 18
ENDMDL
MODEL 2
REMARK VINA RESULT:     -12.9      2.722      8.484
REMARK SMILES COc1ccc2c(c1)c(CC(=O)NCCCCNC(=O)c1ccc(-c3c4nc(c(-c5cccc(S(=O)(=O)[O-])c5F)c5ccc([nH]5)c(-c5cccc(S(=O)(=O)[O-])c5F)c5nc(c(-c6cccc(S(=O)(=O)[O-])c6F)c6ccc3[nH]6)C=C5)C=C4)cc1)c(C)n2C(=O)c1ccc(Cl)cc1
REMARK SMILES IDX 15 1 14 2 13 3 11 4 12 5 10 7 9 8 3 9 4 10 8 11 5 12 7 13
REMARK SMILES IDX 6 14 86 15 84 16 85 17 2 18 1 19 87 20 88 21 89 22 90 23
REMARK SMILES IDX 95 24 91 25 94 26 92 27 93 28 16 29 17 30 18 31 19 32 20 34
REMARK SMILES IDX 21 35 22 36 83 37 23 38 82 39 24 40 25 41 26 42 76 43 27 44
REMARK SMILES IDX 81 45 75 46 77 47 28 48 80 49 74 50 73 51 29 53 61 54 41 55
REMARK SMILES IDX 60 56 42 57 45 58 59 59 78 60 43 61 44 62 58 64 79 65 46 66
REMARK SMILES IDX 30 67 31 68 39 69 32 70 34 71 40 72 33 73 35 74 36 75 37 76
REMARK SMILES IDX 38 77 62 78 63 79 71 80 64 81 66 82 72 83 65 84 67 85 68 86
REMARK SMILES IDX 69 87 70 88 47 89 48 90 56 91 49 92 51 93 57 94 50 95 52 96
REMARK SMILES IDX 53 97 54 98 55 99
REMARK H PARENT 13 6 18 33 77 52 45 63
REMARK Flexibility Score: inf
ROOT
ATOM      1  C   UNL A   1      39.793  22.707  27.221  1.00  0.00     0.023 C 
ENDROOT
BRANCH   1   2
ATOM      2  C   UNL A   1      38.854  23.854  26.856  1.00  0.00     0.116 C 
BRANCH   2   3
ATOM      3  N   UNL A   1      38.342  23.740  25.507  1.00  0.00    -0.356 N 
ATOM      4  C   UNL A   1      37.040  23.623  25.112  1.00  0.00     0.224 C 
ATOM      5  O   UNL A   1      36.793  23.587  23.904  1.00  0.00    -0.275 OA
ATOM      6  H   UNL A   1      39.014  23.746  24.788  1.00  0.00     0.163 HD
BRANCH   4   7
ATOM      7  C   UNL A   1      35.928  23.610  26.152  1.00  0.00     0.138 C 
BRANCH   7   8
ATOM      8  C   UNL A   1      34.682  22.900  25.695  1.00  0.00    -0.009 A 
ATOM      9  C   UNL A   1      31.468  24.913  26.151  1.00  0.00     0.119 A 
ATOM     10  C   UNL A   1      30.609  23.911  25.732  1.00  0.00     0.048 A 
ATOM     11  C   UNL A   1      32.844  24.677  26.154  1.00  0.00     0.057 A 
ATOM     12  C   UNL A   1      31.103  22.670  25.311  1.00  0.00     0.031 A 
ATOM     13  C   UNL A   1      33.366  23.433  25.728  1.00  0.00     0.008 A 
ATOM     14  C   UNL A   1      32.493  22.447  25.261  1.00  0.00     0.057 A 
ATOM     15  N   UNL A   1      33.271  21.375  24.781  1.00  0.00    -0.280 N 
ATOM     16  C   UNL A   1      34.590  21.599  25.209  1.00  0.00     0.028 A 
ATOM     17  C   UNL A   1      35.711  20.608  25.099  1.00  0.00     0.065 C 
BRANCH   9  18
ATOM     18  O   UNL A   1      31.094  26.160  26.568  1.00  0.00    -0.497 OA
ATOM     19  C   UNL A   1      32.153  27.068  26.842  1.00  0.00     0.278 C 
ENDBRANCH   9  18
BRANCH  15  20
ATOM     20  C   UNL A   1      32.805  20.270  24.008  1.00  0.00     0.262 C 
ATOM     21  O   UNL A   1      32.226  20.487  22.940  1.00  0.00    -0.268 OA
BRANCH  20  22
ATOM     22  C   UNL A   1      32.979  18.850  24.352  1.00  0.00     0.040 A 
ATOM     23  C   UNL A   1      33.457  17.926  23.417  1.00  0.00     0.015 A 
ATOM     24  C   UNL A   1      32.612  18.441  25.640  1.00  0.00     0.015 A 
ATOM     25  C   UNL A   1      33.469  16.568  23.745  1.00  0.00     0.021 A 
ATOM     26  C   UNL A   1      32.638  17.085  25.965  1.00  0.00     0.021 A 
ATOM     27  C   UNL A   1      33.043  16.153  25.009  1.00  0.00     0.041 A 
ATOM     28  Cl  UNL A   1      32.986  14.476  25.388  1.00  0.00    -0.084 Cl
ENDBRANCH  20  22
ENDBRANCH  15  20
ENDBRANCH   7   8
ENDBRANCH   4   7
ENDBRANCH   2   3
ENDBRANCH   1   2
BRANCH   1  29
ATOM     29  C   UNL A   1      40.264  21.878  26.018  1.00  0.00     0.023 C 
BRANCH  29  30
ATOM     30  C   UNL A   1      41.748  21.503  26.065  1.00  0.00     0.116 C 
BRANCH  30  31
ATOM     31  N   UNL A   1      42.576  22.350  25.230  1.00  0.00    -0.352 N 
ATOM     32  C   UNL A   1      42.961  23.660  25.270  1.00  0.00     0.251 C 
ATOM     33  H   UNL A   1      42.946  21.870  24.454  1.00  0.00     0.163 HD
ATOM     34  O   UNL A   1      43.826  23.987  24.454  1.00  0.00    -0.269 OA
BRANCH  32  35
ATOM     35  C   UNL A   1      42.355  24.698  26.141  1.00  0.00     0.039 A 
ATOM     36  C   UNL A   1      41.525  25.730  25.702  1.00  0.00     0.014 A 
ATOM     37  C   UNL A   1      42.771  24.687  27.486  1.00  0.00     0.014 A 
ATOM     38  C   UNL A   1      41.253  26.804  26.531  1.00  0.00     0.010 A 
ATOM     39  C   UNL A   1      42.481  25.749  28.328  1.00  0.00     0.010 A 
ATOM     40  C   UNL A   1      41.797  26.841  27.813  1.00  0.00    -0.014 A 
BRANCH  40  41
ATOM     41  C   UNL A   1      41.610  28.066  28.573  1.00  0.00     0.031 A 
ATOM     42  C   UNL A   1      42.570  29.155  28.240  1.00  0.00     0.074 A 
ATOM     43  C   UNL A   1      40.623  28.199  29.481  1.00  0.00     0.049 A 
ATOM     44  N   UNL A   1      43.493  29.665  28.991  1.00  0.00    -0.248 NA
ATOM     45  C   UNL A   1      42.599  29.624  26.846  1.00  0.00     0.031 C 
ATOM     46  C   UNL A   1      39.477  27.316  29.722  1.00  0.00     0.029 A 
ATOM     47  N   UNL A   1      40.372  29.249  30.306  1.00  0.00    -0.354 N 
ATOM     48  C   UNL A   1      44.087  30.666  28.224  1.00  0.00     0.074 A 
ATOM     49  C   UNL A   1      43.604  30.501  26.877  1.00  0.00     0.031 C 
ATOM     50  C   UNL A   1      38.530  27.997  30.406  1.00  0.00     0.029 A 
ATOM     51  C   UNL A   1      39.065  29.292  30.782  1.00  0.00     0.049 A 
ATOM     52  H   UNL A   1      41.052  29.918  30.546  1.00  0.00     0.167 HD
ATOM     53  C   UNL A   1      44.782  31.698  28.774  1.00  0.00     0.034 A 
ATOM     54  C   UNL A   1      38.464  30.369  31.348  1.00  0.00     0.034 A 
ATOM     55  C   UNL A   1      45.120  31.471  30.148  1.00  0.00     0.049 A 
ATOM     56  C   UNL A   1      39.553  31.254  31.831  1.00  0.00     0.074 A 
ATOM     57  C   UNL A   1      45.930  30.582  30.824  1.00  0.00     0.029 A 
ATOM     58  N   UNL A   1      44.275  32.006  31.088  1.00  0.00    -0.354 N 
ATOM     59  N   UNL A   1      40.389  30.923  32.773  1.00  0.00    -0.248 NA
ATOM     60  C   UNL A   1      39.975  32.341  30.963  1.00  0.00     0.031 C 
ATOM     61  C   UNL A   1      45.216  30.276  32.019  1.00  0.00     0.029 A 
ATOM     62  C   UNL A   1      44.043  31.034  32.024  1.00  0.00     0.049 A 
ATOM     63  H   UNL A   1      43.904  32.918  31.088  1.00  0.00     0.167 HD
ATOM     64  C   UNL A   1      41.606  31.447  32.355  1.00  0.00     0.074 A 
ATOM     65  C   UNL A   1      41.270  32.386  31.286  1.00  0.00     0.031 C 
ATOM     66  C   UNL A   1      42.786  30.866  32.716  1.00  0.00     0.034 A 
BRANCH  53  67
ATOM     67  C   UNL A   1      44.861  33.064  28.156  1.00  0.00     0.023 A 
ATOM     68  C   UNL A   1      43.672  33.789  27.942  1.00  0.00     0.012 A 
ATOM     69  C   UNL A   1      46.042  33.546  27.547  1.00  0.00     0.148 A 
ATOM     70  C   UNL A   1      43.664  34.952  27.162  1.00  0.00     0.002 A 
ATOM     71  C   UNL A   1      46.042  34.732  26.826  1.00  0.00     0.091 A 
ATOM     72  F   UNL A   1      47.145  32.786  27.565  1.00  0.00    -0.205 F 
ATOM     73  C   UNL A   1      44.851  35.431  26.616  1.00  0.00     0.022 A 
BRANCH  71  74
ATOM     74  S   UNL A   1      47.546  35.405  26.114  1.00  0.00     0.127 S 
ATOM     75  O   UNL A   1      47.773  34.492  24.996  1.00  0.00    -0.237 OA
ATOM     76  O   UNL A   1      47.119  36.753  25.737  1.00  0.00    -0.237 OA
ATOM     77  O   UNL A   1      48.534  35.367  27.184  1.00  0.00    -0.744 OA
ENDBRANCH  71  74
ENDBRANCH  53  67
BRANCH  54  78
ATOM     78  C   UNL A   1      37.082  30.882  31.160  1.00  0.00     0.023 A 
ATOM     79  C   UNL A   1      36.375  31.356  32.288  1.00  0.00     0.012 A 
ATOM     80  C   UNL A   1      36.582  31.212  29.881  1.00  0.00     0.148 A 
ATOM     81  C   UNL A   1      35.255  32.183  32.147  1.00  0.00     0.002 A 
ATOM     82  C   UNL A   1      35.460  32.027  29.746  1.00  0.00     0.091 A 
ATOM     83  F   UNL A   1      37.259  30.814  28.796  1.00  0.00    -0.205 F 
ATOM     84  C   UNL A   1      34.806  32.531  30.876  1.00  0.00     0.022 A 
BRANCH  82  85
ATOM     85  S   UNL A   1      34.828  32.530  28.138  1.00  0.00     0.127 S 
ATOM     86  O   UNL A   1      33.699  33.384  28.511  1.00  0.00    -0.237 OA
ATOM     87  O   UNL A   1      35.970  33.239  27.570  1.00  0.00    -0.237 OA
ATOM     88  O   UNL A   1      34.444  31.297  27.460  1.00  0.00    -0.744 OA
ENDBRANCH  82  85
ENDBRANCH  54  78
BRANCH  66  89
ATOM     89  C   UNL A   1      42.744  29.780  33.760  1.00  0.00     0.023 A 
ATOM     90  C   UNL A   1      42.268  28.481  33.479  1.00  0.00     0.012 A 
ATOM     91  C   UNL A   1      43.374  30.026  34.988  1.00  0.00     0.148 A 
ATOM     92  C   UNL A   1      42.418  27.450  34.411  1.00  0.00     0.002 A 
ATOM     93  C   UNL A   1      43.552  28.993  35.897  1.00  0.00     0.091 A 
ATOM     94  F   UNL A   1      43.831  31.265  35.223  1.00  0.00    -0.205 F 
ATOM     95  C   UNL A   1      43.072  27.703  35.615  1.00  0.00     0.022 A 
BRANCH  93  96
ATOM     96  S   UNL A   1      44.474  29.221  37.418  1.00  0.00     0.127 S 
ATOM     97  O   UNL A   1      43.820  30.391  38.000  1.00  0.00    -0.237 OA
ATOM     98  O   UNL A   1      44.220  27.964  38.124  1.00  0.00    -0.237 OA
ATOM     99  O   UNL A   1      45.864  29.417  37.026  1.00  0.00    -0.744 OA
ENDBRANCH  93  96
ENDBRANCH  66  89
ENDBRANCH  40  41
ENDBRANCH  32  35
ENDBRANCH  30  31
ENDBRANCH  29  30
ENDBRANCH   1  29
TORSDOF 18
ENDMDL
MODEL 3
REMARK VINA RESULT:     -12.7      3.819      9.618
REMARK SMILES COc1ccc2c(c1)c(CC(=O)NCCCCNC(=O)c1ccc(-c3c4nc(c(-c5cccc(S(=O)(=O)[O-])c5F)c5ccc([nH]5)c(-c5cccc(S(=O)(=O)[O-])c5F)c5nc(c(-c6cccc(S(=O)(=O)[O-])c6F)c6ccc3[nH]6)C=C5)C=C4)cc1)c(C)n2C(=O)c1ccc(Cl)cc1
REMARK SMILES IDX 15 1 14 2 13 3 11 4 12 5 10 7 9 8 3 9 4 10 8 11 5 12 7 13
REMARK SMILES IDX 6 14 86 15 84 16 85 17 2 18 1 19 87 20 88 21 89 22 90 23
REMARK SMILES IDX 95 24 91 25 94 26 92 27 93 28 16 29 17 30 18 31 19 32 20 34
REMARK SMILES IDX 21 35 22 36 83 37 23 38 82 39 24 40 25 41 26 42 76 43 27 44
REMARK SMILES IDX 81 45 75 46 77 47 28 48 80 49 74 50 73 51 29 53 61 54 41 55
REMARK SMILES IDX 60 56 42 57 45 58 59 59 78 60 43 61 44 62 58 64 79 65 46 66
REMARK SMILES IDX 30 67 31 68 39 69 32 70 34 71 40 72 33 73 35 74 36 75 37 76
REMARK SMILES IDX 38 77 62 78 63 79 71 80 64 81 66 82 72 83 65 84 67 85 68 86
REMARK SMILES IDX 69 87 70 88 47 89 48 90 56 91 49 92 51 93 57 94 50 95 52 96
REMARK SMILES IDX 53 97 54 98 55 99
REMARK H PARENT 13 6 18 33 77 52 45 63
REMARK Flexibility Score: inf
ROOT
ATOM      1  C   UNL A   1      35.556  22.762  23.878  1.00  0.00     0.023 C 
ENDROOT
BRANCH   1   2
ATOM      2  C   UNL A   1      34.128  23.100  23.460  1.00  0.00     0.116 C 
BRANCH   2   3
ATOM      3  N   UNL A   1      34.081  24.109  22.423  1.00  0.00    -0.356 N 
ATOM      4  C   UNL A   1      33.121  25.061  22.223  1.00  0.00     0.224 C 
ATOM      5  O   UNL A   1      33.280  25.873  21.308  1.00  0.00    -0.275 OA
ATOM      6  H   UNL A   1      34.830  24.109  21.785  1.00  0.00     0.163 HD
BRANCH   4   7
ATOM      7  C   UNL A   1      31.926  25.146  23.162  1.00  0.00     0.138 C 
BRANCH   7   8
ATOM      8  C   UNL A   1      31.893  26.405  23.985  1.00  0.00    -0.009 A 
ATOM      9  C   UNL A   1      29.547  29.102  22.640  1.00  0.00     0.119 A 
ATOM     10  C   UNL A   1      29.883  30.067  23.574  1.00  0.00     0.048 A 
ATOM     11  C   UNL A   1      30.148  27.844  22.708  1.00  0.00     0.057 A 
ATOM     12  C   UNL A   1      30.814  29.795  24.584  1.00  0.00     0.031 A 
ATOM     13  C   UNL A   1      31.088  27.545  23.722  1.00  0.00     0.008 A 
ATOM     14  C   UNL A   1      31.383  28.509  24.689  1.00  0.00     0.057 A 
ATOM     15  N   UNL A   1      32.233  27.917  25.644  1.00  0.00    -0.280 N 
ATOM     16  C   UNL A   1      32.665  26.693  25.107  1.00  0.00     0.028 A 
ATOM     17  C   UNL A   1      33.741  25.828  25.693  1.00  0.00     0.065 C 
BRANCH   9  18
ATOM     18  O   UNL A   1      28.643  29.257  21.625  1.00  0.00    -0.497 OA
ATOM     19  C   UNL A   1      28.142  30.573  21.433  1.00  0.00     0.278 C 
ENDBRANCH   9  18
BRANCH  15  20
ATOM     20  C   UNL A   1      32.589  28.460  26.914  1.00  0.00     0.262 C 
ATOM     21  O   UNL A   1      32.031  28.031  27.927  1.00  0.00    -0.268 OA
BRANCH  20  22
ATOM     22  C   UNL A   1      33.609  29.494  27.148  1.00  0.00     0.040 A 
ATOM     23  C   UNL A   1      34.965  29.167  27.261  1.00  0.00     0.015 A 
ATOM     24  C   UNL A   1      33.177  30.817  27.295  1.00  0.00     0.015 A 
ATOM     25  C   UNL A   1      35.878  30.161  27.624  1.00  0.00     0.021 A 
ATOM     26  C   UNL A   1      34.095  31.807  27.647  1.00  0.00     0.021 A 
ATOM     27  C   UNL A   1      35.437  31.470  27.833  1.00  0.00     0.041 A 
ATOM     28  Cl  UNL A   1      36.545  32.677  28.354  1.00  0.00    -0.084 Cl
ENDBRANCH  20  22
ENDBRANCH  15  20
ENDBRANCH   7   8
ENDBRANCH   4   7
ENDBRANCH   2   3
ENDBRANCH   1   2
BRANCH   1  29
ATOM     29  C   UNL A   1      35.719  22.486  25.379  1.00  0.00     0.023 C 
BRANCH  29  30
ATOM     30  C   UNL A   1      36.949  23.151  26.002  1.00  0.00     0.116 C 
BRANCH  30  31
ATOM     31  N   UNL A   1      38.093  22.266  26.088  1.00  0.00    -0.352 N 
ATOM     32  C   UNL A   1      39.357  22.374  26.594  1.00  0.00     0.251 C 
ATOM     33  H   UNL A   1      37.919  21.383  25.689  1.00  0.00     0.163 HD
ATOM     34  O   UNL A   1      40.008  21.327  26.632  1.00  0.00    -0.269 OA
BRANCH  32  35
ATOM     35  C   UNL A   1      40.005  23.646  27.000  1.00  0.00     0.039 A 
ATOM     36  C   UNL A   1      41.114  23.750  27.840  1.00  0.00     0.014 A 
ATOM     37  C   UNL A   1      39.348  24.824  26.594  1.00  0.00     0.014 A 
ATOM     38  C   UNL A   1      41.459  24.972  28.389  1.00  0.00     0.010 A 
ATOM     39  C   UNL A   1      39.706  26.055  27.122  1.00  0.00     0.010 A 
ATOM     40  C   UNL A   1      40.704  26.104  28.085  1.00  0.00    -0.014 A 
BRANCH  40  41
ATOM     41  C   UNL A   1      41.014  27.320  28.817  1.00  0.00     0.031 A 
ATOM     42  C   UNL A   1      42.169  28.091  28.278  1.00  0.00     0.074 A 
ATOM     43  C   UNL A   1      40.285  27.720  29.878  1.00  0.00     0.049 A 
ATOM     44  N   UNL A   1      43.318  28.304  28.836  1.00  0.00    -0.248 NA
ATOM     45  C   UNL A   1      42.081  28.550  26.883  1.00  0.00     0.031 C 
ATOM     46  C   UNL A   1      38.997  27.201  30.350  1.00  0.00     0.029 A 
ATOM     47  N   UNL A   1      40.496  28.786  30.692  1.00  0.00    -0.354 N 
ATOM     48  C   UNL A   1      44.026  29.101  27.938  1.00  0.00     0.074 A 
ATOM     49  C   UNL A   1      43.283  29.100  26.704  1.00  0.00     0.031 C 
ATOM     50  C   UNL A   1      38.422  28.117  31.162  1.00  0.00     0.029 A 
ATOM     51  C   UNL A   1      39.363  29.198  31.388  1.00  0.00     0.049 A 
ATOM     52  H   UNL A   1      41.371  29.229  30.783  1.00  0.00     0.167 HD
ATOM     53  C   UNL A   1      45.073  29.883  28.317  1.00  0.00     0.034 A 
ATOM     54  C   UNL A   1      39.206  30.395  32.007  1.00  0.00     0.034 A 
ATOM     55  C   UNL A   1      45.572  29.549  29.619  1.00  0.00     0.049 A 
ATOM     56  C   UNL A   1      40.570  30.923  32.257  1.00  0.00     0.074 A 
ATOM     57  C   UNL A   1      46.202  28.456  30.176  1.00  0.00     0.029 A 
ATOM     58  N   UNL A   1      45.098  30.293  30.670  1.00  0.00    -0.354 N 
ATOM     59  N   UNL A   1      41.432  30.353  33.050  1.00  0.00    -0.248 NA
ATOM     60  C   UNL A   1      41.123  31.853  31.287  1.00  0.00     0.031 C 
ATOM     61  C   UNL A   1      45.657  28.353  31.489  1.00  0.00     0.029 A 
ATOM     62  C   UNL A   1      44.769  29.416  31.669  1.00  0.00     0.049 A 
ATOM     63  H   UNL A   1      45.009  31.273  30.699  1.00  0.00     0.167 HD
ATOM     64  C   UNL A   1      42.652  30.509  32.405  1.00  0.00     0.074 A 
ATOM     65  C   UNL A   1      42.413  31.519  31.376  1.00  0.00     0.031 C 
ATOM     66  C   UNL A   1      43.662  29.609  32.577  1.00  0.00     0.034 A 
BRANCH  53  67
ATOM     67  C   UNL A   1      45.427  31.175  27.641  1.00  0.00     0.023 A 
ATOM     68  C   UNL A   1      46.729  31.347  27.130  1.00  0.00     0.012 A 
ATOM     69  C   UNL A   1      44.597  32.317  27.720  1.00  0.00     0.148 A 
ATOM     70  C   UNL A   1      47.180  32.603  26.707  1.00  0.00     0.002 A 
ATOM     71  C   UNL A   1      45.026  33.547  27.242  1.00  0.00     0.091 A 
ATOM     72  F   UNL A   1      43.431  32.234  28.374  1.00  0.00    -0.205 F 
ATOM     73  C   UNL A   1      46.324  33.700  26.749  1.00  0.00     0.022 A 
BRANCH  71  74
ATOM     74  S   UNL A   1      43.960  34.991  27.257  1.00  0.00     0.127 S 
ATOM     75  O   UNL A   1      43.548  35.035  28.658  1.00  0.00    -0.237 OA
ATOM     76  O   UNL A   1      44.886  36.048  26.849  1.00  0.00    -0.237 OA
ATOM     77  O   UNL A   1      42.909  34.709  26.289  1.00  0.00    -0.744 OA
ENDBRANCH  71  74
ENDBRANCH  53  67
BRANCH  54  78
ATOM     78  C   UNL A   1      38.017  31.286  32.044  1.00  0.00     0.023 A 
ATOM     79  C   UNL A   1      36.880  30.933  31.286  1.00  0.00     0.012 A 
ATOM     80  C   UNL A   1      37.865  32.274  33.043  1.00  0.00     0.148 A 
ATOM     81  C   UNL A   1      35.625  31.491  31.557  1.00  0.00     0.002 A 
ATOM     82  C   UNL A   1      36.616  32.835  33.301  1.00  0.00     0.091 A 
ATOM     83  F   UNL A   1      38.917  32.594  33.807  1.00  0.00    -0.205 F 
ATOM     84  C   UNL A   1      35.490  32.431  32.574  1.00  0.00     0.022 A 
BRANCH  82  85
ATOM     85  S   UNL A   1      36.360  34.046  34.607  1.00  0.00     0.127 S 
ATOM     86  O   UNL A   1      36.518  33.230  35.812  1.00  0.00    -0.237 OA
ATOM     87  O   UNL A   1      37.444  34.992  34.362  1.00  0.00    -0.237 OA
ATOM     88  O   UNL A   1      35.010  34.561  34.410  1.00  0.00    -0.744 OA
ENDBRANCH  82  85
ENDBRANCH  54  78
BRANCH  66  89
ATOM     89  C   UNL A   1      43.499  28.568  33.654  1.00  0.00     0.023 A 
ATOM     90  C   UNL A   1      42.959  27.290  33.392  1.00  0.00     0.012 A 
ATOM     91  C   UNL A   1      44.079  28.821  34.905  1.00  0.00     0.148 A 
ATOM     92  C   UNL A   1      42.997  26.286  34.366  1.00  0.00     0.002 A 
ATOM     93  C   UNL A   1      44.146  27.815  35.857  1.00  0.00     0.091 A 
ATOM     94  F   UNL A   1      44.599  30.039  35.121  1.00  0.00    -0.205 F 
ATOM     95  C   UNL A   1      43.602  26.545  35.595  1.00  0.00     0.022 A 
BRANCH  93  96
ATOM     96  S   UNL A   1      45.000  28.044  37.417  1.00  0.00     0.127 S 
ATOM     97  O   UNL A   1      44.677  26.809  38.127  1.00  0.00    -0.237 OA
ATOM     98  O   UNL A   1      46.395  28.158  36.991  1.00  0.00    -0.237 OA
ATOM     99  O   UNL A   1      44.452  29.260  38.006  1.00  0.00    -0.744 OA
ENDBRANCH  93  96
ENDBRANCH  66  89
ENDBRANCH  40  41
ENDBRANCH  32  35
ENDBRANCH  30  31
ENDBRANCH  29  30
ENDBRANCH   1  29
TORSDOF 18
ENDMDL
