MODEL 1
REMARK VINA RESULT:     -14.2      0.000      0.000
REMARK SMILES Cc1ccc(-c2nc(C)cc(N3CCCC[C@H]3C(=O)NCCCCNC(=O)c3ccc(-c4c5nc(c(-c6cccc(S(=O)(=O)[O-])c6F)c6ccc([nH]6)c(-c6cccc(S(=O)(=O)[O-])c6F)c6nc(c(-c7cccc(S(=O)(=O)[O-])c7F)c7ccc4[nH]7)C=C6)C=C5)cc3)n2)cc1
REMARK SMILES IDX 23 1 22 2 21 3 20 4 18 5 19 6 17 8 12 9 13 10 14 11 16 12
REMARK SMILES IDX 15 13 11 14 6 15 7 16 91 17 8 18 9 19 10 20 5 21 1 22 2 23
REMARK SMILES IDX 3 24 93 25 4 26 92 27 24 28 25 29 26 30 27 32 28 33 29 34
REMARK SMILES IDX 90 35 30 36 89 37 31 38 32 39 33 40 83 41 34 42 88 43 82 44
REMARK SMILES IDX 84 45 35 46 87 47 81 48 80 49 36 51 68 52 48 53 67 54 49 55
REMARK SMILES IDX 52 56 66 57 85 58 50 59 51 60 65 62 86 63 53 64 37 65 38 66
REMARK SMILES IDX 46 67 39 68 41 69 47 70 40 71 42 72 43 73 44 74 45 75 69 76
REMARK SMILES IDX 70 77 78 78 71 79 73 80 79 81 72 82 74 83 75 84 76 85 77 86
REMARK SMILES IDX 54 87 55 88 63 89 56 90 58 91 64 92 57 93 59 94 60 95 61 96
REMARK SMILES IDX 62 97
REMARK H PARENT 20 7 25 31 84 50 52 61
REMARK Flexibility Score: inf
ROOT
ATOM      1  C   UNL A   1      32.264  29.798  27.003  1.00  0.00     0.023 C 
ENDROOT
BRANCH   1   2
ATOM      2  C   UNL A   1      31.769  28.422  27.445  1.00  0.00     0.023 C 
BRANCH   2   3
ATOM      3  C   UNL A   1      31.220  27.507  26.338  1.00  0.00     0.116 C 
BRANCH   3   4
ATOM      4  N   UNL A   1      31.044  26.140  26.784  1.00  0.00    -0.354 N 
ATOM      5  C   UNL A   1      31.707  24.978  26.581  1.00  0.00     0.242 C 
ATOM      6  O   UNL A   1      31.256  24.013  27.224  1.00  0.00    -0.273 OA
ATOM      7  H   UNL A   1      30.260  26.031  27.370  1.00  0.00     0.163 HD
BRANCH   5   8
ATOM      8  C   UNL A   1      32.924  24.735  25.635  1.00  0.00     0.173 C 
ATOM      9  N   UNL A   1      32.652  23.528  24.822  1.00  0.00    -0.344 N 
ATOM     10  C   UNL A   1      31.796  23.697  23.659  1.00  0.00     0.119 C 
ATOM     11  C   UNL A   1      32.376  24.728  22.698  1.00  0.00     0.022 C 
ATOM     12  C   UNL A   1      33.518  25.805  24.713  1.00  0.00     0.035 C 
ATOM     13  C   UNL A   1      32.752  26.027  23.406  1.00  0.00     0.004 C 
BRANCH   9  14
ATOM     14  C   UNL A   1      33.644  22.561  24.774  1.00  0.00     0.133 A 
ATOM     15  C   UNL A   1      34.300  20.369  24.893  1.00  0.00     0.161 A 
ATOM     16  N   UNL A   1      35.611  20.654  24.789  1.00  0.00    -0.233 NA
ATOM     17  N   UNL A   1      33.304  21.270  24.908  1.00  0.00    -0.211 NA
ATOM     18  C   UNL A   1      35.925  21.956  24.642  1.00  0.00     0.043 A 
ATOM     19  C   UNL A   1      37.381  22.289  24.541  1.00  0.00     0.067 C 
ATOM     20  C   UNL A   1      34.963  22.945  24.613  1.00  0.00     0.070 A 
BRANCH  15  21
ATOM     21  C   UNL A   1      33.926  18.957  24.984  1.00  0.00     0.019 A 
ATOM     22  C   UNL A   1      32.822  14.781  25.280  1.00  0.00     0.044 C 
ATOM     23  C   UNL A   1      33.214  16.224  25.175  1.00  0.00    -0.051 A 
ATOM     24  C   UNL A   1      32.423  17.209  25.778  1.00  0.00     0.004 A 
ATOM     25  C   UNL A   1      34.358  16.611  24.469  1.00  0.00     0.004 A 
ATOM     26  C   UNL A   1      32.782  18.557  25.691  1.00  0.00     0.012 A 
ATOM     27  C   UNL A   1      34.704  17.963  24.369  1.00  0.00     0.012 A 
ENDBRANCH  15  21
ENDBRANCH   9  14
ENDBRANCH   5   8
ENDBRANCH   3   4
ENDBRANCH   2   3
ENDBRANCH   1   2
BRANCH   1  28
ATOM     28  C   UNL A   1      33.759  29.859  26.769  1.00  0.00     0.116 C 
BRANCH  28  29
ATOM     29  N   UNL A   1      34.404  31.073  27.223  1.00  0.00    -0.352 N 
ATOM     30  C   UNL A   1      35.498  31.243  28.064  1.00  0.00     0.251 C 
ATOM     31  H   UNL A   1      34.006  31.908  26.885  1.00  0.00     0.163 HD
ATOM     32  O   UNL A   1      35.701  32.359  28.510  1.00  0.00    -0.269 OA
BRANCH  30  33
ATOM     33  C   UNL A   1      36.486  30.141  28.276  1.00  0.00     0.039 A 
ATOM     34  C   UNL A   1      36.669  29.650  29.578  1.00  0.00     0.014 A 
ATOM     35  C   UNL A   1      37.394  29.777  27.293  1.00  0.00     0.014 A 
ATOM     36  C   UNL A   1      37.877  29.046  29.932  1.00  0.00     0.010 A 
ATOM     37  C   UNL A   1      38.645  29.362  27.666  1.00  0.00     0.010 A 
ATOM     38  C   UNL A   1      38.899  29.034  28.997  1.00  0.00    -0.014 A 
BRANCH  38  39
ATOM     39  C   UNL A   1      40.264  28.592  29.202  1.00  0.00     0.031 A 
ATOM     40  C   UNL A   1      40.567  27.169  28.940  1.00  0.00     0.074 A 
ATOM     41  C   UNL A   1      41.227  29.540  29.197  1.00  0.00     0.049 A 
ATOM     42  N   UNL A   1      41.733  26.644  29.054  1.00  0.00    -0.248 NA
ATOM     43  C   UNL A   1      39.547  26.218  28.506  1.00  0.00     0.031 C 
ATOM     44  C   UNL A   1      42.616  29.386  28.783  1.00  0.00     0.029 A 
ATOM     45  N   UNL A   1      41.188  30.819  29.765  1.00  0.00    -0.354 N 
ATOM     46  C   UNL A   1      41.691  25.394  28.470  1.00  0.00     0.074 A 
ATOM     47  C   UNL A   1      40.295  25.151  28.210  1.00  0.00     0.031 C 
ATOM     48  C   UNL A   1      43.347  30.357  29.353  1.00  0.00     0.029 A 
ATOM     49  C   UNL A   1      42.473  31.018  30.306  1.00  0.00     0.049 A 
ATOM     50  H   UNL A   1      40.428  31.444  29.783  1.00  0.00     0.167 HD
ATOM     51  C   UNL A   1      42.873  24.785  28.172  1.00  0.00     0.034 A 
ATOM     52  C   UNL A   1      42.717  31.109  31.649  1.00  0.00     0.034 A 
ATOM     53  C   UNL A   1      43.991  25.585  28.691  1.00  0.00     0.049 A 
ATOM     54  C   UNL A   1      43.702  30.066  32.156  1.00  0.00     0.074 A 
ATOM     55  C   UNL A   1      44.845  26.513  28.122  1.00  0.00     0.029 A 
ATOM     56  N   UNL A   1      44.148  25.692  30.065  1.00  0.00    -0.354 N 
ATOM     57  N   UNL A   1      44.095  29.029  31.469  1.00  0.00    -0.248 NA
ATOM     58  C   UNL A   1      44.325  30.108  33.475  1.00  0.00     0.031 C 
ATOM     59  C   UNL A   1      45.471  27.234  29.177  1.00  0.00     0.029 A 
ATOM     60  C   UNL A   1      45.024  26.717  30.382  1.00  0.00     0.049 A 
ATOM     61  H   UNL A   1      43.699  25.117  30.727  1.00  0.00     0.167 HD
ATOM     62  C   UNL A   1      44.911  28.228  32.227  1.00  0.00     0.074 A 
ATOM     63  C   UNL A   1      45.075  28.990  33.455  1.00  0.00     0.031 C 
ATOM     64  C   UNL A   1      45.329  26.999  31.782  1.00  0.00     0.034 A 
BRANCH  51  65
ATOM     65  C   UNL A   1      43.097  23.600  27.245  1.00  0.00     0.023 A 
ATOM     66  C   UNL A   1      43.941  23.820  26.130  1.00  0.00     0.012 A 
ATOM     67  C   UNL A   1      42.520  22.311  27.328  1.00  0.00     0.148 A 
ATOM     68  C   UNL A   1      44.144  22.863  25.130  1.00  0.00     0.002 A 
ATOM     69  C   UNL A   1      42.698  21.360  26.315  1.00  0.00     0.091 A 
ATOM     70  F   UNL A   1      41.825  21.957  28.408  1.00  0.00    -0.205 F 
ATOM     71  C   UNL A   1      43.504  21.638  25.210  1.00  0.00     0.022 A 
BRANCH  69  72
ATOM     72  S   UNL A   1      41.881  19.752  26.331  1.00  0.00     0.127 S 
ATOM     73  O   UNL A   1      42.499  19.085  25.183  1.00  0.00    -0.237 OA
ATOM     74  O   UNL A   1      42.275  19.209  27.631  1.00  0.00    -0.237 OA
ATOM     75  O   UNL A   1      40.455  20.010  26.176  1.00  0.00    -0.744 OA
ENDBRANCH  69  72
ENDBRANCH  51  65
BRANCH  52  76
ATOM     76  C   UNL A   1      41.573  31.687  32.418  1.00  0.00     0.023 A 
ATOM     77  C   UNL A   1      41.229  33.026  32.112  1.00  0.00     0.012 A 
ATOM     78  C   UNL A   1      40.612  30.861  33.031  1.00  0.00     0.148 A 
ATOM     79  C   UNL A   1      39.916  33.477  32.252  1.00  0.00     0.002 A 
ATOM     80  C   UNL A   1      39.303  31.324  33.175  1.00  0.00     0.091 A 
ATOM     81  F   UNL A   1      40.964  29.615  33.371  1.00  0.00    -0.205 F 
ATOM     82  C   UNL A   1      38.945  32.611  32.741  1.00  0.00     0.022 A 
BRANCH  80  83
ATOM     83  S   UNL A   1      37.975  30.273  33.785  1.00  0.00     0.127 S 
ATOM     84  O   UNL A   1      38.136  30.409  35.230  1.00  0.00    -0.237 OA
ATOM     85  O   UNL A   1      36.786  30.921  33.233  1.00  0.00    -0.237 OA
ATOM     86  O   UNL A   1      38.250  28.957  33.227  1.00  0.00    -0.744 OA
ENDBRANCH  80  83
ENDBRANCH  52  76
BRANCH  64  87
ATOM     87  C   UNL A   1      46.026  25.905  32.591  1.00  0.00     0.023 A 
ATOM     88  C   UNL A   1      47.422  25.825  32.729  1.00  0.00     0.012 A 
ATOM     89  C   UNL A   1      45.271  24.984  33.375  1.00  0.00     0.148 A 
ATOM     90  C   UNL A   1      48.038  24.888  33.573  1.00  0.00     0.002 A 
ATOM     91  C   UNL A   1      45.880  24.141  34.302  1.00  0.00     0.091 A 
ATOM     92  F   UNL A   1      43.944  24.886  33.213  1.00  0.00    -0.205 F 
ATOM     93  C   UNL A   1      47.268  24.070  34.386  1.00  0.00     0.022 A 
BRANCH  91  94
ATOM     94  S   UNL A   1      44.905  23.254  35.527  1.00  0.00     0.127 S 
ATOM     95  O   UNL A   1      44.158  22.313  34.697  1.00  0.00    -0.237 OA
ATOM     96  O   UNL A   1      45.937  22.641  36.366  1.00  0.00    -0.237 OA
ATOM     97  O   UNL A   1      44.124  24.282  36.202  1.00  0.00    -0.744 OA
ENDBRANCH  91  94
ENDBRANCH  64  87
ENDBRANCH  38  39
ENDBRANCH  30  33
ENDBRANCH  28  29
ENDBRANCH   1  28
TORSDOF 16
ENDMDL
MODEL 2
REMARK VINA RESULT:     -13.6      4.148      9.988
REMARK SMILES Cc1ccc(-c2nc(C)cc(N3CCCC[C@H]3C(=O)NCCCCNC(=O)c3ccc(-c4c5nc(c(-c6cccc(S(=O)(=O)[O-])c6F)c6ccc([nH]6)c(-c6cccc(S(=O)(=O)[O-])c6F)c6nc(c(-c7cccc(S(=O)(=O)[O-])c7F)c7ccc4[nH]7)C=C6)C=C5)cc3)n2)cc1
REMARK SMILES IDX 23 1 22 2 21 3 20 4 18 5 19 6 17 8 12 9 13 10 14 11 16 12
REMARK SMILES IDX 15 13 11 14 6 15 7 16 91 17 8 18 9 19 10 20 5 21 1 22 2 23
REMARK SMILES IDX 3 24 93 25 4 26 92 27 24 28 25 29 26 30 27 32 28 33 29 34
REMARK SMILES IDX 90 35 30 36 89 37 31 38 32 39 33 40 83 41 34 42 88 43 82 44
REMARK SMILES IDX 84 45 35 46 87 47 81 48 80 49 36 51 68 52 48 53 67 54 49 55
REMARK SMILES IDX 52 56 66 57 85 58 50 59 51 60 65 62 86 63 53 64 37 65 38 66
REMARK SMILES IDX 46 67 39 68 41 69 47 70 40 71 42 72 43 73 44 74 45 75 69 76
REMARK SMILES IDX 70 77 78 78 71 79 73 80 79 81 72 82 74 83 75 84 76 85 77 86
REMARK SMILES IDX 54 87 55 88 63 89 56 90 58 91 64 92 57 93 59 94 60 95 61 96
REMARK SMILES IDX 62 97
REMARK H PARENT 20 7 25 31 84 50 52 61
REMARK Flexibility Score: inf
ROOT
ATOM      1  C   UNL A   1      36.856  21.645  25.155  1.00  0.00     0.023 C 
ENDROOT
BRANCH   1   2
ATOM      2  C   UNL A   1      36.018  22.015  23.932  1.00  0.00     0.023 C 
BRANCH   2   3
ATOM      3  C   UNL A   1      34.505  22.156  24.160  1.00  0.00     0.116 C 
BRANCH   3   4
ATOM      4  N   UNL A   1      33.891  23.099  23.246  1.00  0.00    -0.354 N 
ATOM      5  C   UNL A   1      33.340  24.328  23.372  1.00  0.00     0.242 C 
ATOM      6  O   UNL A   1      32.981  24.840  22.297  1.00  0.00    -0.273 OA
ATOM      7  H   UNL A   1      33.871  22.768  22.319  1.00  0.00     0.163 HD
BRANCH   5   8
ATOM      8  C   UNL A   1      33.097  25.126  24.691  1.00  0.00     0.173 C 
ATOM      9  N   UNL A   1      31.734  25.702  24.647  1.00  0.00    -0.344 N 
ATOM     10  C   UNL A   1      30.634  24.816  24.994  1.00  0.00     0.119 C 
ATOM     11  C   UNL A   1      30.807  24.255  26.400  1.00  0.00     0.022 C 
ATOM     12  C   UNL A   1      33.324  24.551  26.094  1.00  0.00     0.035 C 
ATOM     13  C   UNL A   1      32.195  23.659  26.616  1.00  0.00     0.004 C 
BRANCH   9  14
ATOM     14  C   UNL A   1      31.608  27.052  24.935  1.00  0.00     0.133 A 
ATOM     15  C   UNL A   1      30.864  29.148  24.385  1.00  0.00     0.161 A 
ATOM     16  N   UNL A   1      31.448  29.739  25.442  1.00  0.00    -0.233 NA
ATOM     17  N   UNL A   1      30.930  27.840  24.087  1.00  0.00    -0.211 NA
ATOM     18  C   UNL A   1      32.111  28.925  26.286  1.00  0.00     0.043 A 
ATOM     19  C   UNL A   1      32.780  29.572  27.459  1.00  0.00     0.067 C 
ATOM     20  C   UNL A   1      32.202  27.564  26.075  1.00  0.00     0.070 A 
BRANCH  15  21
ATOM     21  C   UNL A   1      30.078  29.999  23.490  1.00  0.00     0.019 A 
ATOM     22  C   UNL A   1      27.732  32.511  20.857  1.00  0.00     0.044 C 
ATOM     23  C   UNL A   1      28.543  31.633  21.762  1.00  0.00    -0.051 A 
ATOM     24  C   UNL A   1      28.740  31.999  23.098  1.00  0.00     0.004 A 
ATOM     25  C   UNL A   1      29.123  30.451  21.290  1.00  0.00     0.004 A 
ATOM     26  C   UNL A   1      29.490  31.186  23.953  1.00  0.00     0.012 A 
ATOM     27  C   UNL A   1      29.888  29.648  22.143  1.00  0.00     0.012 A 
ENDBRANCH  15  21
ENDBRANCH   9  14
ENDBRANCH   5   8
ENDBRANCH   3   4
ENDBRANCH   2   3
ENDBRANCH   1   2
BRANCH   1  28
ATOM     28  C   UNL A   1      37.866  22.706  25.541  1.00  0.00     0.116 C 
BRANCH  28  29
ATOM     29  N   UNL A   1      38.885  22.274  26.475  1.00  0.00    -0.352 N 
ATOM     30  C   UNL A   1      39.863  23.010  27.134  1.00  0.00     0.251 C 
ATOM     31  H   UNL A   1      38.887  21.309  26.674  1.00  0.00     0.163 HD
ATOM     32  O   UNL A   1      40.770  22.395  27.668  1.00  0.00    -0.269 OA
BRANCH  30  33
ATOM     33  C   UNL A   1      39.718  24.485  27.327  1.00  0.00     0.039 A 
ATOM     34  C   UNL A   1      40.554  25.341  26.593  1.00  0.00     0.014 A 
ATOM     35  C   UNL A   1      38.982  25.014  28.376  1.00  0.00     0.014 A 
ATOM     36  C   UNL A   1      40.847  26.616  27.078  1.00  0.00     0.010 A 
ATOM     37  C   UNL A   1      39.400  26.180  28.960  1.00  0.00     0.010 A 
ATOM     38  C   UNL A   1      40.366  26.964  28.330  1.00  0.00    -0.014 A 
BRANCH  38  39
ATOM     39  C   UNL A   1      40.666  28.169  29.076  1.00  0.00     0.031 A 
ATOM     40  C   UNL A   1      39.728  29.304  28.947  1.00  0.00     0.074 A 
ATOM     41  C   UNL A   1      41.501  28.049  30.134  1.00  0.00     0.049 A 
ATOM     42  N   UNL A   1      39.853  30.422  29.567  1.00  0.00    -0.248 NA
ATOM     43  C   UNL A   1      38.544  29.248  28.094  1.00  0.00     0.031 C 
ATOM     44  C   UNL A   1      41.507  28.853  31.349  1.00  0.00     0.029 A 
ATOM     45  N   UNL A   1      42.664  27.278  30.237  1.00  0.00    -0.354 N 
ATOM     46  C   UNL A   1      38.670  31.117  29.422  1.00  0.00     0.074 A 
ATOM     47  C   UNL A   1      37.919  30.377  28.441  1.00  0.00     0.031 C 
ATOM     48  C   UNL A   1      42.721  28.767  31.917  1.00  0.00     0.029 A 
ATOM     49  C   UNL A   1      43.570  28.078  30.961  1.00  0.00     0.049 A 
ATOM     50  H   UNL A   1      42.817  26.373  29.881  1.00  0.00     0.167 HD
ATOM     51  C   UNL A   1      38.438  32.170  30.257  1.00  0.00     0.034 A 
ATOM     52  C   UNL A   1      44.711  28.600  30.418  1.00  0.00     0.034 A 
ATOM     53  C   UNL A   1      39.628  32.423  31.081  1.00  0.00     0.049 A 
ATOM     54  C   UNL A   1      44.777  30.118  30.498  1.00  0.00     0.074 A 
ATOM     55  C   UNL A   1      39.990  32.065  32.368  1.00  0.00     0.029 A 
ATOM     56  N   UNL A   1      40.777  32.892  30.462  1.00  0.00    -0.354 N 
ATOM     57  N   UNL A   1      43.769  30.884  30.812  1.00  0.00    -0.248 NA
ATOM     58  C   UNL A   1      45.984  30.896  30.234  1.00  0.00     0.031 C 
ATOM     59  C   UNL A   1      41.394  32.260  32.496  1.00  0.00     0.029 A 
ATOM     60  C   UNL A   1      41.872  32.770  31.300  1.00  0.00     0.049 A 
ATOM     61  H   UNL A   1      40.809  33.264  29.550  1.00  0.00     0.167 HD
ATOM     62  C   UNL A   1      44.117  32.207  30.710  1.00  0.00     0.074 A 
ATOM     63  C   UNL A   1      45.539  32.154  30.409  1.00  0.00     0.031 C 
ATOM     64  C   UNL A   1      43.186  33.209  30.838  1.00  0.00     0.034 A 
BRANCH  51  65
ATOM     65  C   UNL A   1      37.112  32.864  30.527  1.00  0.00     0.023 A 
ATOM     66  C   UNL A   1      36.689  32.915  31.877  1.00  0.00     0.012 A 
ATOM     67  C   UNL A   1      36.215  33.421  29.586  1.00  0.00     0.148 A 
ATOM     68  C   UNL A   1      35.440  33.413  32.264  1.00  0.00     0.002 A 
ATOM     69  C   UNL A   1      34.953  33.894  29.965  1.00  0.00     0.091 A 
ATOM     70  F   UNL A   1      36.578  33.548  28.311  1.00  0.00    -0.205 F 
ATOM     71  C   UNL A   1      34.560  33.884  31.304  1.00  0.00     0.022 A 
BRANCH  69  72
ATOM     72  S   UNL A   1      33.740  34.500  28.776  1.00  0.00     0.127 S 
ATOM     73  O   UNL A   1      32.633  34.902  29.647  1.00  0.00    -0.237 OA
ATOM     74  O   UNL A   1      34.446  35.613  28.141  1.00  0.00    -0.237 OA
ATOM     75  O   UNL A   1      33.429  33.382  27.894  1.00  0.00    -0.744 OA
ENDBRANCH  69  72
ENDBRANCH  51  65
BRANCH  52  76
ATOM     76  C   UNL A   1      45.291  27.749  29.336  1.00  0.00     0.023 A 
ATOM     77  C   UNL A   1      45.612  26.418  29.693  1.00  0.00     0.012 A 
ATOM     78  C   UNL A   1      45.096  28.060  27.976  1.00  0.00     0.148 A 
ATOM     79  C   UNL A   1      45.568  25.392  28.748  1.00  0.00     0.002 A 
ATOM     80  C   UNL A   1      45.062  27.029  27.036  1.00  0.00     0.091 A 
ATOM     81  F   UNL A   1      44.853  29.333  27.640  1.00  0.00    -0.205 F 
ATOM     82  C   UNL A   1      45.249  25.693  27.429  1.00  0.00     0.022 A 
BRANCH  80  83
ATOM     83  S   UNL A   1      44.644  27.318  25.310  1.00  0.00     0.127 S 
ATOM     84  O   UNL A   1      44.584  25.954  24.792  1.00  0.00    -0.237 OA
ATOM     85  O   UNL A   1      43.352  27.997  25.411  1.00  0.00    -0.237 OA
ATOM     86  O   UNL A   1      45.718  28.156  24.797  1.00  0.00    -0.744 OA
ENDBRANCH  80  83
ENDBRANCH  52  76
BRANCH  64  87
ATOM     87  C   UNL A   1      43.368  34.692  30.515  1.00  0.00     0.023 A 
ATOM     88  C   UNL A   1      43.712  35.651  31.482  1.00  0.00     0.012 A 
ATOM     89  C   UNL A   1      43.335  35.153  29.166  1.00  0.00     0.148 A 
ATOM     90  C   UNL A   1      43.992  36.985  31.147  1.00  0.00     0.002 A 
ATOM     91  C   UNL A   1      43.733  36.445  28.826  1.00  0.00     0.091 A 
ATOM     92  F   UNL A   1      42.885  34.356  28.188  1.00  0.00    -0.205 F 
ATOM     93  C   UNL A   1      44.037  37.374  29.816  1.00  0.00     0.022 A 
BRANCH  91  94
ATOM     94  S   UNL A   1      44.032  36.898  27.110  1.00  0.00     0.127 S 
ATOM     95  O   UNL A   1      45.025  35.908  26.702  1.00  0.00    -0.237 OA
ATOM     96  O   UNL A   1      42.710  36.722  26.504  1.00  0.00    -0.237 OA
ATOM     97  O   UNL A   1      44.483  38.282  27.159  1.00  0.00    -0.744 OA
ENDBRANCH  91  94
ENDBRANCH  64  87
ENDBRANCH  38  39
ENDBRANCH  30  33
ENDBRANCH  28  29
ENDBRANCH   1  28
TORSDOF 16
ENDMDL
MODEL 3
REMARK VINA RESULT:     -13.5      3.986      9.841
REMARK SMILES Cc1ccc(-c2nc(C)cc(N3CCCC[C@H]3C(=O)NCCCCNC(=O)c3ccc(-c4c5nc(c(-c6cccc(S(=O)(=O)[O-])c6F)c6ccc([nH]6)c(-c6cccc(S(=O)(=O)[O-])c6F)c6nc(c(-c7cccc(S(=O)(=O)[O-])c7F)c7ccc4[nH]7)C=C6)C=C5)cc3)n2)cc1
REMARK SMILES IDX 23 1 22 2 21 3 20 4 18 5 19 6 17 8 12 9 13 10 14 11 16 12
REMARK SMILES IDX 15 13 11 14 6 15 7 16 91 17 8 18 9 19 10 20 5 21 1 22 2 23
REMARK SMILES IDX 3 24 93 25 4 26 92 27 24 28 25 29 26 30 27 32 28 33 29 34
REMARK SMILES IDX 90 35 30 36 89 37 31 38 32 39 33 40 83 41 34 42 88 43 82 44
REMARK SMILES IDX 84 45 35 46 87 47 81 48 80 49 36 51 68 52 48 53 67 54 49 55
REMARK SMILES IDX 52 56 66 57 85 58 50 59 51 60 65 62 86 63 53 64 37 65 38 66
REMARK SMILES IDX 46 67 39 68 41 69 47 70 40 71 42 72 43 73 44 74 45 75 69 76
REMARK SMILES IDX 70 77 78 78 71 79 73 80 79 81 72 82 74 83 75 84 76 85 77 86
REMARK SMILES IDX 54 87 55 88 63 89 56 90 58 91 64 92 57 93 59 94 60 95 61 96
REMARK SMILES IDX 62 97
REMARK H PARENT 20 7 25 31 84 50 52 61
REMARK Flexibility Score: inf
ROOT
ATOM      1  C   UNL A   1      37.435  22.236  24.538  1.00  0.00     0.023 C 
ENDROOT
BRANCH   1   2
ATOM      2  C   UNL A   1      36.913  20.801  24.507  1.00  0.00     0.023 C 
BRANCH   2   3
ATOM      3  C   UNL A   1      35.554  20.555  25.182  1.00  0.00     0.116 C 
BRANCH   3   4
ATOM      4  N   UNL A   1      34.437  20.863  24.312  1.00  0.00    -0.354 N 
ATOM      5  C   UNL A   1      33.574  21.898  24.199  1.00  0.00     0.242 C 
ATOM      6  O   UNL A   1      32.782  21.803  23.245  1.00  0.00    -0.273 OA
ATOM      7  H   UNL A   1      34.267  20.154  23.650  1.00  0.00     0.163 HD
BRANCH   5   8
ATOM      8  C   UNL A   1      33.464  23.145  25.131  1.00  0.00     0.173 C 
ATOM      9  N   UNL A   1      32.033  23.386  25.426  1.00  0.00    -0.344 N 
ATOM     10  C   UNL A   1      31.429  22.569  26.467  1.00  0.00     0.119 C 
ATOM     11  C   UNL A   1      32.165  22.739  27.790  1.00  0.00     0.022 C 
ATOM     12  C   UNL A   1      34.251  23.312  26.435  1.00  0.00     0.035 C 
ATOM     13  C   UNL A   1      33.673  22.563  27.638  1.00  0.00     0.004 C 
BRANCH   9  14
ATOM     14  C   UNL A   1      31.556  24.675  25.242  1.00  0.00     0.133 A 
ATOM     15  C   UNL A   1      31.718  26.931  25.600  1.00  0.00     0.161 A 
ATOM     16  N   UNL A   1      30.562  27.213  24.973  1.00  0.00    -0.233 NA
ATOM     17  N   UNL A   1      32.235  25.704  25.771  1.00  0.00    -0.211 NA
ATOM     18  C   UNL A   1      29.907  26.165  24.439  1.00  0.00     0.043 A 
ATOM     19  C   UNL A   1      28.610  26.462  23.751  1.00  0.00     0.067 C 
ATOM     20  C   UNL A   1      30.382  24.872  24.538  1.00  0.00     0.070 A 
BRANCH  15  21
ATOM     21  C   UNL A   1      32.486  28.060  26.130  1.00  0.00     0.019 A 
ATOM     22  C   UNL A   1      34.761  31.382  27.721  1.00  0.00     0.044 C 
ATOM     23  C   UNL A   1      33.964  30.236  27.173  1.00  0.00    -0.051 A 
ATOM     24  C   UNL A   1      34.584  29.004  26.938  1.00  0.00     0.004 A 
ATOM     25  C   UNL A   1      32.605  30.380  26.878  1.00  0.00     0.004 A 
ATOM     26  C   UNL A   1      33.850  27.926  26.433  1.00  0.00     0.012 A 
ATOM     27  C   UNL A   1      31.877  29.305  26.355  1.00  0.00     0.012 A 
ENDBRANCH  15  21
ENDBRANCH   9  14
ENDBRANCH   5   8
ENDBRANCH   3   4
ENDBRANCH   2   3
ENDBRANCH   1   2
BRANCH   1  28
ATOM     28  C   UNL A   1      37.620  22.783  25.939  1.00  0.00     0.116 C 
BRANCH  28  29
ATOM     29  N   UNL A   1      38.885  22.458  26.565  1.00  0.00    -0.352 N 
ATOM     30  C   UNL A   1      39.917  23.291  26.979  1.00  0.00     0.251 C 
ATOM     31  H   UNL A   1      39.038  21.497  26.720  1.00  0.00     0.163 HD
ATOM     32  O   UNL A   1      40.990  22.775  27.241  1.00  0.00    -0.269 OA
BRANCH  30  33
ATOM     33  C   UNL A   1      39.673  24.739  27.259  1.00  0.00     0.039 A 
ATOM     34  C   UNL A   1      40.343  25.692  26.475  1.00  0.00     0.014 A 
ATOM     35  C   UNL A   1      39.025  25.161  28.409  1.00  0.00     0.014 A 
ATOM     36  C   UNL A   1      40.583  26.969  26.984  1.00  0.00     0.010 A 
ATOM     37  C   UNL A   1      39.411  26.336  28.996  1.00  0.00     0.010 A 
ATOM     38  C   UNL A   1      40.226  27.226  28.298  1.00  0.00    -0.014 A 
BRANCH  38  39
ATOM     39  C   UNL A   1      40.511  28.423  29.062  1.00  0.00     0.031 A 
ATOM     40  C   UNL A   1      39.561  29.549  28.946  1.00  0.00     0.074 A 
ATOM     41  C   UNL A   1      41.345  28.298  30.119  1.00  0.00     0.049 A 
ATOM     42  N   UNL A   1      39.672  30.660  29.582  1.00  0.00    -0.248 NA
ATOM     43  C   UNL A   1      38.380  29.492  28.090  1.00  0.00     0.031 C 
ATOM     44  C   UNL A   1      41.340  29.085  31.346  1.00  0.00     0.029 A 
ATOM     45  N   UNL A   1      42.517  27.539  30.215  1.00  0.00    -0.354 N 
ATOM     46  C   UNL A   1      38.481  31.344  29.445  1.00  0.00     0.074 A 
ATOM     47  C   UNL A   1      37.741  30.609  28.451  1.00  0.00     0.031 C 
ATOM     48  C   UNL A   1      42.553  29.005  31.915  1.00  0.00     0.029 A 
ATOM     49  C   UNL A   1      43.411  28.338  30.952  1.00  0.00     0.049 A 
ATOM     50  H   UNL A   1      42.681  26.641  29.846  1.00  0.00     0.167 HD
ATOM     51  C   UNL A   1      38.236  32.382  30.293  1.00  0.00     0.034 A 
ATOM     52  C   UNL A   1      44.548  28.881  30.420  1.00  0.00     0.034 A 
ATOM     53  C   UNL A   1      39.421  32.637  31.124  1.00  0.00     0.049 A 
ATOM     54  C   UNL A   1      44.597  30.399  30.521  1.00  0.00     0.074 A 
ATOM     55  C   UNL A   1      39.784  32.265  32.407  1.00  0.00     0.029 A 
ATOM     56  N   UNL A   1      40.566  33.128  30.514  1.00  0.00    -0.354 N 
ATOM     57  N   UNL A   1      43.579  31.148  30.843  1.00  0.00    -0.248 NA
ATOM     58  C   UNL A   1      45.796  31.193  30.271  1.00  0.00     0.031 C 
ATOM     59  C   UNL A   1      41.185  32.474  32.540  1.00  0.00     0.029 A 
ATOM     60  C   UNL A   1      41.661  33.006  31.353  1.00  0.00     0.049 A 
ATOM     61  H   UNL A   1      40.596  33.512  29.607  1.00  0.00     0.167 HD
ATOM     62  C   UNL A   1      43.913  32.477  30.760  1.00  0.00     0.074 A 
ATOM     63  C   UNL A   1      45.336  32.444  30.462  1.00  0.00     0.031 C 
ATOM     64  C   UNL A   1      42.971  33.466  30.900  1.00  0.00     0.034 A 
BRANCH  51  65
ATOM     65  C   UNL A   1      36.901  33.057  30.570  1.00  0.00     0.023 A 
ATOM     66  C   UNL A   1      36.360  32.881  31.866  1.00  0.00     0.012 A 
ATOM     67  C   UNL A   1      36.101  33.800  29.671  1.00  0.00     0.148 A 
ATOM     68  C   UNL A   1      35.089  33.339  32.229  1.00  0.00     0.002 A 
ATOM     69  C   UNL A   1      34.817  34.237  30.021  1.00  0.00     0.091 A 
ATOM     70  F   UNL A   1      36.577  34.141  28.476  1.00  0.00    -0.205 F 
ATOM     71  C   UNL A   1      34.306  34.000  31.298  1.00  0.00     0.022 A 
BRANCH  69  72
ATOM     72  S   UNL A   1      33.724  35.082  28.861  1.00  0.00     0.127 S 
ATOM     73  O   UNL A   1      32.641  35.535  29.738  1.00  0.00    -0.237 OA
ATOM     74  O   UNL A   1      34.575  36.154  28.346  1.00  0.00    -0.237 OA
ATOM     75  O   UNL A   1      33.317  34.088  27.875  1.00  0.00    -0.744 OA
ENDBRANCH  69  72
ENDBRANCH  51  65
BRANCH  52  76
ATOM     76  C   UNL A   1      45.141  28.052  29.326  1.00  0.00     0.023 A 
ATOM     77  C   UNL A   1      45.617  26.773  29.702  1.00  0.00     0.012 A 
ATOM     78  C   UNL A   1      44.827  28.291  27.975  1.00  0.00     0.148 A 
ATOM     79  C   UNL A   1      45.616  25.713  28.794  1.00  0.00     0.002 A 
ATOM     80  C   UNL A   1      44.837  27.227  27.071  1.00  0.00     0.091 A 
ATOM     81  F   UNL A   1      44.435  29.520  27.617  1.00  0.00    -0.205 F 
ATOM     82  C   UNL A   1      45.183  25.932  27.491  1.00  0.00     0.022 A 
BRANCH  80  83
ATOM     83  S   UNL A   1      44.281  27.409  25.369  1.00  0.00     0.127 S 
ATOM     84  O   UNL A   1      43.826  26.055  25.065  1.00  0.00    -0.237 OA
ATOM     85  O   UNL A   1      43.217  28.404  25.494  1.00  0.00    -0.237 OA
ATOM     86  O   UNL A   1      45.450  27.875  24.638  1.00  0.00    -0.744 OA
ENDBRANCH  80  83
ENDBRANCH  52  76
BRANCH  64  87
ATOM     87  C   UNL A   1      43.136  34.955  30.598  1.00  0.00     0.023 A 
ATOM     88  C   UNL A   1      43.629  35.878  31.536  1.00  0.00     0.012 A 
ATOM     89  C   UNL A   1      42.928  35.460  29.281  1.00  0.00     0.148 A 
ATOM     90  C   UNL A   1      43.888  37.217  31.204  1.00  0.00     0.002 A 
ATOM     91  C   UNL A   1      43.301  36.754  28.926  1.00  0.00     0.091 A 
ATOM     92  F   UNL A   1      42.331  34.701  28.351  1.00  0.00    -0.205 F 
ATOM     93  C   UNL A   1      43.758  37.647  29.892  1.00  0.00     0.022 A 
BRANCH  91  94
ATOM     94  S   UNL A   1      43.370  37.257  27.200  1.00  0.00     0.127 S 
ATOM     95  O   UNL A   1      43.552  35.978  26.518  1.00  0.00    -0.237 OA
ATOM     96  O   UNL A   1      42.057  37.873  26.999  1.00  0.00    -0.237 OA
ATOM     97  O   UNL A   1      44.483  38.194  27.124  1.00  0.00    -0.744 OA
ENDBRANCH  91  94
ENDBRANCH  64  87
ENDBRANCH  38  39
ENDBRANCH  30  33
ENDBRANCH  28  29
ENDBRANCH   1  28
TORSDOF 16
ENDMDL
