MODEL 1
REMARK VINA RESULT:     -11.5      0.000      0.000
REMARK SMILES O=C(CN(Cc1ccccc1Cl)S(=O)(=O)c1ccc(Cl)cc1)NCCCCNC(=O)c1ccc(-c2c3nc(c(-c4cccc(S(=O)(=O)[O-])c4F)c4ccc([nH]4)c(-c4cccc(S(=O)(=O)[O-])c4F)c4nc(c(-c5cccc(S(=O)(=O)[O-])c5F)c5ccc2[nH]5)C=C4)C=C3)cc1
REMARK SMILES IDX 25 1 24 2 23 3 1 4 2 5 3 7 4 8 5 9 6 10 7 11 11 12 8 13
REMARK SMILES IDX 10 14 12 15 9 16 13 17 14 18 15 19 16 20 17 21 22 22 18 23
REMARK SMILES IDX 21 24 19 25 20 26 26 27 27 28 28 29 29 30 30 32 31 33 32 34
REMARK SMILES IDX 93 35 33 36 92 37 34 38 35 39 36 40 86 41 37 42 91 43 85 44
REMARK SMILES IDX 87 45 38 46 90 47 84 48 83 49 39 51 71 52 51 53 70 54 52 55
REMARK SMILES IDX 55 56 69 57 88 58 53 59 54 60 68 62 89 63 56 64 40 65 41 66
REMARK SMILES IDX 49 67 42 68 44 69 50 70 43 71 45 72 46 73 47 74 48 75 72 76
REMARK SMILES IDX 73 77 81 78 74 79 76 80 82 81 75 82 77 83 78 84 79 85 80 86
REMARK SMILES IDX 57 87 58 88 66 89 59 90 61 91 67 92 60 93 62 94 63 95 64 96
REMARK SMILES IDX 65 97
REMARK H PARENT 23 6 28 31 87 50 55 61
REMARK Flexibility Score: inf
ROOT
ATOM      1  C   UNL A   1      31.869  27.883  26.890  1.00  0.00     0.023 C 
ENDROOT
BRANCH   1   2
ATOM      2  C   UNL A   1      31.109  27.993  25.570  1.00  0.00     0.116 C 
BRANCH   2   3
ATOM      3  N   UNL A   1      31.276  26.816  24.746  1.00  0.00    -0.355 N 
ATOM      4  O   UNL A   1      29.824  27.461  23.078  1.00  0.00    -0.274 OA
ATOM      5  C   UNL A   1      30.628  26.654  23.540  1.00  0.00     0.235 C 
ATOM      6  H   UNL A   1      31.876  26.101  25.059  1.00  0.00     0.163 HD
BRANCH   5   7
ATOM      7  C   UNL A   1      30.927  25.340  22.851  1.00  0.00     0.202 C 
BRANCH   7   8
ATOM      8  N   UNL A   1      32.046  24.477  23.330  1.00  0.00    -0.184 NA
BRANCH   8   9
ATOM      9  C   UNL A   1      31.531  23.284  24.058  1.00  0.00     0.140 C 
BRANCH   9  10
ATOM     10  C   UNL A   1      32.261  22.723  25.269  1.00  0.00    -0.014 A 
ATOM     11  C   UNL A   1      32.346  23.390  26.502  1.00  0.00     0.006 A 
ATOM     12  C   UNL A   1      32.911  21.474  25.176  1.00  0.00     0.045 A 
ATOM     13  C   UNL A   1      33.007  22.828  27.600  1.00  0.00     0.000 A 
ATOM     14  C   UNL A   1      33.590  20.919  26.268  1.00  0.00     0.021 A 
ATOM     15  Cl  UNL A   1      32.918  20.558  23.707  1.00  0.00    -0.084 Cl
ATOM     16  C   UNL A   1      33.629  21.592  27.486  1.00  0.00     0.002 A 
ENDBRANCH   9  10
ENDBRANCH   8   9
BRANCH   8  17
ATOM     17  S   UNL A   1      33.471  24.393  22.415  1.00  0.00     0.243 S 
ATOM     18  O   UNL A   1      33.372  23.313  21.454  1.00  0.00    -0.207 OA
ATOM     19  O   UNL A   1      33.791  25.729  21.974  1.00  0.00    -0.207 OA
BRANCH  17  20
ATOM     20  C   UNL A   1      34.772  23.931  23.552  1.00  0.00     0.082 A 
ATOM     21  C   UNL A   1      35.714  22.963  23.181  1.00  0.00     0.023 A 
ATOM     22  C   UNL A   1      34.942  24.661  24.736  1.00  0.00     0.023 A 
ATOM     23  C   UNL A   1      36.791  22.684  24.026  1.00  0.00     0.022 A 
ATOM     24  C   UNL A   1      36.040  24.399  25.562  1.00  0.00     0.022 A 
ATOM     25  C   UNL A   1      36.954  23.408  25.208  1.00  0.00     0.041 A 
ATOM     26  Cl  UNL A   1      38.315  23.100  26.213  1.00  0.00    -0.084 Cl
ENDBRANCH  17  20
ENDBRANCH   8  17
ENDBRANCH   7   8
ENDBRANCH   5   7
ENDBRANCH   2   3
ENDBRANCH   1   2
BRANCH   1  27
ATOM     27  C   UNL A   1      33.396  27.840  26.763  1.00  0.00     0.023 C 
BRANCH  27  28
ATOM     28  C   UNL A   1      34.038  29.026  26.049  1.00  0.00     0.116 C 
BRANCH  28  29
ATOM     29  N   UNL A   1      33.856  30.285  26.753  1.00  0.00    -0.352 N 
ATOM     30  C   UNL A   1      34.612  30.845  27.755  1.00  0.00     0.251 C 
ATOM     31  H   UNL A   1      33.074  30.813  26.472  1.00  0.00     0.163 HD
ATOM     32  O   UNL A   1      34.222  31.868  28.310  1.00  0.00    -0.269 OA
BRANCH  30  33
ATOM     33  C   UNL A   1      35.878  30.208  28.188  1.00  0.00     0.039 A 
ATOM     34  C   UNL A   1      37.004  30.326  27.366  1.00  0.00     0.014 A 
ATOM     35  C   UNL A   1      35.961  29.488  29.383  1.00  0.00     0.014 A 
ATOM     36  C   UNL A   1      38.226  29.784  27.774  1.00  0.00     0.010 A 
ATOM     37  C   UNL A   1      37.193  28.998  29.815  1.00  0.00     0.010 A 
ATOM     38  C   UNL A   1      38.339  29.143  29.018  1.00  0.00    -0.014 A 
BRANCH  38  39
ATOM     39  C   UNL A   1      39.649  28.645  29.515  1.00  0.00     0.031 A 
ATOM     40  C   UNL A   1      40.375  29.370  30.616  1.00  0.00     0.074 A 
ATOM     41  C   UNL A   1      40.233  27.593  28.907  1.00  0.00     0.049 A 
ATOM     42  N   UNL A   1      41.553  29.122  31.128  1.00  0.00    -0.248 NA
ATOM     43  C   UNL A   1      39.702  30.542  31.200  1.00  0.00     0.031 C 
ATOM     44  C   UNL A   1      39.670  26.851  27.777  1.00  0.00     0.029 A 
ATOM     45  N   UNL A   1      41.442  26.984  29.135  1.00  0.00    -0.354 N 
ATOM     46  C   UNL A   1      41.781  30.124  32.062  1.00  0.00     0.074 A 
ATOM     47  C   UNL A   1      40.628  30.999  32.032  1.00  0.00     0.031 C 
ATOM     48  C   UNL A   1      40.532  25.888  27.410  1.00  0.00     0.029 A 
ATOM     49  C   UNL A   1      41.716  25.956  28.261  1.00  0.00     0.049 A 
ATOM     50  H   UNL A   1      42.055  27.256  29.855  1.00  0.00     0.167 HD
ATOM     51  C   UNL A   1      42.840  30.288  32.892  1.00  0.00     0.034 A 
ATOM     52  C   UNL A   1      42.798  25.161  28.155  1.00  0.00     0.034 A 
ATOM     53  C   UNL A   1      43.955  29.383  32.968  1.00  0.00     0.049 A 
ATOM     54  C   UNL A   1      43.932  25.327  29.130  1.00  0.00     0.074 A 
ATOM     55  C   UNL A   1      45.022  29.407  33.849  1.00  0.00     0.029 A 
ATOM     56  N   UNL A   1      44.150  28.294  32.136  1.00  0.00    -0.354 N 
ATOM     57  N   UNL A   1      44.050  26.177  30.120  1.00  0.00    -0.248 NA
ATOM     58  C   UNL A   1      45.067  24.401  28.996  1.00  0.00     0.031 C 
ATOM     59  C   UNL A   1      45.866  28.334  33.545  1.00  0.00     0.029 A 
ATOM     60  C   UNL A   1      45.321  27.639  32.477  1.00  0.00     0.049 A 
ATOM     61  H   UNL A   1      43.544  28.024  31.408  1.00  0.00     0.167 HD
ATOM     62  C   UNL A   1      45.251  25.869  30.748  1.00  0.00     0.074 A 
ATOM     63  C   UNL A   1      45.816  24.739  30.038  1.00  0.00     0.031 C 
ATOM     64  C   UNL A   1      45.842  26.478  31.805  1.00  0.00     0.034 A 
BRANCH  51  65
ATOM     65  C   UNL A   1      42.812  31.456  33.840  1.00  0.00     0.023 A 
ATOM     66  C   UNL A   1      43.327  32.698  33.418  1.00  0.00     0.012 A 
ATOM     67  C   UNL A   1      42.221  31.349  35.114  1.00  0.00     0.148 A 
ATOM     68  C   UNL A   1      43.279  33.810  34.258  1.00  0.00     0.002 A 
ATOM     69  C   UNL A   1      42.144  32.471  35.932  1.00  0.00     0.091 A 
ATOM     70  F   UNL A   1      41.759  30.153  35.507  1.00  0.00    -0.205 F 
ATOM     71  C   UNL A   1      42.680  33.698  35.509  1.00  0.00     0.022 A 
BRANCH  69  72
ATOM     72  S   UNL A   1      41.326  32.441  37.532  1.00  0.00     0.127 S 
ATOM     73  O   UNL A   1      40.011  31.906  37.180  1.00  0.00    -0.237 OA
ATOM     74  O   UNL A   1      42.171  31.524  38.297  1.00  0.00    -0.237 OA
ATOM     75  O   UNL A   1      41.340  33.816  38.011  1.00  0.00    -0.744 OA
ENDBRANCH  69  72
ENDBRANCH  51  65
BRANCH  52  76
ATOM     76  C   UNL A   1      42.821  24.073  27.137  1.00  0.00     0.023 A 
ATOM     77  C   UNL A   1      43.530  24.275  25.937  1.00  0.00     0.012 A 
ATOM     78  C   UNL A   1      42.184  22.839  27.359  1.00  0.00     0.148 A 
ATOM     79  C   UNL A   1      43.582  23.276  24.964  1.00  0.00     0.002 A 
ATOM     80  C   UNL A   1      42.282  21.828  26.409  1.00  0.00     0.091 A 
ATOM     81  F   UNL A   1      41.497  22.671  28.499  1.00  0.00    -0.205 F 
ATOM     82  C   UNL A   1      42.968  22.049  25.205  1.00  0.00     0.022 A 
BRANCH  80  83
ATOM     83  S   UNL A   1      41.631  20.179  26.701  1.00  0.00     0.127 S 
ATOM     84  O   UNL A   1      41.921  19.512  25.435  1.00  0.00    -0.237 OA
ATOM     85  O   UNL A   1      42.436  19.726  27.837  1.00  0.00    -0.237 OA
ATOM     86  O   UNL A   1      40.221  20.373  27.014  1.00  0.00    -0.744 OA
ENDBRANCH  80  83
ENDBRANCH  52  76
BRANCH  64  87
ATOM     87  C   UNL A   1      47.159  25.927  32.283  1.00  0.00     0.023 A 
ATOM     88  C   UNL A   1      48.358  26.419  31.732  1.00  0.00     0.012 A 
ATOM     89  C   UNL A   1      47.212  24.988  33.331  1.00  0.00     0.148 A 
ATOM     90  C   UNL A   1      49.591  25.967  32.199  1.00  0.00     0.002 A 
ATOM     91  C   UNL A   1      48.447  24.572  33.820  1.00  0.00     0.091 A 
ATOM     92  F   UNL A   1      46.061  24.513  33.828  1.00  0.00    -0.205 F 
ATOM     93  C   UNL A   1      49.636  25.053  33.251  1.00  0.00     0.022 A 
BRANCH  91  94
ATOM     94  S   UNL A   1      48.591  23.466  35.229  1.00  0.00     0.127 S 
ATOM     95  O   UNL A   1      50.040  23.376  35.392  1.00  0.00    -0.237 OA
ATOM     96  O   UNL A   1      47.903  24.209  36.286  1.00  0.00    -0.237 OA
ATOM     97  O   UNL A   1      47.922  22.233  34.833  1.00  0.00    -0.744 OA
ENDBRANCH  91  94
ENDBRANCH  64  87
ENDBRANCH  38  39
ENDBRANCH  30  33
ENDBRANCH  28  29
ENDBRANCH  27  28
ENDBRANCH   1  27
TORSDOF 19
ENDMDL
MODEL 2
REMARK VINA RESULT:     -11.5      4.495      9.447
REMARK SMILES O=C(CN(Cc1ccccc1Cl)S(=O)(=O)c1ccc(Cl)cc1)NCCCCNC(=O)c1ccc(-c2c3nc(c(-c4cccc(S(=O)(=O)[O-])c4F)c4ccc([nH]4)c(-c4cccc(S(=O)(=O)[O-])c4F)c4nc(c(-c5cccc(S(=O)(=O)[O-])c5F)c5ccc2[nH]5)C=C4)C=C3)cc1
REMARK SMILES IDX 25 1 24 2 23 3 1 4 2 5 3 7 4 8 5 9 6 10 7 11 11 12 8 13
REMARK SMILES IDX 10 14 12 15 9 16 13 17 14 18 15 19 16 20 17 21 22 22 18 23
REMARK SMILES IDX 21 24 19 25 20 26 26 27 27 28 28 29 29 30 30 32 31 33 32 34
REMARK SMILES IDX 93 35 33 36 92 37 34 38 35 39 36 40 86 41 37 42 91 43 85 44
REMARK SMILES IDX 87 45 38 46 90 47 84 48 83 49 39 51 71 52 51 53 70 54 52 55
REMARK SMILES IDX 55 56 69 57 88 58 53 59 54 60 68 62 89 63 56 64 40 65 41 66
REMARK SMILES IDX 49 67 42 68 44 69 50 70 43 71 45 72 46 73 47 74 48 75 72 76
REMARK SMILES IDX 73 77 81 78 74 79 76 80 82 81 75 82 77 83 78 84 79 85 80 86
REMARK SMILES IDX 57 87 58 88 66 89 59 90 61 91 67 92 60 93 62 94 63 95 64 96
REMARK SMILES IDX 65 97
REMARK H PARENT 23 6 28 31 87 50 55 61
REMARK Flexibility Score: inf
ROOT
ATOM      1  C   UNL A   1      35.499  22.516  23.850  1.00  0.00     0.023 C 
ENDROOT
BRANCH   1   2
ATOM      2  C   UNL A   1      34.665  21.690  24.827  1.00  0.00     0.116 C 
BRANCH   2   3
ATOM      3  N   UNL A   1      33.356  22.266  25.044  1.00  0.00    -0.355 N 
ATOM      4  O   UNL A   1      32.429  21.556  23.058  1.00  0.00    -0.274 OA
ATOM      5  C   UNL A   1      32.324  22.131  24.139  1.00  0.00     0.235 C 
ATOM      6  H   UNL A   1      33.194  22.776  25.871  1.00  0.00     0.163 HD
BRANCH   5   7
ATOM      7  C   UNL A   1      31.046  22.829  24.552  1.00  0.00     0.202 C 
BRANCH   7   8
ATOM      8  N   UNL A   1      31.029  24.305  24.762  1.00  0.00    -0.184 NA
BRANCH   8   9
ATOM      9  C   UNL A   1      30.419  25.007  23.598  1.00  0.00     0.140 C 
BRANCH   9  10
ATOM     10  C   UNL A   1      30.650  26.492  23.363  1.00  0.00    -0.014 A 
ATOM     11  C   UNL A   1      29.688  27.480  23.632  1.00  0.00     0.006 A 
ATOM     12  C   UNL A   1      31.882  26.933  22.835  1.00  0.00     0.045 A 
ATOM     13  C   UNL A   1      29.948  28.839  23.425  1.00  0.00     0.000 A 
ATOM     14  C   UNL A   1      32.137  28.292  22.610  1.00  0.00     0.021 A 
ATOM     15  Cl  UNL A   1      33.145  25.824  22.426  1.00  0.00    -0.084 Cl
ATOM     16  C   UNL A   1      31.173  29.247  22.915  1.00  0.00     0.002 A 
ENDBRANCH   9  10
ENDBRANCH   8   9
BRANCH   8  17
ATOM     17  S   UNL A   1      30.853  24.912  26.336  1.00  0.00     0.243 S 
ATOM     18  O   UNL A   1      29.489  25.355  26.539  1.00  0.00    -0.207 OA
ATOM     19  O   UNL A   1      31.450  23.962  27.243  1.00  0.00    -0.207 OA
BRANCH  17  20
ATOM     20  C   UNL A   1      31.873  26.378  26.427  1.00  0.00     0.082 A 
ATOM     21  C   UNL A   1      31.375  27.540  27.028  1.00  0.00     0.023 A 
ATOM     22  C   UNL A   1      33.221  26.303  26.049  1.00  0.00     0.023 A 
ATOM     23  C   UNL A   1      32.210  28.647  27.195  1.00  0.00     0.022 A 
ATOM     24  C   UNL A   1      34.060  27.404  26.249  1.00  0.00     0.022 A 
ATOM     25  C   UNL A   1      33.551  28.572  26.813  1.00  0.00     0.041 A 
ATOM     26  Cl  UNL A   1      34.587  29.919  27.077  1.00  0.00    -0.084 Cl
ENDBRANCH  17  20
ENDBRANCH   8  17
ENDBRANCH   7   8
ENDBRANCH   5   7
ENDBRANCH   2   3
ENDBRANCH   1   2
BRANCH   1  27
ATOM     27  C   UNL A   1      36.630  23.332  24.483  1.00  0.00     0.023 C 
BRANCH  27  28
ATOM     28  C   UNL A   1      36.938  23.021  25.946  1.00  0.00     0.116 C 
BRANCH  28  29
ATOM     29  N   UNL A   1      38.134  22.213  26.118  1.00  0.00    -0.352 N 
ATOM     30  C   UNL A   1      39.402  22.594  26.487  1.00  0.00     0.251 C 
ATOM     31  H   UNL A   1      38.019  21.250  25.945  1.00  0.00     0.163 HD
ATOM     32  O   UNL A   1      40.315  21.772  26.459  1.00  0.00    -0.269 OA
BRANCH  30  33
ATOM     33  C   UNL A   1      39.682  23.992  26.888  1.00  0.00     0.039 A 
ATOM     34  C   UNL A   1      39.538  24.344  28.235  1.00  0.00     0.014 A 
ATOM     35  C   UNL A   1      40.067  24.957  25.954  1.00  0.00     0.014 A 
ATOM     36  C   UNL A   1      39.848  25.642  28.654  1.00  0.00     0.010 A 
ATOM     37  C   UNL A   1      40.431  26.234  26.382  1.00  0.00     0.010 A 
ATOM     38  C   UNL A   1      40.329  26.589  27.735  1.00  0.00    -0.014 A 
BRANCH  38  39
ATOM     39  C   UNL A   1      40.755  27.944  28.174  1.00  0.00     0.031 A 
ATOM     40  C   UNL A   1      42.215  28.310  28.213  1.00  0.00     0.074 A 
ATOM     41  C   UNL A   1      39.834  28.814  28.633  1.00  0.00     0.049 A 
ATOM     42  N   UNL A   1      42.775  29.416  28.631  1.00  0.00    -0.248 NA
ATOM     43  C   UNL A   1      43.171  27.293  27.746  1.00  0.00     0.031 C 
ATOM     44  C   UNL A   1      38.396  28.553  28.721  1.00  0.00     0.029 A 
ATOM     45  N   UNL A   1      39.973  30.084  29.137  1.00  0.00    -0.354 N 
ATOM     46  C   UNL A   1      44.145  29.216  28.517  1.00  0.00     0.074 A 
ATOM     47  C   UNL A   1      44.333  27.874  28.011  1.00  0.00     0.031 C 
ATOM     48  C   UNL A   1      37.785  29.627  29.249  1.00  0.00     0.029 A 
ATOM     49  C   UNL A   1      38.787  30.644  29.557  1.00  0.00     0.049 A 
ATOM     50  H   UNL A   1      40.838  30.549  29.194  1.00  0.00     0.167 HD
ATOM     51  C   UNL A   1      45.154  30.080  28.781  1.00  0.00     0.034 A 
ATOM     52  C   UNL A   1      38.535  31.839  30.125  1.00  0.00     0.034 A 
ATOM     53  C   UNL A   1      44.965  31.436  29.221  1.00  0.00     0.049 A 
ATOM     54  C   UNL A   1      39.669  32.801  30.350  1.00  0.00     0.074 A 
ATOM     55  C   UNL A   1      45.921  32.418  29.414  1.00  0.00     0.029 A 
ATOM     56  N   UNL A   1      43.742  32.002  29.539  1.00  0.00    -0.354 N 
ATOM     57  N   UNL A   1      40.942  32.654  30.074  1.00  0.00    -0.248 NA
ATOM     58  C   UNL A   1      39.329  34.108  30.932  1.00  0.00     0.031 C 
ATOM     59  C   UNL A   1      45.274  33.578  29.853  1.00  0.00     0.029 A 
ATOM     60  C   UNL A   1      43.916  33.319  29.929  1.00  0.00     0.049 A 
ATOM     61  H   UNL A   1      42.876  31.537  29.492  1.00  0.00     0.167 HD
ATOM     62  C   UNL A   1      41.549  33.857  30.415  1.00  0.00     0.074 A 
ATOM     63  C   UNL A   1      40.501  34.732  30.900  1.00  0.00     0.031 C 
ATOM     64  C   UNL A   1      42.859  34.201  30.349  1.00  0.00     0.034 A 
BRANCH  51  65
ATOM     65  C   UNL A   1      46.562  29.608  28.531  1.00  0.00     0.023 A 
ATOM     66  C   UNL A   1      47.167  29.874  27.286  1.00  0.00     0.012 A 
ATOM     67  C   UNL A   1      47.307  28.967  29.540  1.00  0.00     0.148 A 
ATOM     68  C   UNL A   1      48.483  29.485  27.038  1.00  0.00     0.002 A 
ATOM     69  C   UNL A   1      48.630  28.615  29.298  1.00  0.00     0.091 A 
ATOM     70  F   UNL A   1      46.706  28.701  30.708  1.00  0.00    -0.205 F 
ATOM     71  C   UNL A   1      49.216  28.866  28.046  1.00  0.00     0.022 A 
BRANCH  69  72
ATOM     72  S   UNL A   1      49.676  27.878  30.559  1.00  0.00     0.127 S 
ATOM     73  O   UNL A   1      50.942  27.732  29.843  1.00  0.00    -0.237 OA
ATOM     74  O   UNL A   1      49.680  28.905  31.601  1.00  0.00    -0.237 OA
ATOM     75  O   UNL A   1      49.021  26.634  30.941  1.00  0.00    -0.744 OA
ENDBRANCH  69  72
ENDBRANCH  51  65
BRANCH  52  76
ATOM     76  C   UNL A   1      37.131  32.227  30.441  1.00  0.00     0.023 A 
ATOM     77  C   UNL A   1      36.635  32.000  31.740  1.00  0.00     0.012 A 
ATOM     78  C   UNL A   1      36.303  32.848  29.488  1.00  0.00     0.148 A 
ATOM     79  C   UNL A   1      35.329  32.359  32.075  1.00  0.00     0.002 A 
ATOM     80  C   UNL A   1      35.020  33.250  29.843  1.00  0.00     0.091 A 
ATOM     81  F   UNL A   1      36.786  33.039  28.251  1.00  0.00    -0.205 F 
ATOM     82  C   UNL A   1      34.526  32.994  31.131  1.00  0.00     0.022 A 
BRANCH  80  83
ATOM     83  S   UNL A   1      33.974  34.190  28.725  1.00  0.00     0.127 S 
ATOM     84  O   UNL A   1      33.641  33.191  27.713  1.00  0.00    -0.237 OA
ATOM     85  O   UNL A   1      32.863  34.580  29.596  1.00  0.00    -0.237 OA
ATOM     86  O   UNL A   1      34.795  35.307  28.277  1.00  0.00    -0.744 OA
ENDBRANCH  80  83
ENDBRANCH  52  76
BRANCH  64  87
ATOM     87  C   UNL A   1      43.240  35.588  30.789  1.00  0.00     0.023 A 
ATOM     88  C   UNL A   1      43.605  35.817  32.129  1.00  0.00     0.012 A 
ATOM     89  C   UNL A   1      43.318  36.645  29.861  1.00  0.00     0.148 A 
ATOM     90  C   UNL A   1      44.018  37.080  32.547  1.00  0.00     0.002 A 
ATOM     91  C   UNL A   1      43.770  37.894  30.275  1.00  0.00     0.091 A 
ATOM     92  F   UNL A   1      42.945  36.416  28.593  1.00  0.00    -0.205 F 
ATOM     93  C   UNL A   1      44.113  38.116  31.619  1.00  0.00     0.022 A 
BRANCH  91  94
ATOM     94  S   UNL A   1      44.004  39.254  29.125  1.00  0.00     0.127 S 
ATOM     95  O   UNL A   1      44.633  40.262  29.976  1.00  0.00    -0.237 OA
ATOM     96  O   UNL A   1      44.889  38.667  28.118  1.00  0.00    -0.237 OA
ATOM     97  O   UNL A   1      42.674  39.586  28.631  1.00  0.00    -0.744 OA
ENDBRANCH  91  94
ENDBRANCH  64  87
ENDBRANCH  38  39
ENDBRANCH  30  33
ENDBRANCH  28  29
ENDBRANCH  27  28
ENDBRANCH   1  27
TORSDOF 19
ENDMDL
MODEL 3
REMARK VINA RESULT:     -11.2      3.066      4.183
REMARK SMILES O=C(CN(Cc1ccccc1Cl)S(=O)(=O)c1ccc(Cl)cc1)NCCCCNC(=O)c1ccc(-c2c3nc(c(-c4cccc(S(=O)(=O)[O-])c4F)c4ccc([nH]4)c(-c4cccc(S(=O)(=O)[O-])c4F)c4nc(c(-c5cccc(S(=O)(=O)[O-])c5F)c5ccc2[nH]5)C=C4)C=C3)cc1
REMARK SMILES IDX 25 1 24 2 23 3 1 4 2 5 3 7 4 8 5 9 6 10 7 11 11 12 8 13
REMARK SMILES IDX 10 14 12 15 9 16 13 17 14 18 15 19 16 20 17 21 22 22 18 23
REMARK SMILES IDX 21 24 19 25 20 26 26 27 27 28 28 29 29 30 30 32 31 33 32 34
REMARK SMILES IDX 93 35 33 36 92 37 34 38 35 39 36 40 86 41 37 42 91 43 85 44
REMARK SMILES IDX 87 45 38 46 90 47 84 48 83 49 39 51 71 52 51 53 70 54 52 55
REMARK SMILES IDX 55 56 69 57 88 58 53 59 54 60 68 62 89 63 56 64 40 65 41 66
REMARK SMILES IDX 49 67 42 68 44 69 50 70 43 71 45 72 46 73 47 74 48 75 72 76
REMARK SMILES IDX 73 77 81 78 74 79 76 80 82 81 75 82 77 83 78 84 79 85 80 86
REMARK SMILES IDX 57 87 58 88 66 89 59 90 61 91 67 92 60 93 62 94 63 95 64 96
REMARK SMILES IDX 65 97
REMARK H PARENT 23 6 28 31 87 50 55 61
REMARK Flexibility Score: inf
ROOT
ATOM      1  C   UNL A   1      31.563  30.571  25.804  1.00  0.00     0.023 C 
ENDROOT
BRANCH   1   2
ATOM      2  C   UNL A   1      31.854  29.177  26.354  1.00  0.00     0.116 C 
BRANCH   2   3
ATOM      3  N   UNL A   1      31.701  28.152  25.345  1.00  0.00    -0.355 N 
ATOM      4  O   UNL A   1      30.726  26.581  26.719  1.00  0.00    -0.274 OA
ATOM      5  C   UNL A   1      31.121  26.929  25.608  1.00  0.00     0.235 C 
ATOM      6  H   UNL A   1      32.024  28.334  24.432  1.00  0.00     0.163 HD
BRANCH   5   7
ATOM      7  C   UNL A   1      31.080  25.997  24.417  1.00  0.00     0.202 C 
BRANCH   7   8
ATOM      8  N   UNL A   1      32.122  24.943  24.250  1.00  0.00    -0.184 NA
BRANCH   8   9
ATOM      9  C   UNL A   1      31.507  23.589  24.151  1.00  0.00     0.140 C 
BRANCH   9  10
ATOM     10  C   UNL A   1      32.218  22.359  24.694  1.00  0.00    -0.014 A 
ATOM     11  C   UNL A   1      32.704  22.259  26.008  1.00  0.00     0.006 A 
ATOM     12  C   UNL A   1      32.430  21.246  23.852  1.00  0.00     0.045 A 
ATOM     13  C   UNL A   1      33.332  21.099  26.476  1.00  0.00     0.000 A 
ATOM     14  C   UNL A   1      33.075  20.092  24.314  1.00  0.00     0.021 A 
ATOM     15  Cl  UNL A   1      31.915  21.244  22.200  1.00  0.00    -0.084 Cl
ATOM     16  C   UNL A   1      33.518  20.014  25.631  1.00  0.00     0.002 A 
ENDBRANCH   9  10
ENDBRANCH   8   9
BRANCH   8  17
ATOM     17  S   UNL A   1      33.545  25.318  23.407  1.00  0.00     0.243 S 
ATOM     18  O   UNL A   1      33.400  24.946  22.014  1.00  0.00    -0.207 OA
ATOM     19  O   UNL A   1      33.927  26.663  23.764  1.00  0.00    -0.207 OA
BRANCH  17  20
ATOM     20  C   UNL A   1      34.820  24.257  24.076  1.00  0.00     0.082 A 
ATOM     21  C   UNL A   1      35.408  23.276  23.268  1.00  0.00     0.023 A 
ATOM     22  C   UNL A   1      35.341  24.526  25.349  1.00  0.00     0.023 A 
ATOM     23  C   UNL A   1      36.477  22.523  23.759  1.00  0.00     0.022 A 
ATOM     24  C   UNL A   1      36.433  23.790  25.822  1.00  0.00     0.022 A 
ATOM     25  C   UNL A   1      36.991  22.789  25.030  1.00  0.00     0.041 A 
ATOM     26  Cl  UNL A   1      38.346  21.899  25.603  1.00  0.00    -0.084 Cl
ENDBRANCH  17  20
ENDBRANCH   8  17
ENDBRANCH   7   8
ENDBRANCH   5   7
ENDBRANCH   2   3
ENDBRANCH   1   2
BRANCH   1  27
ATOM     27  C   UNL A   1      31.456  31.680  26.855  1.00  0.00     0.023 C 
BRANCH  27  28
ATOM     28  C   UNL A   1      32.748  32.431  27.167  1.00  0.00     0.116 C 
BRANCH  28  29
ATOM     29  N   UNL A   1      32.524  33.805  27.583  1.00  0.00    -0.352 N 
ATOM     30  C   UNL A   1      33.159  34.539  28.556  1.00  0.00     0.251 C 
ATOM     31  H   UNL A   1      31.812  34.280  27.097  1.00  0.00     0.163 HD
ATOM     32  O   UNL A   1      32.740  35.657  28.843  1.00  0.00    -0.269 OA
BRANCH  30  33
ATOM     33  C   UNL A   1      34.326  33.981  29.280  1.00  0.00     0.039 A 
ATOM     34  C   UNL A   1      34.096  33.144  30.377  1.00  0.00     0.014 A 
ATOM     35  C   UNL A   1      35.635  34.286  28.899  1.00  0.00     0.014 A 
ATOM     36  C   UNL A   1      35.175  32.558  31.046  1.00  0.00     0.010 A 
ATOM     37  C   UNL A   1      36.707  33.656  29.530  1.00  0.00     0.010 A 
ATOM     38  C   UNL A   1      36.490  32.784  30.607  1.00  0.00    -0.014 A 
BRANCH  38  39
ATOM     39  C   UNL A   1      37.645  32.096  31.241  1.00  0.00     0.031 A 
ATOM     40  C   UNL A   1      38.231  32.613  32.528  1.00  0.00     0.074 A 
ATOM     41  C   UNL A   1      38.232  31.061  30.607  1.00  0.00     0.049 A 
ATOM     42  N   UNL A   1      39.276  32.185  33.187  1.00  0.00    -0.248 NA
ATOM     43  C   UNL A   1      37.571  33.779  33.140  1.00  0.00     0.031 C 
ATOM     44  C   UNL A   1      37.811  30.513  29.316  1.00  0.00     0.029 A 
ATOM     45  N   UNL A   1      39.326  30.304  30.948  1.00  0.00    -0.354 N 
ATOM     46  C   UNL A   1      39.426  33.048  34.266  1.00  0.00     0.074 A 
ATOM     47  C   UNL A   1      38.376  34.039  34.161  1.00  0.00     0.031 C 
ATOM     48  C   UNL A   1      38.636  29.510  28.974  1.00  0.00     0.029 A 
ATOM     49  C   UNL A   1      39.657  29.357  30.006  1.00  0.00     0.049 A 
ATOM     50  H   UNL A   1      39.826  30.428  31.786  1.00  0.00     0.167 HD
ATOM     51  C   UNL A   1      40.335  33.004  35.269  1.00  0.00     0.034 A 
ATOM     52  C   UNL A   1      40.667  28.466  29.976  1.00  0.00     0.034 A 
ATOM     53  C   UNL A   1      41.337  31.983  35.409  1.00  0.00     0.049 A 
ATOM     54  C   UNL A   1      41.625  28.401  31.134  1.00  0.00     0.074 A 
ATOM     55  C   UNL A   1      42.234  31.795  36.446  1.00  0.00     0.029 A 
ATOM     56  N   UNL A   1      41.577  30.978  34.487  1.00  0.00    -0.354 N 
ATOM     57  N   UNL A   1      41.644  29.119  32.230  1.00  0.00    -0.248 NA
ATOM     58  C   UNL A   1      42.682  27.380  31.069  1.00  0.00     0.031 C 
ATOM     59  C   UNL A   1      43.021  30.677  36.148  1.00  0.00     0.029 A 
ATOM     60  C   UNL A   1      42.610  30.167  34.927  1.00  0.00     0.049 A 
ATOM     61  H   UNL A   1      41.086  30.856  33.643  1.00  0.00     0.167 HD
ATOM     62  C   UNL A   1      42.687  28.617  32.999  1.00  0.00     0.074 A 
ATOM     63  C   UNL A   1      43.266  27.518  32.253  1.00  0.00     0.031 C 
ATOM     64  C   UNL A   1      43.137  29.038  34.207  1.00  0.00     0.034 A 
BRANCH  51  65
ATOM     65  C   UNL A   1      40.245  34.057  36.341  1.00  0.00     0.023 A 
ATOM     66  C   UNL A   1      40.630  35.380  36.041  1.00  0.00     0.012 A 
ATOM     67  C   UNL A   1      39.721  33.760  37.614  1.00  0.00     0.148 A 
ATOM     68  C   UNL A   1      40.521  36.386  37.000  1.00  0.00     0.002 A 
ATOM     69  C   UNL A   1      39.581  34.777  38.553  1.00  0.00     0.091 A 
ATOM     70  F   UNL A   1      39.384  32.492  37.888  1.00  0.00    -0.205 F 
ATOM     71  C   UNL A   1      39.988  36.087  38.251  1.00  0.00     0.022 A 
BRANCH  69  72
ATOM     72  S   UNL A   1      38.838  34.501  40.166  1.00  0.00     0.127 S 
ATOM     73  O   UNL A   1      38.565  35.869  40.602  1.00  0.00    -0.237 OA
ATOM     74  O   UNL A   1      37.648  33.719  39.831  1.00  0.00    -0.237 OA
ATOM     75  O   UNL A   1      39.835  33.778  40.944  1.00  0.00    -0.744 OA
ENDBRANCH  69  72
ENDBRANCH  51  65
BRANCH  52  76
ATOM     76  C   UNL A   1      40.771  27.502  28.845  1.00  0.00     0.023 A 
ATOM     77  C   UNL A   1      39.861  26.429  28.775  1.00  0.00     0.012 A 
ATOM     78  C   UNL A   1      41.731  27.656  27.828  1.00  0.00     0.148 A 
ATOM     79  C   UNL A   1      39.922  25.512  27.726  1.00  0.00     0.002 A 
ATOM     80  C   UNL A   1      41.754  26.768  26.758  1.00  0.00     0.091 A 
ATOM     81  F   UNL A   1      42.602  28.671  27.921  1.00  0.00    -0.205 F 
ATOM     82  C   UNL A   1      40.859  25.688  26.712  1.00  0.00     0.022 A 
BRANCH  80  83
ATOM     83  S   UNL A   1      42.844  27.002  25.349  1.00  0.00     0.127 S 
ATOM     84  O   UNL A   1      42.267  28.184  24.715  1.00  0.00    -0.237 OA
ATOM     85  O   UNL A   1      44.141  27.219  25.994  1.00  0.00    -0.237 OA
ATOM     86  O   UNL A   1      42.761  25.762  24.588  1.00  0.00    -0.744 OA
ENDBRANCH  80  83
ENDBRANCH  52  76
BRANCH  64  87
ATOM     87  C   UNL A   1      44.298  28.301  34.817  1.00  0.00     0.023 A 
ATOM     88  C   UNL A   1      45.608  28.776  34.611  1.00  0.00     0.012 A 
ATOM     89  C   UNL A   1      44.088  27.190  35.658  1.00  0.00     0.148 A 
ATOM     90  C   UNL A   1      46.694  28.144  35.213  1.00  0.00     0.002 A 
ATOM     91  C   UNL A   1      45.173  26.590  36.288  1.00  0.00     0.091 A 
ATOM     92  F   UNL A   1      42.837  26.738  35.824  1.00  0.00    -0.205 F 
ATOM     93  C   UNL A   1      46.477  27.059  36.061  1.00  0.00     0.022 A 
BRANCH  91  94
ATOM     94  S   UNL A   1      44.969  25.245  37.463  1.00  0.00     0.127 S 
ATOM     95  O   UNL A   1      44.243  25.902  38.547  1.00  0.00    -0.237 OA
ATOM     96  O   UNL A   1      44.182  24.276  36.700  1.00  0.00    -0.237 OA
ATOM     97  O   UNL A   1      46.318  24.797  37.787  1.00  0.00    -0.744 OA
ENDBRANCH  91  94
ENDBRANCH  64  87
ENDBRANCH  38  39
ENDBRANCH  30  33
ENDBRANCH  28  29
ENDBRANCH  27  28
ENDBRANCH   1  27
TORSDOF 19
ENDMDL
