MODEL 1
REMARK VINA RESULT:     -12.9      0.000      0.000
REMARK SMILES CS(=O)(=O)c1ccc(/C=C(/C(=O)NCCCCNC(=O)c2ccc(-c3c4nc(c(-c5cccc(S(=O)(=O)[O-])c5F)c5ccc([nH]5)c(-c5cccc(S(=O)(=O)[O-])c5F)c5nc(c(-c6cccc(S(=O)(=O)[O-])c6F)c6ccc3[nH]6)C=C5)C=C4)cc2)c2ccccc2)cc1
REMARK SMILES IDX 16 1 15 2 14 3 13 4 11 5 12 6 10 8 9 9 8 10 5 11 6 12 91 13
REMARK SMILES IDX 7 14 90 15 2 16 1 17 3 18 4 19 84 20 85 21 89 22 86 23 88 24
REMARK SMILES IDX 87 25 17 26 18 27 19 28 20 30 21 31 22 32 83 33 23 34 82 35
REMARK SMILES IDX 24 36 25 37 26 38 76 39 27 40 81 41 75 42 77 43 28 44 80 45
REMARK SMILES IDX 74 46 73 47 29 49 61 50 41 51 60 52 42 53 45 54 59 55 78 56
REMARK SMILES IDX 43 57 44 58 58 60 79 61 46 62 30 63 31 64 39 65 32 66 34 67
REMARK SMILES IDX 40 68 33 69 35 70 36 71 37 72 38 73 62 74 63 75 71 76 64 77
REMARK SMILES IDX 66 78 72 79 65 80 67 81 68 82 69 83 70 84 47 85 48 86 56 87
REMARK SMILES IDX 49 88 51 89 57 90 50 91 52 92 53 93 54 94 55 95
REMARK H PARENT 13 7 18 29 77 48 45 59
REMARK Flexibility Score: inf
ROOT
ATOM      1  C   UNL A   1      35.247  22.300  25.612  1.00  0.00     0.023 C 
ENDROOT
BRANCH   1   2
ATOM      2  C   UNL A   1      34.170  21.909  24.593  1.00  0.00     0.023 C 
BRANCH   2   3
ATOM      3  C   UNL A   1      33.042  22.935  24.443  1.00  0.00     0.116 C 
BRANCH   3   4
ATOM      4  N   UNL A   1      32.259  23.007  25.659  1.00  0.00    -0.352 N 
ATOM      5  C   UNL A   1      31.505  23.978  26.241  1.00  0.00     0.251 C 
ATOM      6  O   UNL A   1      30.991  23.690  27.324  1.00  0.00    -0.269 OA
ATOM      7  H   UNL A   1      32.275  22.170  26.177  1.00  0.00     0.163 HD
BRANCH   5   8
ATOM      8  C   UNL A   1      31.213  25.315  25.593  1.00  0.00     0.047 C 
ATOM      9  C   UNL A   1      30.411  25.428  24.510  1.00  0.00     0.022 C 
BRANCH   9  10
ATOM     10  C   UNL A   1      29.901  26.639  23.833  1.00  0.00    -0.025 A 
ATOM     11  C   UNL A   1      28.780  28.966  22.742  1.00  0.00     0.067 A 
ATOM     12  C   UNL A   1      30.155  28.751  22.652  1.00  0.00     0.021 A 
ATOM     13  C   UNL A   1      27.951  28.021  23.344  1.00  0.00     0.021 A 
ATOM     14  C   UNL A   1      30.707  27.576  23.174  1.00  0.00     0.009 A 
ATOM     15  C   UNL A   1      28.514  26.861  23.881  1.00  0.00     0.009 A 
BRANCH  11  16
ATOM     16  S   UNL A   1      28.074  30.481  22.143  1.00  0.00     0.175 S 
ATOM     17  C   UNL A   1      29.321  31.686  22.508  1.00  0.00     0.163 C 
ATOM     18  O   UNL A   1      26.910  30.785  22.960  1.00  0.00    -0.224 OA
ATOM     19  O   UNL A   1      27.959  30.372  20.704  1.00  0.00    -0.224 OA
ENDBRANCH  11  16
ENDBRANCH   9  10
BRANCH   8  20
ATOM     20  C   UNL A   1      31.985  26.482  26.093  1.00  0.00    -0.013 A 
ATOM     21  C   UNL A   1      31.371  27.349  27.014  1.00  0.00     0.009 A 
ATOM     22  C   UNL A   1      33.321  26.711  25.738  1.00  0.00     0.009 A 
ATOM     23  C   UNL A   1      32.077  28.406  27.584  1.00  0.00     0.001 A 
ATOM     24  C   UNL A   1      34.033  27.762  26.325  1.00  0.00     0.001 A 
ATOM     25  C   UNL A   1      33.412  28.605  27.248  1.00  0.00     0.000 A 
ENDBRANCH   8  20
ENDBRANCH   5   8
ENDBRANCH   3   4
ENDBRANCH   2   3
ENDBRANCH   1   2
BRANCH   1  26
ATOM     26  C   UNL A   1      36.655  22.439  25.044  1.00  0.00     0.116 C 
BRANCH  26  27
ATOM     27  N   UNL A   1      37.475  21.254  25.250  1.00  0.00    -0.352 N 
ATOM     28  C   UNL A   1      38.711  21.172  25.849  1.00  0.00     0.251 C 
ATOM     29  H   UNL A   1      37.100  20.406  24.919  1.00  0.00     0.163 HD
ATOM     30  O   UNL A   1      39.332  20.114  25.858  1.00  0.00    -0.269 OA
BRANCH  28  31
ATOM     31  C   UNL A   1      39.292  22.389  26.448  1.00  0.00     0.039 A 
ATOM     32  C   UNL A   1      40.410  22.272  27.276  1.00  0.00     0.014 A 
ATOM     33  C   UNL A   1      38.772  23.646  26.127  1.00  0.00     0.014 A 
ATOM     34  C   UNL A   1      41.058  23.425  27.725  1.00  0.00     0.010 A 
ATOM     35  C   UNL A   1      39.454  24.790  26.524  1.00  0.00     0.010 A 
ATOM     36  C   UNL A   1      40.607  24.691  27.319  1.00  0.00    -0.014 A 
BRANCH  36  37
ATOM     37  C   UNL A   1      41.332  25.934  27.682  1.00  0.00     0.031 A 
ATOM     38  C   UNL A   1      40.626  27.013  28.455  1.00  0.00     0.074 A 
ATOM     39  C   UNL A   1      42.575  26.144  27.203  1.00  0.00     0.049 A 
ATOM     40  N   UNL A   1      41.033  28.220  28.744  1.00  0.00    -0.248 NA
ATOM     41  C   UNL A   1      39.271  26.702  28.939  1.00  0.00     0.031 C 
ATOM     42  C   UNL A   1      43.335  25.202  26.378  1.00  0.00     0.029 A 
ATOM     43  N   UNL A   1      43.402  27.236  27.306  1.00  0.00    -0.354 N 
ATOM     44  C   UNL A   1      39.971  28.830  29.400  1.00  0.00     0.074 A 
ATOM     45  C   UNL A   1      38.892  27.867  29.447  1.00  0.00     0.031 C 
ATOM     46  C   UNL A   1      44.510  25.761  26.043  1.00  0.00     0.029 A 
ATOM     47  C   UNL A   1      44.575  27.108  26.599  1.00  0.00     0.049 A 
ATOM     48  H   UNL A   1      43.176  28.035  27.836  1.00  0.00     0.167 HD
ATOM     49  C   UNL A   1      39.908  30.071  29.938  1.00  0.00     0.034 A 
ATOM     50  C   UNL A   1      45.582  27.983  26.408  1.00  0.00     0.034 A 
ATOM     51  C   UNL A   1      41.002  31.003  29.939  1.00  0.00     0.049 A 
ATOM     52  C   UNL A   1      45.506  29.338  27.059  1.00  0.00     0.074 A 
ATOM     53  C   UNL A   1      41.071  32.246  30.541  1.00  0.00     0.029 A 
ATOM     54  N   UNL A   1      42.217  30.795  29.306  1.00  0.00    -0.354 N 
ATOM     55  N   UNL A   1      44.555  29.839  27.810  1.00  0.00    -0.248 NA
ATOM     56  C   UNL A   1      46.653  30.237  26.864  1.00  0.00     0.031 C 
ATOM     57  C   UNL A   1      42.327  32.796  30.264  1.00  0.00     0.029 A 
ATOM     58  C   UNL A   1      43.044  31.889  29.500  1.00  0.00     0.049 A 
ATOM     59  H   UNL A   1      42.458  29.989  28.794  1.00  0.00     0.167 HD
ATOM     60  C   UNL A   1      45.004  31.093  28.208  1.00  0.00     0.074 A 
ATOM     61  C   UNL A   1      46.319  31.270  27.628  1.00  0.00     0.031 C 
ATOM     62  C   UNL A   1      44.377  32.020  28.972  1.00  0.00     0.034 A 
BRANCH  49  63
ATOM     63  C   UNL A   1      38.631  30.470  30.627  1.00  0.00     0.023 A 
ATOM     64  C   UNL A   1      38.455  30.158  31.991  1.00  0.00     0.012 A 
ATOM     65  C   UNL A   1      37.632  31.196  29.949  1.00  0.00     0.148 A 
ATOM     66  C   UNL A   1      37.292  30.533  32.662  1.00  0.00     0.002 A 
ATOM     67  C   UNL A   1      36.494  31.603  30.636  1.00  0.00     0.091 A 
ATOM     68  F   UNL A   1      37.806  31.462  28.647  1.00  0.00    -0.205 F 
ATOM     69  C   UNL A   1      36.318  31.264  31.988  1.00  0.00     0.022 A 
BRANCH  67  70
ATOM     70  S   UNL A   1      35.217  32.613  29.876  1.00  0.00     0.127 S 
ATOM     71  O   UNL A   1      35.980  33.788  29.458  1.00  0.00    -0.237 OA
ATOM     72  O   UNL A   1      34.760  31.760  28.779  1.00  0.00    -0.237 OA
ATOM     73  O   UNL A   1      34.222  32.846  30.915  1.00  0.00    -0.744 OA
ENDBRANCH  67  70
ENDBRANCH  49  63
BRANCH  50  74
ATOM     74  C   UNL A   1      46.781  27.578  25.622  1.00  0.00     0.023 A 
ATOM     75  C   UNL A   1      46.801  27.815  24.233  1.00  0.00     0.012 A 
ATOM     76  C   UNL A   1      47.906  26.994  26.233  1.00  0.00     0.148 A 
ATOM     77  C   UNL A   1      47.907  27.453  23.464  1.00  0.00     0.002 A 
ATOM     78  C   UNL A   1      49.027  26.684  25.471  1.00  0.00     0.091 A 
ATOM     79  F   UNL A   1      47.864  26.763  27.554  1.00  0.00    -0.205 F 
ATOM     80  C   UNL A   1      49.024  26.898  24.084  1.00  0.00     0.022 A 
BRANCH  78  81
ATOM     81  S   UNL A   1      50.555  26.088  26.205  1.00  0.00     0.127 S 
ATOM     82  O   UNL A   1      51.416  25.953  25.034  1.00  0.00    -0.237 OA
ATOM     83  O   UNL A   1      50.907  27.185  27.107  1.00  0.00    -0.237 OA
ATOM     84  O   UNL A   1      50.203  24.847  26.883  1.00  0.00    -0.744 OA
ENDBRANCH  78  81
ENDBRANCH  50  74
BRANCH  62  85
ATOM     85  C   UNL A   1      45.111  33.301  29.268  1.00  0.00     0.023 A 
ATOM     86  C   UNL A   1      45.927  33.390  30.412  1.00  0.00     0.012 A 
ATOM     87  C   UNL A   1      45.070  34.377  28.359  1.00  0.00     0.148 A 
ATOM     88  C   UNL A   1      46.677  34.538  30.657  1.00  0.00     0.002 A 
ATOM     89  C   UNL A   1      45.856  35.500  28.586  1.00  0.00     0.091 A 
ATOM     90  F   UNL A   1      44.272  34.277  27.286  1.00  0.00    -0.205 F 
ATOM     91  C   UNL A   1      46.653  35.586  29.739  1.00  0.00     0.022 A 
BRANCH  89  92
ATOM     92  S   UNL A   1      45.962  36.855  27.412  1.00  0.00     0.127 S 
ATOM     93  O   UNL A   1      44.592  37.365  27.421  1.00  0.00    -0.237 OA
ATOM     94  O   UNL A   1      46.944  37.737  28.043  1.00  0.00    -0.237 OA
ATOM     95  O   UNL A   1      46.401  36.264  26.155  1.00  0.00    -0.744 OA
ENDBRANCH  89  92
ENDBRANCH  62  85
ENDBRANCH  36  37
ENDBRANCH  28  31
ENDBRANCH  26  27
ENDBRANCH   1  26
TORSDOF 17
ENDMDL
MODEL 2
REMARK VINA RESULT:     -12.7      4.785      8.103
REMARK SMILES CS(=O)(=O)c1ccc(/C=C(/C(=O)NCCCCNC(=O)c2ccc(-c3c4nc(c(-c5cccc(S(=O)(=O)[O-])c5F)c5ccc([nH]5)c(-c5cccc(S(=O)(=O)[O-])c5F)c5nc(c(-c6cccc(S(=O)(=O)[O-])c6F)c6ccc3[nH]6)C=C5)C=C4)cc2)c2ccccc2)cc1
REMARK SMILES IDX 16 1 15 2 14 3 13 4 11 5 12 6 10 8 9 9 8 10 5 11 6 12 91 13
REMARK SMILES IDX 7 14 90 15 2 16 1 17 3 18 4 19 84 20 85 21 89 22 86 23 88 24
REMARK SMILES IDX 87 25 17 26 18 27 19 28 20 30 21 31 22 32 83 33 23 34 82 35
REMARK SMILES IDX 24 36 25 37 26 38 76 39 27 40 81 41 75 42 77 43 28 44 80 45
REMARK SMILES IDX 74 46 73 47 29 49 61 50 41 51 60 52 42 53 45 54 59 55 78 56
REMARK SMILES IDX 43 57 44 58 58 60 79 61 46 62 30 63 31 64 39 65 32 66 34 67
REMARK SMILES IDX 40 68 33 69 35 70 36 71 37 72 38 73 62 74 63 75 71 76 64 77
REMARK SMILES IDX 66 78 72 79 65 80 67 81 68 82 69 83 70 84 47 85 48 86 56 87
REMARK SMILES IDX 49 88 51 89 57 90 50 91 52 92 53 93 54 94 55 95
REMARK H PARENT 13 7 18 29 77 48 45 59
REMARK Flexibility Score: inf
ROOT
ATOM      1  C   UNL A   1      32.515  28.292  27.602  1.00  0.00     0.023 C 
ENDROOT
BRANCH   1   2
ATOM      2  C   UNL A   1      31.460  27.635  26.703  1.00  0.00     0.023 C 
BRANCH   2   3
ATOM      3  C   UNL A   1      31.895  26.299  26.092  1.00  0.00     0.116 C 
BRANCH   3   4
ATOM      4  N   UNL A   1      32.110  26.441  24.667  1.00  0.00    -0.352 N 
ATOM      5  C   UNL A   1      32.622  25.628  23.703  1.00  0.00     0.251 C 
ATOM      6  O   UNL A   1      32.681  26.104  22.567  1.00  0.00    -0.269 OA
ATOM      7  H   UNL A   1      31.821  27.315  24.319  1.00  0.00     0.163 HD
BRANCH   5   8
ATOM      8  C   UNL A   1      33.023  24.188  23.946  1.00  0.00     0.047 C 
ATOM      9  C   UNL A   1      32.109  23.206  24.110  1.00  0.00     0.022 C 
BRANCH   9  10
ATOM     10  C   UNL A   1      32.300  21.744  24.213  1.00  0.00    -0.025 A 
ATOM     11  C   UNL A   1      32.787  18.982  24.196  1.00  0.00     0.067 A 
ATOM     12  C   UNL A   1      32.883  19.696  25.390  1.00  0.00     0.021 A 
ATOM     13  C   UNL A   1      32.422  19.624  23.012  1.00  0.00     0.021 A 
ATOM     14  C   UNL A   1      32.612  21.069  25.400  1.00  0.00     0.009 A 
ATOM     15  C   UNL A   1      32.175  20.999  23.028  1.00  0.00     0.009 A 
BRANCH  11  16
ATOM     16  S   UNL A   1      33.189  17.254  24.155  1.00  0.00     0.175 S 
ATOM     17  C   UNL A   1      34.913  17.225  24.570  1.00  0.00     0.163 C 
ATOM     18  O   UNL A   1      33.057  16.796  22.781  1.00  0.00    -0.224 OA
ATOM     19  O   UNL A   1      32.457  16.607  25.223  1.00  0.00    -0.224 OA
ENDBRANCH  11  16
ENDBRANCH   9  10
BRANCH   8  20
ATOM     20  C   UNL A   1      34.468  23.927  24.171  1.00  0.00    -0.013 A 
ATOM     21  C   UNL A   1      35.017  24.230  25.430  1.00  0.00     0.009 A 
ATOM     22  C   UNL A   1      35.286  23.328  23.205  1.00  0.00     0.009 A 
ATOM     23  C   UNL A   1      36.343  23.922  25.726  1.00  0.00     0.001 A 
ATOM     24  C   UNL A   1      36.613  23.006  23.510  1.00  0.00     0.001 A 
ATOM     25  C   UNL A   1      37.138  23.299  24.769  1.00  0.00     0.000 A 
ENDBRANCH   8  20
ENDBRANCH   5   8
ENDBRANCH   3   4
ENDBRANCH   2   3
ENDBRANCH   1   2
BRANCH   1  26
ATOM     26  C   UNL A   1      33.557  29.130  26.870  1.00  0.00     0.116 C 
BRANCH  26  27
ATOM     27  N   UNL A   1      33.598  30.514  27.321  1.00  0.00    -0.352 N 
ATOM     28  C   UNL A   1      34.577  31.137  28.059  1.00  0.00     0.251 C 
ATOM     29  H   UNL A   1      32.828  31.074  27.068  1.00  0.00     0.163 HD
ATOM     30  O   UNL A   1      34.424  32.287  28.456  1.00  0.00    -0.269 OA
BRANCH  28  31
ATOM     31  C   UNL A   1      35.800  30.382  28.397  1.00  0.00     0.039 A 
ATOM     32  C   UNL A   1      36.927  30.513  27.582  1.00  0.00     0.014 A 
ATOM     33  C   UNL A   1      35.847  29.606  29.558  1.00  0.00     0.014 A 
ATOM     34  C   UNL A   1      38.130  29.925  27.973  1.00  0.00     0.010 A 
ATOM     35  C   UNL A   1      37.062  29.073  29.975  1.00  0.00     0.010 A 
ATOM     36  C   UNL A   1      38.216  29.234  29.193  1.00  0.00    -0.014 A 
BRANCH  36  37
ATOM     37  C   UNL A   1      39.501  28.691  29.698  1.00  0.00     0.031 A 
ATOM     38  C   UNL A   1      40.241  29.414  30.788  1.00  0.00     0.074 A 
ATOM     39  C   UNL A   1      40.061  27.627  29.087  1.00  0.00     0.049 A 
ATOM     40  N   UNL A   1      41.436  29.187  31.264  1.00  0.00    -0.248 NA
ATOM     41  C   UNL A   1      39.559  30.566  31.400  1.00  0.00     0.031 C 
ATOM     42  C   UNL A   1      39.473  26.887  27.968  1.00  0.00     0.029 A 
ATOM     43  N   UNL A   1      41.270  27.011  29.293  1.00  0.00    -0.354 N 
ATOM     44  C   UNL A   1      41.669  30.191  32.196  1.00  0.00     0.074 A 
ATOM     45  C   UNL A   1      40.501  31.043  32.202  1.00  0.00     0.031 C 
ATOM     46  C   UNL A   1      40.326  25.925  27.582  1.00  0.00     0.029 A 
ATOM     47  C   UNL A   1      41.533  25.998  28.400  1.00  0.00     0.049 A 
ATOM     48  H   UNL A   1      41.891  27.269  30.013  1.00  0.00     0.167 HD
ATOM     49  C   UNL A   1      42.749  30.371  32.993  1.00  0.00     0.034 A 
ATOM     50  C   UNL A   1      42.627  25.226  28.248  1.00  0.00     0.034 A 
ATOM     51  C   UNL A   1      43.883  29.488  33.025  1.00  0.00     0.049 A 
ATOM     52  C   UNL A   1      43.792  25.418  29.180  1.00  0.00     0.074 A 
ATOM     53  C   UNL A   1      44.981  29.529  33.864  1.00  0.00     0.029 A 
ATOM     54  N   UNL A   1      44.064  28.405  32.179  1.00  0.00    -0.354 N 
ATOM     55  N   UNL A   1      43.929  26.277  30.162  1.00  0.00    -0.248 NA
ATOM     56  C   UNL A   1      44.941  24.516  29.007  1.00  0.00     0.031 C 
ATOM     57  C   UNL A   1      45.833  28.476  33.518  1.00  0.00     0.029 A 
ATOM     58  C   UNL A   1      45.258  27.770  32.473  1.00  0.00     0.049 A 
ATOM     59  H   UNL A   1      43.436  28.128  31.473  1.00  0.00     0.167 HD
ATOM     60  C   UNL A   1      45.158  25.994  30.747  1.00  0.00     0.074 A 
ATOM     61  C   UNL A   1      45.721  24.875  30.020  1.00  0.00     0.031 C 
ATOM     62  C   UNL A   1      45.772  26.615  31.783  1.00  0.00     0.034 A 
BRANCH  49  63
ATOM     63  C   UNL A   1      42.727  31.537  33.945  1.00  0.00     0.023 A 
ATOM     64  C   UNL A   1      43.262  32.775  33.534  1.00  0.00     0.012 A 
ATOM     65  C   UNL A   1      42.134  31.428  35.218  1.00  0.00     0.148 A 
ATOM     66  C   UNL A   1      43.236  33.878  34.386  1.00  0.00     0.002 A 
ATOM     67  C   UNL A   1      42.075  32.543  36.046  1.00  0.00     0.091 A 
ATOM     68  F   UNL A   1      41.654  30.236  35.601  1.00  0.00    -0.205 F 
ATOM     69  C   UNL A   1      42.634  33.765  35.636  1.00  0.00     0.022 A 
BRANCH  67  70
ATOM     70  S   UNL A   1      41.254  32.519  37.644  1.00  0.00     0.127 S 
ATOM     71  O   UNL A   1      42.110  31.606  38.400  1.00  0.00    -0.237 OA
ATOM     72  O   UNL A   1      41.341  33.919  38.058  1.00  0.00    -0.237 OA
ATOM     73  O   UNL A   1      39.901  32.045  37.389  1.00  0.00    -0.744 OA
ENDBRANCH  67  70
ENDBRANCH  49  63
BRANCH  50  74
ATOM     74  C   UNL A   1      42.642  24.154  27.213  1.00  0.00     0.023 A 
ATOM     75  C   UNL A   1      43.263  24.407  25.973  1.00  0.00     0.012 A 
ATOM     76  C   UNL A   1      42.084  22.884  27.453  1.00  0.00     0.148 A 
ATOM     77  C   UNL A   1      43.301  23.426  24.983  1.00  0.00     0.002 A 
ATOM     78  C   UNL A   1      42.171  21.893  26.481  1.00  0.00     0.091 A 
ATOM     79  F   UNL A   1      41.485  22.666  28.633  1.00  0.00    -0.205 F 
ATOM     80  C   UNL A   1      42.765  22.167  25.239  1.00  0.00     0.022 A 
BRANCH  78  81
ATOM     81  S   UNL A   1      41.626  20.207  26.775  1.00  0.00     0.127 S 
ATOM     82  O   UNL A   1      41.806  19.600  25.459  1.00  0.00    -0.237 OA
ATOM     83  O   UNL A   1      42.570  19.755  27.797  1.00  0.00    -0.237 OA
ATOM     84  O   UNL A   1      40.250  20.319  27.242  1.00  0.00    -0.744 OA
ENDBRANCH  78  81
ENDBRANCH  50  74
BRANCH  62  85
ATOM     85  C   UNL A   1      47.107  26.085  32.231  1.00  0.00     0.023 A 
ATOM     86  C   UNL A   1      47.175  25.191  33.317  1.00  0.00     0.012 A 
ATOM     87  C   UNL A   1      48.279  26.393  31.512  1.00  0.00     0.148 A 
ATOM     88  C   UNL A   1      48.392  24.625  33.692  1.00  0.00     0.002 A 
ATOM     89  C   UNL A   1      49.481  25.791  31.863  1.00  0.00     0.091 A 
ATOM     90  F   UNL A   1      48.194  27.261  30.494  1.00  0.00    -0.205 F 
ATOM     91  C   UNL A   1      49.541  24.914  32.958  1.00  0.00     0.022 A 
BRANCH  89  92
ATOM     92  S   UNL A   1      50.990  26.028  30.918  1.00  0.00     0.127 S 
ATOM     93  O   UNL A   1      50.595  25.539  29.598  1.00  0.00    -0.237 OA
ATOM     94  O   UNL A   1      51.182  27.477  30.998  1.00  0.00    -0.237 OA
ATOM     95  O   UNL A   1      52.015  25.245  31.594  1.00  0.00    -0.744 OA
ENDBRANCH  89  92
ENDBRANCH  62  85
ENDBRANCH  36  37
ENDBRANCH  28  31
ENDBRANCH  26  27
ENDBRANCH   1  26
TORSDOF 17
ENDMDL
MODEL 3
REMARK VINA RESULT:     -12.6      5.921     10.832
REMARK SMILES CS(=O)(=O)c1ccc(/C=C(/C(=O)NCCCCNC(=O)c2ccc(-c3c4nc(c(-c5cccc(S(=O)(=O)[O-])c5F)c5ccc([nH]5)c(-c5cccc(S(=O)(=O)[O-])c5F)c5nc(c(-c6cccc(S(=O)(=O)[O-])c6F)c6ccc3[nH]6)C=C5)C=C4)cc2)c2ccccc2)cc1
REMARK SMILES IDX 16 1 15 2 14 3 13 4 11 5 12 6 10 8 9 9 8 10 5 11 6 12 91 13
REMARK SMILES IDX 7 14 90 15 2 16 1 17 3 18 4 19 84 20 85 21 89 22 86 23 88 24
REMARK SMILES IDX 87 25 17 26 18 27 19 28 20 30 21 31 22 32 83 33 23 34 82 35
REMARK SMILES IDX 24 36 25 37 26 38 76 39 27 40 81 41 75 42 77 43 28 44 80 45
REMARK SMILES IDX 74 46 73 47 29 49 61 50 41 51 60 52 42 53 45 54 59 55 78 56
REMARK SMILES IDX 43 57 44 58 58 60 79 61 46 62 30 63 31 64 39 65 32 66 34 67
REMARK SMILES IDX 40 68 33 69 35 70 36 71 37 72 38 73 62 74 63 75 71 76 64 77
REMARK SMILES IDX 66 78 72 79 65 80 67 81 68 82 69 83 70 84 47 85 48 86 56 87
REMARK SMILES IDX 49 88 51 89 57 90 50 91 52 92 53 93 54 94 55 95
REMARK H PARENT 13 7 18 29 77 48 45 59
REMARK Flexibility Score: inf
ROOT
ATOM      1  C   UNL A   1      32.283  31.068  26.596  1.00  0.00     0.023 C 
ENDROOT
BRANCH   1   2
ATOM      2  C   UNL A   1      32.261  29.596  27.023  1.00  0.00     0.023 C 
BRANCH   2   3
ATOM      3  C   UNL A   1      33.490  28.793  26.584  1.00  0.00     0.116 C 
BRANCH   3   4
ATOM      4  N   UNL A   1      33.816  29.085  25.203  1.00  0.00    -0.352 N 
ATOM      5  C   UNL A   1      33.806  28.354  24.055  1.00  0.00     0.251 C 
ATOM      6  O   UNL A   1      34.187  28.937  23.038  1.00  0.00    -0.269 OA
ATOM      7  H   UNL A   1      34.108  30.015  25.065  1.00  0.00     0.163 HD
BRANCH   5   8
ATOM      8  C   UNL A   1      33.282  26.936  23.968  1.00  0.00     0.047 C 
ATOM      9  C   UNL A   1      34.087  25.891  23.673  1.00  0.00     0.022 C 
BRANCH   9  10
ATOM     10  C   UNL A   1      33.796  24.442  23.681  1.00  0.00    -0.025 A 
ATOM     11  C   UNL A   1      33.168  21.720  23.931  1.00  0.00     0.067 A 
ATOM     12  C   UNL A   1      32.866  22.396  22.749  1.00  0.00     0.021 A 
ATOM     13  C   UNL A   1      33.807  22.378  24.982  1.00  0.00     0.021 A 
ATOM     14  C   UNL A   1      33.206  23.747  22.618  1.00  0.00     0.009 A 
ATOM     15  C   UNL A   1      34.123  23.732  24.850  1.00  0.00     0.009 A 
BRANCH  11  16
ATOM     16  S   UNL A   1      32.685  20.024  24.137  1.00  0.00     0.175 S 
ATOM     17  C   UNL A   1      34.205  19.214  24.557  1.00  0.00     0.163 C 
ATOM     18  O   UNL A   1      32.259  19.520  22.841  1.00  0.00    -0.224 OA
ATOM     19  O   UNL A   1      31.805  19.955  25.284  1.00  0.00    -0.224 OA
ENDBRANCH  11  16
ENDBRANCH   9  10
BRANCH   8  20
ATOM     20  C   UNL A   1      31.809  26.763  24.050  1.00  0.00    -0.013 A 
ATOM     21  C   UNL A   1      31.269  26.141  25.190  1.00  0.00     0.009 A 
ATOM     22  C   UNL A   1      30.935  27.256  23.073  1.00  0.00     0.009 A 
ATOM     23  C   UNL A   1      29.890  26.033  25.362  1.00  0.00     0.001 A 
ATOM     24  C   UNL A   1      29.552  27.161  23.256  1.00  0.00     0.001 A 
ATOM     25  C   UNL A   1      29.032  26.554  24.400  1.00  0.00     0.000 A 
ENDBRANCH   8  20
ENDBRANCH   5   8
ENDBRANCH   3   4
ENDBRANCH   2   3
ENDBRANCH   1   2
BRANCH   1  26
ATOM     26  C   UNL A   1      33.258  31.951  27.368  1.00  0.00     0.116 C 
BRANCH  26  27
ATOM     27  N   UNL A   1      32.756  33.301  27.589  1.00  0.00    -0.352 N 
ATOM     28  C   UNL A   1      33.192  34.227  28.507  1.00  0.00     0.251 C 
ATOM     29  H   UNL A   1      32.013  33.585  27.009  1.00  0.00     0.163 HD
ATOM     30  O   UNL A   1      32.601  35.292  28.649  1.00  0.00    -0.269 OA
BRANCH  28  31
ATOM     31  C   UNL A   1      34.362  33.900  29.346  1.00  0.00     0.039 A 
ATOM     32  C   UNL A   1      34.176  33.138  30.502  1.00  0.00     0.014 A 
ATOM     33  C   UNL A   1      35.643  34.287  28.945  1.00  0.00     0.014 A 
ATOM     34  C   UNL A   1      35.289  32.696  31.220  1.00  0.00     0.010 A 
ATOM     35  C   UNL A   1      36.750  33.794  29.627  1.00  0.00     0.010 A 
ATOM     36  C   UNL A   1      36.585  32.988  30.765  1.00  0.00    -0.014 A 
BRANCH  36  37
ATOM     37  C   UNL A   1      37.792  32.444  31.435  1.00  0.00     0.031 A 
ATOM     38  C   UNL A   1      38.547  31.307  30.806  1.00  0.00     0.074 A 
ATOM     39  C   UNL A   1      38.128  32.885  32.664  1.00  0.00     0.049 A 
ATOM     40  N   UNL A   1      39.532  30.601  31.295  1.00  0.00    -0.248 NA
ATOM     41  C   UNL A   1      38.115  30.887  29.463  1.00  0.00     0.031 C 
ATOM     42  C   UNL A   1      37.425  33.933  33.409  1.00  0.00     0.029 A 
ATOM     43  N   UNL A   1      39.119  32.476  33.522  1.00  0.00    -0.354 N 
ATOM     44  C   UNL A   1      39.807  29.626  30.344  1.00  0.00     0.074 A 
ATOM     45  C   UNL A   1      38.870  29.816  29.259  1.00  0.00     0.031 C 
ATOM     46  C   UNL A   1      38.001  34.076  34.613  1.00  0.00     0.029 A 
ATOM     47  C   UNL A   1      39.090  33.113  34.742  1.00  0.00     0.049 A 
ATOM     48  H   UNL A   1      39.786  31.791  33.287  1.00  0.00     0.167 HD
ATOM     49  C   UNL A   1      40.770  28.674  30.362  1.00  0.00     0.034 A 
ATOM     50  C   UNL A   1      39.845  32.931  35.843  1.00  0.00     0.034 A 
ATOM     51  C   UNL A   1      41.736  28.527  31.417  1.00  0.00     0.049 A 
ATOM     52  C   UNL A   1      40.939  31.898  35.815  1.00  0.00     0.074 A 
ATOM     53  C   UNL A   1      42.810  27.658  31.483  1.00  0.00     0.029 A 
ATOM     54  N   UNL A   1      41.743  29.265  32.589  1.00  0.00    -0.354 N 
ATOM     55  N   UNL A   1      41.285  31.089  34.842  1.00  0.00    -0.248 NA
ATOM     56  C   UNL A   1      41.770  31.773  37.023  1.00  0.00     0.031 C 
ATOM     57  C   UNL A   1      43.463  27.864  32.702  1.00  0.00     0.029 A 
ATOM     58  C   UNL A   1      42.803  28.871  33.389  1.00  0.00     0.049 A 
ATOM     59  H   UNL A   1      41.092  29.967  32.820  1.00  0.00     0.167 HD
ATOM     60  C   UNL A   1      42.393  30.389  35.305  1.00  0.00     0.074 A 
ATOM     61  C   UNL A   1      42.672  30.879  36.639  1.00  0.00     0.031 C 
ATOM     62  C   UNL A   1      43.106  29.416  34.686  1.00  0.00     0.034 A 
BRANCH  49  63
ATOM     63  C   UNL A   1      40.867  27.756  29.173  1.00  0.00     0.023 A 
ATOM     64  C   UNL A   1      40.049  26.609  29.117  1.00  0.00     0.012 A 
ATOM     65  C   UNL A   1      41.720  28.051  28.092  1.00  0.00     0.148 A 
ATOM     66  C   UNL A   1      40.101  25.752  28.019  1.00  0.00     0.002 A 
ATOM     67  C   UNL A   1      41.736  27.214  26.982  1.00  0.00     0.091 A 
ATOM     68  F   UNL A   1      42.508  29.133  28.174  1.00  0.00    -0.205 F 
ATOM     69  C   UNL A   1      40.936  26.060  26.949  1.00  0.00     0.022 A 
BRANCH  67  70
ATOM     70  S   UNL A   1      42.721  27.565  25.521  1.00  0.00     0.127 S 
ATOM     71  O   UNL A   1      42.474  26.376  24.706  1.00  0.00    -0.237 OA
ATOM     72  O   UNL A   1      42.100  28.789  25.015  1.00  0.00    -0.237 OA
ATOM     73  O   UNL A   1      44.089  27.731  25.993  1.00  0.00    -0.744 OA
ENDBRANCH  67  70
ENDBRANCH  49  63
BRANCH  50  74
ATOM     74  C   UNL A   1      39.636  33.794  37.039  1.00  0.00     0.023 A 
ATOM     75  C   UNL A   1      40.053  35.139  36.995  1.00  0.00     0.012 A 
ATOM     76  C   UNL A   1      39.003  33.310  38.200  1.00  0.00     0.148 A 
ATOM     77  C   UNL A   1      39.870  35.978  38.094  1.00  0.00     0.002 A 
ATOM     78  C   UNL A   1      38.776  34.165  39.273  1.00  0.00     0.091 A 
ATOM     79  F   UNL A   1      38.626  32.024  38.229  1.00  0.00    -0.205 F 
ATOM     80  C   UNL A   1      39.223  35.495  39.228  1.00  0.00     0.022 A 
BRANCH  78  81
ATOM     81  S   UNL A   1      37.835  33.665  40.719  1.00  0.00     0.127 S 
ATOM     82  O   UNL A   1      38.737  32.703  41.345  1.00  0.00    -0.237 OA
ATOM     83  O   UNL A   1      37.687  34.931  41.438  1.00  0.00    -0.237 OA
ATOM     84  O   UNL A   1      36.585  33.123  40.201  1.00  0.00    -0.744 OA
ENDBRANCH  78  81
ENDBRANCH  50  74
BRANCH  62  85
ATOM     85  C   UNL A   1      44.287  28.835  35.418  1.00  0.00     0.023 A 
ATOM     86  C   UNL A   1      45.561  29.409  35.254  1.00  0.00     0.012 A 
ATOM     87  C   UNL A   1      44.111  27.787  36.343  1.00  0.00     0.148 A 
ATOM     88  C   UNL A   1      46.649  28.936  35.986  1.00  0.00     0.002 A 
ATOM     89  C   UNL A   1      45.190  27.352  37.103  1.00  0.00     0.091 A 
ATOM     90  F   UNL A   1      42.892  27.243  36.469  1.00  0.00    -0.205 F 
ATOM     91  C   UNL A   1      46.461  27.919  36.919  1.00  0.00     0.022 A 
BRANCH  89  92
ATOM     92  S   UNL A   1      45.021  26.114  38.394  1.00  0.00     0.127 S 
ATOM     93  O   UNL A   1      44.071  26.756  39.301  1.00  0.00    -0.237 OA
ATOM     94  O   UNL A   1      44.483  24.969  37.658  1.00  0.00    -0.237 OA
ATOM     95  O   UNL A   1      46.359  25.911  38.932  1.00  0.00    -0.744 OA
ENDBRANCH  89  92
ENDBRANCH  62  85
ENDBRANCH  36  37
ENDBRANCH  28  31
ENDBRANCH  26  27
ENDBRANCH   1  26
TORSDOF 17
ENDMDL
