MODEL 1
REMARK VINA RESULT:     -12.8      0.000      0.000
REMARK SMILES O=C(NCCCCNC(=O)[C@@H](Cc1ccccc1)N1C(=O)/C(=C/c2ccncc2)SC1=S)c1ccc(-c2c3nc(c(-c4cccc(S(=O)(=O)[O-])c4F)c4ccc([nH]4)c(-c4cccc(S(=O)(=O)[O-])c4F)c4nc(c(-c5cccc(S(=O)(=O)[O-])c5F)c5ccc2[nH]5)C=C4)C=C3)cc1
REMARK SMILES IDX 5 1 4 2 3 3 1 4 2 5 33 7 34 8 95 9 35 10 94 11 36 12 37 13
REMARK SMILES IDX 38 14 88 15 39 16 93 17 87 18 89 19 40 20 92 21 86 22 85 23
REMARK SMILES IDX 41 25 73 26 53 27 72 28 54 29 57 30 71 31 90 32 55 33 56 34
REMARK SMILES IDX 70 36 91 37 58 38 42 39 43 40 51 41 44 42 46 43 52 44 45 45
REMARK SMILES IDX 47 46 48 47 49 48 50 49 74 50 75 51 83 52 76 53 78 54 84 55
REMARK SMILES IDX 77 56 79 57 80 58 81 59 82 60 59 61 60 62 68 63 61 64 63 65
REMARK SMILES IDX 69 66 62 67 64 68 65 69 66 70 67 71 6 72 7 73 8 74 9 75
REMARK SMILES IDX 10 77 11 78 12 79 13 80 14 81 18 82 15 83 17 84 16 85 19 86
REMARK SMILES IDX 20 87 31 88 21 89 22 90 30 91 32 92 23 93 24 94 25 95 29 96
REMARK SMILES IDX 26 97 28 98 27 99
REMARK H PARENT 3 6 89 24 57 35 8 76
REMARK Flexibility Score: inf
ROOT
ATOM      1  C   UNL A   1      32.151  28.779  25.491  1.00  0.00     0.023 C 
ENDROOT
BRANCH   1   2
ATOM      2  C   UNL A   1      32.226  29.399  26.885  1.00  0.00     0.116 C 
BRANCH   2   3
ATOM      3  N   UNL A   1      32.033  30.846  26.927  1.00  0.00    -0.352 N 
ATOM      4  O   UNL A   1      32.610  33.008  27.301  1.00  0.00    -0.269 OA
ATOM      5  C   UNL A   1      32.942  31.827  27.262  1.00  0.00     0.251 C 
ATOM      6  H   UNL A   1      31.132  31.162  26.684  1.00  0.00     0.163 HD
BRANCH   5   7
ATOM      7  C   UNL A   1      34.312  31.417  27.632  1.00  0.00     0.039 A 
ATOM      8  C   UNL A   1      34.567  30.090  27.986  1.00  0.00     0.014 A 
ATOM      9  C   UNL A   1      35.300  32.392  27.767  1.00  0.00     0.014 A 
ATOM     10  C   UNL A   1      35.721  29.789  28.693  1.00  0.00     0.010 A 
ATOM     11  C   UNL A   1      36.513  32.055  28.370  1.00  0.00     0.010 A 
ATOM     12  C   UNL A   1      36.708  30.768  28.897  1.00  0.00    -0.014 A 
BRANCH  12  13
ATOM     13  C   UNL A   1      37.951  30.422  29.632  1.00  0.00     0.031 A 
ATOM     14  C   UNL A   1      38.974  29.491  29.040  1.00  0.00     0.074 A 
ATOM     15  C   UNL A   1      38.138  30.942  30.860  1.00  0.00     0.049 A 
ATOM     16  N   UNL A   1      40.060  29.008  29.587  1.00  0.00    -0.248 NA
ATOM     17  C   UNL A   1      38.748  29.031  27.660  1.00  0.00     0.031 C 
ATOM     18  C   UNL A   1      37.201  31.836  31.544  1.00  0.00     0.029 A 
ATOM     19  N   UNL A   1      39.160  30.779  31.760  1.00  0.00    -0.354 N 
ATOM     20  C   UNL A   1      40.608  28.140  28.651  1.00  0.00     0.074 A 
ATOM     21  C   UNL A   1      39.743  28.170  27.492  1.00  0.00     0.031 C 
ATOM     22  C   UNL A   1      37.690  32.149  32.750  1.00  0.00     0.029 A 
ATOM     23  C   UNL A   1      38.933  31.417  32.956  1.00  0.00     0.049 A 
ATOM     24  H   UNL A   1      39.973  30.259  31.569  1.00  0.00     0.167 HD
ATOM     25  C   UNL A   1      41.736  27.393  28.748  1.00  0.00     0.034 A 
ATOM     26  C   UNL A   1      39.619  31.383  34.114  1.00  0.00     0.034 A 
ATOM     27  C   UNL A   1      42.619  27.417  29.884  1.00  0.00     0.049 A 
ATOM     28  C   UNL A   1      40.877  30.575  34.187  1.00  0.00     0.074 A 
ATOM     29  C   UNL A   1      43.826  26.761  30.049  1.00  0.00     0.029 A 
ATOM     30  N   UNL A   1      42.391  28.133  31.050  1.00  0.00    -0.354 N 
ATOM     31  N   UNL A   1      41.434  29.842  33.255  1.00  0.00    -0.248 NA
ATOM     32  C   UNL A   1      41.614  30.603  35.456  1.00  0.00     0.031 C 
ATOM     33  C   UNL A   1      44.319  27.067  31.322  1.00  0.00     0.029 A 
ATOM     34  C   UNL A   1      43.428  27.928  31.944  1.00  0.00     0.049 A 
ATOM     35  H   UNL A   1      41.605  28.703  31.218  1.00  0.00     0.167 HD
ATOM     36  C   UNL A   1      42.600  29.336  33.814  1.00  0.00     0.074 A 
ATOM     37  C   UNL A   1      42.676  29.863  35.163  1.00  0.00     0.031 C 
ATOM     38  C   UNL A   1      43.513  28.500  33.264  1.00  0.00     0.034 A 
BRANCH  25  39
ATOM     39  C   UNL A   1      42.098  26.506  27.584  1.00  0.00     0.023 A 
ATOM     40  C   UNL A   1      42.848  27.029  26.511  1.00  0.00     0.012 A 
ATOM     41  C   UNL A   1      41.747  25.141  27.577  1.00  0.00     0.148 A 
ATOM     42  C   UNL A   1      43.214  26.219  25.437  1.00  0.00     0.002 A 
ATOM     43  C   UNL A   1      42.149  24.330  26.520  1.00  0.00     0.091 A 
ATOM     44  F   UNL A   1      41.013  24.662  28.591  1.00  0.00    -0.205 F 
ATOM     45  C   UNL A   1      42.874  24.868  25.446  1.00  0.00     0.022 A 
BRANCH  43  46
ATOM     46  S   UNL A   1      41.811  22.564  26.495  1.00  0.00     0.127 S 
ATOM     47  O   UNL A   1      42.545  22.106  27.673  1.00  0.00    -0.237 OA
ATOM     48  O   UNL A   1      40.355  22.518  26.630  1.00  0.00    -0.237 OA
ATOM     49  O   UNL A   1      42.308  22.091  25.210  1.00  0.00    -0.744 OA
ENDBRANCH  43  46
ENDBRANCH  25  39
BRANCH  26  50
ATOM     50  C   UNL A   1      39.106  32.170  35.269  1.00  0.00     0.023 A 
ATOM     51  C   UNL A   1      38.258  31.553  36.206  1.00  0.00     0.012 A 
ATOM     52  C   UNL A   1      39.569  33.479  35.512  1.00  0.00     0.148 A 
ATOM     53  C   UNL A   1      37.879  32.227  37.368  1.00  0.00     0.002 A 
ATOM     54  C   UNL A   1      39.239  34.119  36.700  1.00  0.00     0.091 A 
ATOM     55  F   UNL A   1      40.369  34.049  34.599  1.00  0.00    -0.205 F 
ATOM     56  C   UNL A   1      38.384  33.500  37.623  1.00  0.00     0.022 A 
BRANCH  54  57
ATOM     57  S   UNL A   1      39.980  35.684  37.185  1.00  0.00     0.127 S 
ATOM     58  O   UNL A   1      39.623  36.544  36.060  1.00  0.00    -0.237 OA
ATOM     59  O   UNL A   1      39.273  35.977  38.433  1.00  0.00    -0.237 OA
ATOM     60  O   UNL A   1      41.400  35.412  37.352  1.00  0.00    -0.744 OA
ENDBRANCH  54  57
ENDBRANCH  26  50
BRANCH  38  61
ATOM     61  C   UNL A   1      44.698  28.115  34.106  1.00  0.00     0.023 A 
ATOM     62  C   UNL A   1      45.846  28.929  34.103  1.00  0.00     0.012 A 
ATOM     63  C   UNL A   1      44.632  27.005  34.969  1.00  0.00     0.148 A 
ATOM     64  C   UNL A   1      46.922  28.634  34.940  1.00  0.00     0.002 A 
ATOM     65  C   UNL A   1      45.690  26.741  35.829  1.00  0.00     0.091 A 
ATOM     66  F   UNL A   1      43.535  26.235  34.938  1.00  0.00    -0.205 F 
ATOM     67  C   UNL A   1      46.839  27.550  35.811  1.00  0.00     0.022 A 
BRANCH  65  68
ATOM     68  S   UNL A   1      45.636  25.421  37.047  1.00  0.00     0.127 S 
ATOM     69  O   UNL A   1      46.939  25.560  37.695  1.00  0.00    -0.237 OA
ATOM     70  O   UNL A   1      44.497  25.812  37.878  1.00  0.00    -0.237 OA
ATOM     71  O   UNL A   1      45.441  24.189  36.296  1.00  0.00    -0.744 OA
ENDBRANCH  65  68
ENDBRANCH  38  61
ENDBRANCH  12  13
ENDBRANCH   5   7
ENDBRANCH   2   3
ENDBRANCH   1   2
BRANCH   1  72
ATOM     72  C   UNL A   1      33.422  28.108  24.996  1.00  0.00     0.023 C 
BRANCH  72  73
ATOM     73  C   UNL A   1      33.500  26.623  25.294  1.00  0.00     0.116 C 
BRANCH  73  74
ATOM     74  N   UNL A   1      34.237  25.826  24.352  1.00  0.00    -0.354 N 
ATOM     75  C   UNL A   1      33.693  24.860  23.557  1.00  0.00     0.243 C 
ATOM     76  H   UNL A   1      35.205  25.989  24.276  1.00  0.00     0.163 HD
ATOM     77  O   UNL A   1      34.138  24.778  22.406  1.00  0.00    -0.273 OA
BRANCH  75  78
ATOM     78  C   UNL A   1      32.563  23.903  24.028  1.00  0.00     0.185 C 
BRANCH  78  79
ATOM     79  C   UNL A   1      31.098  24.167  23.572  1.00  0.00     0.071 C 
BRANCH  79  80
ATOM     80  C   UNL A   1      30.549  25.557  23.386  1.00  0.00    -0.045 A 
ATOM     81  C   UNL A   1      31.130  26.424  22.445  1.00  0.00     0.004 A 
ATOM     82  C   UNL A   1      29.481  26.033  24.153  1.00  0.00     0.004 A 
ATOM     83  C   UNL A   1      30.593  27.693  22.212  1.00  0.00     0.000 A 
ATOM     84  C   UNL A   1      28.925  27.289  23.900  1.00  0.00     0.000 A 
ATOM     85  C   UNL A   1      29.471  28.112  22.919  1.00  0.00     0.000 A 
ENDBRANCH  79  80
ENDBRANCH  78  79
BRANCH  78  86
ATOM     86  N   UNL A   1      32.924  22.515  24.444  1.00  0.00    -0.280 N 
ATOM     87  C   UNL A   1      32.725  21.486  23.518  1.00  0.00     0.266 C 
ATOM     88  C   UNL A   1      33.433  22.083  25.653  1.00  0.00     0.149 C 
ATOM     89  O   UNL A   1      32.263  21.577  22.390  1.00  0.00    -0.268 OA
ATOM     90  C   UNL A   1      33.166  20.186  24.090  1.00  0.00     0.081 C 
ATOM     91  S   UNL A   1      34.144  20.490  25.459  1.00  0.00    -0.054 SA
ATOM     92  S   UNL A   1      33.418  22.725  27.181  1.00  0.00    -0.052 S 
ATOM     93  C   UNL A   1      32.777  18.981  23.651  1.00  0.00     0.029 C 
BRANCH  93  94
ATOM     94  C   UNL A   1      33.168  17.745  24.341  1.00  0.00    -0.021 A 
ATOM     95  C   UNL A   1      34.374  17.110  24.029  1.00  0.00     0.028 A 
ATOM     96  C   UNL A   1      32.280  17.123  25.214  1.00  0.00     0.028 A 
ATOM     97  C   UNL A   1      34.624  15.865  24.581  1.00  0.00     0.111 A 
ATOM     98  C   UNL A   1      32.628  15.882  25.723  1.00  0.00     0.111 A 
ATOM     99  N   UNL A   1      33.778  15.240  25.427  1.00  0.00    -0.265 NA
ENDBRANCH  93  94
ENDBRANCH  78  86
ENDBRANCH  75  78
ENDBRANCH  73  74
ENDBRANCH  72  73
ENDBRANCH   1  72
TORSDOF 18
ENDMDL
MODEL 2
REMARK VINA RESULT:     -12.7      5.211     10.639
REMARK SMILES O=C(NCCCCNC(=O)[C@@H](Cc1ccccc1)N1C(=O)/C(=C/c2ccncc2)SC1=S)c1ccc(-c2c3nc(c(-c4cccc(S(=O)(=O)[O-])c4F)c4ccc([nH]4)c(-c4cccc(S(=O)(=O)[O-])c4F)c4nc(c(-c5cccc(S(=O)(=O)[O-])c5F)c5ccc2[nH]5)C=C4)C=C3)cc1
REMARK SMILES IDX 5 1 4 2 3 3 1 4 2 5 33 7 34 8 95 9 35 10 94 11 36 12 37 13
REMARK SMILES IDX 38 14 88 15 39 16 93 17 87 18 89 19 40 20 92 21 86 22 85 23
REMARK SMILES IDX 41 25 73 26 53 27 72 28 54 29 57 30 71 31 90 32 55 33 56 34
REMARK SMILES IDX 70 36 91 37 58 38 42 39 43 40 51 41 44 42 46 43 52 44 45 45
REMARK SMILES IDX 47 46 48 47 49 48 50 49 74 50 75 51 83 52 76 53 78 54 84 55
REMARK SMILES IDX 77 56 79 57 80 58 81 59 82 60 59 61 60 62 68 63 61 64 63 65
REMARK SMILES IDX 69 66 62 67 64 68 65 69 66 70 67 71 6 72 7 73 8 74 9 75
REMARK SMILES IDX 10 77 11 78 12 79 13 80 14 81 18 82 15 83 17 84 16 85 19 86
REMARK SMILES IDX 20 87 31 88 21 89 22 90 30 91 32 92 23 93 24 94 25 95 29 96
REMARK SMILES IDX 26 97 28 98 27 99
REMARK H PARENT 3 6 89 24 57 35 8 76
REMARK Flexibility Score: inf
ROOT
ATOM      1  C   UNL A   1      38.483  20.389  24.919  1.00  0.00     0.023 C 
ENDROOT
BRANCH   1   2
ATOM      2  C   UNL A   1      39.086  19.719  26.152  1.00  0.00     0.116 C 
BRANCH   2   3
ATOM      3  N   UNL A   1      40.408  19.133  25.949  1.00  0.00    -0.352 N 
ATOM      4  O   UNL A   1      42.675  19.105  25.860  1.00  0.00    -0.269 OA
ATOM      5  C   UNL A   1      41.645  19.717  26.125  1.00  0.00     0.251 C 
ATOM      6  H   UNL A   1      40.417  18.196  25.647  1.00  0.00     0.163 HD
BRANCH   5   7
ATOM      7  C   UNL A   1      41.699  21.121  26.581  1.00  0.00     0.039 A 
ATOM      8  C   UNL A   1      41.525  22.156  25.661  1.00  0.00     0.014 A 
ATOM      9  C   UNL A   1      42.070  21.394  27.898  1.00  0.00     0.014 A 
ATOM     10  C   UNL A   1      41.953  23.434  25.992  1.00  0.00     0.010 A 
ATOM     11  C   UNL A   1      42.384  22.705  28.261  1.00  0.00     0.010 A 
ATOM     12  C   UNL A   1      42.390  23.724  27.294  1.00  0.00    -0.014 A 
BRANCH  12  13
ATOM     13  C   UNL A   1      42.820  25.103  27.640  1.00  0.00     0.031 A 
ATOM     14  C   UNL A   1      41.870  26.077  28.285  1.00  0.00     0.074 A 
ATOM     15  C   UNL A   1      44.077  25.480  27.342  1.00  0.00     0.049 A 
ATOM     16  N   UNL A   1      42.052  27.343  28.558  1.00  0.00    -0.248 NA
ATOM     17  C   UNL A   1      40.540  25.571  28.662  1.00  0.00     0.031 C 
ATOM     18  C   UNL A   1      45.076  24.627  26.694  1.00  0.00     0.029 A 
ATOM     19  N   UNL A   1      44.725  26.675  27.521  1.00  0.00    -0.354 N 
ATOM     20  C   UNL A   1      40.846  27.802  29.074  1.00  0.00     0.074 A 
ATOM     21  C   UNL A   1      39.939  26.674  29.089  1.00  0.00     0.031 C 
ATOM     22  C   UNL A   1      46.210  25.320  26.535  1.00  0.00     0.029 A 
ATOM     23  C   UNL A   1      45.995  26.686  26.995  1.00  0.00     0.049 A 
ATOM     24  H   UNL A   1      44.322  27.446  27.980  1.00  0.00     0.167 HD
ATOM     25  C   UNL A   1      40.529  29.048  29.504  1.00  0.00     0.034 A 
ATOM     26  C   UNL A   1      46.878  27.691  26.850  1.00  0.00     0.034 A 
ATOM     27  C   UNL A   1      41.457  30.146  29.538  1.00  0.00     0.049 A 
ATOM     28  C   UNL A   1      46.516  29.051  27.360  1.00  0.00     0.074 A 
ATOM     29  C   UNL A   1      41.260  31.425  30.029  1.00  0.00     0.029 A 
ATOM     30  N   UNL A   1      42.759  30.097  29.062  1.00  0.00    -0.354 N 
ATOM     31  N   UNL A   1      45.407  29.440  27.940  1.00  0.00    -0.248 NA
ATOM     32  C   UNL A   1      47.527  30.107  27.219  1.00  0.00     0.031 C 
ATOM     33  C   UNL A   1      42.438  32.154  29.833  1.00  0.00     0.029 A 
ATOM     34  C   UNL A   1      43.375  31.325  29.236  1.00  0.00     0.049 A 
ATOM     35  H   UNL A   1      43.184  29.305  28.657  1.00  0.00     0.167 HD
ATOM     36  C   UNL A   1      45.590  30.779  28.254  1.00  0.00     0.074 A 
ATOM     37  C   UNL A   1      46.927  31.131  27.815  1.00  0.00     0.031 C 
ATOM     38  C   UNL A   1      44.725  31.642  28.839  1.00  0.00     0.034 A 
BRANCH  25  39
ATOM     39  C   UNL A   1      39.125  29.288  30.001  1.00  0.00     0.023 A 
ATOM     40  C   UNL A   1      38.770  28.903  31.309  1.00  0.00     0.012 A 
ATOM     41  C   UNL A   1      38.174  29.946  29.194  1.00  0.00     0.148 A 
ATOM     42  C   UNL A   1      37.484  29.139  31.796  1.00  0.00     0.002 A 
ATOM     43  C   UNL A   1      36.905  30.211  29.700  1.00  0.00     0.091 A 
ATOM     44  F   UNL A   1      38.518  30.284  27.943  1.00  0.00    -0.205 F 
ATOM     45  C   UNL A   1      36.556  29.802  30.996  1.00  0.00     0.022 A 
BRANCH  43  46
ATOM     46  S   UNL A   1      35.678  31.125  28.757  1.00  0.00     0.127 S 
ATOM     47  O   UNL A   1      34.882  31.735  29.820  1.00  0.00    -0.237 OA
ATOM     48  O   UNL A   1      36.500  32.068  27.996  1.00  0.00    -0.237 OA
ATOM     49  O   UNL A   1      34.995  30.132  27.940  1.00  0.00    -0.744 OA
ENDBRANCH  43  46
ENDBRANCH  25  39
BRANCH  26  50
ATOM     50  C   UNL A   1      48.188  27.401  26.206  1.00  0.00     0.023 A 
ATOM     51  C   UNL A   1      49.204  26.777  26.953  1.00  0.00     0.012 A 
ATOM     52  C   UNL A   1      48.376  27.615  24.826  1.00  0.00     0.148 A 
ATOM     53  C   UNL A   1      50.386  26.369  26.335  1.00  0.00     0.002 A 
ATOM     54  C   UNL A   1      49.528  27.149  24.205  1.00  0.00     0.091 A 
ATOM     55  F   UNL A   1      47.397  28.219  24.138  1.00  0.00    -0.205 F 
ATOM     56  C   UNL A   1      50.540  26.538  24.960  1.00  0.00     0.022 A 
BRANCH  54  57
ATOM     57  S   UNL A   1      49.733  27.171  22.420  1.00  0.00     0.127 S 
ATOM     58  O   UNL A   1      48.737  26.192  21.993  1.00  0.00    -0.237 OA
ATOM     59  O   UNL A   1      49.409  28.562  22.097  1.00  0.00    -0.237 OA
ATOM     60  O   UNL A   1      51.123  26.809  22.179  1.00  0.00    -0.744 OA
ENDBRANCH  54  57
ENDBRANCH  26  50
BRANCH  38  61
ATOM     61  C   UNL A   1      45.196  33.051  29.068  1.00  0.00     0.023 A 
ATOM     62  C   UNL A   1      45.924  33.360  30.232  1.00  0.00     0.012 A 
ATOM     63  C   UNL A   1      45.001  34.040  28.085  1.00  0.00     0.148 A 
ATOM     64  C   UNL A   1      46.441  34.640  30.422  1.00  0.00     0.002 A 
ATOM     65  C   UNL A   1      45.553  35.302  28.262  1.00  0.00     0.091 A 
ATOM     66  F   UNL A   1      44.286  33.726  26.995  1.00  0.00    -0.205 F 
ATOM     67  C   UNL A   1      46.267  35.606  29.433  1.00  0.00     0.022 A 
BRANCH  65  68
ATOM     68  S   UNL A   1      45.457  36.581  27.004  1.00  0.00     0.127 S 
ATOM     69  O   UNL A   1      46.085  35.922  25.860  1.00  0.00    -0.237 OA
ATOM     70  O   UNL A   1      44.014  36.782  26.876  1.00  0.00    -0.237 OA
ATOM     71  O   UNL A   1      46.182  37.726  27.539  1.00  0.00    -0.744 OA
ENDBRANCH  65  68
ENDBRANCH  38  61
ENDBRANCH  12  13
ENDBRANCH   5   7
ENDBRANCH   2   3
ENDBRANCH   1   2
BRANCH   1  72
ATOM     72  C   UNL A   1      37.730  21.685  25.171  1.00  0.00     0.023 C 
BRANCH  72  73
ATOM     73  C   UNL A   1      36.221  21.553  25.106  1.00  0.00     0.116 C 
BRANCH  73  74
ATOM     74  N   UNL A   1      35.502  21.916  26.297  1.00  0.00    -0.354 N 
ATOM     75  C   UNL A   1      34.177  21.670  26.511  1.00  0.00     0.243 C 
ATOM     76  H   UNL A   1      36.001  22.376  27.010  1.00  0.00     0.163 HD
ATOM     77  O   UNL A   1      33.856  21.341  27.659  1.00  0.00    -0.273 OA
BRANCH  75  78
ATOM     78  C   UNL A   1      33.099  21.773  25.397  1.00  0.00     0.185 C 
BRANCH  78  79
ATOM     79  C   UNL A   1      32.069  20.617  25.220  1.00  0.00     0.071 C 
BRANCH  79  80
ATOM     80  C   UNL A   1      32.471  19.243  24.751  1.00  0.00    -0.045 A 
ATOM     81  C   UNL A   1      32.514  18.954  23.376  1.00  0.00     0.004 A 
ATOM     82  C   UNL A   1      32.779  18.221  25.653  1.00  0.00     0.004 A 
ATOM     83  C   UNL A   1      32.948  17.706  22.921  1.00  0.00     0.000 A 
ATOM     84  C   UNL A   1      33.241  16.984  25.198  1.00  0.00     0.000 A 
ATOM     85  C   UNL A   1      33.341  16.732  23.833  1.00  0.00     0.000 A 
ENDBRANCH  79  80
ENDBRANCH  78  79
BRANCH  78  86
ATOM     86  N   UNL A   1      32.726  23.123  24.880  1.00  0.00    -0.280 N 
ATOM     87  C   UNL A   1      31.999  23.966  25.726  1.00  0.00     0.266 C 
ATOM     88  C   UNL A   1      32.993  23.676  23.643  1.00  0.00     0.149 C 
ATOM     89  O   UNL A   1      31.603  23.726  26.858  1.00  0.00    -0.268 OA
ATOM     90  C   UNL A   1      31.746  25.271  25.060  1.00  0.00     0.081 C 
ATOM     91  S   UNL A   1      32.796  25.418  23.719  1.00  0.00    -0.054 SA
ATOM     92  S   UNL A   1      33.364  23.019  22.167  1.00  0.00    -0.052 S 
ATOM     93  C   UNL A   1      30.785  26.139  25.409  1.00  0.00     0.029 C 
BRANCH  93  94
ATOM     94  C   UNL A   1      30.526  27.357  24.630  1.00  0.00    -0.021 A 
ATOM     95  C   UNL A   1      31.181  28.552  24.942  1.00  0.00     0.028 A 
ATOM     96  C   UNL A   1      29.528  27.364  23.660  1.00  0.00     0.028 A 
ATOM     97  C   UNL A   1      30.785  29.708  24.293  1.00  0.00     0.111 A 
ATOM     98  C   UNL A   1      29.213  28.572  23.058  1.00  0.00     0.111 A 
ATOM     99  N   UNL A   1      29.818  29.742  23.351  1.00  0.00    -0.265 NA
ENDBRANCH  93  94
ENDBRANCH  78  86
ENDBRANCH  75  78
ENDBRANCH  73  74
ENDBRANCH  72  73
ENDBRANCH   1  72
TORSDOF 18
ENDMDL
MODEL 3
REMARK VINA RESULT:     -12.6      0.605      7.565
REMARK SMILES O=C(NCCCCNC(=O)[C@@H](Cc1ccccc1)N1C(=O)/C(=C/c2ccncc2)SC1=S)c1ccc(-c2c3nc(c(-c4cccc(S(=O)(=O)[O-])c4F)c4ccc([nH]4)c(-c4cccc(S(=O)(=O)[O-])c4F)c4nc(c(-c5cccc(S(=O)(=O)[O-])c5F)c5ccc2[nH]5)C=C4)C=C3)cc1
REMARK SMILES IDX 5 1 4 2 3 3 1 4 2 5 33 7 34 8 95 9 35 10 94 11 36 12 37 13
REMARK SMILES IDX 38 14 88 15 39 16 93 17 87 18 89 19 40 20 92 21 86 22 85 23
REMARK SMILES IDX 41 25 73 26 53 27 72 28 54 29 57 30 71 31 90 32 55 33 56 34
REMARK SMILES IDX 70 36 91 37 58 38 42 39 43 40 51 41 44 42 46 43 52 44 45 45
REMARK SMILES IDX 47 46 48 47 49 48 50 49 74 50 75 51 83 52 76 53 78 54 84 55
REMARK SMILES IDX 77 56 79 57 80 58 81 59 82 60 59 61 60 62 68 63 61 64 63 65
REMARK SMILES IDX 69 66 62 67 64 68 65 69 66 70 67 71 6 72 7 73 8 74 9 75
REMARK SMILES IDX 10 77 11 78 12 79 13 80 14 81 18 82 15 83 17 84 16 85 19 86
REMARK SMILES IDX 20 87 31 88 21 89 22 90 30 91 32 92 23 93 24 94 25 95 29 96
REMARK SMILES IDX 26 97 28 98 27 99
REMARK H PARENT 3 6 89 24 57 35 8 76
REMARK Flexibility Score: inf
ROOT
ATOM      1  C   UNL A   1      31.789  28.883  26.719  1.00  0.00     0.023 C 
ENDROOT
BRANCH   1   2
ATOM      2  C   UNL A   1      32.675  29.955  26.088  1.00  0.00     0.116 C 
BRANCH   2   3
ATOM      3  N   UNL A   1      32.447  31.310  26.581  1.00  0.00    -0.352 N 
ATOM      4  O   UNL A   1      32.916  33.206  27.736  1.00  0.00    -0.269 OA
ATOM      5  C   UNL A   1      33.275  32.096  27.354  1.00  0.00     0.251 C 
ATOM      6  H   UNL A   1      31.587  31.717  26.327  1.00  0.00     0.163 HD
BRANCH   5   7
ATOM      7  C   UNL A   1      34.582  31.545  27.765  1.00  0.00     0.039 A 
ATOM      8  C   UNL A   1      34.704  30.181  28.041  1.00  0.00     0.014 A 
ATOM      9  C   UNL A   1      35.641  32.419  28.015  1.00  0.00     0.014 A 
ATOM     10  C   UNL A   1      35.787  29.736  28.784  1.00  0.00     0.010 A 
ATOM     11  C   UNL A   1      36.785  31.939  28.655  1.00  0.00     0.010 A 
ATOM     12  C   UNL A   1      36.840  30.609  29.103  1.00  0.00    -0.014 A 
BRANCH  12  13
ATOM     13  C   UNL A   1      38.006  30.110  29.875  1.00  0.00     0.031 A 
ATOM     14  C   UNL A   1      38.254  30.560  31.290  1.00  0.00     0.074 A 
ATOM     15  C   UNL A   1      38.860  29.259  29.276  1.00  0.00     0.049 A 
ATOM     16  N   UNL A   1      39.273  30.302  32.067  1.00  0.00    -0.248 NA
ATOM     17  C   UNL A   1      37.234  31.421  31.911  1.00  0.00     0.031 C 
ATOM     18  C   UNL A   1      38.732  28.775  27.900  1.00  0.00     0.029 A 
ATOM     19  N   UNL A   1      40.010  28.669  29.732  1.00  0.00    -0.354 N 
ATOM     20  C   UNL A   1      39.054  31.017  33.239  1.00  0.00     0.074 A 
ATOM     21  C   UNL A   1      37.796  31.713  33.077  1.00  0.00     0.031 C 
ATOM     22  C   UNL A   1      39.757  27.958  27.623  1.00  0.00     0.029 A 
ATOM     23  C   UNL A   1      40.653  27.924  28.771  1.00  0.00     0.049 A 
ATOM     24  H   UNL A   1      40.342  28.768  30.653  1.00  0.00     0.167 HD
ATOM     25  C   UNL A   1      39.829  31.079  34.350  1.00  0.00     0.034 A 
ATOM     26  C   UNL A   1      41.855  27.317  28.787  1.00  0.00     0.034 A 
ATOM     27  C   UNL A   1      41.049  30.337  34.520  1.00  0.00     0.049 A 
ATOM     28  C   UNL A   1      42.678  27.376  30.036  1.00  0.00     0.074 A 
ATOM     29  C   UNL A   1      41.865  30.267  35.635  1.00  0.00     0.029 A 
ATOM     30  N   UNL A   1      41.631  29.535  33.549  1.00  0.00    -0.354 N 
ATOM     31  N   UNL A   1      42.405  27.972  31.170  1.00  0.00    -0.248 NA
ATOM     32  C   UNL A   1      43.962  26.663  30.022  1.00  0.00     0.031 C 
ATOM     33  C   UNL A   1      42.950  29.437  35.332  1.00  0.00     0.029 A 
ATOM     34  C   UNL A   1      42.800  28.975  34.033  1.00  0.00     0.049 A 
ATOM     35  H   UNL A   1      41.266  29.387  32.646  1.00  0.00     0.167 HD
ATOM     36  C   UNL A   1      43.469  27.692  32.015  1.00  0.00     0.074 A 
ATOM     37  C   UNL A   1      44.386  26.855  31.265  1.00  0.00     0.031 C 
ATOM     38  C   UNL A   1      43.675  28.103  33.289  1.00  0.00     0.034 A 
BRANCH  25  39
ATOM     39  C   UNL A   1      39.368  31.960  35.484  1.00  0.00     0.023 A 
ATOM     40  C   UNL A   1      38.514  31.436  36.475  1.00  0.00     0.012 A 
ATOM     41  C   UNL A   1      39.825  33.288  35.601  1.00  0.00     0.148 A 
ATOM     42  C   UNL A   1      38.096  32.227  37.546  1.00  0.00     0.002 A 
ATOM     43  C   UNL A   1      39.434  34.060  36.692  1.00  0.00     0.091 A 
ATOM     44  F   UNL A   1      40.617  33.782  34.638  1.00  0.00    -0.205 F 
ATOM     45  C   UNL A   1      38.564  33.534  37.659  1.00  0.00     0.022 A 
BRANCH  43  46
ATOM     46  S   UNL A   1      40.052  35.728  36.947  1.00  0.00     0.127 S 
ATOM     47  O   UNL A   1      39.351  36.120  38.168  1.00  0.00    -0.237 OA
ATOM     48  O   UNL A   1      41.490  35.511  37.116  1.00  0.00    -0.237 OA
ATOM     49  O   UNL A   1      39.695  36.464  35.742  1.00  0.00    -0.744 OA
ENDBRANCH  43  46
ENDBRANCH  25  39
BRANCH  26  50
ATOM     50  C   UNL A   1      42.304  26.595  27.566  1.00  0.00     0.023 A 
ATOM     51  C   UNL A   1      43.187  27.228  26.672  1.00  0.00     0.012 A 
ATOM     52  C   UNL A   1      41.970  25.241  27.365  1.00  0.00     0.148 A 
ATOM     53  C   UNL A   1      43.730  26.523  25.598  1.00  0.00     0.002 A 
ATOM     54  C   UNL A   1      42.565  24.528  26.332  1.00  0.00     0.091 A 
ATOM     55  F   UNL A   1      41.120  24.663  28.226  1.00  0.00    -0.205 F 
ATOM     56  C   UNL A   1      43.434  25.171  25.439  1.00  0.00     0.022 A 
BRANCH  54  57
ATOM     57  S   UNL A   1      42.373  22.749  26.157  1.00  0.00     0.127 S 
ATOM     58  O   UNL A   1      43.068  22.497  24.898  1.00  0.00    -0.237 OA
ATOM     59  O   UNL A   1      43.061  22.254  27.351  1.00  0.00    -0.237 OA
ATOM     60  O   UNL A   1      40.938  22.507  26.151  1.00  0.00    -0.744 OA
ENDBRANCH  54  57
ENDBRANCH  26  50
BRANCH  38  61
ATOM     61  C   UNL A   1      44.929  27.637  33.976  1.00  0.00     0.023 A 
ATOM     62  C   UNL A   1      46.083  28.441  33.936  1.00  0.00     0.012 A 
ATOM     63  C   UNL A   1      44.929  26.454  34.739  1.00  0.00     0.148 A 
ATOM     64  C   UNL A   1      47.229  28.066  34.637  1.00  0.00     0.002 A 
ATOM     65  C   UNL A   1      46.060  26.108  35.467  1.00  0.00     0.091 A 
ATOM     66  F   UNL A   1      43.824  25.696  34.744  1.00  0.00    -0.205 F 
ATOM     67  C   UNL A   1      47.213  26.908  35.412  1.00  0.00     0.022 A 
BRANCH  65  68
ATOM     68  S   UNL A   1      46.103  24.683  36.562  1.00  0.00     0.127 S 
ATOM     69  O   UNL A   1      45.936  23.578  35.619  1.00  0.00    -0.237 OA
ATOM     70  O   UNL A   1      47.438  24.785  37.151  1.00  0.00    -0.237 OA
ATOM     71  O   UNL A   1      45.009  24.868  37.506  1.00  0.00    -0.744 OA
ENDBRANCH  65  68
ENDBRANCH  38  61
ENDBRANCH  12  13
ENDBRANCH   5   7
ENDBRANCH   2   3
ENDBRANCH   1   2
BRANCH   1  72
ATOM     72  C   UNL A   1      31.649  27.591  25.929  1.00  0.00     0.023 C 
BRANCH  72  73
ATOM     73  C   UNL A   1      32.470  26.437  26.471  1.00  0.00     0.116 C 
BRANCH  73  74
ATOM     74  N   UNL A   1      33.505  25.937  25.608  1.00  0.00    -0.354 N 
ATOM     75  C   UNL A   1      33.291  25.155  24.511  1.00  0.00     0.243 C 
ATOM     76  H   UNL A   1      34.435  26.175  25.824  1.00  0.00     0.163 HD
ATOM     77  O   UNL A   1      34.006  25.378  23.526  1.00  0.00    -0.273 OA
BRANCH  75  78
ATOM     78  C   UNL A   1      32.207  24.043  24.452  1.00  0.00     0.185 C 
BRANCH  78  79
ATOM     79  C   UNL A   1      30.909  24.281  23.625  1.00  0.00     0.071 C 
BRANCH  79  80
ATOM     80  C   UNL A   1      30.386  25.662  23.325  1.00  0.00    -0.045 A 
ATOM     81  C   UNL A   1      29.154  26.079  23.858  1.00  0.00     0.004 A 
ATOM     82  C   UNL A   1      31.082  26.546  22.495  1.00  0.00     0.004 A 
ATOM     83  C   UNL A   1      28.685  27.378  23.645  1.00  0.00     0.000 A 
ATOM     84  C   UNL A   1      30.628  27.853  22.306  1.00  0.00     0.000 A 
ATOM     85  C   UNL A   1      29.439  28.274  22.894  1.00  0.00     0.000 A 
ENDBRANCH  79  80
ENDBRANCH  78  79
BRANCH  78  86
ATOM     86  N   UNL A   1      32.611  22.631  24.722  1.00  0.00    -0.280 N 
ATOM     87  C   UNL A   1      32.463  21.702  23.686  1.00  0.00     0.266 C 
ATOM     88  C   UNL A   1      33.117  22.086  25.886  1.00  0.00     0.149 C 
ATOM     89  O   UNL A   1      32.016  21.900  22.566  1.00  0.00    -0.268 OA
ATOM     90  C   UNL A   1      32.942  20.364  24.122  1.00  0.00     0.081 C 
ATOM     91  S   UNL A   1      33.888  20.550  25.534  1.00  0.00    -0.054 SA
ATOM     92  S   UNL A   1      33.057  22.557  27.474  1.00  0.00    -0.052 S 
ATOM     93  C   UNL A   1      32.603  19.201  23.546  1.00  0.00     0.029 C 
BRANCH  93  94
ATOM     94  C   UNL A   1      33.029  17.911  24.106  1.00  0.00    -0.021 A 
ATOM     95  C   UNL A   1      32.202  17.215  24.992  1.00  0.00     0.028 A 
ATOM     96  C   UNL A   1      34.315  17.437  23.863  1.00  0.00     0.028 A 
ATOM     97  C   UNL A   1      32.710  16.092  25.621  1.00  0.00     0.111 A 
ATOM     98  C   UNL A   1      34.726  16.296  24.533  1.00  0.00     0.111 A 
ATOM     99  N   UNL A   1      33.954  15.613  25.405  1.00  0.00    -0.265 NA
ENDBRANCH  93  94
ENDBRANCH  78  86
ENDBRANCH  75  78
ENDBRANCH  73  74
ENDBRANCH  72  73
ENDBRANCH   1  72
TORSDOF 18
ENDMDL
