MODEL 1
REMARK VINA RESULT:     -13.1      0.000      0.000
REMARK SMILES CC(=O)Nc1cccc(-c2cc(F)ccc2C(=O)NCCCCNC(=O)c2ccc(-c3c4nc(c(-c5cccc(S(=O)(=O)[O-])c5F)c5ccc([nH]5)c(-c5cccc(S(=O)(=O)[O-])c5F)c5nc(c(-c6cccc(S(=O)(=O)[O-])c6F)c6ccc3[nH]6)C=C5)C=C4)cc2)c1
REMARK SMILES IDX 22 1 21 2 20 3 19 4 17 5 18 6 16 8 10 9 11 10 12 11 15 12
REMARK SMILES IDX 13 13 14 14 9 15 5 16 6 17 90 18 7 19 8 20 4 21 1 22 2 23
REMARK SMILES IDX 3 24 23 26 24 27 25 28 26 30 27 31 28 32 89 33 29 34 88 35
REMARK SMILES IDX 30 36 31 37 32 38 82 39 33 40 87 41 81 42 83 43 34 44 86 45
REMARK SMILES IDX 80 46 79 47 35 49 67 50 47 51 66 52 48 53 51 54 65 55 84 56
REMARK SMILES IDX 49 57 50 58 64 60 85 61 52 62 36 63 37 64 45 65 38 66 40 67
REMARK SMILES IDX 46 68 39 69 41 70 42 71 43 72 44 73 68 74 69 75 77 76 70 77
REMARK SMILES IDX 72 78 78 79 71 80 73 81 74 82 75 83 76 84 53 85 54 86 62 87
REMARK SMILES IDX 55 88 57 89 63 90 56 91 58 92 59 93 60 94 61 95
REMARK H PARENT 19 7 4 25 24 29 83 48 51 59
REMARK Flexibility Score: inf
ROOT
ATOM      1  C   UNL A   1      32.352  29.639  25.061  1.00  0.00     0.023 C 
ENDROOT
BRANCH   1   2
ATOM      2  C   UNL A   1      33.630  28.967  24.555  1.00  0.00     0.023 C 
BRANCH   2   3
ATOM      3  C   UNL A   1      33.886  28.950  23.056  1.00  0.00     0.116 C 
BRANCH   3   4
ATOM      4  N   UNL A   1      34.083  27.668  22.431  1.00  0.00    -0.352 N 
ATOM      5  C   UNL A   1      33.217  26.616  22.242  1.00  0.00     0.251 C 
ATOM      6  O   UNL A   1      33.626  25.702  21.517  1.00  0.00    -0.269 OA
ATOM      7  H   UNL A   1      34.991  27.520  22.080  1.00  0.00     0.163 HD
BRANCH   5   8
ATOM      8  C   UNL A   1      31.870  26.420  22.894  1.00  0.00     0.047 A 
ATOM      9  C   UNL A   1      31.489  25.569  23.964  1.00  0.00    -0.003 A 
ATOM     10  C   UNL A   1      30.154  25.655  24.446  1.00  0.00     0.048 A 
ATOM     11  C   UNL A   1      29.230  26.540  23.907  1.00  0.00     0.123 A 
ATOM     12  C   UNL A   1      30.893  27.315  22.375  1.00  0.00     0.017 A 
ATOM     13  F   UNL A   1      27.987  26.583  24.402  1.00  0.00    -0.207 F 
ATOM     14  C   UNL A   1      29.588  27.375  22.871  1.00  0.00     0.040 A 
BRANCH   9  15
ATOM     15  C   UNL A   1      32.338  24.579  24.647  1.00  0.00    -0.015 A 
ATOM     16  C   UNL A   1      32.778  22.316  25.439  1.00  0.00     0.041 A 
ATOM     17  C   UNL A   1      33.881  22.796  26.159  1.00  0.00     0.026 A 
ATOM     18  C   UNL A   1      32.031  23.208  24.657  1.00  0.00     0.034 A 
ATOM     19  C   UNL A   1      34.242  24.138  26.106  1.00  0.00     0.003 A 
ATOM     20  C   UNL A   1      33.478  25.021  25.352  1.00  0.00     0.009 A 
BRANCH  16  21
ATOM     21  N   UNL A   1      32.404  20.989  25.697  1.00  0.00    -0.326 N 
ATOM     22  C   UNL A   1      34.236  19.688  24.626  1.00  0.00     0.114 C 
ATOM     23  C   UNL A   1      32.864  19.794  25.227  1.00  0.00     0.221 C 
ATOM     24  O   UNL A   1      32.153  18.795  25.351  1.00  0.00    -0.275 OA
ATOM     25  H   UNL A   1      31.666  20.903  26.344  1.00  0.00     0.169 HD
ENDBRANCH  16  21
ENDBRANCH   9  15
ENDBRANCH   5   8
ENDBRANCH   3   4
ENDBRANCH   2   3
ENDBRANCH   1   2
BRANCH   1  26
ATOM     26  C   UNL A   1      32.184  29.885  26.562  1.00  0.00     0.116 C 
BRANCH  26  27
ATOM     27  N   UNL A   1      32.104  31.278  26.975  1.00  0.00    -0.352 N 
ATOM     28  C   UNL A   1      33.105  32.104  27.446  1.00  0.00     0.251 C 
ATOM     29  H   UNL A   1      31.212  31.690  26.911  1.00  0.00     0.163 HD
ATOM     30  O   UNL A   1      32.872  33.304  27.600  1.00  0.00    -0.269 OA
BRANCH  28  31
ATOM     31  C   UNL A   1      34.428  31.551  27.817  1.00  0.00     0.039 A 
ATOM     32  C   UNL A   1      35.495  32.438  28.001  1.00  0.00     0.014 A 
ATOM     33  C   UNL A   1      34.614  30.187  28.046  1.00  0.00     0.014 A 
ATOM     34  C   UNL A   1      36.703  31.974  28.531  1.00  0.00     0.010 A 
ATOM     35  C   UNL A   1      35.790  29.739  28.649  1.00  0.00     0.010 A 
ATOM     36  C   UNL A   1      36.839  30.631  28.924  1.00  0.00    -0.014 A 
BRANCH  36  37
ATOM     37  C   UNL A   1      38.032  30.176  29.692  1.00  0.00     0.031 A 
ATOM     38  C   UNL A   1      38.298  30.675  31.087  1.00  0.00     0.074 A 
ATOM     39  C   UNL A   1      38.928  29.364  29.090  1.00  0.00     0.049 A 
ATOM     40  N   UNL A   1      39.287  30.379  31.892  1.00  0.00    -0.248 NA
ATOM     41  C   UNL A   1      37.348  31.651  31.643  1.00  0.00     0.031 C 
ATOM     42  C   UNL A   1      38.847  28.893  27.704  1.00  0.00     0.029 A 
ATOM     43  N   UNL A   1      40.092  28.802  29.557  1.00  0.00    -0.354 N 
ATOM     44  C   UNL A   1      39.092  31.142  33.036  1.00  0.00     0.074 A 
ATOM     45  C   UNL A   1      37.912  31.949  32.805  1.00  0.00     0.031 C 
ATOM     46  C   UNL A   1      39.900  28.101  27.442  1.00  0.00     0.029 A 
ATOM     47  C   UNL A   1      40.741  28.018  28.630  1.00  0.00     0.049 A 
ATOM     48  H   UNL A   1      40.430  28.947  30.470  1.00  0.00     0.167 HD
ATOM     49  C   UNL A   1      39.802  31.146  34.191  1.00  0.00     0.034 A 
ATOM     50  C   UNL A   1      41.878  27.300  28.729  1.00  0.00     0.034 A 
ATOM     51  C   UNL A   1      40.952  30.316  34.435  1.00  0.00     0.049 A 
ATOM     52  C   UNL A   1      42.604  27.267  30.047  1.00  0.00     0.074 A 
ATOM     53  C   UNL A   1      41.706  30.204  35.590  1.00  0.00     0.029 A 
ATOM     54  N   UNL A   1      41.512  29.448  33.510  1.00  0.00    -0.354 N 
ATOM     55  N   UNL A   1      42.302  27.868  31.172  1.00  0.00    -0.248 NA
ATOM     56  C   UNL A   1      43.800  26.415  30.124  1.00  0.00     0.031 C 
ATOM     57  C   UNL A   1      42.721  29.267  35.364  1.00  0.00     0.029 A 
ATOM     58  C   UNL A   1      42.593  28.790  34.070  1.00  0.00     0.049 A 
ATOM     59  H   UNL A   1      41.189  29.320  32.589  1.00  0.00     0.167 HD
ATOM     60  C   UNL A   1      43.248  27.443  32.097  1.00  0.00     0.074 A 
ATOM     61  C   UNL A   1      44.112  26.506  31.410  1.00  0.00     0.031 C 
ATOM     62  C   UNL A   1      43.404  27.812  33.392  1.00  0.00     0.034 A 
BRANCH  49  63
ATOM     63  C   UNL A   1      39.301  32.015  35.316  1.00  0.00     0.023 A 
ATOM     64  C   UNL A   1      38.352  31.485  36.216  1.00  0.00     0.012 A 
ATOM     65  C   UNL A   1      39.806  33.313  35.531  1.00  0.00     0.148 A 
ATOM     66  C   UNL A   1      37.890  32.241  37.291  1.00  0.00     0.002 A 
ATOM     67  C   UNL A   1      39.369  34.047  36.630  1.00  0.00     0.091 A 
ATOM     68  F   UNL A   1      40.697  33.805  34.659  1.00  0.00    -0.205 F 
ATOM     69  C   UNL A   1      38.404  33.517  37.504  1.00  0.00     0.022 A 
BRANCH  67  70
ATOM     70  S   UNL A   1      40.019  35.671  37.040  1.00  0.00     0.127 S 
ATOM     71  O   UNL A   1      41.449  35.393  37.169  1.00  0.00    -0.237 OA
ATOM     72  O   UNL A   1      39.655  36.454  35.859  1.00  0.00    -0.237 OA
ATOM     73  O   UNL A   1      39.351  36.074  38.270  1.00  0.00    -0.744 OA
ENDBRANCH  67  70
ENDBRANCH  49  63
BRANCH  50  74
ATOM     74  C   UNL A   1      42.348  26.468  27.583  1.00  0.00     0.023 A 
ATOM     75  C   UNL A   1      43.179  27.052  26.607  1.00  0.00     0.012 A 
ATOM     76  C   UNL A   1      41.986  25.114  27.449  1.00  0.00     0.148 A 
ATOM     77  C   UNL A   1      43.606  26.318  25.498  1.00  0.00     0.002 A 
ATOM     78  C   UNL A   1      42.461  24.373  26.371  1.00  0.00     0.091 A 
ATOM     79  F   UNL A   1      41.180  24.574  28.375  1.00  0.00    -0.205 F 
ATOM     80  C   UNL A   1      43.254  24.977  25.385  1.00  0.00     0.022 A 
BRANCH  78  81
ATOM     81  S   UNL A   1      42.161  22.607  26.235  1.00  0.00     0.127 S 
ATOM     82  O   UNL A   1      40.705  22.553  26.139  1.00  0.00    -0.237 OA
ATOM     83  O   UNL A   1      42.872  22.262  25.003  1.00  0.00    -0.237 OA
ATOM     84  O   UNL A   1      42.749  22.029  27.438  1.00  0.00    -0.744 OA
ENDBRANCH  78  81
ENDBRANCH  50  74
BRANCH  62  85
ATOM     85  C   UNL A   1      44.535  27.179  34.159  1.00  0.00     0.023 A 
ATOM     86  C   UNL A   1      45.808  27.782  34.147  1.00  0.00     0.012 A 
ATOM     87  C   UNL A   1      44.329  26.013  34.923  1.00  0.00     0.148 A 
ATOM     88  C   UNL A   1      46.870  27.213  34.849  1.00  0.00     0.002 A 
ATOM     89  C   UNL A   1      45.381  25.477  35.658  1.00  0.00     0.091 A 
ATOM     90  F   UNL A   1      43.118  25.438  34.906  1.00  0.00    -0.205 F 
ATOM     91  C   UNL A   1      46.654  26.068  35.612  1.00  0.00     0.022 A 
BRANCH  89  92
ATOM     92  S   UNL A   1      45.158  24.057  36.734  1.00  0.00     0.127 S 
ATOM     93  O   UNL A   1      46.515  23.841  37.230  1.00  0.00    -0.237 OA
ATOM     94  O   UNL A   1      44.218  24.562  37.736  1.00  0.00    -0.237 OA
ATOM     95  O   UNL A   1      44.617  23.004  35.885  1.00  0.00    -0.744 OA
ENDBRANCH  89  92
ENDBRANCH  62  85
ENDBRANCH  36  37
ENDBRANCH  28  31
ENDBRANCH  26  27
ENDBRANCH   1  26
TORSDOF 16
ENDMDL
MODEL 2
REMARK VINA RESULT:     -12.9      4.802     10.097
REMARK SMILES CC(=O)Nc1cccc(-c2cc(F)ccc2C(=O)NCCCCNC(=O)c2ccc(-c3c4nc(c(-c5cccc(S(=O)(=O)[O-])c5F)c5ccc([nH]5)c(-c5cccc(S(=O)(=O)[O-])c5F)c5nc(c(-c6cccc(S(=O)(=O)[O-])c6F)c6ccc3[nH]6)C=C5)C=C4)cc2)c1
REMARK SMILES IDX 22 1 21 2 20 3 19 4 17 5 18 6 16 8 10 9 11 10 12 11 15 12
REMARK SMILES IDX 13 13 14 14 9 15 5 16 6 17 90 18 7 19 8 20 4 21 1 22 2 23
REMARK SMILES IDX 3 24 23 26 24 27 25 28 26 30 27 31 28 32 89 33 29 34 88 35
REMARK SMILES IDX 30 36 31 37 32 38 82 39 33 40 87 41 81 42 83 43 34 44 86 45
REMARK SMILES IDX 80 46 79 47 35 49 67 50 47 51 66 52 48 53 51 54 65 55 84 56
REMARK SMILES IDX 49 57 50 58 64 60 85 61 52 62 36 63 37 64 45 65 38 66 40 67
REMARK SMILES IDX 46 68 39 69 41 70 42 71 43 72 44 73 68 74 69 75 77 76 70 77
REMARK SMILES IDX 72 78 78 79 71 80 73 81 74 82 75 83 76 84 53 85 54 86 62 87
REMARK SMILES IDX 55 88 57 89 63 90 56 91 58 92 59 93 60 94 61 95
REMARK H PARENT 19 7 4 25 24 29 83 48 51 59
REMARK Flexibility Score: inf
ROOT
ATOM      1  C   UNL A   1      36.112  21.838  24.217  1.00  0.00     0.023 C 
ENDROOT
BRANCH   1   2
ATOM      2  C   UNL A   1      36.185  23.308  23.803  1.00  0.00     0.023 C 
BRANCH   2   3
ATOM      3  C   UNL A   1      35.029  24.220  24.188  1.00  0.00     0.116 C 
BRANCH   3   4
ATOM      4  N   UNL A   1      34.027  24.478  23.188  1.00  0.00    -0.352 N 
ATOM      5  C   UNL A   1      32.671  24.677  23.303  1.00  0.00     0.251 C 
ATOM      6  O   UNL A   1      32.088  25.047  22.277  1.00  0.00    -0.269 OA
ATOM      7  H   UNL A   1      34.370  24.519  22.266  1.00  0.00     0.163 HD
BRANCH   5   8
ATOM      8  C   UNL A   1      31.812  24.407  24.515  1.00  0.00     0.047 A 
ATOM      9  C   UNL A   1      31.100  25.309  25.349  1.00  0.00    -0.003 A 
ATOM     10  C   UNL A   1      30.284  24.767  26.379  1.00  0.00     0.048 A 
ATOM     11  C   UNL A   1      30.164  23.399  26.582  1.00  0.00     0.123 A 
ATOM     12  C   UNL A   1      31.656  23.014  24.756  1.00  0.00     0.017 A 
ATOM     13  F   UNL A   1      29.378  22.942  27.565  1.00  0.00    -0.207 F 
ATOM     14  C   UNL A   1      30.846  22.512  25.777  1.00  0.00     0.040 A 
BRANCH   9  15
ATOM     15  C   UNL A   1      31.116  26.779  25.270  1.00  0.00    -0.015 A 
ATOM     16  C   UNL A   1      30.730  28.865  24.069  1.00  0.00     0.041 A 
ATOM     17  C   UNL A   1      31.391  29.561  25.090  1.00  0.00     0.026 A 
ATOM     18  C   UNL A   1      30.566  27.478  24.182  1.00  0.00     0.034 A 
ATOM     19  C   UNL A   1      31.881  28.896  26.209  1.00  0.00     0.003 A 
ATOM     20  C   UNL A   1      31.741  27.516  26.299  1.00  0.00     0.009 A 
BRANCH  16  21
ATOM     21  N   UNL A   1      30.428  29.604  22.915  1.00  0.00    -0.326 N 
ATOM     22  C   UNL A   1      27.939  29.635  22.923  1.00  0.00     0.114 C 
ATOM     23  C   UNL A   1      29.264  29.824  22.240  1.00  0.00     0.221 C 
ATOM     24  O   UNL A   1      29.320  30.229  21.077  1.00  0.00    -0.275 OA
ATOM     25  H   UNL A   1      31.209  30.051  22.514  1.00  0.00     0.169 HD
ENDBRANCH  16  21
ENDBRANCH   9  15
ENDBRANCH   5   8
ENDBRANCH   3   4
ENDBRANCH   2   3
ENDBRANCH   1   2
BRANCH   1  26
ATOM     26  C   UNL A   1      36.776  21.396  25.523  1.00  0.00     0.116 C 
BRANCH  26  27
ATOM     27  N   UNL A   1      37.976  20.585  25.387  1.00  0.00    -0.352 N 
ATOM     28  C   UNL A   1      39.235  20.799  25.912  1.00  0.00     0.251 C 
ATOM     29  H   UNL A   1      37.877  19.769  24.845  1.00  0.00     0.163 HD
ATOM     30  O   UNL A   1      40.086  19.915  25.813  1.00  0.00    -0.269 OA
BRANCH  28  31
ATOM     31  C   UNL A   1      39.580  22.096  26.538  1.00  0.00     0.039 A 
ATOM     32  C   UNL A   1      40.570  22.117  27.527  1.00  0.00     0.014 A 
ATOM     33  C   UNL A   1      38.992  23.291  26.121  1.00  0.00     0.014 A 
ATOM     34  C   UNL A   1      41.053  23.340  28.004  1.00  0.00     0.010 A 
ATOM     35  C   UNL A   1      39.529  24.510  26.537  1.00  0.00     0.010 A 
ATOM     36  C   UNL A   1      40.584  24.550  27.463  1.00  0.00    -0.014 A 
BRANCH  36  37
ATOM     37  C   UNL A   1      41.244  25.844  27.797  1.00  0.00     0.031 A 
ATOM     38  C   UNL A   1      42.675  26.109  27.416  1.00  0.00     0.074 A 
ATOM     39  C   UNL A   1      40.565  26.758  28.523  1.00  0.00     0.049 A 
ATOM     40  N   UNL A   1      43.399  27.180  27.629  1.00  0.00    -0.248 NA
ATOM     41  C   UNL A   1      43.399  25.027  26.731  1.00  0.00     0.031 C 
ATOM     42  C   UNL A   1      39.207  26.583  29.050  1.00  0.00     0.029 A 
ATOM     43  N   UNL A   1      40.924  28.010  28.961  1.00  0.00    -0.354 N 
ATOM     44  C   UNL A   1      44.662  26.895  27.126  1.00  0.00     0.074 A 
ATOM     45  C   UNL A   1      44.621  25.534  26.634  1.00  0.00     0.031 C 
ATOM     46  C   UNL A   1      38.844  27.690  29.718  1.00  0.00     0.029 A 
ATOM     47  C   UNL A   1      39.942  28.648  29.685  1.00  0.00     0.049 A 
ATOM     48  H   UNL A   1      41.802  28.413  28.774  1.00  0.00     0.167 HD
ATOM     49  C   UNL A   1      45.748  27.702  27.042  1.00  0.00     0.034 A 
ATOM     50  C   UNL A   1      39.922  29.873  30.248  1.00  0.00     0.034 A 
ATOM     51  C   UNL A   1      45.778  29.067  27.496  1.00  0.00     0.049 A 
ATOM     52  C   UNL A   1      41.117  30.772  30.074  1.00  0.00     0.074 A 
ATOM     53  C   UNL A   1      46.810  29.985  27.404  1.00  0.00     0.029 A 
ATOM     54  N   UNL A   1      44.725  29.716  28.122  1.00  0.00    -0.354 N 
ATOM     55  N   UNL A   1      42.241  30.539  29.443  1.00  0.00    -0.248 NA
ATOM     56  C   UNL A   1      41.019  32.124  30.646  1.00  0.00     0.031 C 
ATOM     57  C   UNL A   1      46.380  31.189  27.974  1.00  0.00     0.029 A 
ATOM     58  C   UNL A   1      45.077  31.023  28.413  1.00  0.00     0.049 A 
ATOM     59  H   UNL A   1      43.855  29.306  28.332  1.00  0.00     0.167 HD
ATOM     60  C   UNL A   1      42.970  31.720  29.513  1.00  0.00     0.074 A 
ATOM     61  C   UNL A   1      42.144  32.678  30.217  1.00  0.00     0.031 C 
ATOM     62  C   UNL A   1      44.220  31.983  29.057  1.00  0.00     0.034 A 
BRANCH  49  63
ATOM     63  C   UNL A   1      46.972  27.156  26.353  1.00  0.00     0.023 A 
ATOM     64  C   UNL A   1      47.131  27.376  24.968  1.00  0.00     0.012 A 
ATOM     65  C   UNL A   1      47.991  26.493  27.066  1.00  0.00     0.148 A 
ATOM     66  C   UNL A   1      48.264  26.920  24.298  1.00  0.00     0.002 A 
ATOM     67  C   UNL A   1      49.138  26.076  26.398  1.00  0.00     0.091 A 
ATOM     68  F   UNL A   1      47.818  26.281  28.378  1.00  0.00    -0.205 F 
ATOM     69  C   UNL A   1      49.271  26.279  25.014  1.00  0.00     0.022 A 
BRANCH  67  70
ATOM     70  S   UNL A   1      50.530  25.306  27.234  1.00  0.00     0.127 S 
ATOM     71  O   UNL A   1      50.967  26.377  28.129  1.00  0.00    -0.237 OA
ATOM     72  O   UNL A   1      49.894  24.172  27.906  1.00  0.00    -0.237 OA
ATOM     73  O   UNL A   1      51.478  24.944  26.190  1.00  0.00    -0.744 OA
ENDBRANCH  67  70
ENDBRANCH  49  63
BRANCH  50  74
ATOM     74  C   UNL A   1      38.695  30.367  30.938  1.00  0.00     0.023 A 
ATOM     75  C   UNL A   1      38.568  30.181  32.329  1.00  0.00     0.012 A 
ATOM     76  C   UNL A   1      37.659  31.015  30.239  1.00  0.00     0.148 A 
ATOM     77  C   UNL A   1      37.417  30.592  33.004  1.00  0.00     0.002 A 
ATOM     78  C   UNL A   1      36.539  31.473  30.927  1.00  0.00     0.091 A 
ATOM     79  F   UNL A   1      37.783  31.171  28.912  1.00  0.00    -0.205 F 
ATOM     80  C   UNL A   1      36.408  31.246  32.305  1.00  0.00     0.022 A 
BRANCH  78  81
ATOM     81  S   UNL A   1      35.264  32.444  30.116  1.00  0.00     0.127 S 
ATOM     82  O   UNL A   1      34.323  32.680  31.207  1.00  0.00    -0.237 OA
ATOM     83  O   UNL A   1      36.004  33.627  29.674  1.00  0.00    -0.237 OA
ATOM     84  O   UNL A   1      34.786  31.604  29.023  1.00  0.00    -0.744 OA
ENDBRANCH  78  81
ENDBRANCH  50  74
BRANCH  62  85
ATOM     85  C   UNL A   1      44.758  33.372  29.281  1.00  0.00     0.023 A 
ATOM     86  C   UNL A   1      45.429  33.672  30.484  1.00  0.00     0.012 A 
ATOM     87  C   UNL A   1      44.638  34.365  28.290  1.00  0.00     0.148 A 
ATOM     88  C   UNL A   1      45.936  34.951  30.713  1.00  0.00     0.002 A 
ATOM     89  C   UNL A   1      45.186  35.624  28.507  1.00  0.00     0.091 A 
ATOM     90  F   UNL A   1      43.977  34.070  27.162  1.00  0.00    -0.205 F 
ATOM     91  C   UNL A   1      45.823  35.923  29.722  1.00  0.00     0.022 A 
BRANCH  89  92
ATOM     92  S   UNL A   1      45.159  36.900  27.243  1.00  0.00     0.127 S 
ATOM     93  O   UNL A   1      43.732  36.998  26.946  1.00  0.00    -0.237 OA
ATOM     94  O   UNL A   1      45.715  38.057  27.948  1.00  0.00    -0.237 OA
ATOM     95  O   UNL A   1      45.999  36.398  26.164  1.00  0.00    -0.744 OA
ENDBRANCH  89  92
ENDBRANCH  62  85
ENDBRANCH  36  37
ENDBRANCH  28  31
ENDBRANCH  26  27
ENDBRANCH   1  26
TORSDOF 16
ENDMDL
MODEL 3
REMARK VINA RESULT:     -12.8      2.594      8.614
REMARK SMILES CC(=O)Nc1cccc(-c2cc(F)ccc2C(=O)NCCCCNC(=O)c2ccc(-c3c4nc(c(-c5cccc(S(=O)(=O)[O-])c5F)c5ccc([nH]5)c(-c5cccc(S(=O)(=O)[O-])c5F)c5nc(c(-c6cccc(S(=O)(=O)[O-])c6F)c6ccc3[nH]6)C=C5)C=C4)cc2)c1
REMARK SMILES IDX 22 1 21 2 20 3 19 4 17 5 18 6 16 8 10 9 11 10 12 11 15 12
REMARK SMILES IDX 13 13 14 14 9 15 5 16 6 17 90 18 7 19 8 20 4 21 1 22 2 23
REMARK SMILES IDX 3 24 23 26 24 27 25 28 26 30 27 31 28 32 89 33 29 34 88 35
REMARK SMILES IDX 30 36 31 37 32 38 82 39 33 40 87 41 81 42 83 43 34 44 86 45
REMARK SMILES IDX 80 46 79 47 35 49 67 50 47 51 66 52 48 53 51 54 65 55 84 56
REMARK SMILES IDX 49 57 50 58 64 60 85 61 52 62 36 63 37 64 45 65 38 66 40 67
REMARK SMILES IDX 46 68 39 69 41 70 42 71 43 72 44 73 68 74 69 75 77 76 70 77
REMARK SMILES IDX 72 78 78 79 71 80 73 81 74 82 75 83 76 84 53 85 54 86 62 87
REMARK SMILES IDX 55 88 57 89 63 90 56 91 58 92 59 93 60 94 61 95
REMARK H PARENT 19 7 4 25 24 29 83 48 51 59
REMARK Flexibility Score: inf
ROOT
ATOM      1  C   UNL A   1      31.534  31.134  26.916  1.00  0.00     0.023 C 
ENDROOT
BRANCH   1   2
ATOM      2  C   UNL A   1      31.947  29.780  26.339  1.00  0.00     0.023 C 
BRANCH   2   3
ATOM      3  C   UNL A   1      32.014  28.588  27.281  1.00  0.00     0.116 C 
BRANCH   3   4
ATOM      4  N   UNL A   1      31.010  27.567  27.133  1.00  0.00    -0.352 N 
ATOM      5  C   UNL A   1      30.788  26.664  26.119  1.00  0.00     0.251 C 
ATOM      6  O   UNL A   1      29.943  25.790  26.348  1.00  0.00    -0.269 OA
ATOM      7  H   UNL A   1      30.375  27.506  27.883  1.00  0.00     0.163 HD
BRANCH   5   8
ATOM      8  C   UNL A   1      31.394  26.681  24.737  1.00  0.00     0.047 A 
ATOM      9  C   UNL A   1      30.974  27.363  23.564  1.00  0.00    -0.003 A 
ATOM     10  C   UNL A   1      31.797  27.276  22.408  1.00  0.00     0.048 A 
ATOM     11  C   UNL A   1      32.984  26.556  22.400  1.00  0.00     0.123 A 
ATOM     12  C   UNL A   1      32.619  25.960  24.685  1.00  0.00     0.017 A 
ATOM     13  F   UNL A   1      33.723  26.510  21.284  1.00  0.00    -0.207 F 
ATOM     14  C   UNL A   1      33.406  25.893  23.532  1.00  0.00     0.040 A 
BRANCH   9  15
ATOM     15  C   UNL A   1      29.750  28.165  23.404  1.00  0.00    -0.015 A 
ATOM     16  C   UNL A   1      28.587  30.305  23.320  1.00  0.00     0.041 A 
ATOM     17  C   UNL A   1      27.362  29.626  23.329  1.00  0.00     0.026 A 
ATOM     18  C   UNL A   1      29.779  29.567  23.324  1.00  0.00     0.034 A 
ATOM     19  C   UNL A   1      27.314  28.235  23.338  1.00  0.00     0.003 A 
ATOM     20  C   UNL A   1      28.500  27.512  23.371  1.00  0.00     0.009 A 
BRANCH  16  21
ATOM     21  N   UNL A   1      28.521  31.698  23.483  1.00  0.00    -0.326 N 
ATOM     22  C   UNL A   1      28.057  32.494  21.171  1.00  0.00     0.114 C 
ATOM     23  C   UNL A   1      28.487  32.728  22.591  1.00  0.00     0.221 C 
ATOM     24  O   UNL A   1      28.766  33.863  22.984  1.00  0.00    -0.275 OA
ATOM     25  H   UNL A   1      28.492  31.987  24.424  1.00  0.00     0.169 HD
ENDBRANCH  16  21
ENDBRANCH   9  15
ENDBRANCH   5   8
ENDBRANCH   3   4
ENDBRANCH   2   3
ENDBRANCH   1   2
BRANCH   1  26
ATOM     26  C   UNL A   1      32.195  32.406  26.382  1.00  0.00     0.116 C 
BRANCH  26  27
ATOM     27  N   UNL A   1      32.094  33.584  27.230  1.00  0.00    -0.352 N 
ATOM     28  C   UNL A   1      33.026  34.112  28.100  1.00  0.00     0.251 C 
ATOM     29  H   UNL A   1      31.240  34.073  27.176  1.00  0.00     0.163 HD
ATOM     30  O   UNL A   1      32.811  35.209  28.619  1.00  0.00    -0.269 OA
BRANCH  28  31
ATOM     31  C   UNL A   1      34.245  33.350  28.454  1.00  0.00     0.039 A 
ATOM     32  C   UNL A   1      35.467  34.029  28.502  1.00  0.00     0.014 A 
ATOM     33  C   UNL A   1      34.189  31.999  28.800  1.00  0.00     0.014 A 
ATOM     34  C   UNL A   1      36.601  33.389  29.012  1.00  0.00     0.010 A 
ATOM     35  C   UNL A   1      35.299  31.386  29.382  1.00  0.00     0.010 A 
ATOM     36  C   UNL A   1      36.511  32.081  29.521  1.00  0.00    -0.014 A 
BRANCH  36  37
ATOM     37  C   UNL A   1      37.648  31.471  30.268  1.00  0.00     0.031 A 
ATOM     38  C   UNL A   1      38.542  30.446  29.624  1.00  0.00     0.074 A 
ATOM     39  C   UNL A   1      37.823  31.789  31.569  1.00  0.00     0.049 A 
ATOM     40  N   UNL A   1      39.573  29.819  30.132  1.00  0.00    -0.248 NA
ATOM     41  C   UNL A   1      38.226  30.052  28.242  1.00  0.00     0.031 C 
ATOM     42  C   UNL A   1      36.962  32.687  32.345  1.00  0.00     0.029 A 
ATOM     43  N   UNL A   1      38.773  31.384  32.475  1.00  0.00    -0.354 N 
ATOM     44  C   UNL A   1      40.016  28.946  29.145  1.00  0.00     0.074 A 
ATOM     45  C   UNL A   1      39.114  29.093  28.021  1.00  0.00     0.031 C 
ATOM     46  C   UNL A   1      37.433  32.779  33.599  1.00  0.00     0.029 A 
ATOM     47  C   UNL A   1      38.617  31.938  33.726  1.00  0.00     0.049 A 
ATOM     48  H   UNL A   1      39.496  30.755  32.252  1.00  0.00     0.167 HD
ATOM     49  C   UNL A   1      41.095  28.126  29.153  1.00  0.00     0.034 A 
ATOM     50  C   UNL A   1      39.354  31.797  34.847  1.00  0.00     0.034 A 
ATOM     51  C   UNL A   1      42.013  28.009  30.254  1.00  0.00     0.049 A 
ATOM     52  C   UNL A   1      40.588  30.937  34.802  1.00  0.00     0.074 A 
ATOM     53  C   UNL A   1      43.168  27.251  30.339  1.00  0.00     0.029 A 
ATOM     54  N   UNL A   1      41.886  28.675  31.464  1.00  0.00    -0.354 N 
ATOM     55  N   UNL A   1      41.081  30.252  33.799  1.00  0.00    -0.248 NA
ATOM     56  C   UNL A   1      41.396  30.870  36.029  1.00  0.00     0.031 C 
ATOM     57  C   UNL A   1      43.740  27.459  31.599  1.00  0.00     0.029 A 
ATOM     58  C   UNL A   1      42.945  28.354  32.296  1.00  0.00     0.049 A 
ATOM     59  H   UNL A   1      41.150  29.285  31.698  1.00  0.00     0.167 HD
ATOM     60  C   UNL A   1      42.271  29.702  34.261  1.00  0.00     0.074 A 
ATOM     61  C   UNL A   1      42.441  30.162  35.624  1.00  0.00     0.031 C 
ATOM     62  C   UNL A   1      43.134  28.871  33.626  1.00  0.00     0.034 A 
BRANCH  49  63
ATOM     63  C   UNL A   1      41.395  27.354  27.893  1.00  0.00     0.023 A 
ATOM     64  C   UNL A   1      41.876  28.051  26.764  1.00  0.00     0.012 A 
ATOM     65  C   UNL A   1      41.271  25.952  27.837  1.00  0.00     0.148 A 
ATOM     66  C   UNL A   1      42.200  27.371  25.592  1.00  0.00     0.002 A 
ATOM     67  C   UNL A   1      41.634  25.276  26.676  1.00  0.00     0.091 A 
ATOM     68  F   UNL A   1      40.800  25.308  28.914  1.00  0.00    -0.205 F 
ATOM     69  C   UNL A   1      42.088  25.985  25.550  1.00  0.00     0.022 A 
BRANCH  67  70
ATOM     70  S   UNL A   1      41.599  23.485  26.537  1.00  0.00     0.127 S 
ATOM     71  O   UNL A   1      40.163  23.224  26.440  1.00  0.00    -0.237 OA
ATOM     72  O   UNL A   1      42.344  23.259  25.298  1.00  0.00    -0.237 OA
ATOM     73  O   UNL A   1      42.244  22.974  27.739  1.00  0.00    -0.744 OA
ENDBRANCH  67  70
ENDBRANCH  49  63
BRANCH  50  74
ATOM     74  C   UNL A   1      39.010  32.567  36.078  1.00  0.00     0.023 A 
ATOM     75  C   UNL A   1      39.472  33.891  36.211  1.00  0.00     0.012 A 
ATOM     76  C   UNL A   1      38.234  32.008  37.111  1.00  0.00     0.148 A 
ATOM     77  C   UNL A   1      39.206  34.630  37.366  1.00  0.00     0.002 A 
ATOM     78  C   UNL A   1      37.925  32.770  38.235  1.00  0.00     0.091 A 
ATOM     79  F   UNL A   1      37.814  30.741  36.982  1.00  0.00    -0.205 F 
ATOM     80  C   UNL A   1      38.426  34.072  38.373  1.00  0.00     0.022 A 
BRANCH  78  81
ATOM     81  S   UNL A   1      36.811  32.164  39.508  1.00  0.00     0.127 S 
ATOM     82  O   UNL A   1      35.506  32.338  38.876  1.00  0.00    -0.237 OA
ATOM     83  O   UNL A   1      37.239  30.774  39.664  1.00  0.00    -0.237 OA
ATOM     84  O   UNL A   1      37.078  33.000  40.673  1.00  0.00    -0.744 OA
ENDBRANCH  78  81
ENDBRANCH  50  74
BRANCH  62  85
ATOM     85  C   UNL A   1      44.355  28.429  34.389  1.00  0.00     0.023 A 
ATOM     86  C   UNL A   1      45.532  29.202  34.326  1.00  0.00     0.012 A 
ATOM     87  C   UNL A   1      44.327  27.276  35.198  1.00  0.00     0.148 A 
ATOM     88  C   UNL A   1      46.674  28.812  35.023  1.00  0.00     0.002 A 
ATOM     89  C   UNL A   1      45.456  26.919  35.926  1.00  0.00     0.091 A 
ATOM     90  F   UNL A   1      43.208  26.539  35.228  1.00  0.00    -0.205 F 
ATOM     91  C   UNL A   1      46.634  27.677  35.830  1.00  0.00     0.022 A 
BRANCH  89  92
ATOM     92  S   UNL A   1      45.452  25.523  37.056  1.00  0.00     0.127 S 
ATOM     93  O   UNL A   1      44.199  25.726  37.780  1.00  0.00    -0.237 OA
ATOM     94  O   UNL A   1      45.448  24.377  36.144  1.00  0.00    -0.237 OA
ATOM     95  O   UNL A   1      46.670  25.654  37.844  1.00  0.00    -0.744 OA
ENDBRANCH  89  92
ENDBRANCH  62  85
ENDBRANCH  36  37
ENDBRANCH  28  31
ENDBRANCH  26  27
ENDBRANCH   1  26
TORSDOF 16
ENDMDL
