MODEL 1
REMARK VINA RESULT:     -12.7      0.000      0.000
REMARK SMILES Cc1cccc(-c2cc(OCC(=O)NCCCCNC(=O)c3ccc(-c4c5nc(c(-c6cccc(S(=O)(=O)[O-])c6F)c6ccc([nH]6)c(-c6cccc(S(=O)(=O)[O-])c6F)c6nc(c(-c7cccc(S(=O)(=O)[O-])c7F)c7ccc4[nH]7)C=C6)C=C5)cc3)nc(Nc3ccccc3C)n2)c1
REMARK SMILES IDX 16 1 15 2 14 3 12 4 13 5 11 7 10 8 9 9 7 10 8 11 95 12 86 13
REMARK SMILES IDX 85 14 6 15 1 16 2 17 3 18 96 19 4 20 5 21 87 22 88 24 89 25
REMARK SMILES IDX 93 26 90 27 92 28 94 29 91 30 17 31 18 32 19 33 20 34 21 36
REMARK SMILES IDX 22 37 23 38 84 39 24 40 83 41 25 42 26 43 27 44 77 45 28 46
REMARK SMILES IDX 82 47 76 48 78 49 29 50 81 51 75 52 74 53 30 55 62 56 42 57
REMARK SMILES IDX 61 58 43 59 46 60 60 61 79 62 44 63 45 64 59 66 80 67 47 68
REMARK SMILES IDX 31 69 32 70 40 71 33 72 35 73 41 74 34 75 36 76 37 77 38 78
REMARK SMILES IDX 39 79 63 80 64 81 72 82 65 83 67 84 73 85 66 86 68 87 69 88
REMARK SMILES IDX 70 89 71 90 48 91 49 92 57 93 50 94 52 95 58 96 51 97 53 98
REMARK SMILES IDX 54 99 55 100 56 101
REMARK H PARENT 14 6 87 23 19 35 78 54 46 65
REMARK Flexibility Score: inf
ROOT
ATOM      1  C   UNL A   1      32.153  29.244  25.494  1.00  0.00     0.023 C 
ENDROOT
BRANCH   1   2
ATOM      2  C   UNL A   1      31.559  27.869  25.819  1.00  0.00     0.116 C 
BRANCH   2   3
ATOM      3  N   UNL A   1      31.618  26.942  24.702  1.00  0.00    -0.353 N 
ATOM      4  C   UNL A   1      31.255  25.631  24.658  1.00  0.00     0.258 C 
ATOM      5  O   UNL A   1      31.393  25.002  23.607  1.00  0.00    -0.271 OA
ATOM      6  H   UNL A   1      31.969  27.313  23.859  1.00  0.00     0.163 HD
BRANCH   4   7
ATOM      7  C   UNL A   1      30.678  24.957  25.911  1.00  0.00     0.331 C 
BRANCH   7   8
ATOM      8  O   UNL A   1      31.598  24.357  26.807  1.00  0.00    -0.467 OA
BRANCH   8   9
ATOM      9  C   UNL A   1      32.450  23.410  26.310  1.00  0.00     0.219 A 
ATOM     10  C   UNL A   1      34.503  22.445  25.774  1.00  0.00     0.080 A 
ATOM     11  C   UNL A   1      33.814  23.538  26.244  1.00  0.00     0.097 A 
ATOM     12  N   UNL A   1      33.882  21.334  25.358  1.00  0.00    -0.212 NA
ATOM     13  C   UNL A   1      32.548  21.285  25.451  1.00  0.00     0.231 A 
ATOM     14  N   UNL A   1      31.804  22.304  25.898  1.00  0.00    -0.177 NA
BRANCH  10  15
ATOM     15  C   UNL A   1      35.965  22.415  25.728  1.00  0.00     0.001 A 
ATOM     16  C   UNL A   1      38.764  19.873  25.190  1.00  0.00     0.044 C 
ATOM     17  C   UNL A   1      38.049  21.165  25.454  1.00  0.00    -0.050 A 
ATOM     18  C   UNL A   1      38.773  22.340  25.676  1.00  0.00     0.003 A 
ATOM     19  C   UNL A   1      36.649  21.211  25.491  1.00  0.00     0.013 A 
ATOM     20  C   UNL A   1      38.110  23.547  25.903  1.00  0.00     0.001 A 
ATOM     21  C   UNL A   1      36.715  23.586  25.916  1.00  0.00     0.010 A 
ENDBRANCH  10  15
BRANCH  13  22
ATOM     22  N   UNL A   1      31.871  20.139  25.035  1.00  0.00    -0.324 N 
ATOM     23  H   UNL A   1      30.905  20.229  24.873  1.00  0.00     0.170 HD
BRANCH  22  24
ATOM     24  C   UNL A   1      32.431  18.872  24.823  1.00  0.00     0.044 A 
ATOM     25  C   UNL A   1      32.765  18.091  25.941  1.00  0.00     0.026 A 
ATOM     26  C   UNL A   1      32.556  18.309  23.535  1.00  0.00    -0.027 A 
ATOM     27  C   UNL A   1      33.167  16.763  25.795  1.00  0.00     0.002 A 
ATOM     28  C   UNL A   1      32.952  16.968  23.403  1.00  0.00     0.005 A 
ATOM     29  C   UNL A   1      32.309  19.120  22.290  1.00  0.00     0.046 C 
ATOM     30  C   UNL A   1      33.246  16.198  24.527  1.00  0.00     0.000 A 
ENDBRANCH  22  24
ENDBRANCH  13  22
ENDBRANCH   8   9
ENDBRANCH   7   8
ENDBRANCH   4   7
ENDBRANCH   2   3
ENDBRANCH   1   2
BRANCH   1  31
ATOM     31  C   UNL A   1      33.447  29.597  26.230  1.00  0.00     0.023 C 
BRANCH  31  32
ATOM     32  C   UNL A   1      33.243  30.206  27.608  1.00  0.00     0.116 C 
BRANCH  32  33
ATOM     33  N   UNL A   1      34.079  31.361  27.868  1.00  0.00    -0.352 N 
ATOM     34  C   UNL A   1      35.291  31.426  28.534  1.00  0.00     0.251 C 
ATOM     35  H   UNL A   1      33.738  32.219  27.525  1.00  0.00     0.163 HD
ATOM     36  O   UNL A   1      35.655  32.508  28.991  1.00  0.00    -0.269 OA
BRANCH  34  37
ATOM     37  C   UNL A   1      36.198  30.250  28.539  1.00  0.00     0.039 A 
ATOM     38  C   UNL A   1      36.535  29.707  29.787  1.00  0.00     0.014 A 
ATOM     39  C   UNL A   1      36.910  29.869  27.405  1.00  0.00     0.014 A 
ATOM     40  C   UNL A   1      37.736  29.021  29.943  1.00  0.00     0.010 A 
ATOM     41  C   UNL A   1      38.138  29.274  27.564  1.00  0.00     0.010 A 
ATOM     42  C   UNL A   1      38.578  28.922  28.843  1.00  0.00    -0.014 A 
BRANCH  42  43
ATOM     43  C   UNL A   1      39.952  28.465  28.888  1.00  0.00     0.031 A 
ATOM     44  C   UNL A   1      40.242  27.037  28.705  1.00  0.00     0.074 A 
ATOM     45  C   UNL A   1      40.928  29.398  28.846  1.00  0.00     0.049 A 
ATOM     46  N   UNL A   1      41.378  26.493  28.960  1.00  0.00    -0.248 NA
ATOM     47  C   UNL A   1      39.234  26.098  28.233  1.00  0.00     0.031 C 
ATOM     48  C   UNL A   1      42.313  29.214  28.433  1.00  0.00     0.029 A 
ATOM     49  N   UNL A   1      40.894  30.693  29.371  1.00  0.00    -0.354 N 
ATOM     50  C   UNL A   1      41.350  25.218  28.435  1.00  0.00     0.074 A 
ATOM     51  C   UNL A   1      39.970  24.994  28.077  1.00  0.00     0.031 C 
ATOM     52  C   UNL A   1      43.050  30.207  28.953  1.00  0.00     0.029 A 
ATOM     53  C   UNL A   1      42.187  30.945  29.860  1.00  0.00     0.049 A 
ATOM     54  H   UNL A   1      40.122  31.304  29.395  1.00  0.00     0.167 HD
ATOM     55  C   UNL A   1      42.532  24.571  28.229  1.00  0.00     0.034 A 
ATOM     56  C   UNL A   1      42.457  31.199  31.174  1.00  0.00     0.034 A 
ATOM     57  C   UNL A   1      43.653  25.383  28.731  1.00  0.00     0.049 A 
ATOM     58  C   UNL A   1      43.410  30.186  31.787  1.00  0.00     0.074 A 
ATOM     59  C   UNL A   1      44.534  26.258  28.113  1.00  0.00     0.029 A 
ATOM     60  N   UNL A   1      43.786  25.593  30.098  1.00  0.00    -0.354 N 
ATOM     61  N   UNL A   1      43.803  29.093  31.191  1.00  0.00    -0.248 NA
ATOM     62  C   UNL A   1      43.986  30.316  33.121  1.00  0.00     0.031 C 
ATOM     63  C   UNL A   1      45.142  27.054  29.123  1.00  0.00     0.029 A 
ATOM     64  C   UNL A   1      44.659  26.640  30.353  1.00  0.00     0.049 A 
ATOM     65  H   UNL A   1      43.324  25.070  30.791  1.00  0.00     0.167 HD
ATOM     66  C   UNL A   1      44.554  28.328  32.048  1.00  0.00     0.074 A 
ATOM     67  C   UNL A   1      44.702  29.182  33.217  1.00  0.00     0.031 C 
ATOM     68  C   UNL A   1      44.933  27.047  31.730  1.00  0.00     0.034 A 
BRANCH  55  69
ATOM     69  C   UNL A   1      42.738  23.368  27.319  1.00  0.00     0.023 A 
ATOM     70  C   UNL A   1      42.026  22.190  27.645  1.00  0.00     0.012 A 
ATOM     71  C   UNL A   1      43.609  23.267  26.210  1.00  0.00     0.148 A 
ATOM     72  C   UNL A   1      42.237  20.970  26.992  1.00  0.00     0.002 A 
ATOM     73  C   UNL A   1      43.867  22.038  25.592  1.00  0.00     0.091 A 
ATOM     74  F   UNL A   1      44.141  24.369  25.679  1.00  0.00    -0.205 F 
ATOM     75  C   UNL A   1      43.185  20.885  25.986  1.00  0.00     0.022 A 
BRANCH  73  76
ATOM     76  S   UNL A   1      45.123  21.836  24.314  1.00  0.00     0.127 S 
ATOM     77  O   UNL A   1      46.297  21.440  25.096  1.00  0.00    -0.237 OA
ATOM     78  O   UNL A   1      44.561  20.772  23.484  1.00  0.00    -0.237 OA
ATOM     79  O   UNL A   1      45.255  23.134  23.662  1.00  0.00    -0.744 OA
ENDBRANCH  73  76
ENDBRANCH  55  69
BRANCH  56  80
ATOM     80  C   UNL A   1      41.346  31.904  31.881  1.00  0.00     0.023 A 
ATOM     81  C   UNL A   1      40.984  33.177  31.375  1.00  0.00     0.012 A 
ATOM     82  C   UNL A   1      40.425  31.208  32.684  1.00  0.00     0.148 A 
ATOM     83  C   UNL A   1      39.689  33.672  31.531  1.00  0.00     0.002 A 
ATOM     84  C   UNL A   1      39.133  31.711  32.838  1.00  0.00     0.091 A 
ATOM     85  F   UNL A   1      40.793  30.031  33.206  1.00  0.00    -0.205 F 
ATOM     86  C   UNL A   1      38.752  32.918  32.228  1.00  0.00     0.022 A 
BRANCH  84  87
ATOM     87  S   UNL A   1      37.853  30.778  33.690  1.00  0.00     0.127 S 
ATOM     88  O   UNL A   1      36.661  31.554  33.366  1.00  0.00    -0.237 OA
ATOM     89  O   UNL A   1      37.931  29.471  33.039  1.00  0.00    -0.237 OA
ATOM     90  O   UNL A   1      38.263  30.774  35.087  1.00  0.00    -0.744 OA
ENDBRANCH  84  87
ENDBRANCH  56  80
BRANCH  68  91
ATOM     91  C   UNL A   1      45.577  26.030  32.668  1.00  0.00     0.023 A 
ATOM     92  C   UNL A   1      46.968  25.841  32.754  1.00  0.00     0.012 A 
ATOM     93  C   UNL A   1      44.791  25.316  33.616  1.00  0.00     0.148 A 
ATOM     94  C   UNL A   1      47.547  24.971  33.688  1.00  0.00     0.002 A 
ATOM     95  C   UNL A   1      45.379  24.550  34.619  1.00  0.00     0.091 A 
ATOM     96  F   UNL A   1      43.452  25.343  33.538  1.00  0.00    -0.205 F 
ATOM     97  C   UNL A   1      46.756  24.349  34.641  1.00  0.00     0.022 A 
BRANCH  95  98
ATOM     98  S   UNL A   1      44.406  23.947  36.010  1.00  0.00     0.127 S 
ATOM     99  O   UNL A   1      43.325  23.231  35.336  1.00  0.00    -0.237 OA
ATOM    100  O   UNL A   1      45.361  23.086  36.711  1.00  0.00    -0.237 OA
ATOM    101  O   UNL A   1      44.029  25.142  36.750  1.00  0.00    -0.744 OA
ENDBRANCH  95  98
ENDBRANCH  68  91
ENDBRANCH  42  43
ENDBRANCH  34  37
ENDBRANCH  32  33
ENDBRANCH  31  32
ENDBRANCH   1  31
TORSDOF 19
ENDMDL
MODEL 2
REMARK VINA RESULT:     -11.9      2.437      3.245
REMARK SMILES Cc1cccc(-c2cc(OCC(=O)NCCCCNC(=O)c3ccc(-c4c5nc(c(-c6cccc(S(=O)(=O)[O-])c6F)c6ccc([nH]6)c(-c6cccc(S(=O)(=O)[O-])c6F)c6nc(c(-c7cccc(S(=O)(=O)[O-])c7F)c7ccc4[nH]7)C=C6)C=C5)cc3)nc(Nc3ccccc3C)n2)c1
REMARK SMILES IDX 16 1 15 2 14 3 12 4 13 5 11 7 10 8 9 9 7 10 8 11 95 12 86 13
REMARK SMILES IDX 85 14 6 15 1 16 2 17 3 18 96 19 4 20 5 21 87 22 88 24 89 25
REMARK SMILES IDX 93 26 90 27 92 28 94 29 91 30 17 31 18 32 19 33 20 34 21 36
REMARK SMILES IDX 22 37 23 38 84 39 24 40 83 41 25 42 26 43 27 44 77 45 28 46
REMARK SMILES IDX 82 47 76 48 78 49 29 50 81 51 75 52 74 53 30 55 62 56 42 57
REMARK SMILES IDX 61 58 43 59 46 60 60 61 79 62 44 63 45 64 59 66 80 67 47 68
REMARK SMILES IDX 31 69 32 70 40 71 33 72 35 73 41 74 34 75 36 76 37 77 38 78
REMARK SMILES IDX 39 79 63 80 64 81 72 82 65 83 67 84 73 85 66 86 68 87 69 88
REMARK SMILES IDX 70 89 71 90 48 91 49 92 57 93 50 94 52 95 58 96 51 97 53 98
REMARK SMILES IDX 54 99 55 100 56 101
REMARK H PARENT 14 6 87 23 19 35 78 54 46 65
REMARK Flexibility Score: inf
ROOT
ATOM      1  C   UNL A   1      32.770  28.901  27.288  1.00  0.00     0.023 C 
ENDROOT
BRANCH   1   2
ATOM      2  C   UNL A   1      32.025  28.004  26.292  1.00  0.00     0.116 C 
BRANCH   2   3
ATOM      3  N   UNL A   1      31.600  26.739  26.868  1.00  0.00    -0.353 N 
ATOM      4  C   UNL A   1      31.221  25.596  26.234  1.00  0.00     0.258 C 
ATOM      5  O   UNL A   1      30.879  24.620  26.906  1.00  0.00    -0.271 OA
ATOM      6  H   UNL A   1      31.584  26.705  27.852  1.00  0.00     0.163 HD
BRANCH   4   7
ATOM      7  C   UNL A   1      31.227  25.535  24.701  1.00  0.00     0.331 C 
BRANCH   7   8
ATOM      8  O   UNL A   1      32.482  25.373  24.062  1.00  0.00    -0.467 OA
BRANCH   8   9
ATOM      9  C   UNL A   1      33.171  24.215  24.290  1.00  0.00     0.219 A 
ATOM     10  C   UNL A   1      34.995  22.886  24.872  1.00  0.00     0.080 A 
ATOM     11  C   UNL A   1      34.502  24.143  24.615  1.00  0.00     0.097 A 
ATOM     12  N   UNL A   1      34.239  21.785  24.768  1.00  0.00    -0.212 NA
ATOM     13  C   UNL A   1      32.949  21.936  24.445  1.00  0.00     0.231 A 
ATOM     14  N   UNL A   1      32.392  23.123  24.179  1.00  0.00    -0.177 NA
BRANCH  10  15
ATOM     15  C   UNL A   1      36.376  22.672  25.309  1.00  0.00     0.001 A 
ATOM     16  C   UNL A   1      39.145  24.598  27.101  1.00  0.00     0.044 C 
ATOM     17  C   UNL A   1      38.407  23.504  26.387  1.00  0.00    -0.050 A 
ATOM     18  C   UNL A   1      39.039  22.286  26.117  1.00  0.00     0.003 A 
ATOM     19  C   UNL A   1      37.083  23.691  25.971  1.00  0.00     0.013 A 
ATOM     20  C   UNL A   1      38.349  21.260  25.469  1.00  0.00     0.001 A 
ATOM     21  C   UNL A   1      37.022  21.449  25.080  1.00  0.00     0.010 A 
ENDBRANCH  10  15
BRANCH  13  22
ATOM     22  N   UNL A   1      32.131  20.812  24.336  1.00  0.00    -0.324 N 
ATOM     23  H   UNL A   1      31.161  20.971  24.300  1.00  0.00     0.170 HD
BRANCH  22  24
ATOM     24  C   UNL A   1      32.555  19.477  24.272  1.00  0.00     0.044 A 
ATOM     25  C   UNL A   1      32.953  18.843  25.459  1.00  0.00     0.026 A 
ATOM     26  C   UNL A   1      32.478  18.719  23.085  1.00  0.00    -0.027 A 
ATOM     27  C   UNL A   1      33.223  17.474  25.487  1.00  0.00     0.002 A 
ATOM     28  C   UNL A   1      32.742  17.339  23.129  1.00  0.00     0.005 A 
ATOM     29  C   UNL A   1      32.152  19.355  21.760  1.00  0.00     0.046 C 
ATOM     30  C   UNL A   1      33.103  16.721  24.325  1.00  0.00     0.000 A 
ENDBRANCH  22  24
ENDBRANCH  13  22
ENDBRANCH   8   9
ENDBRANCH   7   8
ENDBRANCH   4   7
ENDBRANCH   2   3
ENDBRANCH   1   2
BRANCH   1  31
ATOM     31  C   UNL A   1      34.163  29.358  26.852  1.00  0.00     0.023 C 
BRANCH  31  32
ATOM     32  C   UNL A   1      34.914  30.172  27.893  1.00  0.00     0.116 C 
BRANCH  32  33
ATOM     33  N   UNL A   1      34.318  31.464  28.171  1.00  0.00    -0.352 N 
ATOM     34  C   UNL A   1      34.547  32.318  29.235  1.00  0.00     0.251 C 
ATOM     35  H   UNL A   1      33.657  31.778  27.510  1.00  0.00     0.163 HD
ATOM     36  O   UNL A   1      33.695  33.161  29.508  1.00  0.00    -0.269 OA
BRANCH  34  37
ATOM     37  C   UNL A   1      35.869  32.318  29.914  1.00  0.00     0.039 A 
ATOM     38  C   UNL A   1      36.935  32.928  29.237  1.00  0.00     0.014 A 
ATOM     39  C   UNL A   1      36.122  31.520  31.025  1.00  0.00     0.014 A 
ATOM     40  C   UNL A   1      38.240  32.517  29.490  1.00  0.00     0.010 A 
ATOM     41  C   UNL A   1      37.395  31.042  31.220  1.00  0.00     0.010 A 
ATOM     42  C   UNL A   1      38.436  31.487  30.400  1.00  0.00    -0.014 A 
BRANCH  42  43
ATOM     43  C   UNL A   1      39.685  30.780  30.598  1.00  0.00     0.031 A 
ATOM     44  C   UNL A   1      39.890  29.484  29.938  1.00  0.00     0.074 A 
ATOM     45  C   UNL A   1      40.705  31.450  31.176  1.00  0.00     0.049 A 
ATOM     46  N   UNL A   1      40.840  28.668  30.227  1.00  0.00    -0.248 NA
ATOM     47  C   UNL A   1      38.997  28.997  28.895  1.00  0.00     0.031 C 
ATOM     48  C   UNL A   1      42.127  31.153  31.082  1.00  0.00     0.029 A 
ATOM     49  N   UNL A   1      40.626  32.451  32.149  1.00  0.00    -0.354 N 
ATOM     50  C   UNL A   1      40.862  27.699  29.247  1.00  0.00     0.074 A 
ATOM     51  C   UNL A   1      39.645  27.898  28.499  1.00  0.00     0.031 C 
ATOM     52  C   UNL A   1      42.754  31.725  32.121  1.00  0.00     0.029 A 
ATOM     53  C   UNL A   1      41.723  32.247  33.002  1.00  0.00     0.049 A 
ATOM     54  H   UNL A   1      39.940  33.154  32.222  1.00  0.00     0.167 HD
ATOM     55  C   UNL A   1      41.990  26.945  29.100  1.00  0.00     0.034 A 
ATOM     56  C   UNL A   1      41.598  31.955  34.330  1.00  0.00     0.034 A 
ATOM     57  C   UNL A   1      42.969  27.283  30.145  1.00  0.00     0.049 A 
ATOM     58  C   UNL A   1      42.225  30.621  34.702  1.00  0.00     0.074 A 
ATOM     59  C   UNL A   1      44.071  28.125  30.169  1.00  0.00     0.029 A 
ATOM     60  N   UNL A   1      42.695  26.960  31.468  1.00  0.00    -0.354 N 
ATOM     61  N   UNL A   1      42.684  29.759  33.837  1.00  0.00    -0.248 NA
ATOM     62  C   UNL A   1      42.372  30.148  36.074  1.00  0.00     0.031 C 
ATOM     63  C   UNL A   1      44.408  28.369  31.529  1.00  0.00     0.029 A 
ATOM     64  C   UNL A   1      43.536  27.649  32.329  1.00  0.00     0.049 A 
ATOM     65  H   UNL A   1      41.998  26.327  31.756  1.00  0.00     0.167 HD
ATOM     66  C   UNL A   1      43.066  28.604  34.473  1.00  0.00     0.074 A 
ATOM     67  C   UNL A   1      42.922  28.935  35.883  1.00  0.00     0.031 C 
ATOM     68  C   UNL A   1      43.410  27.474  33.775  1.00  0.00     0.034 A 
BRANCH  55  69
ATOM     69  C   UNL A   1      42.357  26.132  27.867  1.00  0.00     0.023 A 
ATOM     70  C   UNL A   1      42.243  26.779  26.614  1.00  0.00     0.012 A 
ATOM     71  C   UNL A   1      42.747  24.773  27.818  1.00  0.00     0.148 A 
ATOM     72  C   UNL A   1      42.398  26.108  25.396  1.00  0.00     0.002 A 
ATOM     73  C   UNL A   1      42.845  24.083  26.605  1.00  0.00     0.091 A 
ATOM     74  F   UNL A   1      43.110  24.144  28.937  1.00  0.00    -0.205 F 
ATOM     75  C   UNL A   1      42.665  24.748  25.390  1.00  0.00     0.022 A 
BRANCH  73  76
ATOM     76  S   UNL A   1      43.136  22.305  26.516  1.00  0.00     0.127 S 
ATOM     77  O   UNL A   1      44.565  22.212  26.822  1.00  0.00    -0.237 OA
ATOM     78  O   UNL A   1      42.257  21.789  27.562  1.00  0.00    -0.237 OA
ATOM     79  O   UNL A   1      42.794  21.904  25.156  1.00  0.00    -0.744 OA
ENDBRANCH  73  76
ENDBRANCH  55  69
BRANCH  56  80
ATOM     80  C   UNL A   1      40.391  32.568  34.960  1.00  0.00     0.023 A 
ATOM     81  C   UNL A   1      39.273  31.716  35.143  1.00  0.00     0.012 A 
ATOM     82  C   UNL A   1      40.476  33.745  35.723  1.00  0.00     0.148 A 
ATOM     83  C   UNL A   1      38.352  31.947  36.165  1.00  0.00     0.002 A 
ATOM     84  C   UNL A   1      39.549  33.971  36.741  1.00  0.00     0.091 A 
ATOM     85  F   UNL A   1      41.504  34.576  35.506  1.00  0.00    -0.205 F 
ATOM     86  C   UNL A   1      38.515  33.054  36.991  1.00  0.00     0.022 A 
BRANCH  84  87
ATOM     87  S   UNL A   1      39.713  35.357  37.876  1.00  0.00     0.127 S 
ATOM     88  O   UNL A   1      38.547  35.172  38.732  1.00  0.00    -0.237 OA
ATOM     89  O   UNL A   1      40.997  35.084  38.521  1.00  0.00    -0.237 OA
ATOM     90  O   UNL A   1      39.712  36.538  37.025  1.00  0.00    -0.744 OA
ENDBRANCH  84  87
ENDBRANCH  56  80
BRANCH  68  91
ATOM     91  C   UNL A   1      43.643  26.082  34.356  1.00  0.00     0.023 A 
ATOM     92  C   UNL A   1      42.602  25.169  34.601  1.00  0.00     0.012 A 
ATOM     93  C   UNL A   1      44.964  25.586  34.546  1.00  0.00     0.148 A 
ATOM     94  C   UNL A   1      42.842  23.862  35.046  1.00  0.00     0.002 A 
ATOM     95  C   UNL A   1      45.201  24.252  34.867  1.00  0.00     0.091 A 
ATOM     96  F   UNL A   1      46.016  26.413  34.448  1.00  0.00    -0.205 F 
ATOM     97  C   UNL A   1      44.142  23.393  35.150  1.00  0.00     0.022 A 
BRANCH  95  98
ATOM     98  S   UNL A   1      46.859  23.556  34.758  1.00  0.00     0.127 S 
ATOM     99  O   UNL A   1      47.455  24.358  33.692  1.00  0.00    -0.237 OA
ATOM    100  O   UNL A   1      47.399  23.820  36.093  1.00  0.00    -0.237 OA
ATOM    101  O   UNL A   1      46.654  22.143  34.468  1.00  0.00    -0.744 OA
ENDBRANCH  95  98
ENDBRANCH  68  91
ENDBRANCH  42  43
ENDBRANCH  34  37
ENDBRANCH  32  33
ENDBRANCH  31  32
ENDBRANCH   1  31
TORSDOF 19
ENDMDL
MODEL 3
REMARK VINA RESULT:     -11.9      1.820      3.705
REMARK SMILES Cc1cccc(-c2cc(OCC(=O)NCCCCNC(=O)c3ccc(-c4c5nc(c(-c6cccc(S(=O)(=O)[O-])c6F)c6ccc([nH]6)c(-c6cccc(S(=O)(=O)[O-])c6F)c6nc(c(-c7cccc(S(=O)(=O)[O-])c7F)c7ccc4[nH]7)C=C6)C=C5)cc3)nc(Nc3ccccc3C)n2)c1
REMARK SMILES IDX 16 1 15 2 14 3 12 4 13 5 11 7 10 8 9 9 7 10 8 11 95 12 86 13
REMARK SMILES IDX 85 14 6 15 1 16 2 17 3 18 96 19 4 20 5 21 87 22 88 24 89 25
REMARK SMILES IDX 93 26 90 27 92 28 94 29 91 30 17 31 18 32 19 33 20 34 21 36
REMARK SMILES IDX 22 37 23 38 84 39 24 40 83 41 25 42 26 43 27 44 77 45 28 46
REMARK SMILES IDX 82 47 76 48 78 49 29 50 81 51 75 52 74 53 30 55 62 56 42 57
REMARK SMILES IDX 61 58 43 59 46 60 60 61 79 62 44 63 45 64 59 66 80 67 47 68
REMARK SMILES IDX 31 69 32 70 40 71 33 72 35 73 41 74 34 75 36 76 37 77 38 78
REMARK SMILES IDX 39 79 63 80 64 81 72 82 65 83 67 84 73 85 66 86 68 87 69 88
REMARK SMILES IDX 70 89 71 90 48 91 49 92 57 93 50 94 52 95 58 96 51 97 53 98
REMARK SMILES IDX 54 99 55 100 56 101
REMARK H PARENT 14 6 87 23 19 35 78 54 46 65
REMARK Flexibility Score: inf
ROOT
ATOM      1  C   UNL A   1      34.119  30.974  27.298  1.00  0.00     0.023 C 
ENDROOT
BRANCH   1   2
ATOM      2  C   UNL A   1      32.986  30.402  26.437  1.00  0.00     0.116 C 
BRANCH   2   3
ATOM      3  N   UNL A   1      32.016  29.638  27.202  1.00  0.00    -0.353 N 
ATOM      4  C   UNL A   1      31.848  28.289  27.266  1.00  0.00     0.258 C 
ATOM      5  O   UNL A   1      30.950  27.826  27.972  1.00  0.00    -0.271 OA
ATOM      6  H   UNL A   1      31.393  30.170  27.749  1.00  0.00     0.163 HD
BRANCH   4   7
ATOM      7  C   UNL A   1      32.777  27.365  26.466  1.00  0.00     0.331 C 
BRANCH   7   8
ATOM      8  O   UNL A   1      32.893  26.023  26.905  1.00  0.00    -0.467 OA
BRANCH   8   9
ATOM      9  C   UNL A   1      32.597  25.030  26.013  1.00  0.00     0.219 A 
ATOM     10  C   UNL A   1      32.719  22.914  25.045  1.00  0.00     0.080 A 
ATOM     11  C   UNL A   1      33.205  23.801  25.975  1.00  0.00     0.097 A 
ATOM     12  N   UNL A   1      31.740  23.238  24.191  1.00  0.00    -0.212 NA
ATOM     13  C   UNL A   1      31.197  24.457  24.288  1.00  0.00     0.231 A 
ATOM     14  N   UNL A   1      31.612  25.379  25.165  1.00  0.00    -0.177 NA
BRANCH  10  15
ATOM     15  C   UNL A   1      33.220  21.542  24.951  1.00  0.00     0.001 A 
ATOM     16  C   UNL A   1      36.573  19.715  24.863  1.00  0.00     0.044 C 
ATOM     17  C   UNL A   1      35.095  19.976  24.852  1.00  0.00    -0.050 A 
ATOM     18  C   UNL A   1      34.192  18.915  24.731  1.00  0.00     0.003 A 
ATOM     19  C   UNL A   1      34.601  21.282  24.951  1.00  0.00     0.013 A 
ATOM     20  C   UNL A   1      32.817  19.153  24.740  1.00  0.00     0.001 A 
ATOM     21  C   UNL A   1      32.335  20.457  24.862  1.00  0.00     0.010 A 
ENDBRANCH  10  15
BRANCH  13  22
ATOM     22  N   UNL A   1      30.170  24.824  23.419  1.00  0.00    -0.324 N 
ATOM     23  H   UNL A   1      29.716  24.096  22.937  1.00  0.00     0.170 HD
BRANCH  22  24
ATOM     24  C   UNL A   1      29.718  26.127  23.167  1.00  0.00     0.044 A 
ATOM     25  C   UNL A   1      28.504  26.538  23.738  1.00  0.00     0.026 A 
ATOM     26  C   UNL A   1      30.496  27.070  22.463  1.00  0.00    -0.027 A 
ATOM     27  C   UNL A   1      28.088  27.867  23.661  1.00  0.00     0.002 A 
ATOM     28  C   UNL A   1      30.071  28.408  22.403  1.00  0.00     0.005 A 
ATOM     29  C   UNL A   1      31.759  26.675  21.744  1.00  0.00     0.046 C 
ATOM     30  C   UNL A   1      28.879  28.804  23.007  1.00  0.00     0.000 A 
ENDBRANCH  22  24
ENDBRANCH  13  22
ENDBRANCH   8   9
ENDBRANCH   7   8
ENDBRANCH   4   7
ENDBRANCH   2   3
ENDBRANCH   1   2
BRANCH   1  31
ATOM     31  C   UNL A   1      33.810  32.297  28.003  1.00  0.00     0.023 C 
BRANCH  31  32
ATOM     32  C   UNL A   1      35.032  33.027  28.536  1.00  0.00     0.116 C 
BRANCH  32  33
ATOM     33  N   UNL A   1      35.217  32.893  29.968  1.00  0.00    -0.352 N 
ATOM     34  C   UNL A   1      35.650  31.795  30.691  1.00  0.00     0.251 C 
ATOM     35  H   UNL A   1      35.004  33.694  30.500  1.00  0.00     0.163 HD
ATOM     36  O   UNL A   1      35.380  31.735  31.888  1.00  0.00    -0.269 OA
BRANCH  34  37
ATOM     37  C   UNL A   1      36.565  30.807  30.062  1.00  0.00     0.039 A 
ATOM     38  C   UNL A   1      36.726  29.578  30.717  1.00  0.00     0.014 A 
ATOM     39  C   UNL A   1      37.438  31.165  29.039  1.00  0.00     0.014 A 
ATOM     40  C   UNL A   1      37.903  28.854  30.549  1.00  0.00     0.010 A 
ATOM     41  C   UNL A   1      38.639  30.507  28.934  1.00  0.00     0.010 A 
ATOM     42  C   UNL A   1      38.896  29.398  29.745  1.00  0.00    -0.014 A 
BRANCH  42  43
ATOM     43  C   UNL A   1      40.256  28.907  29.657  1.00  0.00     0.031 A 
ATOM     44  C   UNL A   1      40.493  27.507  29.283  1.00  0.00     0.074 A 
ATOM     45  C   UNL A   1      41.256  29.814  29.679  1.00  0.00     0.049 A 
ATOM     46  N   UNL A   1      41.623  26.907  29.406  1.00  0.00    -0.248 NA
ATOM     47  C   UNL A   1      39.434  26.658  28.753  1.00  0.00     0.031 C 
ATOM     48  C   UNL A   1      42.612  29.651  29.172  1.00  0.00     0.029 A 
ATOM     49  N   UNL A   1      41.289  31.033  30.362  1.00  0.00    -0.354 N 
ATOM     50  C   UNL A   1      41.529  25.710  28.728  1.00  0.00     0.074 A 
ATOM     51  C   UNL A   1      40.127  25.566  28.421  1.00  0.00     0.031 C 
ATOM     52  C   UNL A   1      43.405  30.552  29.770  1.00  0.00     0.029 A 
ATOM     53  C   UNL A   1      42.612  31.191  30.807  1.00  0.00     0.049 A 
ATOM     54  H   UNL A   1      40.538  31.654  30.504  1.00  0.00     0.167 HD
ATOM     55  C   UNL A   1      42.679  25.066  28.379  1.00  0.00     0.034 A 
ATOM     56  C   UNL A   1      42.956  31.270  32.126  1.00  0.00     0.034 A 
ATOM     57  C   UNL A   1      43.848  25.782  28.916  1.00  0.00     0.049 A 
ATOM     58  C   UNL A   1      43.908  30.166  32.555  1.00  0.00     0.074 A 
ATOM     59  C   UNL A   1      44.723  26.706  28.365  1.00  0.00     0.029 A 
ATOM     60  N   UNL A   1      44.057  25.815  30.289  1.00  0.00    -0.354 N 
ATOM     61  N   UNL A   1      44.237  29.148  31.807  1.00  0.00    -0.248 NA
ATOM     62  C   UNL A   1      44.555  30.113  33.862  1.00  0.00     0.031 C 
ATOM     63  C   UNL A   1      45.406  27.354  29.431  1.00  0.00     0.029 A 
ATOM     64  C   UNL A   1      44.974  26.801  30.625  1.00  0.00     0.049 A 
ATOM     65  H   UNL A   1      43.616  25.219  30.936  1.00  0.00     0.167 HD
ATOM     66  C   UNL A   1      45.007  28.263  32.519  1.00  0.00     0.074 A 
ATOM     67  C   UNL A   1      45.241  28.959  33.776  1.00  0.00     0.031 C 
ATOM     68  C   UNL A   1      45.330  27.024  32.025  1.00  0.00     0.034 A 
BRANCH  55  69
ATOM     69  C   UNL A   1      42.801  23.983  27.317  1.00  0.00     0.023 A 
ATOM     70  C   UNL A   1      43.323  24.372  26.061  1.00  0.00     0.012 A 
ATOM     71  C   UNL A   1      42.396  22.632  27.416  1.00  0.00     0.148 A 
ATOM     72  C   UNL A   1      43.344  23.520  24.951  1.00  0.00     0.002 A 
ATOM     73  C   UNL A   1      42.361  21.794  26.296  1.00  0.00     0.091 A 
ATOM     74  F   UNL A   1      42.115  22.107  28.611  1.00  0.00    -0.205 F 
ATOM     75  C   UNL A   1      42.830  22.238  25.059  1.00  0.00     0.022 A 
BRANCH  73  76
ATOM     76  S   UNL A   1      41.657  20.133  26.344  1.00  0.00     0.127 S 
ATOM     77  O   UNL A   1      42.229  19.523  25.141  1.00  0.00    -0.237 OA
ATOM     78  O   UNL A   1      42.183  19.604  27.600  1.00  0.00    -0.237 OA
ATOM     79  O   UNL A   1      40.210  20.302  26.293  1.00  0.00    -0.744 OA
ENDBRANCH  73  76
ENDBRANCH  55  69
BRANCH  56  80
ATOM     80  C   UNL A   1      41.905  31.907  32.975  1.00  0.00     0.023 A 
ATOM     81  C   UNL A   1      41.578  33.252  32.671  1.00  0.00     0.012 A 
ATOM     82  C   UNL A   1      40.988  31.137  33.711  1.00  0.00     0.148 A 
ATOM     83  C   UNL A   1      40.313  33.766  32.953  1.00  0.00     0.002 A 
ATOM     84  C   UNL A   1      39.726  31.660  33.993  1.00  0.00     0.091 A 
ATOM     85  F   UNL A   1      41.325  29.885  34.045  1.00  0.00    -0.205 F 
ATOM     86  C   UNL A   1      39.372  32.955  33.578  1.00  0.00     0.022 A 
BRANCH  84  87
ATOM     87  S   UNL A   1      38.441  30.662  34.761  1.00  0.00     0.127 S 
ATOM     88  O   UNL A   1      37.319  31.594  34.779  1.00  0.00    -0.237 OA
ATOM     89  O   UNL A   1      38.302  29.551  33.820  1.00  0.00    -0.237 OA
ATOM     90  O   UNL A   1      38.988  30.283  36.056  1.00  0.00    -0.744 OA
ENDBRANCH  84  87
ENDBRANCH  56  80
BRANCH  68  91
ATOM     91  C   UNL A   1      45.991  25.882  32.792  1.00  0.00     0.023 A 
ATOM     92  C   UNL A   1      47.385  25.718  32.872  1.00  0.00     0.012 A 
ATOM     93  C   UNL A   1      45.211  24.998  33.592  1.00  0.00     0.148 A 
ATOM     94  C   UNL A   1      47.976  24.720  33.659  1.00  0.00     0.002 A 
ATOM     95  C   UNL A   1      45.807  24.092  34.465  1.00  0.00     0.091 A 
ATOM     96  F   UNL A   1      43.873  25.003  33.495  1.00  0.00    -0.205 F 
ATOM     97  C   UNL A   1      47.189  23.926  34.479  1.00  0.00     0.022 A 
BRANCH  95  98
ATOM     98  S   UNL A   1      44.833  23.239  35.717  1.00  0.00     0.127 S 
ATOM     99  O   UNL A   1      43.947  22.411  34.900  1.00  0.00    -0.237 OA
ATOM    100  O   UNL A   1      45.854  22.492  36.455  1.00  0.00    -0.237 OA
ATOM    101  O   UNL A   1      44.199  24.300  36.487  1.00  0.00    -0.744 OA
ENDBRANCH  95  98
ENDBRANCH  68  91
ENDBRANCH  42  43
ENDBRANCH  34  37
ENDBRANCH  32  33
ENDBRANCH  31  32
ENDBRANCH   1  31
TORSDOF 19
ENDMDL
