MODEL 1
REMARK VINA RESULT:     -12.4      0.000      0.000
REMARK SMILES CC(=O)c1c[nH]c(C(=O)N[C@H]2C=C[C@H](C(=O)NCCCCNC(=O)c3ccc(-c4c5nc(c(-c6cccc(S(=O)(=O)[O-])c6F)c6ccc([nH]6)c(-c6cccc(S(=O)(=O)[O-])c6F)c6nc(c(-c7cccc(S(=O)(=O)[O-])c7F)c7ccc4[nH]7)C=C6)C=C5)cc3)C2)c1
REMARK SMILES IDX 19 1 18 2 17 3 15 4 16 5 14 7 11 8 12 9 88 10 13 11 10 12
REMARK SMILES IDX 8 13 9 14 7 16 4 17 5 18 89 19 6 20 2 22 1 23 3 24 20 25
REMARK SMILES IDX 21 26 22 27 23 28 24 30 25 31 26 32 87 33 27 34 86 35 28 36
REMARK SMILES IDX 29 37 30 38 80 39 31 40 85 41 79 42 81 43 32 44 84 45 78 46
REMARK SMILES IDX 77 47 33 49 65 50 45 51 64 52 46 53 49 54 63 55 82 56 47 57
REMARK SMILES IDX 48 58 62 60 83 61 50 62 34 63 35 64 43 65 36 66 38 67 44 68
REMARK SMILES IDX 37 69 39 70 40 71 41 72 42 73 66 74 67 75 75 76 68 77 70 78
REMARK SMILES IDX 76 79 69 80 71 81 72 82 73 83 74 84 51 85 52 86 60 87 53 88
REMARK SMILES IDX 55 89 61 90 54 91 56 92 57 93 58 94 59 95
REMARK H PARENT 17 6 10 15 6 21 22 29 81 48 49 59
REMARK Flexibility Score: inf
ROOT
ATOM      1  C   UNL A   1      33.055  29.037  24.921  1.00  0.00     0.023 C 
ENDROOT
BRANCH   1   2
ATOM      2  C   UNL A   1      32.038  28.063  24.323  1.00  0.00     0.116 C 
BRANCH   2   3
ATOM      3  N   UNL A   1      31.158  27.542  25.350  1.00  0.00    -0.356 N 
ATOM      4  C   UNL A   1      30.961  26.247  25.738  1.00  0.00     0.227 C 
ATOM      5  O   UNL A   1      30.054  25.989  26.530  1.00  0.00    -0.274 OA
ATOM      6  H   UNL A   1      30.628  28.215  25.836  1.00  0.00     0.163 HD
BRANCH   4   7
ATOM      7  C   UNL A   1      31.904  25.167  25.205  1.00  0.00     0.103 C 
ATOM      8  C   UNL A   1      31.041  23.025  25.993  1.00  0.00     0.106 C 
ATOM      9  C   UNL A   1      32.224  23.466  26.795  1.00  0.00    -0.006 C 
ATOM     10  C   UNL A   1      31.155  23.906  24.742  1.00  0.00     0.047 C 
ATOM     11  C   UNL A   1      32.707  24.635  26.359  1.00  0.00    -0.016 C 
BRANCH   8  12
ATOM     12  N   UNL A   1      31.166  21.615  25.720  1.00  0.00    -0.345 N 
ATOM     13  C   UNL A   1      32.224  20.900  25.216  1.00  0.00     0.268 C 
ATOM     14  O   UNL A   1      32.049  19.695  25.049  1.00  0.00    -0.268 OA
ATOM     15  H   UNL A   1      30.367  21.080  25.929  1.00  0.00     0.164 HD
BRANCH  13  16
ATOM     16  C   UNL A   1      33.489  21.523  24.865  1.00  0.00     0.105 A 
ATOM     17  C   UNL A   1      35.594  22.395  24.639  1.00  0.00     0.035 A 
ATOM     18  C   UNL A   1      34.855  22.761  23.535  1.00  0.00     0.094 A 
ATOM     19  C   UNL A   1      34.731  21.623  25.463  1.00  0.00     0.045 A 
ATOM     20  N   UNL A   1      33.607  22.211  23.668  1.00  0.00    -0.356 N 
ATOM     21  H   UNL A   1      32.889  22.293  23.000  1.00  0.00     0.166 HD
BRANCH  17  22
ATOM     22  C   UNL A   1      36.990  22.706  24.927  1.00  0.00     0.161 C 
ATOM     23  C   UNL A   1      37.920  21.560  25.220  1.00  0.00     0.093 C 
ATOM     24  O   UNL A   1      37.392  23.866  24.906  1.00  0.00    -0.294 OA
ENDBRANCH  17  22
ENDBRANCH  13  16
ENDBRANCH   8  12
ENDBRANCH   4   7
ENDBRANCH   2   3
ENDBRANCH   1   2
BRANCH   1  25
ATOM     25  C   UNL A   1      34.176  28.364  25.728  1.00  0.00     0.023 C 
BRANCH  25  26
ATOM     26  C   UNL A   1      34.291  28.853  27.175  1.00  0.00     0.116 C 
BRANCH  26  27
ATOM     27  N   UNL A   1      34.723  30.243  27.219  1.00  0.00    -0.352 N 
ATOM     28  C   UNL A   1      35.862  30.793  27.749  1.00  0.00     0.251 C 
ATOM     29  H   UNL A   1      34.103  30.885  26.803  1.00  0.00     0.163 HD
ATOM     30  O   UNL A   1      35.862  31.995  28.017  1.00  0.00    -0.269 OA
BRANCH  28  31
ATOM     31  C   UNL A   1      37.074  29.989  28.011  1.00  0.00     0.039 A 
ATOM     32  C   UNL A   1      38.047  29.918  27.002  1.00  0.00     0.014 A 
ATOM     33  C   UNL A   1      37.218  29.234  29.178  1.00  0.00     0.014 A 
ATOM     34  C   UNL A   1      39.191  29.146  27.189  1.00  0.00     0.010 A 
ATOM     35  C   UNL A   1      38.365  28.471  29.373  1.00  0.00     0.010 A 
ATOM     36  C   UNL A   1      39.361  28.445  28.390  1.00  0.00    -0.014 A 
BRANCH  36  37
ATOM     37  C   UNL A   1      40.679  27.843  28.703  1.00  0.00     0.031 A 
ATOM     38  C   UNL A   1      40.717  26.335  28.260  1.00  0.00     0.074 A 
ATOM     39  C   UNL A   1      41.587  28.686  29.294  1.00  0.00     0.049 A 
ATOM     40  N   UNL A   1      41.359  25.303  28.740  1.00  0.00    -0.248 NA
ATOM     41  C   UNL A   1      39.783  25.898  27.175  1.00  0.00     0.031 C 
ATOM     42  C   UNL A   1      41.359  30.115  29.638  1.00  0.00     0.029 A 
ATOM     43  N   UNL A   1      42.885  28.538  29.727  1.00  0.00    -0.354 N 
ATOM     44  C   UNL A   1      41.071  24.188  27.895  1.00  0.00     0.074 A 
ATOM     45  C   UNL A   1      39.994  24.587  27.047  1.00  0.00     0.031 C 
ATOM     46  C   UNL A   1      42.420  30.645  30.293  1.00  0.00     0.029 A 
ATOM     47  C   UNL A   1      43.453  29.640  30.430  1.00  0.00     0.049 A 
ATOM     48  H   UNL A   1      43.395  27.713  29.559  1.00  0.00     0.167 HD
ATOM     49  C   UNL A   1      41.847  23.063  27.818  1.00  0.00     0.034 A 
ATOM     50  C   UNL A   1      44.634  29.687  31.138  1.00  0.00     0.034 A 
ATOM     51  C   UNL A   1      43.000  23.225  28.634  1.00  0.00     0.049 A 
ATOM     52  C   UNL A   1      45.197  28.345  30.962  1.00  0.00     0.074 A 
ATOM     53  C   UNL A   1      43.419  22.869  29.889  1.00  0.00     0.029 A 
ATOM     54  N   UNL A   1      43.984  23.966  28.034  1.00  0.00    -0.354 N 
ATOM     55  N   UNL A   1      45.705  27.891  29.859  1.00  0.00    -0.248 NA
ATOM     56  C   UNL A   1      44.836  27.373  31.988  1.00  0.00     0.031 C 
ATOM     57  C   UNL A   1      44.649  23.548  30.077  1.00  0.00     0.029 A 
ATOM     58  C   UNL A   1      44.767  24.462  29.030  1.00  0.00     0.049 A 
ATOM     59  H   UNL A   1      44.101  24.112  27.067  1.00  0.00     0.167 HD
ATOM     60  C   UNL A   1      45.454  26.541  29.929  1.00  0.00     0.074 A 
ATOM     61  C   UNL A   1      44.976  26.265  31.278  1.00  0.00     0.031 C 
ATOM     62  C   UNL A   1      45.317  25.766  28.826  1.00  0.00     0.034 A 
BRANCH  49  63
ATOM     63  C   UNL A   1      41.959  21.877  26.851  1.00  0.00     0.023 A 
ATOM     64  C   UNL A   1      40.932  20.891  26.994  1.00  0.00     0.012 A 
ATOM     65  C   UNL A   1      43.108  21.479  26.142  1.00  0.00     0.148 A 
ATOM     66  C   UNL A   1      41.098  19.556  26.633  1.00  0.00     0.002 A 
ATOM     67  C   UNL A   1      43.242  20.146  25.714  1.00  0.00     0.091 A 
ATOM     68  F   UNL A   1      44.098  22.358  25.953  1.00  0.00    -0.205 F 
ATOM     69  C   UNL A   1      42.266  19.178  26.006  1.00  0.00     0.022 A 
BRANCH  67  70
ATOM     70  S   UNL A   1      44.649  19.537  24.772  1.00  0.00     0.127 S 
ATOM     71  O   UNL A   1      45.746  20.337  25.307  1.00  0.00    -0.237 OA
ATOM     72  O   UNL A   1      44.685  18.125  25.164  1.00  0.00    -0.237 OA
ATOM     73  O   UNL A   1      44.305  19.753  23.373  1.00  0.00    -0.744 OA
ENDBRANCH  67  70
ENDBRANCH  49  63
BRANCH  50  74
ATOM     74  C   UNL A   1      45.286  30.577  32.178  1.00  0.00     0.023 A 
ATOM     75  C   UNL A   1      46.421  31.362  31.940  1.00  0.00     0.012 A 
ATOM     76  C   UNL A   1      44.687  30.725  33.473  1.00  0.00     0.148 A 
ATOM     77  C   UNL A   1      46.864  32.312  32.887  1.00  0.00     0.002 A 
ATOM     78  C   UNL A   1      45.052  31.741  34.354  1.00  0.00     0.091 A 
ATOM     79  F   UNL A   1      43.761  29.848  33.878  1.00  0.00    -0.205 F 
ATOM     80  C   UNL A   1      46.154  32.537  34.067  1.00  0.00     0.022 A 
BRANCH  78  81
ATOM     81  S   UNL A   1      44.042  32.178  35.788  1.00  0.00     0.127 S 
ATOM     82  O   UNL A   1      42.712  32.326  35.201  1.00  0.00    -0.237 OA
ATOM     83  O   UNL A   1      44.209  30.996  36.635  1.00  0.00    -0.237 OA
ATOM     84  O   UNL A   1      44.618  33.397  36.339  1.00  0.00    -0.744 OA
ENDBRANCH  78  81
ENDBRANCH  50  74
BRANCH  62  85
ATOM     85  C   UNL A   1      45.430  26.489  27.486  1.00  0.00     0.023 A 
ATOM     86  C   UNL A   1      44.292  27.137  26.988  1.00  0.00     0.012 A 
ATOM     87  C   UNL A   1      46.587  26.468  26.656  1.00  0.00     0.148 A 
ATOM     88  C   UNL A   1      44.304  27.755  25.731  1.00  0.00     0.002 A 
ATOM     89  C   UNL A   1      46.596  27.073  25.396  1.00  0.00     0.091 A 
ATOM     90  F   UNL A   1      47.686  25.868  27.112  1.00  0.00    -0.205 F 
ATOM     91  C   UNL A   1      45.449  27.727  24.938  1.00  0.00     0.022 A 
BRANCH  89  92
ATOM     92  S   UNL A   1      48.003  27.026  24.259  1.00  0.00     0.127 S 
ATOM     93  O   UNL A   1      47.969  25.646  23.771  1.00  0.00    -0.237 OA
ATOM     94  O   UNL A   1      47.628  28.022  23.260  1.00  0.00    -0.237 OA
ATOM     95  O   UNL A   1      49.188  27.346  25.047  1.00  0.00    -0.744 OA
ENDBRANCH  89  92
ENDBRANCH  62  85
ENDBRANCH  36  37
ENDBRANCH  28  31
ENDBRANCH  26  27
ENDBRANCH  25  26
ENDBRANCH   1  25
TORSDOF 17
ENDMDL
MODEL 2
REMARK VINA RESULT:     -11.7      4.341     11.884
REMARK SMILES CC(=O)c1c[nH]c(C(=O)N[C@H]2C=C[C@H](C(=O)NCCCCNC(=O)c3ccc(-c4c5nc(c(-c6cccc(S(=O)(=O)[O-])c6F)c6ccc([nH]6)c(-c6cccc(S(=O)(=O)[O-])c6F)c6nc(c(-c7cccc(S(=O)(=O)[O-])c7F)c7ccc4[nH]7)C=C6)C=C5)cc3)C2)c1
REMARK SMILES IDX 19 1 18 2 17 3 15 4 16 5 14 7 11 8 12 9 88 10 13 11 10 12
REMARK SMILES IDX 8 13 9 14 7 16 4 17 5 18 89 19 6 20 2 22 1 23 3 24 20 25
REMARK SMILES IDX 21 26 22 27 23 28 24 30 25 31 26 32 87 33 27 34 86 35 28 36
REMARK SMILES IDX 29 37 30 38 80 39 31 40 85 41 79 42 81 43 32 44 84 45 78 46
REMARK SMILES IDX 77 47 33 49 65 50 45 51 64 52 46 53 49 54 63 55 82 56 47 57
REMARK SMILES IDX 48 58 62 60 83 61 50 62 34 63 35 64 43 65 36 66 38 67 44 68
REMARK SMILES IDX 37 69 39 70 40 71 41 72 42 73 66 74 67 75 75 76 68 77 70 78
REMARK SMILES IDX 76 79 69 80 71 81 72 82 73 83 74 84 51 85 52 86 60 87 53 88
REMARK SMILES IDX 55 89 61 90 54 91 56 92 57 93 58 94 59 95
REMARK H PARENT 17 6 10 15 6 21 22 29 81 48 49 59
REMARK Flexibility Score: inf
ROOT
ATOM      1  C   UNL A   1      42.131  20.436  27.067  1.00  0.00     0.023 C 
ENDROOT
BRANCH   1   2
ATOM      2  C   UNL A   1      42.755  21.236  25.923  1.00  0.00     0.116 C 
BRANCH   2   3
ATOM      3  N   UNL A   1      44.192  21.340  26.091  1.00  0.00    -0.356 N 
ATOM      4  C   UNL A   1      44.976  22.459  26.114  1.00  0.00     0.227 C 
ATOM      5  O   UNL A   1      46.201  22.332  26.115  1.00  0.00    -0.274 OA
ATOM      6  H   UNL A   1      44.668  20.485  26.204  1.00  0.00     0.163 HD
BRANCH   4   7
ATOM      7  C   UNL A   1      44.301  23.830  26.181  1.00  0.00     0.103 C 
ATOM      8  C   UNL A   1      45.914  25.452  25.330  1.00  0.00     0.106 C 
ATOM      9  C   UNL A   1      45.833  25.493  26.824  1.00  0.00    -0.006 C 
ATOM     10  C   UNL A   1      44.625  24.706  24.959  1.00  0.00     0.047 C 
ATOM     11  C   UNL A   1      44.941  24.613  27.293  1.00  0.00    -0.016 C 
BRANCH   8  12
ATOM     12  N   UNL A   1      45.965  26.803  24.832  1.00  0.00    -0.345 N 
ATOM     13  C   UNL A   1      47.042  27.596  24.526  1.00  0.00     0.268 C 
ATOM     14  O   UNL A   1      46.799  28.739  24.145  1.00  0.00    -0.268 OA
ATOM     15  H   UNL A   1      45.087  27.224  24.688  1.00  0.00     0.164 HD
BRANCH  13  16
ATOM     16  C   UNL A   1      48.413  27.134  24.663  1.00  0.00     0.105 A 
ATOM     17  C   UNL A   1      50.456  26.236  25.178  1.00  0.00     0.035 A 
ATOM     18  C   UNL A   1      50.609  27.058  24.082  1.00  0.00     0.094 A 
ATOM     19  C   UNL A   1      49.081  26.291  25.533  1.00  0.00     0.045 A 
ATOM     20  N   UNL A   1      49.377  27.566  23.767  1.00  0.00    -0.356 N 
ATOM     21  H   UNL A   1      49.200  28.162  23.002  1.00  0.00     0.166 HD
BRANCH  17  22
ATOM     22  C   UNL A   1      51.475  25.441  25.853  1.00  0.00     0.161 C 
ATOM     23  C   UNL A   1      52.809  25.284  25.175  1.00  0.00     0.093 C 
ATOM     24  O   UNL A   1      51.254  24.938  26.951  1.00  0.00    -0.294 OA
ENDBRANCH  17  22
ENDBRANCH  13  16
ENDBRANCH   8  12
ENDBRANCH   4   7
ENDBRANCH   2   3
ENDBRANCH   1   2
BRANCH   1  25
ATOM     25  C   UNL A   1      40.782  20.985  27.559  1.00  0.00     0.023 C 
BRANCH  25  26
ATOM     26  C   UNL A   1      40.679  22.513  27.538  1.00  0.00     0.116 C 
BRANCH  26  27
ATOM     27  N   UNL A   1      39.670  22.951  26.584  1.00  0.00    -0.352 N 
ATOM     28  C   UNL A   1      38.900  24.087  26.578  1.00  0.00     0.251 C 
ATOM     29  H   UNL A   1      39.517  22.339  25.828  1.00  0.00     0.163 HD
ATOM     30  O   UNL A   1      37.866  24.091  25.911  1.00  0.00    -0.269 OA
BRANCH  28  31
ATOM     31  C   UNL A   1      39.273  25.292  27.348  1.00  0.00     0.039 A 
ATOM     32  C   UNL A   1      40.095  26.244  26.724  1.00  0.00     0.014 A 
ATOM     33  C   UNL A   1      38.916  25.448  28.691  1.00  0.00     0.014 A 
ATOM     34  C   UNL A   1      40.500  27.380  27.420  1.00  0.00     0.010 A 
ATOM     35  C   UNL A   1      39.309  26.587  29.385  1.00  0.00     0.010 A 
ATOM     36  C   UNL A   1      40.081  27.563  28.745  1.00  0.00    -0.014 A 
BRANCH  36  37
ATOM     37  C   UNL A   1      40.283  28.878  29.399  1.00  0.00     0.031 A 
ATOM     38  C   UNL A   1      39.053  29.820  29.136  1.00  0.00     0.074 A 
ATOM     39  C   UNL A   1      41.460  29.017  30.093  1.00  0.00     0.049 A 
ATOM     40  N   UNL A   1      38.960  31.119  29.027  1.00  0.00    -0.248 NA
ATOM     41  C   UNL A   1      37.735  29.184  28.822  1.00  0.00     0.031 C 
ATOM     42  C   UNL A   1      42.521  27.984  30.232  1.00  0.00     0.029 A 
ATOM     43  N   UNL A   1      42.020  30.038  30.827  1.00  0.00    -0.354 N 
ATOM     44  C   UNL A   1      37.578  31.437  28.857  1.00  0.00     0.074 A 
ATOM     45  C   UNL A   1      36.905  30.204  28.598  1.00  0.00     0.031 C 
ATOM     46  C   UNL A   1      43.597  28.463  30.901  1.00  0.00     0.029 A 
ATOM     47  C   UNL A   1      43.354  29.837  31.285  1.00  0.00     0.049 A 
ATOM     48  H   UNL A   1      41.523  30.864  31.025  1.00  0.00     0.167 HD
ATOM     49  C   UNL A   1      37.037  32.668  29.111  1.00  0.00     0.034 A 
ATOM     50  C   UNL A   1      44.211  30.754  31.854  1.00  0.00     0.034 A 
ATOM     51  C   UNL A   1      38.038  33.527  29.640  1.00  0.00     0.049 A 
ATOM     52  C   UNL A   1      43.412  31.982  31.918  1.00  0.00     0.074 A 
ATOM     53  C   UNL A   1      38.886  34.504  29.188  1.00  0.00     0.029 A 
ATOM     54  N   UNL A   1      38.264  33.331  30.977  1.00  0.00    -0.354 N 
ATOM     55  N   UNL A   1      42.422  32.182  32.731  1.00  0.00    -0.248 NA
ATOM     56  C   UNL A   1      43.527  32.866  30.764  1.00  0.00     0.031 C 
ATOM     57  C   UNL A   1      39.736  34.794  30.285  1.00  0.00     0.029 A 
ATOM     58  C   UNL A   1      39.512  33.804  31.240  1.00  0.00     0.049 A 
ATOM     59  H   UNL A   1      37.641  32.925  31.623  1.00  0.00     0.167 HD
ATOM     60  C   UNL A   1      41.608  33.040  32.030  1.00  0.00     0.074 A 
ATOM     61  C   UNL A   1      42.357  33.477  30.858  1.00  0.00     0.031 C 
ATOM     62  C   UNL A   1      40.270  33.101  32.228  1.00  0.00     0.034 A 
BRANCH  49  63
ATOM     63  C   UNL A   1      35.616  33.221  29.290  1.00  0.00     0.023 A 
ATOM     64  C   UNL A   1      34.905  33.446  28.069  1.00  0.00     0.012 A 
ATOM     65  C   UNL A   1      35.105  33.860  30.435  1.00  0.00     0.148 A 
ATOM     66  C   UNL A   1      33.878  34.380  27.943  1.00  0.00     0.002 A 
ATOM     67  C   UNL A   1      34.020  34.748  30.317  1.00  0.00     0.091 A 
ATOM     68  F   UNL A   1      35.709  33.676  31.614  1.00  0.00    -0.205 F 
ATOM     69  C   UNL A   1      33.446  35.047  29.069  1.00  0.00     0.022 A 
BRANCH  67  70
ATOM     70  S   UNL A   1      33.263  35.591  31.715  1.00  0.00     0.127 S 
ATOM     71  O   UNL A   1      34.387  36.345  32.263  1.00  0.00    -0.237 OA
ATOM     72  O   UNL A   1      32.248  36.417  31.055  1.00  0.00    -0.237 OA
ATOM     73  O   UNL A   1      32.713  34.536  32.555  1.00  0.00    -0.744 OA
ENDBRANCH  67  70
ENDBRANCH  49  63
BRANCH  50  74
ATOM     74  C   UNL A   1      45.697  30.883  32.128  1.00  0.00     0.023 A 
ATOM     75  C   UNL A   1      46.237  31.259  33.364  1.00  0.00     0.012 A 
ATOM     76  C   UNL A   1      46.647  30.523  31.118  1.00  0.00     0.148 A 
ATOM     77  C   UNL A   1      47.625  31.175  33.611  1.00  0.00     0.002 A 
ATOM     78  C   UNL A   1      47.998  30.326  31.397  1.00  0.00     0.091 A 
ATOM     79  F   UNL A   1      46.246  30.390  29.847  1.00  0.00    -0.205 F 
ATOM     80  C   UNL A   1      48.497  30.663  32.650  1.00  0.00     0.022 A 
BRANCH  78  81
ATOM     81  S   UNL A   1      49.108  29.490  30.241  1.00  0.00     0.127 S 
ATOM     82  O   UNL A   1      50.282  29.224  31.070  1.00  0.00    -0.237 OA
ATOM     83  O   UNL A   1      48.325  28.305  29.889  1.00  0.00    -0.237 OA
ATOM     84  O   UNL A   1      49.324  30.416  29.137  1.00  0.00    -0.744 OA
ENDBRANCH  78  81
ENDBRANCH  50  74
BRANCH  62  85
ATOM     85  C   UNL A   1      39.706  32.133  33.266  1.00  0.00     0.023 A 
ATOM     86  C   UNL A   1      39.486  30.805  32.879  1.00  0.00     0.012 A 
ATOM     87  C   UNL A   1      39.294  32.510  34.577  1.00  0.00     0.148 A 
ATOM     88  C   UNL A   1      38.901  29.884  33.757  1.00  0.00     0.002 A 
ATOM     89  C   UNL A   1      38.699  31.594  35.449  1.00  0.00     0.091 A 
ATOM     90  F   UNL A   1      39.503  33.765  34.973  1.00  0.00    -0.205 F 
ATOM     91  C   UNL A   1      38.511  30.272  35.037  1.00  0.00     0.022 A 
BRANCH  89  92
ATOM     92  S   UNL A   1      38.086  32.017  37.098  1.00  0.00     0.127 S 
ATOM     93  O   UNL A   1      37.484  30.760  37.545  1.00  0.00    -0.237 OA
ATOM     94  O   UNL A   1      39.314  32.374  37.803  1.00  0.00    -0.237 OA
ATOM     95  O   UNL A   1      37.128  33.103  36.922  1.00  0.00    -0.744 OA
ENDBRANCH  89  92
ENDBRANCH  62  85
ENDBRANCH  36  37
ENDBRANCH  28  31
ENDBRANCH  26  27
ENDBRANCH  25  26
ENDBRANCH   1  25
TORSDOF 17
ENDMDL
MODEL 3
REMARK VINA RESULT:     -11.6      3.842      9.938
REMARK SMILES CC(=O)c1c[nH]c(C(=O)N[C@H]2C=C[C@H](C(=O)NCCCCNC(=O)c3ccc(-c4c5nc(c(-c6cccc(S(=O)(=O)[O-])c6F)c6ccc([nH]6)c(-c6cccc(S(=O)(=O)[O-])c6F)c6nc(c(-c7cccc(S(=O)(=O)[O-])c7F)c7ccc4[nH]7)C=C6)C=C5)cc3)C2)c1
REMARK SMILES IDX 19 1 18 2 17 3 15 4 16 5 14 7 11 8 12 9 88 10 13 11 10 12
REMARK SMILES IDX 8 13 9 14 7 16 4 17 5 18 89 19 6 20 2 22 1 23 3 24 20 25
REMARK SMILES IDX 21 26 22 27 23 28 24 30 25 31 26 32 87 33 27 34 86 35 28 36
REMARK SMILES IDX 29 37 30 38 80 39 31 40 85 41 79 42 81 43 32 44 84 45 78 46
REMARK SMILES IDX 77 47 33 49 65 50 45 51 64 52 46 53 49 54 63 55 82 56 47 57
REMARK SMILES IDX 48 58 62 60 83 61 50 62 34 63 35 64 43 65 36 66 38 67 44 68
REMARK SMILES IDX 37 69 39 70 40 71 41 72 42 73 66 74 67 75 75 76 68 77 70 78
REMARK SMILES IDX 76 79 69 80 71 81 72 82 73 83 74 84 51 85 52 86 60 87 53 88
REMARK SMILES IDX 55 89 61 90 54 91 56 92 57 93 58 94 59 95
REMARK H PARENT 17 6 10 15 6 21 22 29 81 48 49 59
REMARK Flexibility Score: inf
ROOT
ATOM      1  C   UNL A   1      35.850  21.879  25.497  1.00  0.00     0.023 C 
ENDROOT
BRANCH   1   2
ATOM      2  C   UNL A   1      34.748  21.505  24.504  1.00  0.00     0.116 C 
BRANCH   2   3
ATOM      3  N   UNL A   1      34.651  22.493  23.446  1.00  0.00    -0.356 N 
ATOM      4  C   UNL A   1      33.561  22.857  22.708  1.00  0.00     0.227 C 
ATOM      5  O   UNL A   1      33.713  23.611  21.747  1.00  0.00    -0.274 OA
ATOM      6  H   UNL A   1      35.487  22.966  23.230  1.00  0.00     0.163 HD
BRANCH   4   7
ATOM      7  C   UNL A   1      32.181  22.349  23.131  1.00  0.00     0.103 C 
ATOM      8  C   UNL A   1      31.448  23.756  24.985  1.00  0.00     0.106 C 
ATOM      9  C   UNL A   1      31.933  22.425  25.467  1.00  0.00    -0.006 C 
ATOM     10  C   UNL A   1      31.217  23.491  23.491  1.00  0.00     0.047 C 
ATOM     11  C   UNL A   1      32.325  21.646  24.452  1.00  0.00    -0.016 C 
BRANCH   8  12
ATOM     12  N   UNL A   1      30.247  24.099  25.704  1.00  0.00    -0.345 N 
ATOM     13  C   UNL A   1      29.799  25.317  26.153  1.00  0.00     0.268 C 
ATOM     14  O   UNL A   1      28.741  25.322  26.777  1.00  0.00    -0.268 OA
ATOM     15  H   UNL A   1      29.654  23.340  25.904  1.00  0.00     0.164 HD
BRANCH  13  16
ATOM     16  C   UNL A   1      30.539  26.548  25.933  1.00  0.00     0.105 A 
ATOM     17  C   UNL A   1      31.795  28.463  25.936  1.00  0.00     0.035 A 
ATOM     18  C   UNL A   1      31.210  28.333  24.695  1.00  0.00     0.094 A 
ATOM     19  C   UNL A   1      31.369  27.343  26.701  1.00  0.00     0.045 A 
ATOM     20  N   UNL A   1      30.485  27.170  24.696  1.00  0.00    -0.356 N 
ATOM     21  H   UNL A   1      29.990  26.823  23.919  1.00  0.00     0.166 HD
BRANCH  17  22
ATOM     22  C   UNL A   1      32.691  29.516  26.400  1.00  0.00     0.161 C 
ATOM     23  C   UNL A   1      32.106  30.880  26.646  1.00  0.00     0.093 C 
ATOM     24  O   UNL A   1      33.879  29.284  26.606  1.00  0.00    -0.294 OA
ENDBRANCH  17  22
ENDBRANCH  13  16
ENDBRANCH   8  12
ENDBRANCH   4   7
ENDBRANCH   2   3
ENDBRANCH   1   2
BRANCH   1  25
ATOM     25  C   UNL A   1      36.859  22.908  24.963  1.00  0.00     0.023 C 
BRANCH  25  26
ATOM     26  C   UNL A   1      37.514  23.768  26.048  1.00  0.00     0.116 C 
BRANCH  26  27
ATOM     27  N   UNL A   1      38.711  23.124  26.568  1.00  0.00    -0.352 N 
ATOM     28  C   UNL A   1      39.851  23.679  27.093  1.00  0.00     0.251 C 
ATOM     29  H   UNL A   1      38.701  22.139  26.539  1.00  0.00     0.163 HD
ATOM     30  O   UNL A   1      40.875  22.996  27.123  1.00  0.00    -0.269 OA
BRANCH  28  31
ATOM     31  C   UNL A   1      39.883  25.062  27.612  1.00  0.00     0.039 A 
ATOM     32  C   UNL A   1      39.337  25.301  28.883  1.00  0.00     0.014 A 
ATOM     33  C   UNL A   1      40.346  26.129  26.836  1.00  0.00     0.014 A 
ATOM     34  C   UNL A   1      39.314  26.593  29.401  1.00  0.00     0.010 A 
ATOM     35  C   UNL A   1      40.336  27.419  27.355  1.00  0.00     0.010 A 
ATOM     36  C   UNL A   1      39.841  27.648  28.645  1.00  0.00    -0.014 A 
BRANCH  36  37
ATOM     37  C   UNL A   1      40.063  28.967  29.287  1.00  0.00     0.031 A 
ATOM     38  C   UNL A   1      38.822  29.905  29.061  1.00  0.00     0.074 A 
ATOM     39  C   UNL A   1      41.263  29.112  29.939  1.00  0.00     0.049 A 
ATOM     40  N   UNL A   1      38.723  31.203  28.950  1.00  0.00    -0.248 NA
ATOM     41  C   UNL A   1      37.496  29.265  28.795  1.00  0.00     0.031 C 
ATOM     42  C   UNL A   1      42.329  28.081  30.046  1.00  0.00     0.029 A 
ATOM     43  N   UNL A   1      41.844  30.136  30.649  1.00  0.00    -0.354 N 
ATOM     44  C   UNL A   1      37.335  31.518  28.825  1.00  0.00     0.074 A 
ATOM     45  C   UNL A   1      36.657  30.283  28.595  1.00  0.00     0.031 C 
ATOM     46  C   UNL A   1      43.427  28.565  30.677  1.00  0.00     0.029 A 
ATOM     47  C   UNL A   1      43.194  29.941  31.062  1.00  0.00     0.049 A 
ATOM     48  H   UNL A   1      41.353  30.962  30.860  1.00  0.00     0.167 HD
ATOM     49  C   UNL A   1      36.800  32.749  29.092  1.00  0.00     0.034 A 
ATOM     50  C   UNL A   1      44.068  30.861  31.597  1.00  0.00     0.034 A 
ATOM     51  C   UNL A   1      37.817  33.613  29.583  1.00  0.00     0.049 A 
ATOM     52  C   UNL A   1      43.269  32.088  31.683  1.00  0.00     0.074 A 
ATOM     53  C   UNL A   1      38.647  34.589  29.098  1.00  0.00     0.029 A 
ATOM     54  N   UNL A   1      38.088  33.422  30.912  1.00  0.00    -0.354 N 
ATOM     55  N   UNL A   1      42.307  32.290  32.528  1.00  0.00    -0.248 NA
ATOM     56  C   UNL A   1      43.342  32.968  30.522  1.00  0.00     0.031 C 
ATOM     57  C   UNL A   1      39.533  34.886  30.164  1.00  0.00     0.029 A 
ATOM     58  C   UNL A   1      39.344  33.899  31.131  1.00  0.00     0.049 A 
ATOM     59  H   UNL A   1      37.489  33.018  31.581  1.00  0.00     0.167 HD
ATOM     60  C   UNL A   1      41.468  33.143  31.852  1.00  0.00     0.074 A 
ATOM     61  C   UNL A   1      42.175  33.577  30.653  1.00  0.00     0.031 C 
ATOM     62  C   UNL A   1      40.137  33.202  32.096  1.00  0.00     0.034 A 
BRANCH  49  63
ATOM     63  C   UNL A   1      35.386  33.300  29.317  1.00  0.00     0.023 A 
ATOM     64  C   UNL A   1      34.623  33.493  28.122  1.00  0.00     0.012 A 
ATOM     65  C   UNL A   1      34.918  33.964  30.467  1.00  0.00     0.148 A 
ATOM     66  C   UNL A   1      33.587  34.419  28.017  1.00  0.00     0.002 A 
ATOM     67  C   UNL A   1      33.825  34.843  30.373  1.00  0.00     0.091 A 
ATOM     68  F   UNL A   1      35.572  33.810  31.624  1.00  0.00    -0.205 F 
ATOM     69  C   UNL A   1      33.198  35.111  29.144  1.00  0.00     0.022 A 
BRANCH  67  70
ATOM     70  S   UNL A   1      33.123  35.717  31.781  1.00  0.00     0.127 S 
ATOM     71  O   UNL A   1      32.584  34.622  32.584  1.00  0.00    -0.237 OA
ATOM     72  O   UNL A   1      34.307  36.361  32.357  1.00  0.00    -0.237 OA
ATOM     73  O   UNL A   1      32.156  36.650  31.219  1.00  0.00    -0.744 OA
ENDBRANCH  67  70
ENDBRANCH  49  63
BRANCH  50  74
ATOM     74  C   UNL A   1      45.562  30.995  31.821  1.00  0.00     0.023 A 
ATOM     75  C   UNL A   1      46.144  31.350  33.043  1.00  0.00     0.012 A 
ATOM     76  C   UNL A   1      46.477  30.660  30.769  1.00  0.00     0.148 A 
ATOM     77  C   UNL A   1      47.541  31.271  33.238  1.00  0.00     0.002 A 
ATOM     78  C   UNL A   1      47.838  30.467  30.996  1.00  0.00     0.091 A 
ATOM     79  F   UNL A   1      46.031  30.550  29.512  1.00  0.00    -0.205 F 
ATOM     80  C   UNL A   1      48.380  30.782  32.236  1.00  0.00     0.022 A 
BRANCH  78  81
ATOM     81  S   UNL A   1      48.911  29.661  29.784  1.00  0.00     0.127 S 
ATOM     82  O   UNL A   1      48.684  30.462  28.583  1.00  0.00    -0.237 OA
ATOM     83  O   UNL A   1      50.228  29.837  30.397  1.00  0.00    -0.237 OA
ATOM     84  O   UNL A   1      48.467  28.276  29.701  1.00  0.00    -0.744 OA
ENDBRANCH  78  81
ENDBRANCH  50  74
BRANCH  62  85
ATOM     85  C   UNL A   1      39.610  32.238  33.157  1.00  0.00     0.023 A 
ATOM     86  C   UNL A   1      39.422  30.898  32.795  1.00  0.00     0.012 A 
ATOM     87  C   UNL A   1      39.204  32.626  34.465  1.00  0.00     0.148 A 
ATOM     88  C   UNL A   1      38.871  29.977  33.695  1.00  0.00     0.002 A 
ATOM     89  C   UNL A   1      38.643  31.710  35.360  1.00  0.00     0.091 A 
ATOM     90  F   UNL A   1      39.384  33.893  34.838  1.00  0.00    -0.205 F 
ATOM     91  C   UNL A   1      38.486  30.377  34.973  1.00  0.00     0.022 A 
BRANCH  89  92
ATOM     92  S   UNL A   1      38.038  32.145  37.009  1.00  0.00     0.127 S 
ATOM     93  O   UNL A   1      39.232  32.700  37.649  1.00  0.00    -0.237 OA
ATOM     94  O   UNL A   1      37.006  33.133  36.710  1.00  0.00    -0.237 OA
ATOM     95  O   UNL A   1      37.562  30.908  37.618  1.00  0.00    -0.744 OA
ENDBRANCH  89  92
ENDBRANCH  62  85
ENDBRANCH  36  37
ENDBRANCH  28  31
ENDBRANCH  26  27
ENDBRANCH  25  26
ENDBRANCH   1  25
TORSDOF 17
ENDMDL
