MODEL 1
REMARK VINA RESULT:     -11.6      0.000      0.000
REMARK SMILES CC[C@@H]1CCCN1C(=O)N1CC[C@@H](C(=O)NCCCCNC(=O)c2ccc(-c3c4nc(c(-c5cccc(S(=O)(=O)[O-])c5F)c5ccc([nH]5)c(-c5cccc(S(=O)(=O)[O-])c5F)c5nc(c(-c6cccc(S(=O)(=O)[O-])c6F)c6ccc3[nH]6)C=C5)C=C4)cc2)[C@@H]1C
REMARK SMILES IDX 18 1 17 2 16 3 14 4 15 5 13 7 10 8 11 9 87 10 12 11 88 12
REMARK SMILES IDX 8 13 9 14 7 15 3 16 4 17 5 18 6 19 2 20 1 21 19 22 20 23
REMARK SMILES IDX 21 24 22 25 23 27 24 28 25 29 86 30 26 31 85 32 27 33 28 34
REMARK SMILES IDX 29 35 79 36 30 37 84 38 78 39 80 40 31 41 83 42 77 43 76 44
REMARK SMILES IDX 32 46 64 47 44 48 63 49 45 50 48 51 62 52 81 53 46 54 47 55
REMARK SMILES IDX 61 57 82 58 49 59 33 60 34 61 42 62 35 63 37 64 43 65 36 66
REMARK SMILES IDX 38 67 39 68 40 69 41 70 65 71 66 72 74 73 67 74 69 75 75 76
REMARK SMILES IDX 68 77 70 78 71 79 72 80 73 81 50 82 51 83 59 84 52 85 54 86
REMARK SMILES IDX 60 87 53 88 55 89 56 90 57 91 58 92
REMARK H PARENT 16 6 21 26 80 45 48 56
REMARK Flexibility Score: inf
ROOT
ATOM      1  C   UNL A   1      32.221  29.947  26.533  1.00  0.00     0.023 C 
ENDROOT
BRANCH   1   2
ATOM      2  C   UNL A   1      33.049  29.627  25.288  1.00  0.00     0.116 C 
BRANCH   2   3
ATOM      3  N   UNL A   1      32.230  29.333  24.128  1.00  0.00    -0.356 N 
ATOM      4  C   UNL A   1      32.153  28.207  23.367  1.00  0.00     0.225 C 
ATOM      5  O   UNL A   1      31.349  28.184  22.435  1.00  0.00    -0.275 OA
ATOM      6  H   UNL A   1      31.636  30.064  23.846  1.00  0.00     0.163 HD
BRANCH   4   7
ATOM      7  C   UNL A   1      33.032  27.016  23.685  1.00  0.00     0.102 C 
ATOM      8  N   UNL A   1      32.559  24.711  23.886  1.00  0.00    -0.321 N 
ATOM      9  C   UNL A   1      32.619  24.974  22.462  1.00  0.00     0.122 C 
ATOM     10  C   UNL A   1      32.253  25.982  24.532  1.00  0.00     0.096 C 
ATOM     11  C   UNL A   1      33.404  26.268  22.385  1.00  0.00     0.037 C 
ATOM     12  C   UNL A   1      32.642  26.002  26.005  1.00  0.00     0.032 C 
BRANCH   8  13
ATOM     13  C   UNL A   1      32.013  23.530  24.320  1.00  0.00     0.320 C 
ATOM     14  O   UNL A   1      30.793  23.371  24.383  1.00  0.00    -0.248 OA
BRANCH  13  15
ATOM     15  N   UNL A   1      32.903  22.542  24.697  1.00  0.00    -0.322 N 
ATOM     16  C   UNL A   1      34.224  22.663  25.344  1.00  0.00     0.086 C 
ATOM     17  C   UNL A   1      34.712  21.207  25.356  1.00  0.00     0.027 C 
ATOM     18  C   UNL A   1      33.444  20.424  25.642  1.00  0.00     0.024 C 
ATOM     19  C   UNL A   1      32.369  21.201  24.895  1.00  0.00     0.122 C 
BRANCH  16  20
ATOM     20  C   UNL A   1      35.269  23.605  24.744  1.00  0.00     0.022 C 
ATOM     21  C   UNL A   1      35.783  23.174  23.377  1.00  0.00     0.006 C 
ENDBRANCH  16  20
ENDBRANCH  13  15
ENDBRANCH   8  13
ENDBRANCH   4   7
ENDBRANCH   2   3
ENDBRANCH   1   2
BRANCH   1  22
ATOM     22  C   UNL A   1      31.883  31.428  26.733  1.00  0.00     0.023 C 
BRANCH  22  23
ATOM     23  C   UNL A   1      32.980  32.285  27.359  1.00  0.00     0.116 C 
BRANCH  23  24
ATOM     24  N   UNL A   1      32.577  33.664  27.591  1.00  0.00    -0.352 N 
ATOM     25  C   UNL A   1      33.108  34.567  28.484  1.00  0.00     0.251 C 
ATOM     26  H   UNL A   1      31.830  33.992  27.040  1.00  0.00     0.163 HD
ATOM     27  O   UNL A   1      32.591  35.672  28.627  1.00  0.00    -0.269 OA
BRANCH  25  28
ATOM     28  C   UNL A   1      34.283  34.181  29.296  1.00  0.00     0.039 A 
ATOM     29  C   UNL A   1      34.080  33.531  30.516  1.00  0.00     0.014 A 
ATOM     30  C   UNL A   1      35.578  34.420  28.830  1.00  0.00     0.014 A 
ATOM     31  C   UNL A   1      35.179  33.049  31.235  1.00  0.00     0.010 A 
ATOM     32  C   UNL A   1      36.665  33.887  29.515  1.00  0.00     0.010 A 
ATOM     33  C   UNL A   1      36.478  33.190  30.721  1.00  0.00    -0.014 A 
BRANCH  33  34
ATOM     34  C   UNL A   1      37.665  32.620  31.410  1.00  0.00     0.031 A 
ATOM     35  C   UNL A   1      38.394  31.455  30.796  1.00  0.00     0.074 A 
ATOM     36  C   UNL A   1      38.015  33.069  32.633  1.00  0.00     0.049 A 
ATOM     37  N   UNL A   1      39.338  30.709  31.307  1.00  0.00    -0.248 NA
ATOM     38  C   UNL A   1      37.986  31.061  29.437  1.00  0.00     0.031 C 
ATOM     39  C   UNL A   1      37.355  34.154  33.361  1.00  0.00     0.029 A 
ATOM     40  N   UNL A   1      38.992  32.639  33.499  1.00  0.00    -0.354 N 
ATOM     41  C   UNL A   1      39.612  29.737  30.351  1.00  0.00     0.074 A 
ATOM     42  C   UNL A   1      38.713  29.969  29.241  1.00  0.00     0.031 C 
ATOM     43  C   UNL A   1      37.935  34.296  34.564  1.00  0.00     0.029 A 
ATOM     44  C   UNL A   1      38.984  33.292  34.711  1.00  0.00     0.049 A 
ATOM     45  H   UNL A   1      39.637  31.930  33.274  1.00  0.00     0.167 HD
ATOM     46  C   UNL A   1      40.549  28.759  30.379  1.00  0.00     0.034 A 
ATOM     47  C   UNL A   1      39.725  33.092  35.819  1.00  0.00     0.034 A 
ATOM     48  C   UNL A   1      41.473  28.560  31.460  1.00  0.00     0.049 A 
ATOM     49  C   UNL A   1      40.778  32.014  35.809  1.00  0.00     0.074 A 
ATOM     50  C   UNL A   1      42.485  27.623  31.565  1.00  0.00     0.029 A 
ATOM     51  N   UNL A   1      41.507  29.318  32.619  1.00  0.00    -0.354 N 
ATOM     52  N   UNL A   1      41.098  31.182  34.848  1.00  0.00    -0.248 NA
ATOM     53  C   UNL A   1      41.597  31.871  37.022  1.00  0.00     0.031 C 
ATOM     54  C   UNL A   1      43.134  27.816  32.789  1.00  0.00     0.029 A 
ATOM     55  C   UNL A   1      42.533  28.882  33.438  1.00  0.00     0.049 A 
ATOM     56  H   UNL A   1      40.892  30.058  32.829  1.00  0.00     0.167 HD
ATOM     57  C   UNL A   1      42.183  30.452  35.322  1.00  0.00     0.074 A 
ATOM     58  C   UNL A   1      42.475  30.949  36.650  1.00  0.00     0.031 C 
ATOM     59  C   UNL A   1      42.865  29.449  34.719  1.00  0.00     0.034 A 
BRANCH  46  60
ATOM     60  C   UNL A   1      40.673  27.875  29.167  1.00  0.00     0.023 A 
ATOM     61  C   UNL A   1      39.818  26.761  29.041  1.00  0.00     0.012 A 
ATOM     62  C   UNL A   1      41.573  28.176  28.126  1.00  0.00     0.148 A 
ATOM     63  C   UNL A   1      39.876  25.943  27.914  1.00  0.00     0.002 A 
ATOM     64  C   UNL A   1      41.596  27.381  26.986  1.00  0.00     0.091 A 
ATOM     65  F   UNL A   1      42.390  29.230  28.273  1.00  0.00    -0.205 F 
ATOM     66  C   UNL A   1      40.755  26.259  26.883  1.00  0.00     0.022 A 
BRANCH  64  67
ATOM     67  S   UNL A   1      42.639  27.742  25.568  1.00  0.00     0.127 S 
ATOM     68  O   UNL A   1      43.964  27.795  26.182  1.00  0.00    -0.237 OA
ATOM     69  O   UNL A   1      42.408  26.576  24.714  1.00  0.00    -0.237 OA
ATOM     70  O   UNL A   1      42.154  29.002  25.022  1.00  0.00    -0.744 OA
ENDBRANCH  64  67
ENDBRANCH  46  60
BRANCH  47  71
ATOM     71  C   UNL A   1      39.548  33.967  37.014  1.00  0.00     0.023 A 
ATOM     72  C   UNL A   1      40.016  35.296  36.969  1.00  0.00     0.012 A 
ATOM     73  C   UNL A   1      38.932  33.499  38.190  1.00  0.00     0.148 A 
ATOM     74  C   UNL A   1      39.912  36.127  38.085  1.00  0.00     0.002 A 
ATOM     75  C   UNL A   1      38.782  34.350  39.280  1.00  0.00     0.091 A 
ATOM     76  F   UNL A   1      38.507  32.227  38.226  1.00  0.00    -0.205 F 
ATOM     77  C   UNL A   1      39.288  35.658  39.237  1.00  0.00     0.022 A 
BRANCH  75  78
ATOM     78  S   UNL A   1      37.874  33.858  40.750  1.00  0.00     0.127 S 
ATOM     79  O   UNL A   1      37.671  35.139  41.420  1.00  0.00    -0.237 OA
ATOM     80  O   UNL A   1      36.663  33.261  40.182  1.00  0.00    -0.237 OA
ATOM     81  O   UNL A   1      38.739  32.905  41.432  1.00  0.00    -0.744 OA
ENDBRANCH  75  78
ENDBRANCH  47  71
BRANCH  59  82
ATOM     82  C   UNL A   1      44.041  28.857  35.449  1.00  0.00     0.023 A 
ATOM     83  C   UNL A   1      45.319  29.433  35.303  1.00  0.00     0.012 A 
ATOM     84  C   UNL A   1      43.857  27.795  36.356  1.00  0.00     0.148 A 
ATOM     85  C   UNL A   1      46.400  28.944  36.034  1.00  0.00     0.002 A 
ATOM     86  C   UNL A   1      44.930  27.343  37.114  1.00  0.00     0.091 A 
ATOM     87  F   UNL A   1      42.636  27.252  36.465  1.00  0.00    -0.205 F 
ATOM     88  C   UNL A   1      46.204  27.911  36.948  1.00  0.00     0.022 A 
BRANCH  86  89
ATOM     89  S   UNL A   1      44.752  26.082  38.381  1.00  0.00     0.127 S 
ATOM     90  O   UNL A   1      44.148  24.985  37.626  1.00  0.00    -0.237 OA
ATOM     91  O   UNL A   1      46.139  25.852  38.787  1.00  0.00    -0.237 OA
ATOM     92  O   UNL A   1      43.909  26.667  39.415  1.00  0.00    -0.744 OA
ENDBRANCH  86  89
ENDBRANCH  59  82
ENDBRANCH  33  34
ENDBRANCH  25  28
ENDBRANCH  23  24
ENDBRANCH  22  23
ENDBRANCH   1  22
TORSDOF 17
ENDMDL
MODEL 2
REMARK VINA RESULT:     -11.5      2.333      8.161
REMARK SMILES CC[C@@H]1CCCN1C(=O)N1CC[C@@H](C(=O)NCCCCNC(=O)c2ccc(-c3c4nc(c(-c5cccc(S(=O)(=O)[O-])c5F)c5ccc([nH]5)c(-c5cccc(S(=O)(=O)[O-])c5F)c5nc(c(-c6cccc(S(=O)(=O)[O-])c6F)c6ccc3[nH]6)C=C5)C=C4)cc2)[C@@H]1C
REMARK SMILES IDX 18 1 17 2 16 3 14 4 15 5 13 7 10 8 11 9 87 10 12 11 88 12
REMARK SMILES IDX 8 13 9 14 7 15 3 16 4 17 5 18 6 19 2 20 1 21 19 22 20 23
REMARK SMILES IDX 21 24 22 25 23 27 24 28 25 29 86 30 26 31 85 32 27 33 28 34
REMARK SMILES IDX 29 35 79 36 30 37 84 38 78 39 80 40 31 41 83 42 77 43 76 44
REMARK SMILES IDX 32 46 64 47 44 48 63 49 45 50 48 51 62 52 81 53 46 54 47 55
REMARK SMILES IDX 61 57 82 58 49 59 33 60 34 61 42 62 35 63 37 64 43 65 36 66
REMARK SMILES IDX 38 67 39 68 40 69 41 70 65 71 66 72 74 73 67 74 69 75 75 76
REMARK SMILES IDX 68 77 70 78 71 79 72 80 73 81 50 82 51 83 59 84 52 85 54 86
REMARK SMILES IDX 60 87 53 88 55 89 56 90 57 91 58 92
REMARK H PARENT 16 6 21 26 80 45 48 56
REMARK Flexibility Score: inf
ROOT
ATOM      1  C   UNL A   1      31.167  29.047  23.978  1.00  0.00     0.023 C 
ENDROOT
BRANCH   1   2
ATOM      2  C   UNL A   1      30.937  27.722  23.251  1.00  0.00     0.116 C 
BRANCH   2   3
ATOM      3  N   UNL A   1      31.980  27.421  22.289  1.00  0.00    -0.356 N 
ATOM      4  C   UNL A   1      32.836  26.364  22.218  1.00  0.00     0.225 C 
ATOM      5  O   UNL A   1      33.627  26.313  21.277  1.00  0.00    -0.275 OA
ATOM      6  H   UNL A   1      32.085  28.086  21.571  1.00  0.00     0.163 HD
BRANCH   4   7
ATOM      7  C   UNL A   1      32.789  25.281  23.274  1.00  0.00     0.102 C 
ATOM      8  N   UNL A   1      32.752  22.924  23.121  1.00  0.00    -0.321 N 
ATOM      9  C   UNL A   1      34.132  23.308  22.900  1.00  0.00     0.122 C 
ATOM     10  C   UNL A   1      31.937  24.086  22.783  1.00  0.00     0.096 C 
ATOM     11  C   UNL A   1      34.202  24.698  23.500  1.00  0.00     0.037 C 
ATOM     12  C   UNL A   1      30.553  24.038  23.418  1.00  0.00     0.032 C 
BRANCH   8  13
ATOM     13  C   UNL A   1      32.359  21.649  22.803  1.00  0.00     0.320 C 
ATOM     14  O   UNL A   1      31.845  21.388  21.714  1.00  0.00    -0.248 OA
BRANCH  13  15
ATOM     15  N   UNL A   1      32.555  20.684  23.774  1.00  0.00    -0.322 N 
ATOM     16  C   UNL A   1      32.373  20.770  25.235  1.00  0.00     0.086 C 
ATOM     17  C   UNL A   1      32.884  19.401  25.705  1.00  0.00     0.027 C 
ATOM     18  C   UNL A   1      32.399  18.463  24.615  1.00  0.00     0.024 C 
ATOM     19  C   UNL A   1      32.531  19.292  23.346  1.00  0.00     0.122 C 
BRANCH  16  20
ATOM     20  C   UNL A   1      33.030  21.915  26.007  1.00  0.00     0.022 C 
ATOM     21  C   UNL A   1      32.042  22.842  26.704  1.00  0.00     0.006 C 
ENDBRANCH  16  20
ENDBRANCH  13  15
ENDBRANCH   8  13
ENDBRANCH   4   7
ENDBRANCH   2   3
ENDBRANCH   1   2
BRANCH   1  22
ATOM     22  C   UNL A   1      32.583  29.260  24.522  1.00  0.00     0.023 C 
BRANCH  22  23
ATOM     23  C   UNL A   1      32.690  29.531  26.020  1.00  0.00     0.116 C 
BRANCH  23  24
ATOM     24  N   UNL A   1      32.453  30.922  26.377  1.00  0.00    -0.352 N 
ATOM     25  C   UNL A   1      33.221  31.738  27.176  1.00  0.00     0.251 C 
ATOM     26  H   UNL A   1      31.641  31.331  25.999  1.00  0.00     0.163 HD
ATOM     27  O   UNL A   1      32.833  32.869  27.460  1.00  0.00    -0.269 OA
BRANCH  25  28
ATOM     28  C   UNL A   1      34.498  31.227  27.722  1.00  0.00     0.039 A 
ATOM     29  C   UNL A   1      35.564  32.114  27.896  1.00  0.00     0.014 A 
ATOM     30  C   UNL A   1      34.623  29.889  28.102  1.00  0.00     0.014 A 
ATOM     31  C   UNL A   1      36.734  31.675  28.525  1.00  0.00     0.010 A 
ATOM     32  C   UNL A   1      35.763  29.471  28.783  1.00  0.00     0.010 A 
ATOM     33  C   UNL A   1      36.827  30.360  29.008  1.00  0.00    -0.014 A 
BRANCH  33  34
ATOM     34  C   UNL A   1      38.018  29.877  29.755  1.00  0.00     0.031 A 
ATOM     35  C   UNL A   1      38.318  30.439  31.119  1.00  0.00     0.074 A 
ATOM     36  C   UNL A   1      38.884  29.028  29.168  1.00  0.00     0.049 A 
ATOM     37  N   UNL A   1      39.383  30.282  31.862  1.00  0.00    -0.248 NA
ATOM     38  C   UNL A   1      37.296  31.317  31.714  1.00  0.00     0.031 C 
ATOM     39  C   UNL A   1      38.736  28.455  27.829  1.00  0.00     0.029 A 
ATOM     40  N   UNL A   1      40.087  28.529  29.608  1.00  0.00    -0.354 N 
ATOM     41  C   UNL A   1      39.177  31.068  32.990  1.00  0.00     0.074 A 
ATOM     42  C   UNL A   1      37.898  31.724  32.822  1.00  0.00     0.031 C 
ATOM     43  C   UNL A   1      39.810  27.695  27.552  1.00  0.00     0.029 A 
ATOM     44  C   UNL A   1      40.739  27.753  28.676  1.00  0.00     0.049 A 
ATOM     45  H   UNL A   1      40.449  28.709  30.506  1.00  0.00     0.167 HD
ATOM     46  C   UNL A   1      39.964  31.205  34.084  1.00  0.00     0.034 A 
ATOM     47  C   UNL A   1      41.954  27.171  28.716  1.00  0.00     0.034 A 
ATOM     48  C   UNL A   1      41.209  30.514  34.271  1.00  0.00     0.049 A 
ATOM     49  C   UNL A   1      42.795  27.319  29.958  1.00  0.00     0.074 A 
ATOM     50  C   UNL A   1      42.060  30.556  35.361  1.00  0.00     0.029 A 
ATOM     51  N   UNL A   1      41.777  29.647  33.352  1.00  0.00    -0.354 N 
ATOM     52  N   UNL A   1      42.528  27.973  31.062  1.00  0.00    -0.248 NA
ATOM     53  C   UNL A   1      44.089  26.621  29.975  1.00  0.00     0.031 C 
ATOM     54  C   UNL A   1      43.143  29.710  35.101  1.00  0.00     0.029 A 
ATOM     55  C   UNL A   1      42.958  29.134  33.856  1.00  0.00     0.049 A 
ATOM     56  H   UNL A   1      41.396  29.429  32.471  1.00  0.00     0.167 HD
ATOM     57  C   UNL A   1      43.594  27.725  31.919  1.00  0.00     0.074 A 
ATOM     58  C   UNL A   1      44.505  26.851  31.212  1.00  0.00     0.031 C 
ATOM     59  C   UNL A   1      43.808  28.193  33.173  1.00  0.00     0.034 A 
BRANCH  46  60
ATOM     60  C   UNL A   1      39.462  32.080  35.201  1.00  0.00     0.023 A 
ATOM     61  C   UNL A   1      39.632  33.476  35.107  1.00  0.00     0.012 A 
ATOM     62  C   UNL A   1      38.767  31.541  36.302  1.00  0.00     0.148 A 
ATOM     63  C   UNL A   1      39.144  34.322  36.102  1.00  0.00     0.002 A 
ATOM     64  C   UNL A   1      38.247  32.393  37.269  1.00  0.00     0.091 A 
ATOM     65  F   UNL A   1      38.632  30.209  36.382  1.00  0.00    -0.205 F 
ATOM     66  C   UNL A   1      38.443  33.782  37.175  1.00  0.00     0.022 A 
BRANCH  64  67
ATOM     67  S   UNL A   1      37.264  31.808  38.655  1.00  0.00     0.127 S 
ATOM     68  O   UNL A   1      38.175  32.029  39.777  1.00  0.00    -0.237 OA
ATOM     69  O   UNL A   1      36.113  32.710  38.617  1.00  0.00    -0.237 OA
ATOM     70  O   UNL A   1      36.955  30.414  38.369  1.00  0.00    -0.744 OA
ENDBRANCH  64  67
ENDBRANCH  46  60
BRANCH  47  71
ATOM     71  C   UNL A   1      42.431  26.340  27.574  1.00  0.00     0.023 A 
ATOM     72  C   UNL A   1      43.258  26.926  26.595  1.00  0.00     0.012 A 
ATOM     73  C   UNL A   1      42.072  24.984  27.442  1.00  0.00     0.148 A 
ATOM     74  C   UNL A   1      43.683  26.193  25.487  1.00  0.00     0.002 A 
ATOM     75  C   UNL A   1      42.544  24.244  26.363  1.00  0.00     0.091 A 
ATOM     76  F   UNL A   1      41.270  24.443  28.371  1.00  0.00    -0.205 F 
ATOM     77  C   UNL A   1      43.333  24.850  25.374  1.00  0.00     0.022 A 
BRANCH  75  78
ATOM     78  S   UNL A   1      42.244  22.479  26.220  1.00  0.00     0.127 S 
ATOM     79  O   UNL A   1      42.824  21.973  27.460  1.00  0.00    -0.237 OA
ATOM     80  O   UNL A   1      40.782  22.416  26.152  1.00  0.00    -0.237 OA
ATOM     81  O   UNL A   1      42.911  22.077  24.987  1.00  0.00    -0.744 OA
ENDBRANCH  75  78
ENDBRANCH  47  71
BRANCH  59  82
ATOM     82  C   UNL A   1      45.039  27.723  33.900  1.00  0.00     0.023 A 
ATOM     83  C   UNL A   1      46.219  28.491  33.851  1.00  0.00     0.012 A 
ATOM     84  C   UNL A   1      44.992  26.574  34.714  1.00  0.00     0.148 A 
ATOM     85  C   UNL A   1      47.341  28.109  34.584  1.00  0.00     0.002 A 
ATOM     86  C   UNL A   1      46.100  26.224  35.476  1.00  0.00     0.091 A 
ATOM     87  F   UNL A   1      43.864  25.849  34.731  1.00  0.00    -0.205 F 
ATOM     88  C   UNL A   1      47.277  26.985  35.406  1.00  0.00     0.022 A 
BRANCH  86  89
ATOM     89  S   UNL A   1      46.078  24.849  36.632  1.00  0.00     0.127 S 
ATOM     90  O   UNL A   1      45.939  23.705  35.732  1.00  0.00    -0.237 OA
ATOM     91  O   UNL A   1      47.388  24.964  37.275  1.00  0.00    -0.237 OA
ATOM     92  O   UNL A   1      44.948  25.087  37.520  1.00  0.00    -0.744 OA
ENDBRANCH  86  89
ENDBRANCH  59  82
ENDBRANCH  33  34
ENDBRANCH  25  28
ENDBRANCH  23  24
ENDBRANCH  22  23
ENDBRANCH   1  22
TORSDOF 17
ENDMDL
MODEL 3
REMARK VINA RESULT:     -11.4      6.171     11.615
REMARK SMILES CC[C@@H]1CCCN1C(=O)N1CC[C@@H](C(=O)NCCCCNC(=O)c2ccc(-c3c4nc(c(-c5cccc(S(=O)(=O)[O-])c5F)c5ccc([nH]5)c(-c5cccc(S(=O)(=O)[O-])c5F)c5nc(c(-c6cccc(S(=O)(=O)[O-])c6F)c6ccc3[nH]6)C=C5)C=C4)cc2)[C@@H]1C
REMARK SMILES IDX 18 1 17 2 16 3 14 4 15 5 13 7 10 8 11 9 87 10 12 11 88 12
REMARK SMILES IDX 8 13 9 14 7 15 3 16 4 17 5 18 6 19 2 20 1 21 19 22 20 23
REMARK SMILES IDX 21 24 22 25 23 27 24 28 25 29 86 30 26 31 85 32 27 33 28 34
REMARK SMILES IDX 29 35 79 36 30 37 84 38 78 39 80 40 31 41 83 42 77 43 76 44
REMARK SMILES IDX 32 46 64 47 44 48 63 49 45 50 48 51 62 52 81 53 46 54 47 55
REMARK SMILES IDX 61 57 82 58 49 59 33 60 34 61 42 62 35 63 37 64 43 65 36 66
REMARK SMILES IDX 38 67 39 68 40 69 41 70 65 71 66 72 74 73 67 74 69 75 75 76
REMARK SMILES IDX 68 77 70 78 71 79 72 80 73 81 50 82 51 83 59 84 52 85 54 86
REMARK SMILES IDX 60 87 53 88 55 89 56 90 57 91 58 92
REMARK H PARENT 16 6 21 26 80 45 48 56
REMARK Flexibility Score: inf
ROOT
ATOM      1  C   UNL A   1      36.290  20.373  25.028  1.00  0.00     0.023 C 
ENDROOT
BRANCH   1   2
ATOM      2  C   UNL A   1      36.246  21.813  25.541  1.00  0.00     0.116 C 
BRANCH   2   3
ATOM      3  N   UNL A   1      35.317  21.989  26.640  1.00  0.00    -0.356 N 
ATOM      4  C   UNL A   1      34.196  22.757  26.732  1.00  0.00     0.225 C 
ATOM      5  O   UNL A   1      33.545  22.720  27.776  1.00  0.00    -0.275 OA
ATOM      6  H   UNL A   1      35.530  21.471  27.449  1.00  0.00     0.163 HD
BRANCH   4   7
ATOM      7  C   UNL A   1      33.771  23.618  25.562  1.00  0.00     0.102 C 
ATOM      8  N   UNL A   1      32.450  25.572  25.434  1.00  0.00    -0.321 N 
ATOM      9  C   UNL A   1      33.753  26.011  25.892  1.00  0.00     0.122 C 
ATOM     10  C   UNL A   1      32.339  24.161  25.785  1.00  0.00     0.096 C 
ATOM     11  C   UNL A   1      34.665  24.875  25.474  1.00  0.00     0.037 C 
ATOM     12  C   UNL A   1      31.288  23.431  24.957  1.00  0.00     0.032 C 
BRANCH   8  13
ATOM     13  C   UNL A   1      31.385  26.430  25.543  1.00  0.00     0.320 C 
ATOM     14  O   UNL A   1      30.617  26.381  26.504  1.00  0.00    -0.248 OA
BRANCH  13  15
ATOM     15  N   UNL A   1      31.215  27.334  24.511  1.00  0.00    -0.322 N 
ATOM     16  C   UNL A   1      30.739  27.110  23.132  1.00  0.00     0.086 C 
ATOM     17  C   UNL A   1      30.917  28.497  22.499  1.00  0.00     0.027 C 
ATOM     18  C   UNL A   1      30.537  29.438  23.627  1.00  0.00     0.024 C 
ATOM     19  C   UNL A   1      31.067  28.738  24.870  1.00  0.00     0.122 C 
BRANCH  16  20
ATOM     20  C   UNL A   1      31.385  26.013  22.285  1.00  0.00     0.022 C 
ATOM     21  C   UNL A   1      32.858  26.251  21.978  1.00  0.00     0.006 C 
ENDBRANCH  16  20
ENDBRANCH  13  15
ENDBRANCH   8  13
ENDBRANCH   4   7
ENDBRANCH   2   3
ENDBRANCH   1   2
BRANCH   1  22
ATOM     22  C   UNL A   1      37.693  19.797  24.810  1.00  0.00     0.023 C 
BRANCH  22  23
ATOM     23  C   UNL A   1      38.731  20.148  25.871  1.00  0.00     0.116 C 
BRANCH  23  24
ATOM     24  N   UNL A   1      39.892  19.269  25.860  1.00  0.00    -0.352 N 
ATOM     25  C   UNL A   1      41.203  19.587  26.132  1.00  0.00     0.251 C 
ATOM     26  H   UNL A   1      39.717  18.328  25.628  1.00  0.00     0.163 HD
ATOM     27  O   UNL A   1      42.087  18.746  25.986  1.00  0.00    -0.269 OA
BRANCH  25  28
ATOM     28  C   UNL A   1      41.543  20.961  26.564  1.00  0.00     0.039 A 
ATOM     29  C   UNL A   1      42.208  21.145  27.780  1.00  0.00     0.014 A 
ATOM     30  C   UNL A   1      41.247  22.056  25.749  1.00  0.00     0.014 A 
ATOM     31  C   UNL A   1      42.646  22.422  28.143  1.00  0.00     0.010 A 
ATOM     32  C   UNL A   1      41.737  23.314  26.083  1.00  0.00     0.010 A 
ATOM     33  C   UNL A   1      42.447  23.510  27.279  1.00  0.00    -0.014 A 
BRANCH  33  34
ATOM     34  C   UNL A   1      42.970  24.868  27.587  1.00  0.00     0.031 A 
ATOM     35  C   UNL A   1      42.066  25.884  28.231  1.00  0.00     0.074 A 
ATOM     36  C   UNL A   1      44.208  25.221  27.187  1.00  0.00     0.049 A 
ATOM     37  N   UNL A   1      42.266  27.161  28.429  1.00  0.00    -0.248 NA
ATOM     38  C   UNL A   1      40.750  25.405  28.688  1.00  0.00     0.031 C 
ATOM     39  C   UNL A   1      45.162  24.345  26.504  1.00  0.00     0.029 A 
ATOM     40  N   UNL A   1      44.864  26.426  27.263  1.00  0.00    -0.354 N 
ATOM     41  C   UNL A   1      41.093  27.645  28.997  1.00  0.00     0.074 A 
ATOM     42  C   UNL A   1      40.174  26.531  29.085  1.00  0.00     0.031 C 
ATOM     43  C   UNL A   1      46.272  25.044  26.211  1.00  0.00     0.029 A 
ATOM     44  C   UNL A   1      46.098  26.424  26.653  1.00  0.00     0.049 A 
ATOM     45  H   UNL A   1      44.486  27.218  27.711  1.00  0.00     0.167 HD
ATOM     46  C   UNL A   1      40.816  28.896  29.438  1.00  0.00     0.034 A 
ATOM     47  C   UNL A   1      46.981  27.424  26.458  1.00  0.00     0.034 A 
ATOM     48  C   UNL A   1      41.748  29.988  29.394  1.00  0.00     0.049 A 
ATOM     49  C   UNL A   1      46.656  28.799  26.983  1.00  0.00     0.074 A 
ATOM     50  C   UNL A   1      41.576  31.283  29.851  1.00  0.00     0.029 A 
ATOM     51  N   UNL A   1      43.029  29.914  28.875  1.00  0.00    -0.354 N 
ATOM     52  N   UNL A   1      45.587  29.206  27.623  1.00  0.00    -0.248 NA
ATOM     53  C   UNL A   1      47.674  29.843  26.793  1.00  0.00     0.031 C 
ATOM     54  C   UNL A   1      42.758  31.991  29.610  1.00  0.00     0.029 A 
ATOM     55  C   UNL A   1      43.667  31.133  29.015  1.00  0.00     0.049 A 
ATOM     56  H   UNL A   1      43.428  29.111  28.466  1.00  0.00     0.167 HD
ATOM     57  C   UNL A   1      45.824  30.536  27.952  1.00  0.00     0.074 A 
ATOM     58  C   UNL A   1      47.143  30.862  27.454  1.00  0.00     0.031 C 
ATOM     59  C   UNL A   1      45.015  31.413  28.594  1.00  0.00     0.034 A 
BRANCH  46  60
ATOM     60  C   UNL A   1      39.474  29.131  30.077  1.00  0.00     0.023 A 
ATOM     61  C   UNL A   1      39.241  28.648  31.380  1.00  0.00     0.012 A 
ATOM     62  C   UNL A   1      38.473  29.883  29.430  1.00  0.00     0.148 A 
ATOM     63  C   UNL A   1      38.026  28.882  32.020  1.00  0.00     0.002 A 
ATOM     64  C   UNL A   1      37.280  30.148  30.090  1.00  0.00     0.091 A 
ATOM     65  F   UNL A   1      38.707  30.319  28.183  1.00  0.00    -0.205 F 
ATOM     66  C   UNL A   1      37.051  29.640  31.381  1.00  0.00     0.022 A 
BRANCH  64  67
ATOM     67  S   UNL A   1      35.986  31.177  29.386  1.00  0.00     0.127 S 
ATOM     68  O   UNL A   1      36.764  32.248  28.765  1.00  0.00    -0.237 OA
ATOM     69  O   UNL A   1      35.346  30.262  28.441  1.00  0.00    -0.237 OA
ATOM     70  O   UNL A   1      35.144  31.585  30.503  1.00  0.00    -0.744 OA
ENDBRANCH  64  67
ENDBRANCH  46  60
BRANCH  47  71
ATOM     71  C   UNL A   1      48.287  27.159  25.788  1.00  0.00     0.023 A 
ATOM     72  C   UNL A   1      49.368  26.679  26.554  1.00  0.00     0.012 A 
ATOM     73  C   UNL A   1      48.471  27.381  24.410  1.00  0.00     0.148 A 
ATOM     74  C   UNL A   1      50.617  26.467  25.970  1.00  0.00     0.002 A 
ATOM     75  C   UNL A   1      49.704  27.116  23.824  1.00  0.00     0.091 A 
ATOM     76  F   UNL A   1      47.439  27.854  23.696  1.00  0.00    -0.205 F 
ATOM     77  C   UNL A   1      50.784  26.677  24.605  1.00  0.00     0.022 A 
BRANCH  75  78
ATOM     78  S   UNL A   1      49.957  27.237  22.049  1.00  0.00     0.127 S 
ATOM     79  O   UNL A   1      48.927  26.339  21.536  1.00  0.00    -0.237 OA
ATOM     80  O   UNL A   1      49.716  28.659  21.797  1.00  0.00    -0.237 OA
ATOM     81  O   UNL A   1      51.338  26.823  21.832  1.00  0.00    -0.744 OA
ENDBRANCH  75  78
ENDBRANCH  47  71
BRANCH  59  82
ATOM     82  C   UNL A   1      45.546  32.796  28.863  1.00  0.00     0.023 A 
ATOM     83  C   UNL A   1      46.246  33.058  30.057  1.00  0.00     0.012 A 
ATOM     84  C   UNL A   1      45.438  33.805  27.885  1.00  0.00     0.148 A 
ATOM     85  C   UNL A   1      46.811  34.312  30.283  1.00  0.00     0.002 A 
ATOM     86  C   UNL A   1      46.043  35.038  28.098  1.00  0.00     0.091 A 
ATOM     87  F   UNL A   1      44.753  33.538  26.764  1.00  0.00    -0.205 F 
ATOM     88  C   UNL A   1      46.722  35.296  29.300  1.00  0.00     0.022 A 
BRANCH  86  89
ATOM     89  S   UNL A   1      46.060  36.330  26.852  1.00  0.00     0.127 S 
ATOM     90  O   UNL A   1      44.686  36.827  26.919  1.00  0.00    -0.237 OA
ATOM     91  O   UNL A   1      47.068  37.253  27.376  1.00  0.00    -0.237 OA
ATOM     92  O   UNL A   1      46.429  35.680  25.602  1.00  0.00    -0.744 OA
ENDBRANCH  86  89
ENDBRANCH  59  82
ENDBRANCH  33  34
ENDBRANCH  25  28
ENDBRANCH  23  24
ENDBRANCH  22  23
ENDBRANCH   1  22
TORSDOF 17
ENDMDL
