MODEL 1
REMARK VINA RESULT:     -12.6      0.000      0.000
REMARK SMILES COc1ccc(-c2noc(CC(=O)NCCCCNC(=O)c3ccc(-c4c5nc(c(-c6cccc(S(=O)(=O)[O-])c6F)c6ccc([nH]6)c(-c6cccc(S(=O)(=O)[O-])c6F)c6nc(c(-c7cccc(S(=O)(=O)[O-])c7F)c7ccc4[nH]7)C=C6)C=C5)cc3)c2-c2ccc(OC)cc2)cc1
REMARK SMILES IDX 16 1 15 2 14 3 12 4 13 5 11 7 10 8 7 9 8 10 85 11 9 12 6 13
REMARK SMILES IDX 3 14 4 15 95 16 5 17 94 18 2 19 1 20 86 21 87 22 93 23 88 24
REMARK SMILES IDX 92 25 89 26 90 27 91 28 17 29 18 30 19 31 20 32 21 34 22 35
REMARK SMILES IDX 23 36 84 37 24 38 83 39 25 40 26 41 27 42 77 43 28 44 82 45
REMARK SMILES IDX 76 46 78 47 29 48 81 49 75 50 74 51 30 53 62 54 42 55 61 56
REMARK SMILES IDX 43 57 46 58 60 59 79 60 44 61 45 62 59 64 80 65 47 66 31 67
REMARK SMILES IDX 32 68 40 69 33 70 35 71 41 72 34 73 36 74 37 75 38 76 39 77
REMARK SMILES IDX 63 78 64 79 72 80 65 81 67 82 73 83 66 84 68 85 69 86 70 87
REMARK SMILES IDX 71 88 48 89 49 90 57 91 50 92 52 93 58 94 51 95 53 96 54 97
REMARK SMILES IDX 55 98 56 99
REMARK H PARENT 14 6 19 33 78 52 46 63
REMARK Flexibility Score: inf
ROOT
ATOM      1  C   UNL A   1      34.066  20.996  24.992  1.00  0.00     0.023 C 
ENDROOT
BRANCH   1   2
ATOM      2  C   UNL A   1      32.637  21.412  24.641  1.00  0.00     0.116 C 
BRANCH   2   3
ATOM      3  N   UNL A   1      31.877  21.741  25.830  1.00  0.00    -0.356 N 
ATOM      4  C   UNL A   1      31.830  22.921  26.516  1.00  0.00     0.227 C 
ATOM      5  O   UNL A   1      31.160  22.972  27.549  1.00  0.00    -0.275 OA
ATOM      6  H   UNL A   1      31.321  21.014  26.193  1.00  0.00     0.163 HD
BRANCH   4   7
ATOM      7  C   UNL A   1      32.491  24.164  25.953  1.00  0.00     0.179 C 
BRANCH   7   8
ATOM      8  C   UNL A   1      31.587  24.950  25.080  1.00  0.00     0.154 A 
ATOM      9  C   UNL A   1      30.311  26.343  23.915  1.00  0.00     0.122 A 
ATOM     10  N   UNL A   1      29.885  25.106  23.623  1.00  0.00    -0.079 NA
ATOM     11  C   UNL A   1      31.404  26.296  24.832  1.00  0.00     0.053 A 
ATOM     12  O   UNL A   1      30.694  24.241  24.336  1.00  0.00    -0.360 OA
BRANCH   9  13
ATOM     13  C   UNL A   1      29.692  27.528  23.338  1.00  0.00     0.005 A 
ATOM     14  C   UNL A   1      28.438  29.721  22.118  1.00  0.00     0.118 A 
ATOM     15  C   UNL A   1      29.806  29.503  21.942  1.00  0.00     0.047 A 
ATOM     16  C   UNL A   1      27.690  28.832  22.887  1.00  0.00     0.047 A 
ATOM     17  C   UNL A   1      30.438  28.420  22.561  1.00  0.00     0.014 A 
ATOM     18  C   UNL A   1      28.316  27.743  23.500  1.00  0.00     0.014 A 
BRANCH  14  19
ATOM     19  O   UNL A   1      27.916  30.798  21.455  1.00  0.00    -0.497 OA
ATOM     20  C   UNL A   1      28.309  32.064  21.974  1.00  0.00     0.278 C 
ENDBRANCH  14  19
ENDBRANCH   9  13
BRANCH  11  21
ATOM     21  C   UNL A   1      32.127  27.375  25.480  1.00  0.00    -0.012 A 
ATOM     22  C   UNL A   1      33.343  27.820  24.947  1.00  0.00     0.013 A 
ATOM     23  C   UNL A   1      31.641  27.966  26.650  1.00  0.00     0.013 A 
ATOM     24  C   UNL A   1      34.057  28.841  25.576  1.00  0.00     0.047 A 
ATOM     25  C   UNL A   1      32.361  28.990  27.278  1.00  0.00     0.047 A 
ATOM     26  C   UNL A   1      33.574  29.428  26.746  1.00  0.00     0.118 A 
BRANCH  26  27
ATOM     27  O   UNL A   1      34.378  30.402  27.267  1.00  0.00    -0.497 OA
ATOM     28  C   UNL A   1      35.419  29.981  28.137  1.00  0.00     0.278 C 
ENDBRANCH  26  27
ENDBRANCH  11  21
ENDBRANCH   7   8
ENDBRANCH   4   7
ENDBRANCH   2   3
ENDBRANCH   1   2
BRANCH   1  29
ATOM     29  C   UNL A   1      35.120  22.066  24.702  1.00  0.00     0.023 C 
BRANCH  29  30
ATOM     30  C   UNL A   1      36.209  22.189  25.759  1.00  0.00     0.116 C 
BRANCH  30  31
ATOM     31  N   UNL A   1      37.164  21.093  25.723  1.00  0.00    -0.352 N 
ATOM     32  C   UNL A   1      38.523  21.143  25.916  1.00  0.00     0.251 C 
ATOM     33  H   UNL A   1      36.789  20.202  25.536  1.00  0.00     0.163 HD
ATOM     34  O   UNL A   1      39.209  20.143  25.718  1.00  0.00    -0.269 OA
BRANCH  32  35
ATOM     35  C   UNL A   1      39.152  22.413  26.336  1.00  0.00     0.039 A 
ATOM     36  C   UNL A   1      40.229  22.374  27.226  1.00  0.00     0.014 A 
ATOM     37  C   UNL A   1      38.690  23.636  25.843  1.00  0.00     0.014 A 
ATOM     38  C   UNL A   1      40.863  23.562  27.593  1.00  0.00     0.010 A 
ATOM     39  C   UNL A   1      39.379  24.806  26.140  1.00  0.00     0.010 A 
ATOM     40  C   UNL A   1      40.454  24.788  27.039  1.00  0.00    -0.014 A 
BRANCH  40  41
ATOM     41  C   UNL A   1      41.111  26.062  27.423  1.00  0.00     0.031 A 
ATOM     42  C   UNL A   1      42.529  26.336  26.991  1.00  0.00     0.074 A 
ATOM     43  C   UNL A   1      40.463  26.945  28.209  1.00  0.00     0.049 A 
ATOM     44  N   UNL A   1      43.284  27.373  27.246  1.00  0.00    -0.248 NA
ATOM     45  C   UNL A   1      43.199  25.293  26.196  1.00  0.00     0.031 C 
ATOM     46  C   UNL A   1      39.120  26.760  28.762  1.00  0.00     0.029 A 
ATOM     47  N   UNL A   1      40.856  28.165  28.695  1.00  0.00    -0.354 N 
ATOM     48  C   UNL A   1      44.520  27.092  26.678  1.00  0.00     0.074 A 
ATOM     49  C   UNL A   1      44.432  25.768  26.106  1.00  0.00     0.031 C 
ATOM     50  C   UNL A   1      38.796  27.833  29.501  1.00  0.00     0.029 A 
ATOM     51  C   UNL A   1      39.915  28.770  29.496  1.00  0.00     0.049 A 
ATOM     52  H   UNL A   1      41.730  28.570  28.492  1.00  0.00     0.167 HD
ATOM     53  C   UNL A   1      45.622  27.877  26.605  1.00  0.00     0.034 A 
ATOM     54  C   UNL A   1      39.952  29.948  30.150  1.00  0.00     0.034 A 
ATOM     55  C   UNL A   1      45.692  29.211  27.134  1.00  0.00     0.049 A 
ATOM     56  C   UNL A   1      41.165  30.827  30.004  1.00  0.00     0.074 A 
ATOM     57  C   UNL A   1      46.731  30.120  27.044  1.00  0.00     0.029 A 
ATOM     58  N   UNL A   1      44.682  29.829  27.856  1.00  0.00    -0.354 N 
ATOM     59  N   UNL A   1      42.271  30.606  29.334  1.00  0.00    -0.248 NA
ATOM     60  C   UNL A   1      41.117  32.138  30.667  1.00  0.00     0.031 C 
ATOM     61  C   UNL A   1      46.358  31.280  27.732  1.00  0.00     0.029 A 
ATOM     62  C   UNL A   1      45.071  31.106  28.217  1.00  0.00     0.049 A 
ATOM     63  H   UNL A   1      43.815  29.419  28.078  1.00  0.00     0.167 HD
ATOM     64  C   UNL A   1      43.027  31.766  29.451  1.00  0.00     0.074 A 
ATOM     65  C   UNL A   1      42.245  32.693  30.245  1.00  0.00     0.031 C 
ATOM     66  C   UNL A   1      44.259  32.039  28.955  1.00  0.00     0.034 A 
BRANCH  53  67
ATOM     67  C   UNL A   1      46.825  27.326  25.882  1.00  0.00     0.023 A 
ATOM     68  C   UNL A   1      47.677  26.413  26.538  1.00  0.00     0.012 A 
ATOM     69  C   UNL A   1      47.088  27.673  24.543  1.00  0.00     0.148 A 
ATOM     70  C   UNL A   1      48.795  25.889  25.889  1.00  0.00     0.002 A 
ATOM     71  C   UNL A   1      48.175  27.107  23.886  1.00  0.00     0.091 A 
ATOM     72  F   UNL A   1      46.281  28.558  23.941  1.00  0.00    -0.205 F 
ATOM     73  C   UNL A   1      49.036  26.228  24.561  1.00  0.00     0.022 A 
BRANCH  71  74
ATOM     74  S   UNL A   1      48.525  27.412  22.151  1.00  0.00     0.127 S 
ATOM     75  O   UNL A   1      49.760  28.189  22.231  1.00  0.00    -0.237 OA
ATOM     76  O   UNL A   1      48.691  26.055  21.629  1.00  0.00    -0.237 OA
ATOM     77  O   UNL A   1      47.370  28.127  21.627  1.00  0.00    -0.744 OA
ENDBRANCH  71  74
ENDBRANCH  53  67
BRANCH  54  78
ATOM     78  C   UNL A   1      38.770  30.403  30.936  1.00  0.00     0.023 A 
ATOM     79  C   UNL A   1      38.547  29.874  32.222  1.00  0.00     0.012 A 
ATOM     80  C   UNL A   1      37.876  31.364  30.424  1.00  0.00     0.148 A 
ATOM     81  C   UNL A   1      37.432  30.261  32.968  1.00  0.00     0.002 A 
ATOM     82  C   UNL A   1      36.800  31.787  31.195  1.00  0.00     0.091 A 
ATOM     83  F   UNL A   1      38.103  31.850  29.195  1.00  0.00    -0.205 F 
ATOM     84  C   UNL A   1      36.564  31.223  32.458  1.00  0.00     0.022 A 
BRANCH  82  85
ATOM     85  S   UNL A   1      35.702  33.109  30.674  1.00  0.00     0.127 S 
ATOM     86  O   UNL A   1      35.718  33.988  31.841  1.00  0.00    -0.237 OA
ATOM     87  O   UNL A   1      36.400  33.632  29.499  1.00  0.00    -0.237 OA
ATOM     88  O   UNL A   1      34.427  32.470  30.380  1.00  0.00    -0.744 OA
ENDBRANCH  82  85
ENDBRANCH  54  78
BRANCH  66  89
ATOM     89  C   UNL A   1      44.819  33.417  29.193  1.00  0.00     0.023 A 
ATOM     90  C   UNL A   1      45.631  33.672  30.314  1.00  0.00     0.012 A 
ATOM     91  C   UNL A   1      44.581  34.450  28.263  1.00  0.00     0.148 A 
ATOM     92  C   UNL A   1      46.162  34.944  30.531  1.00  0.00     0.002 A 
ATOM     93  C   UNL A   1      45.158  35.698  28.456  1.00  0.00     0.091 A 
ATOM     94  F   UNL A   1      43.790  34.196  27.211  1.00  0.00    -0.205 F 
ATOM     95  C   UNL A   1      45.936  35.953  29.598  1.00  0.00     0.022 A 
BRANCH  93  96
ATOM     96  S   UNL A   1      45.003  37.021  27.251  1.00  0.00     0.127 S 
ATOM     97  O   UNL A   1      45.635  38.138  27.950  1.00  0.00    -0.237 OA
ATOM     98  O   UNL A   1      45.768  36.501  26.116  1.00  0.00    -0.237 OA
ATOM     99  O   UNL A   1      43.576  37.165  26.998  1.00  0.00    -0.744 OA
ENDBRANCH  93  96
ENDBRANCH  66  89
ENDBRANCH  40  41
ENDBRANCH  32  35
ENDBRANCH  30  31
ENDBRANCH  29  30
ENDBRANCH   1  29
TORSDOF 19
ENDMDL
MODEL 2
REMARK VINA RESULT:     -12.5      5.013     10.410
REMARK SMILES COc1ccc(-c2noc(CC(=O)NCCCCNC(=O)c3ccc(-c4c5nc(c(-c6cccc(S(=O)(=O)[O-])c6F)c6ccc([nH]6)c(-c6cccc(S(=O)(=O)[O-])c6F)c6nc(c(-c7cccc(S(=O)(=O)[O-])c7F)c7ccc4[nH]7)C=C6)C=C5)cc3)c2-c2ccc(OC)cc2)cc1
REMARK SMILES IDX 16 1 15 2 14 3 12 4 13 5 11 7 10 8 7 9 8 10 85 11 9 12 6 13
REMARK SMILES IDX 3 14 4 15 95 16 5 17 94 18 2 19 1 20 86 21 87 22 93 23 88 24
REMARK SMILES IDX 92 25 89 26 90 27 91 28 17 29 18 30 19 31 20 32 21 34 22 35
REMARK SMILES IDX 23 36 84 37 24 38 83 39 25 40 26 41 27 42 77 43 28 44 82 45
REMARK SMILES IDX 76 46 78 47 29 48 81 49 75 50 74 51 30 53 62 54 42 55 61 56
REMARK SMILES IDX 43 57 46 58 60 59 79 60 44 61 45 62 59 64 80 65 47 66 31 67
REMARK SMILES IDX 32 68 40 69 33 70 35 71 41 72 34 73 36 74 37 75 38 76 39 77
REMARK SMILES IDX 63 78 64 79 72 80 65 81 67 82 73 83 66 84 68 85 69 86 70 87
REMARK SMILES IDX 71 88 48 89 49 90 57 91 50 92 52 93 58 94 51 95 53 96 54 97
REMARK SMILES IDX 55 98 56 99
REMARK H PARENT 14 6 19 33 78 52 46 63
REMARK Flexibility Score: inf
ROOT
ATOM      1  C   UNL A   1      31.576  28.116  24.382  1.00  0.00     0.023 C 
ENDROOT
BRANCH   1   2
ATOM      2  C   UNL A   1      32.308  28.889  23.285  1.00  0.00     0.116 C 
BRANCH   2   3
ATOM      3  N   UNL A   1      32.631  28.033  22.162  1.00  0.00    -0.356 N 
ATOM      4  C   UNL A   1      33.280  26.831  22.162  1.00  0.00     0.227 C 
ATOM      5  O   UNL A   1      33.510  26.289  21.080  1.00  0.00    -0.275 OA
ATOM      6  H   UNL A   1      32.345  28.362  21.280  1.00  0.00     0.163 HD
BRANCH   4   7
ATOM      7  C   UNL A   1      33.601  26.131  23.469  1.00  0.00     0.179 C 
BRANCH   7   8
ATOM      8  C   UNL A   1      33.041  24.760  23.540  1.00  0.00     0.154 A 
ATOM      9  C   UNL A   1      32.456  22.625  23.686  1.00  0.00     0.122 A 
ATOM     10  N   UNL A   1      31.403  23.271  23.165  1.00  0.00    -0.079 NA
ATOM     11  C   UNL A   1      33.522  23.535  23.954  1.00  0.00     0.053 A 
ATOM     12  O   UNL A   1      31.765  24.603  23.092  1.00  0.00    -0.360 OA
BRANCH   9  13
ATOM     13  C   UNL A   1      32.441  21.187  23.917  1.00  0.00     0.005 A 
ATOM     14  C   UNL A   1      32.565  18.422  24.369  1.00  0.00     0.118 A 
ATOM     15  C   UNL A   1      32.334  18.916  23.084  1.00  0.00     0.047 A 
ATOM     16  C   UNL A   1      32.753  19.309  25.427  1.00  0.00     0.047 A 
ATOM     17  C   UNL A   1      32.257  20.294  22.857  1.00  0.00     0.014 A 
ATOM     18  C   UNL A   1      32.686  20.686  25.203  1.00  0.00     0.014 A 
BRANCH  14  19
ATOM     19  O   UNL A   1      32.641  17.060  24.480  1.00  0.00    -0.497 OA
ATOM     20  C   UNL A   1      33.781  16.475  23.860  1.00  0.00     0.278 C 
ENDBRANCH  14  19
ENDBRANCH   9  13
BRANCH  11  21
ATOM     21  C   UNL A   1      34.866  23.282  24.442  1.00  0.00    -0.012 A 
ATOM     22  C   UNL A   1      35.230  23.694  25.730  1.00  0.00     0.013 A 
ATOM     23  C   UNL A   1      35.818  22.652  23.635  1.00  0.00     0.013 A 
ATOM     24  C   UNL A   1      36.527  23.475  26.199  1.00  0.00     0.047 A 
ATOM     25  C   UNL A   1      37.118  22.435  24.110  1.00  0.00     0.047 A 
ATOM     26  C   UNL A   1      37.477  22.850  25.392  1.00  0.00     0.118 A 
BRANCH  26  27
ATOM     27  O   UNL A   1      38.710  22.714  25.967  1.00  0.00    -0.497 OA
ATOM     28  C   UNL A   1      39.138  23.760  26.828  1.00  0.00     0.278 C 
ENDBRANCH  26  27
ENDBRANCH  11  21
ENDBRANCH   7   8
ENDBRANCH   4   7
ENDBRANCH   2   3
ENDBRANCH   1   2
BRANCH   1  29
ATOM     29  C   UNL A   1      31.789  28.672  25.790  1.00  0.00     0.023 C 
BRANCH  29  30
ATOM     30  C   UNL A   1      33.023  29.552  25.946  1.00  0.00     0.116 C 
BRANCH  30  31
ATOM     31  N   UNL A   1      32.700  30.932  26.275  1.00  0.00    -0.352 N 
ATOM     32  C   UNL A   1      33.328  31.761  27.172  1.00  0.00     0.251 C 
ATOM     33  H   UNL A   1      31.934  31.320  25.794  1.00  0.00     0.163 HD
ATOM     34  O   UNL A   1      32.847  32.861  27.434  1.00  0.00    -0.269 OA
BRANCH  32  35
ATOM     35  C   UNL A   1      34.569  31.308  27.837  1.00  0.00     0.039 A 
ATOM     36  C   UNL A   1      35.643  32.194  27.944  1.00  0.00     0.014 A 
ATOM     37  C   UNL A   1      34.665  30.017  28.364  1.00  0.00     0.014 A 
ATOM     38  C   UNL A   1      36.802  31.795  28.612  1.00  0.00     0.010 A 
ATOM     39  C   UNL A   1      35.784  29.655  29.106  1.00  0.00     0.010 A 
ATOM     40  C   UNL A   1      36.875  30.527  29.215  1.00  0.00    -0.014 A 
BRANCH  40  41
ATOM     41  C   UNL A   1      38.102  30.082  29.922  1.00  0.00     0.031 A 
ATOM     42  C   UNL A   1      38.386  30.577  31.317  1.00  0.00     0.074 A 
ATOM     43  C   UNL A   1      38.991  29.287  29.295  1.00  0.00     0.049 A 
ATOM     44  N   UNL A   1      39.410  30.326  32.090  1.00  0.00    -0.248 NA
ATOM     45  C   UNL A   1      37.404  31.502  31.911  1.00  0.00     0.031 C 
ATOM     46  C   UNL A   1      38.875  28.807  27.916  1.00  0.00     0.029 A 
ATOM     47  N   UNL A   1      40.181  28.759  29.729  1.00  0.00    -0.354 N 
ATOM     48  C   UNL A   1      39.216  31.087  33.237  1.00  0.00     0.074 A 
ATOM     49  C   UNL A   1      38.002  31.845  33.042  1.00  0.00     0.031 C 
ATOM     50  C   UNL A   1      39.942  28.046  27.623  1.00  0.00     0.029 A 
ATOM     51  C   UNL A   1      40.829  28.004  28.781  1.00  0.00     0.049 A 
ATOM     52  H   UNL A   1      40.537  28.908  30.635  1.00  0.00     0.167 HD
ATOM     53  C   UNL A   1      39.961  31.127  34.368  1.00  0.00     0.034 A 
ATOM     54  C   UNL A   1      42.007  27.351  28.840  1.00  0.00     0.034 A 
ATOM     55  C   UNL A   1      41.143  30.337  34.577  1.00  0.00     0.049 A 
ATOM     56  C   UNL A   1      42.785  27.363  30.128  1.00  0.00     0.074 A 
ATOM     57  C   UNL A   1      41.925  30.242  35.714  1.00  0.00     0.029 A 
ATOM     58  N   UNL A   1      41.717  29.507  33.627  1.00  0.00    -0.354 N 
ATOM     59  N   UNL A   1      42.506  27.970  31.257  1.00  0.00    -0.248 NA
ATOM     60  C   UNL A   1      44.018  26.563  30.165  1.00  0.00     0.031 C 
ATOM     61  C   UNL A   1      42.987  29.371  35.443  1.00  0.00     0.029 A 
ATOM     62  C   UNL A   1      42.843  28.895  34.150  1.00  0.00     0.049 A 
ATOM     63  H   UNL A   1      41.375  29.372  32.714  1.00  0.00     0.167 HD
ATOM     64  C   UNL A   1      43.498  27.585  32.152  1.00  0.00     0.074 A 
ATOM     65  C   UNL A   1      44.376  26.680  31.437  1.00  0.00     0.031 C 
ATOM     66  C   UNL A   1      43.672  27.951  33.446  1.00  0.00     0.034 A 
BRANCH  53  67
ATOM     67  C   UNL A   1      39.486  32.020  35.486  1.00  0.00     0.023 A 
ATOM     68  C   UNL A   1      38.620  31.504  36.472  1.00  0.00     0.012 A 
ATOM     69  C   UNL A   1      39.930  33.352  35.588  1.00  0.00     0.148 A 
ATOM     70  C   UNL A   1      38.169  32.311  37.516  1.00  0.00     0.002 A 
ATOM     71  C   UNL A   1      39.517  34.136  36.660  1.00  0.00     0.091 A 
ATOM     72  F   UNL A   1      40.737  33.834  34.631  1.00  0.00    -0.205 F 
ATOM     73  C   UNL A   1      38.625  33.621  37.615  1.00  0.00     0.022 A 
BRANCH  71  74
ATOM     74  S   UNL A   1      40.114  35.809  36.925  1.00  0.00     0.127 S 
ATOM     75  O   UNL A   1      39.651  36.482  35.713  1.00  0.00    -0.237 OA
ATOM     76  O   UNL A   1      39.406  36.196  38.146  1.00  0.00    -0.237 OA
ATOM     77  O   UNL A   1      41.558  35.703  37.069  1.00  0.00    -0.744 OA
ENDBRANCH  71  74
ENDBRANCH  53  67
BRANCH  54  78
ATOM     78  C   UNL A   1      42.482  26.560  27.669  1.00  0.00     0.023 A 
ATOM     79  C   UNL A   1      43.035  27.229  26.559  1.00  0.00     0.012 A 
ATOM     80  C   UNL A   1      42.402  25.154  27.652  1.00  0.00     0.148 A 
ATOM     81  C   UNL A   1      43.462  26.516  25.437  1.00  0.00     0.002 A 
ATOM     82  C   UNL A   1      42.881  24.447  26.556  1.00  0.00     0.091 A 
ATOM     83  F   UNL A   1      41.866  24.538  28.716  1.00  0.00    -0.205 F 
ATOM     84  C   UNL A   1      43.392  25.126  25.439  1.00  0.00     0.022 A 
BRANCH  82  85
ATOM     85  S   UNL A   1      42.947  22.653  26.521  1.00  0.00     0.127 S 
ATOM     86  O   UNL A   1      42.273  22.352  25.260  1.00  0.00    -0.237 OA
ATOM     87  O   UNL A   1      44.390  22.406  26.524  1.00  0.00    -0.237 OA
ATOM     88  O   UNL A   1      42.260  22.210  27.727  1.00  0.00    -0.744 OA
ENDBRANCH  82  85
ENDBRANCH  54  78
BRANCH  66  89
ATOM     89  C   UNL A   1      44.815  27.326  34.201  1.00  0.00     0.023 A 
ATOM     90  C   UNL A   1      46.089  27.928  34.191  1.00  0.00     0.012 A 
ATOM     91  C   UNL A   1      44.606  26.165  34.973  1.00  0.00     0.148 A 
ATOM     92  C   UNL A   1      47.147  27.359  34.900  1.00  0.00     0.002 A 
ATOM     93  C   UNL A   1      45.650  25.636  35.720  1.00  0.00     0.091 A 
ATOM     94  F   UNL A   1      43.393  25.594  34.956  1.00  0.00    -0.205 F 
ATOM     95  C   UNL A   1      46.926  26.221  35.673  1.00  0.00     0.022 A 
BRANCH  93  96
ATOM     96  S   UNL A   1      45.425  24.236  36.822  1.00  0.00     0.127 S 
ATOM     97  O   UNL A   1      46.778  24.040  37.338  1.00  0.00    -0.237 OA
ATOM     98  O   UNL A   1      44.469  24.759  37.800  1.00  0.00    -0.237 OA
ATOM     99  O   UNL A   1      44.906  23.156  35.994  1.00  0.00    -0.744 OA
ENDBRANCH  93  96
ENDBRANCH  66  89
ENDBRANCH  40  41
ENDBRANCH  32  35
ENDBRANCH  30  31
ENDBRANCH  29  30
ENDBRANCH   1  29
TORSDOF 19
ENDMDL
MODEL 3
REMARK VINA RESULT:     -12.3      2.509      3.155
REMARK SMILES COc1ccc(-c2noc(CC(=O)NCCCCNC(=O)c3ccc(-c4c5nc(c(-c6cccc(S(=O)(=O)[O-])c6F)c6ccc([nH]6)c(-c6cccc(S(=O)(=O)[O-])c6F)c6nc(c(-c7cccc(S(=O)(=O)[O-])c7F)c7ccc4[nH]7)C=C6)C=C5)cc3)c2-c2ccc(OC)cc2)cc1
REMARK SMILES IDX 16 1 15 2 14 3 12 4 13 5 11 7 10 8 7 9 8 10 85 11 9 12 6 13
REMARK SMILES IDX 3 14 4 15 95 16 5 17 94 18 2 19 1 20 86 21 87 22 93 23 88 24
REMARK SMILES IDX 92 25 89 26 90 27 91 28 17 29 18 30 19 31 20 32 21 34 22 35
REMARK SMILES IDX 23 36 84 37 24 38 83 39 25 40 26 41 27 42 77 43 28 44 82 45
REMARK SMILES IDX 76 46 78 47 29 48 81 49 75 50 74 51 30 53 62 54 42 55 61 56
REMARK SMILES IDX 43 57 46 58 60 59 79 60 44 61 45 62 59 64 80 65 47 66 31 67
REMARK SMILES IDX 32 68 40 69 33 70 35 71 41 72 34 73 36 74 37 75 38 76 39 77
REMARK SMILES IDX 63 78 64 79 72 80 65 81 67 82 73 83 66 84 68 85 69 86 70 87
REMARK SMILES IDX 71 88 48 89 49 90 57 91 50 92 52 93 58 94 51 95 53 96 54 97
REMARK SMILES IDX 55 98 56 99
REMARK H PARENT 14 6 19 33 78 52 46 63
REMARK Flexibility Score: inf
ROOT
ATOM      1  C   UNL A   1      34.817  22.986  27.146  1.00  0.00     0.023 C 
ENDROOT
BRANCH   1   2
ATOM      2  C   UNL A   1      33.834  21.889  27.557  1.00  0.00     0.116 C 
BRANCH   2   3
ATOM      3  N   UNL A   1      32.489  22.410  27.692  1.00  0.00    -0.356 N 
ATOM      4  C   UNL A   1      31.755  23.128  26.791  1.00  0.00     0.227 C 
ATOM      5  O   UNL A   1      30.642  23.532  27.132  1.00  0.00    -0.275 OA
ATOM      6  H   UNL A   1      32.045  22.223  28.551  1.00  0.00     0.163 HD
BRANCH   4   7
ATOM      7  C   UNL A   1      32.252  23.317  25.371  1.00  0.00     0.179 C 
BRANCH   7   8
ATOM      8  C   UNL A   1      31.418  24.263  24.592  1.00  0.00     0.154 A 
ATOM      9  C   UNL A   1      30.248  25.867  23.603  1.00  0.00     0.122 A 
ATOM     10  N   UNL A   1      29.801  24.708  23.099  1.00  0.00    -0.079 NA
ATOM     11  C   UNL A   1      31.289  25.637  24.551  1.00  0.00     0.053 A 
ATOM     12  O   UNL A   1      30.545  23.712  23.704  1.00  0.00    -0.360 OA
BRANCH   9  13
ATOM     13  C   UNL A   1      29.694  27.150  23.192  1.00  0.00     0.005 A 
ATOM     14  C   UNL A   1      28.696  29.685  22.522  1.00  0.00     0.118 A 
ATOM     15  C   UNL A   1      27.865  28.735  23.118  1.00  0.00     0.047 A 
ATOM     16  C   UNL A   1      30.033  29.377  22.277  1.00  0.00     0.047 A 
ATOM     17  C   UNL A   1      28.355  27.465  23.440  1.00  0.00     0.014 A 
ATOM     18  C   UNL A   1      30.529  28.112  22.606  1.00  0.00     0.014 A 
BRANCH  14  19
ATOM     19  O   UNL A   1      28.124  30.901  22.265  1.00  0.00    -0.497 OA
ATOM     20  C   UNL A   1      27.719  31.625  23.422  1.00  0.00     0.278 C 
ENDBRANCH  14  19
ENDBRANCH   9  13
BRANCH  11  21
ATOM     21  C   UNL A   1      32.009  26.573  25.395  1.00  0.00    -0.012 A 
ATOM     22  C   UNL A   1      31.348  27.210  26.453  1.00  0.00     0.013 A 
ATOM     23  C   UNL A   1      33.353  26.873  25.154  1.00  0.00     0.013 A 
ATOM     24  C   UNL A   1      32.026  28.130  27.255  1.00  0.00     0.047 A 
ATOM     25  C   UNL A   1      34.028  27.797  25.960  1.00  0.00     0.047 A 
ATOM     26  C   UNL A   1      33.366  28.432  27.011  1.00  0.00     0.118 A 
BRANCH  26  27
ATOM     27  O   UNL A   1      33.902  29.360  27.859  1.00  0.00    -0.497 OA
ATOM     28  C   UNL A   1      35.115  29.980  27.452  1.00  0.00     0.278 C 
ENDBRANCH  26  27
ENDBRANCH  11  21
ENDBRANCH   7   8
ENDBRANCH   4   7
ENDBRANCH   2   3
ENDBRANCH   1   2
BRANCH   1  29
ATOM     29  C   UNL A   1      35.800  22.570  26.052  1.00  0.00     0.023 C 
BRANCH  29  30
ATOM     30  C   UNL A   1      37.170  23.229  26.144  1.00  0.00     0.116 C 
BRANCH  30  31
ATOM     31  N   UNL A   1      38.263  22.269  26.161  1.00  0.00    -0.352 N 
ATOM     32  C   UNL A   1      39.590  22.497  26.432  1.00  0.00     0.251 C 
ATOM     33  H   UNL A   1      38.021  21.338  25.952  1.00  0.00     0.163 HD
ATOM     34  O   UNL A   1      40.414  21.598  26.272  1.00  0.00    -0.269 OA
BRANCH  32  35
ATOM     35  C   UNL A   1      40.020  23.835  26.889  1.00  0.00     0.039 A 
ATOM     36  C   UNL A   1      40.015  24.896  25.980  1.00  0.00     0.014 A 
ATOM     37  C   UNL A   1      40.415  24.045  28.213  1.00  0.00     0.014 A 
ATOM     38  C   UNL A   1      40.372  26.175  26.411  1.00  0.00     0.010 A 
ATOM     39  C   UNL A   1      40.682  25.334  28.659  1.00  0.00     0.010 A 
ATOM     40  C   UNL A   1      40.692  26.408  27.759  1.00  0.00    -0.014 A 
BRANCH  40  41
ATOM     41  C   UNL A   1      41.082  27.760  28.235  1.00  0.00     0.031 A 
ATOM     42  C   UNL A   1      42.533  28.166  28.232  1.00  0.00     0.074 A 
ATOM     43  C   UNL A   1      40.147  28.597  28.726  1.00  0.00     0.049 A 
ATOM     44  N   UNL A   1      43.077  29.287  28.630  1.00  0.00    -0.248 NA
ATOM     45  C   UNL A   1      43.506  27.170  27.749  1.00  0.00     0.031 C 
ATOM     46  C   UNL A   1      38.722  28.292  28.861  1.00  0.00     0.029 A 
ATOM     47  N   UNL A   1      40.262  29.870  29.223  1.00  0.00    -0.354 N 
ATOM     48  C   UNL A   1      44.449  29.117  28.481  1.00  0.00     0.074 A 
ATOM     49  C   UNL A   1      44.660  27.771  28.002  1.00  0.00     0.031 C 
ATOM     50  C   UNL A   1      38.093  29.352  29.392  1.00  0.00     0.029 A 
ATOM     51  C   UNL A   1      39.071  30.402  29.660  1.00  0.00     0.049 A 
ATOM     52  H   UNL A   1      41.116  30.358  29.264  1.00  0.00     0.167 HD
ATOM     53  C   UNL A   1      45.445  30.012  28.690  1.00  0.00     0.034 A 
ATOM     54  C   UNL A   1      38.799  31.601  30.211  1.00  0.00     0.034 A 
ATOM     55  C   UNL A   1      45.229  31.365  29.122  1.00  0.00     0.049 A 
ATOM     56  C   UNL A   1      39.915  32.598  30.377  1.00  0.00     0.074 A 
ATOM     57  C   UNL A   1      46.159  32.375  29.286  1.00  0.00     0.029 A 
ATOM     58  N   UNL A   1      43.995  31.899  29.461  1.00  0.00    -0.354 N 
ATOM     59  N   UNL A   1      41.187  32.470  30.088  1.00  0.00    -0.248 NA
ATOM     60  C   UNL A   1      39.548  33.921  30.903  1.00  0.00     0.031 C 
ATOM     61  C   UNL A   1      45.491  33.514  29.748  1.00  0.00     0.029 A 
ATOM     62  C   UNL A   1      44.138  33.224  29.835  1.00  0.00     0.049 A 
ATOM     63  H   UNL A   1      43.142  31.408  29.440  1.00  0.00     0.167 HD
ATOM     64  C   UNL A   1      41.763  33.708  30.347  1.00  0.00     0.074 A 
ATOM     65  C   UNL A   1      40.696  34.577  30.803  1.00  0.00     0.031 C 
ATOM     66  C   UNL A   1      43.059  34.092  30.227  1.00  0.00     0.034 A 
BRANCH  53  67
ATOM     67  C   UNL A   1      46.856  29.565  28.402  1.00  0.00     0.023 A 
ATOM     68  C   UNL A   1      47.402  29.761  27.116  1.00  0.00     0.012 A 
ATOM     69  C   UNL A   1      47.656  28.997  29.411  1.00  0.00     0.148 A 
ATOM     70  C   UNL A   1      48.705  29.357  26.827  1.00  0.00     0.002 A 
ATOM     71  C   UNL A   1      48.972  28.644  29.130  1.00  0.00     0.091 A 
ATOM     72  F   UNL A   1      47.115  28.799  30.622  1.00  0.00    -0.205 F 
ATOM     73  C   UNL A   1      49.492  28.810  27.836  1.00  0.00     0.022 A 
BRANCH  71  74
ATOM     74  S   UNL A   1      50.094  28.009  30.380  1.00  0.00     0.127 S 
ATOM     75  O   UNL A   1      51.241  27.607  29.569  1.00  0.00    -0.237 OA
ATOM     76  O   UNL A   1      50.321  29.189  31.215  1.00  0.00    -0.237 OA
ATOM     77  O   UNL A   1      49.386  26.924  31.043  1.00  0.00    -0.744 OA
ENDBRANCH  71  74
ENDBRANCH  53  67
BRANCH  54  78
ATOM     78  C   UNL A   1      37.397  31.958  30.571  1.00  0.00     0.023 A 
ATOM     79  C   UNL A   1      36.905  31.632  31.851  1.00  0.00     0.012 A 
ATOM     80  C   UNL A   1      36.555  32.627  29.663  1.00  0.00     0.148 A 
ATOM     81  C   UNL A   1      35.588  31.928  32.204  1.00  0.00     0.002 A 
ATOM     82  C   UNL A   1      35.262  32.970  30.041  1.00  0.00     0.091 A 
ATOM     83  F   UNL A   1      37.041  32.923  28.448  1.00  0.00    -0.205 F 
ATOM     84  C   UNL A   1      34.770  32.604  31.304  1.00  0.00     0.022 A 
BRANCH  82  85
ATOM     85  S   UNL A   1      34.180  33.950  28.996  1.00  0.00     0.127 S 
ATOM     86  O   UNL A   1      35.107  34.935  28.445  1.00  0.00    -0.237 OA
ATOM     87  O   UNL A   1      33.703  32.950  28.039  1.00  0.00    -0.237 OA
ATOM     88  O   UNL A   1      33.149  34.476  29.879  1.00  0.00    -0.744 OA
ENDBRANCH  82  85
ENDBRANCH  54  78
BRANCH  66  89
ATOM     89  C   UNL A   1      43.393  35.530  30.526  1.00  0.00     0.023 A 
ATOM     90  C   UNL A   1      43.825  35.908  31.813  1.00  0.00     0.012 A 
ATOM     91  C   UNL A   1      43.330  36.501  29.506  1.00  0.00     0.148 A 
ATOM     92  C   UNL A   1      44.148  37.236  32.090  1.00  0.00     0.002 A 
ATOM     93  C   UNL A   1      43.706  37.810  29.776  1.00  0.00     0.091 A 
ATOM     94  F   UNL A   1      42.898  36.129  28.293  1.00  0.00    -0.205 F 
ATOM     95  C   UNL A   1      44.099  38.184  31.071  1.00  0.00     0.022 A 
BRANCH  93  96
ATOM     96  S   UNL A   1      43.773  39.069  28.496  1.00  0.00     0.127 S 
ATOM     97  O   UNL A   1      42.380  39.120  28.054  1.00  0.00    -0.237 OA
ATOM     98  O   UNL A   1      44.219  40.248  29.241  1.00  0.00    -0.237 OA
ATOM     99  O   UNL A   1      44.728  38.585  27.509  1.00  0.00    -0.744 OA
ENDBRANCH  93  96
ENDBRANCH  66  89
ENDBRANCH  40  41
ENDBRANCH  32  35
ENDBRANCH  30  31
ENDBRANCH  29  30
ENDBRANCH   1  29
TORSDOF 19
ENDMDL
