MODEL 1
REMARK VINA RESULT:     -13.4      0.000      0.000
REMARK SMILES C[N@@H+]1CCN(C(=O)c2ccc3[nH]c4c(c3c2)CSCC4)C[C@H]1C(=O)NCCCCNC(=O)c1ccc(-c2c3nc(c(-c4cccc(S(=O)(=O)[O-])c4F)c4ccc([nH]4)c(-c4cccc(S(=O)(=O)[O-])c4F)c4nc(c(-c5cccc(S(=O)(=O)[O-])c5F)c5ccc2[nH]5)C=C4)C=C3)cc1
REMARK SMILES IDX 28 1 27 2 26 3 25 4 23 5 24 6 22 8 1 9 2 10 3 11 4 13 21 14
REMARK SMILES IDX 5 15 6 16 7 17 8 18 9 19 16 20 10 21 15 22 11 23 14 24 12 25
REMARK SMILES IDX 13 26 17 27 20 29 18 30 19 31 29 32 30 33 31 34 32 36 33 37
REMARK SMILES IDX 34 38 95 39 35 40 94 41 36 42 37 43 38 44 88 45 39 46 93 47
REMARK SMILES IDX 87 48 89 49 40 50 92 51 86 52 85 53 41 55 73 56 53 57 72 58
REMARK SMILES IDX 54 59 57 60 71 61 90 62 55 63 56 64 70 66 91 67 58 68 42 69
REMARK SMILES IDX 43 70 51 71 44 72 46 73 52 74 45 75 47 76 48 77 49 78 50 79
REMARK SMILES IDX 74 80 75 81 83 82 76 83 78 84 84 85 77 86 79 87 80 88 81 89
REMARK SMILES IDX 82 90 59 91 60 92 68 93 61 94 63 95 69 96 62 97 64 98 65 99
REMARK SMILES IDX 66 100 67 101
REMARK H PARENT 25 7 2 12 12 28 30 35 89 54 57 65
REMARK Flexibility Score: inf
ROOT
ATOM      1  C   UNL A   1      33.811  30.197  27.305  1.00  0.00     0.023 C 
ENDROOT
BRANCH   1   2
ATOM      2  C   UNL A   1      32.341  29.832  27.088  1.00  0.00     0.023 C 
BRANCH   2   3
ATOM      3  C   UNL A   1      31.764  30.264  25.748  1.00  0.00     0.116 C 
BRANCH   3   4
ATOM      4  N   UNL A   1      32.560  29.799  24.625  1.00  0.00    -0.351 N 
ATOM      5  C   UNL A   1      32.507  28.608  23.962  1.00  0.00     0.280 C 
ATOM      6  O   UNL A   1      33.271  28.439  23.006  1.00  0.00    -0.268 OA
ATOM      7  H   UNL A   1      33.235  30.436  24.293  1.00  0.00     0.163 HD
BRANCH   5   8
ATOM      8  C   UNL A   1      31.487  27.525  24.343  1.00  0.00     0.293 C 
ATOM      9  C   UNL A   1      29.781  28.327  22.783  1.00  0.00     0.333 C 
ATOM     10  N   UNL A   1      30.577  27.175  23.212  1.00  0.00    -0.324 N 
ATOM     11  C   UNL A   1      29.688  26.065  23.620  1.00  0.00     0.284 C 
ATOM     12  H   UNL A   1      31.149  26.884  22.420  1.00  0.00     0.348 HD
ATOM     13  C   UNL A   1      30.462  24.836  24.135  1.00  0.00     0.181 C 
ATOM     14  C   UNL A   1      32.269  26.318  24.904  1.00  0.00     0.195 C 
ATOM     15  N   UNL A   1      31.395  25.179  25.210  1.00  0.00    -0.326 N 
BRANCH  15  16
ATOM     16  C   UNL A   1      31.602  24.264  26.236  1.00  0.00     0.254 C 
ATOM     17  O   UNL A   1      30.902  24.198  27.244  1.00  0.00    -0.269 OA
BRANCH  16  18
ATOM     18  C   UNL A   1      32.704  23.285  26.105  1.00  0.00     0.040 A 
ATOM     19  C   UNL A   1      33.962  23.548  26.652  1.00  0.00     0.016 A 
ATOM     20  C   UNL A   1      32.441  22.082  25.433  1.00  0.00     0.024 A 
ATOM     21  C   UNL A   1      35.018  22.652  26.473  1.00  0.00     0.027 A 
ATOM     22  C   UNL A   1      33.486  21.152  25.268  1.00  0.00     0.004 A 
ATOM     23  C   UNL A   1      34.748  21.467  25.776  1.00  0.00     0.046 A 
ATOM     24  C   UNL A   1      33.574  19.855  24.674  1.00  0.00    -0.009 A 
ATOM     25  N   UNL A   1      35.585  20.420  25.463  1.00  0.00    -0.358 N 
ATOM     26  C   UNL A   1      34.877  19.427  24.846  1.00  0.00     0.021 A 
ATOM     27  C   UNL A   1      32.464  19.073  24.047  1.00  0.00     0.107 C 
ATOM     28  H   UNL A   1      36.550  20.391  25.657  1.00  0.00     0.166 HD
ATOM     29  C   UNL A   1      35.458  18.116  24.447  1.00  0.00     0.065 C 
ATOM     30  S   UNL A   1      33.010  17.513  23.254  1.00  0.00    -0.157 SA
ATOM     31  C   UNL A   1      34.364  17.046  24.395  1.00  0.00     0.076 C 
ENDBRANCH  16  18
ENDBRANCH  15  16
ENDBRANCH   5   8
ENDBRANCH   3   4
ENDBRANCH   2   3
ENDBRANCH   1   2
BRANCH   1  32
ATOM     32  C   UNL A   1      34.076  31.665  27.647  1.00  0.00     0.116 C 
BRANCH  32  33
ATOM     33  N   UNL A   1      34.213  31.946  29.060  1.00  0.00    -0.352 N 
ATOM     34  C   UNL A   1      35.247  31.862  29.952  1.00  0.00     0.251 C 
ATOM     35  H   UNL A   1      33.378  32.268  29.470  1.00  0.00     0.163 HD
ATOM     36  O   UNL A   1      35.069  32.425  31.035  1.00  0.00    -0.269 OA
BRANCH  34  37
ATOM     37  C   UNL A   1      36.494  31.080  29.738  1.00  0.00     0.039 A 
ATOM     38  C   UNL A   1      36.561  29.695  29.595  1.00  0.00     0.014 A 
ATOM     39  C   UNL A   1      37.695  31.814  29.772  1.00  0.00     0.014 A 
ATOM     40  C   UNL A   1      37.788  29.047  29.627  1.00  0.00     0.010 A 
ATOM     41  C   UNL A   1      38.928  31.174  29.777  1.00  0.00     0.010 A 
ATOM     42  C   UNL A   1      38.967  29.785  29.758  1.00  0.00    -0.014 A 
BRANCH  42  43
ATOM     43  C   UNL A   1      40.225  29.053  29.704  1.00  0.00     0.031 A 
ATOM     44  C   UNL A   1      40.864  28.874  31.036  1.00  0.00     0.074 A 
ATOM     45  C   UNL A   1      40.739  28.523  28.576  1.00  0.00     0.049 A 
ATOM     46  N   UNL A   1      41.980  29.383  31.446  1.00  0.00    -0.248 NA
ATOM     47  C   UNL A   1      40.094  28.189  32.086  1.00  0.00     0.031 C 
ATOM     48  C   UNL A   1      40.108  28.424  27.260  1.00  0.00     0.029 A 
ATOM     49  N   UNL A   1      41.908  27.843  28.405  1.00  0.00    -0.354 N 
ATOM     50  C   UNL A   1      42.164  28.887  32.734  1.00  0.00     0.074 A 
ATOM     51  C   UNL A   1      40.906  28.315  33.137  1.00  0.00     0.031 C 
ATOM     52  C   UNL A   1      40.780  27.519  26.512  1.00  0.00     0.029 A 
ATOM     53  C   UNL A   1      41.949  27.068  27.246  1.00  0.00     0.049 A 
ATOM     54  H   UNL A   1      42.657  27.894  29.042  1.00  0.00     0.167 HD
ATOM     55  C   UNL A   1      43.406  28.769  33.277  1.00  0.00     0.034 A 
ATOM     56  C   UNL A   1      42.836  26.076  26.968  1.00  0.00     0.034 A 
ATOM     57  C   UNL A   1      44.372  29.570  32.576  1.00  0.00     0.049 A 
ATOM     58  C   UNL A   1      44.032  26.335  27.805  1.00  0.00     0.074 A 
ATOM     59  C   UNL A   1      44.496  30.915  32.292  1.00  0.00     0.029 A 
ATOM     60  N   UNL A   1      45.217  28.918  31.711  1.00  0.00    -0.354 N 
ATOM     61  N   UNL A   1      44.814  27.367  27.644  1.00  0.00    -0.248 NA
ATOM     62  C   UNL A   1      44.116  25.674  29.098  1.00  0.00     0.031 C 
ATOM     63  C   UNL A   1      45.015  30.959  30.968  1.00  0.00     0.029 A 
ATOM     64  C   UNL A   1      45.242  29.645  30.553  1.00  0.00     0.049 A 
ATOM     65  H   UNL A   1      45.711  28.085  31.891  1.00  0.00     0.167 HD
ATOM     66  C   UNL A   1      45.128  27.756  28.938  1.00  0.00     0.074 A 
ATOM     67  C   UNL A   1      44.755  26.624  29.784  1.00  0.00     0.031 C 
ATOM     68  C   UNL A   1      45.380  29.062  29.238  1.00  0.00     0.034 A 
BRANCH  55  69
ATOM     69  C   UNL A   1      43.829  27.654  34.200  1.00  0.00     0.023 A 
ATOM     70  C   UNL A   1      44.534  28.005  35.372  1.00  0.00     0.012 A 
ATOM     71  C   UNL A   1      43.828  26.288  33.833  1.00  0.00     0.148 A 
ATOM     72  C   UNL A   1      45.238  27.052  36.115  1.00  0.00     0.002 A 
ATOM     73  C   UNL A   1      44.469  25.334  34.613  1.00  0.00     0.091 A 
ATOM     74  F   UNL A   1      43.324  25.915  32.653  1.00  0.00    -0.205 F 
ATOM     75  C   UNL A   1      45.199  25.714  35.740  1.00  0.00     0.022 A 
BRANCH  73  76
ATOM     76  S   UNL A   1      44.428  23.591  34.180  1.00  0.00     0.127 S 
ATOM     77  O   UNL A   1      45.302  23.019  35.208  1.00  0.00    -0.237 OA
ATOM     78  O   UNL A   1      43.005  23.280  34.339  1.00  0.00    -0.237 OA
ATOM     79  O   UNL A   1      44.910  23.512  32.815  1.00  0.00    -0.744 OA
ENDBRANCH  73  76
ENDBRANCH  55  69
BRANCH  56  80
ATOM     80  C   UNL A   1      42.646  24.779  26.256  1.00  0.00     0.023 A 
ATOM     81  C   UNL A   1      43.630  24.348  25.338  1.00  0.00     0.012 A 
ATOM     82  C   UNL A   1      41.682  23.833  26.665  1.00  0.00     0.148 A 
ATOM     83  C   UNL A   1      43.690  23.017  24.900  1.00  0.00     0.002 A 
ATOM     84  C   UNL A   1      41.735  22.514  26.215  1.00  0.00     0.091 A 
ATOM     85  F   UNL A   1      40.765  24.184  27.574  1.00  0.00    -0.205 F 
ATOM     86  C   UNL A   1      42.749  22.097  25.347  1.00  0.00     0.022 A 
BRANCH  84  87
ATOM     87  S   UNL A   1      40.544  21.282  26.764  1.00  0.00     0.127 S 
ATOM     88  O   UNL A   1      41.014  20.074  26.082  1.00  0.00    -0.237 OA
ATOM     89  O   UNL A   1      40.746  21.288  28.209  1.00  0.00    -0.237 OA
ATOM     90  O   UNL A   1      39.246  21.757  26.299  1.00  0.00    -0.744 OA
ENDBRANCH  84  87
ENDBRANCH  56  80
BRANCH  68  91
ATOM     91  C   UNL A   1      45.542  30.050  28.114  1.00  0.00     0.023 A 
ATOM     92  C   UNL A   1      44.434  30.692  27.522  1.00  0.00     0.012 A 
ATOM     93  C   UNL A   1      46.835  30.537  27.861  1.00  0.00     0.148 A 
ATOM     94  C   UNL A   1      44.615  31.814  26.707  1.00  0.00     0.002 A 
ATOM     95  C   UNL A   1      47.007  31.677  27.090  1.00  0.00     0.091 A 
ATOM     96  F   UNL A   1      47.867  29.914  28.449  1.00  0.00    -0.205 F 
ATOM     97  C   UNL A   1      45.899  32.319  26.509  1.00  0.00     0.022 A 
BRANCH  95  98
ATOM     98  S   UNL A   1      48.609  32.460  26.906  1.00  0.00     0.127 S 
ATOM     99  O   UNL A   1      49.453  31.337  26.501  1.00  0.00    -0.237 OA
ATOM    100  O   UNL A   1      48.351  33.443  25.853  1.00  0.00    -0.237 OA
ATOM    101  O   UNL A   1      48.935  33.039  28.204  1.00  0.00    -0.744 OA
ENDBRANCH  95  98
ENDBRANCH  68  91
ENDBRANCH  42  43
ENDBRANCH  34  37
ENDBRANCH  32  33
ENDBRANCH   1  32
TORSDOF 16
ENDMDL
MODEL 2
REMARK VINA RESULT:     -13.0      1.205      1.550
REMARK SMILES C[N@@H+]1CCN(C(=O)c2ccc3[nH]c4c(c3c2)CSCC4)C[C@H]1C(=O)NCCCCNC(=O)c1ccc(-c2c3nc(c(-c4cccc(S(=O)(=O)[O-])c4F)c4ccc([nH]4)c(-c4cccc(S(=O)(=O)[O-])c4F)c4nc(c(-c5cccc(S(=O)(=O)[O-])c5F)c5ccc2[nH]5)C=C4)C=C3)cc1
REMARK SMILES IDX 28 1 27 2 26 3 25 4 23 5 24 6 22 8 1 9 2 10 3 11 4 13 21 14
REMARK SMILES IDX 5 15 6 16 7 17 8 18 9 19 16 20 10 21 15 22 11 23 14 24 12 25
REMARK SMILES IDX 13 26 17 27 20 29 18 30 19 31 29 32 30 33 31 34 32 36 33 37
REMARK SMILES IDX 34 38 95 39 35 40 94 41 36 42 37 43 38 44 88 45 39 46 93 47
REMARK SMILES IDX 87 48 89 49 40 50 92 51 86 52 85 53 41 55 73 56 53 57 72 58
REMARK SMILES IDX 54 59 57 60 71 61 90 62 55 63 56 64 70 66 91 67 58 68 42 69
REMARK SMILES IDX 43 70 51 71 44 72 46 73 52 74 45 75 47 76 48 77 49 78 50 79
REMARK SMILES IDX 74 80 75 81 83 82 76 83 78 84 84 85 77 86 79 87 80 88 81 89
REMARK SMILES IDX 82 90 59 91 60 92 68 93 61 94 63 95 69 96 62 97 64 98 65 99
REMARK SMILES IDX 66 100 67 101
REMARK H PARENT 25 7 2 12 12 28 30 35 89 54 57 65
REMARK Flexibility Score: inf
ROOT
ATOM      1  C   UNL A   1      34.056  30.355  27.118  1.00  0.00     0.023 C 
ENDROOT
BRANCH   1   2
ATOM      2  C   UNL A   1      32.526  30.385  27.147  1.00  0.00     0.023 C 
BRANCH   2   3
ATOM      3  C   UNL A   1      31.858  30.344  25.779  1.00  0.00     0.116 C 
BRANCH   3   4
ATOM      4  N   UNL A   1      32.755  29.877  24.736  1.00  0.00    -0.351 N 
ATOM      5  C   UNL A   1      32.760  28.686  24.070  1.00  0.00     0.280 C 
ATOM      6  O   UNL A   1      33.611  28.515  23.191  1.00  0.00    -0.268 OA
ATOM      7  H   UNL A   1      33.461  30.511  24.472  1.00  0.00     0.163 HD
BRANCH   5   8
ATOM      8  C   UNL A   1      31.705  27.607  24.351  1.00  0.00     0.293 C 
ATOM      9  C   UNL A   1      30.126  28.462  22.688  1.00  0.00     0.333 C 
ATOM     10  N   UNL A   1      30.877  27.291  23.149  1.00  0.00    -0.324 N 
ATOM     11  C   UNL A   1      29.950  26.183  23.466  1.00  0.00     0.284 C 
ATOM     12  H   UNL A   1      31.503  27.011  22.395  1.00  0.00     0.348 HD
ATOM     13  C   UNL A   1      30.671  24.935  24.010  1.00  0.00     0.181 C 
ATOM     14  C   UNL A   1      32.431  26.380  24.942  1.00  0.00     0.195 C 
ATOM     15  N   UNL A   1      31.526  25.245  25.157  1.00  0.00    -0.326 N 
BRANCH  15  16
ATOM     16  C   UNL A   1      31.648  24.306  26.176  1.00  0.00     0.254 C 
ATOM     17  O   UNL A   1      30.913  24.267  27.160  1.00  0.00    -0.269 OA
BRANCH  16  18
ATOM     18  C   UNL A   1      32.696  23.267  26.064  1.00  0.00     0.040 A 
ATOM     19  C   UNL A   1      33.934  23.432  26.690  1.00  0.00     0.016 A 
ATOM     20  C   UNL A   1      32.401  22.109  25.330  1.00  0.00     0.024 A 
ATOM     21  C   UNL A   1      34.944  22.480  26.531  1.00  0.00     0.027 A 
ATOM     22  C   UNL A   1      33.397  21.124  25.183  1.00  0.00     0.004 A 
ATOM     23  C   UNL A   1      34.645  21.342  25.773  1.00  0.00     0.046 A 
ATOM     24  C   UNL A   1      33.442  19.847  24.542  1.00  0.00    -0.009 A 
ATOM     25  N   UNL A   1      35.435  20.258  25.462  1.00  0.00    -0.358 N 
ATOM     26  C   UNL A   1      34.706  19.335  24.767  1.00  0.00     0.021 A 
ATOM     27  C   UNL A   1      32.326  19.159  23.823  1.00  0.00     0.107 C 
ATOM     28  H   UNL A   1      36.384  20.162  25.707  1.00  0.00     0.166 HD
ATOM     29  C   UNL A   1      35.230  18.007  24.346  1.00  0.00     0.065 C 
ATOM     30  S   UNL A   1      32.823  17.600  22.997  1.00  0.00    -0.157 SA
ATOM     31  C   UNL A   1      34.079  17.008  24.190  1.00  0.00     0.076 C 
ENDBRANCH  16  18
ENDBRANCH  15  16
ENDBRANCH   5   8
ENDBRANCH   3   4
ENDBRANCH   2   3
ENDBRANCH   1   2
BRANCH   1  32
ATOM     32  C   UNL A   1      34.745  31.590  27.699  1.00  0.00     0.116 C 
BRANCH  32  33
ATOM     33  N   UNL A   1      34.430  31.868  29.084  1.00  0.00    -0.352 N 
ATOM     34  C   UNL A   1      35.150  31.848  30.248  1.00  0.00     0.251 C 
ATOM     35  H   UNL A   1      33.489  32.127  29.220  1.00  0.00     0.163 HD
ATOM     36  O   UNL A   1      34.615  32.387  31.220  1.00  0.00    -0.269 OA
BRANCH  34  37
ATOM     37  C   UNL A   1      36.455  31.157  30.429  1.00  0.00     0.039 A 
ATOM     38  C   UNL A   1      37.701  31.781  30.449  1.00  0.00     0.014 A 
ATOM     39  C   UNL A   1      36.403  29.751  30.499  1.00  0.00     0.014 A 
ATOM     40  C   UNL A   1      38.864  31.025  30.397  1.00  0.00     0.010 A 
ATOM     41  C   UNL A   1      37.563  28.988  30.475  1.00  0.00     0.010 A 
ATOM     42  C   UNL A   1      38.791  29.630  30.370  1.00  0.00    -0.014 A 
BRANCH  42  43
ATOM     43  C   UNL A   1      40.047  28.893  30.398  1.00  0.00     0.031 A 
ATOM     44  C   UNL A   1      40.705  28.895  31.732  1.00  0.00     0.074 A 
ATOM     45  C   UNL A   1      40.543  28.212  29.346  1.00  0.00     0.049 A 
ATOM     46  N   UNL A   1      41.827  29.452  32.054  1.00  0.00    -0.248 NA
ATOM     47  C   UNL A   1      39.949  28.363  32.878  1.00  0.00     0.031 C 
ATOM     48  C   UNL A   1      39.893  27.936  28.065  1.00  0.00     0.029 A 
ATOM     49  N   UNL A   1      41.709  27.511  29.253  1.00  0.00    -0.354 N 
ATOM     50  C   UNL A   1      42.030  29.135  33.395  1.00  0.00     0.074 A 
ATOM     51  C   UNL A   1      40.777  28.629  33.890  1.00  0.00     0.031 C 
ATOM     52  C   UNL A   1      40.553  26.936  27.438  1.00  0.00     0.029 A 
ATOM     53  C   UNL A   1      41.732  26.585  28.210  1.00  0.00     0.049 A 
ATOM     54  H   UNL A   1      42.467  27.647  29.866  1.00  0.00     0.167 HD
ATOM     55  C   UNL A   1      43.279  29.089  33.931  1.00  0.00     0.034 A 
ATOM     56  C   UNL A   1      42.613  25.562  28.057  1.00  0.00     0.034 A 
ATOM     57  C   UNL A   1      44.236  29.783  33.114  1.00  0.00     0.049 A 
ATOM     58  C   UNL A   1      43.823  25.928  28.834  1.00  0.00     0.074 A 
ATOM     59  C   UNL A   1      44.358  31.077  32.647  1.00  0.00     0.029 A 
ATOM     60  N   UNL A   1      45.067  29.016  32.333  1.00  0.00    -0.354 N 
ATOM     61  N   UNL A   1      44.603  26.926  28.523  1.00  0.00    -0.248 NA
ATOM     62  C   UNL A   1      43.924  25.450  30.204  1.00  0.00     0.031 C 
ATOM     63  C   UNL A   1      44.857  30.937  31.322  1.00  0.00     0.029 A 
ATOM     64  C   UNL A   1      45.076  29.579  31.087  1.00  0.00     0.049 A 
ATOM     65  H   UNL A   1      45.562  28.215  32.618  1.00  0.00     0.167 HD
ATOM     66  C   UNL A   1      44.936  27.487  29.747  1.00  0.00     0.074 A 
ATOM     67  C   UNL A   1      44.574  26.482  30.745  1.00  0.00     0.031 C 
ATOM     68  C   UNL A   1      45.195  28.821  29.863  1.00  0.00     0.034 A 
BRANCH  55  69
ATOM     69  C   UNL A   1      43.714  28.109  34.991  1.00  0.00     0.023 A 
ATOM     70  C   UNL A   1      44.440  28.614  36.092  1.00  0.00     0.012 A 
ATOM     71  C   UNL A   1      43.702  26.706  34.816  1.00  0.00     0.148 A 
ATOM     72  C   UNL A   1      45.153  27.767  36.948  1.00  0.00     0.002 A 
ATOM     73  C   UNL A   1      44.352  25.864  35.709  1.00  0.00     0.091 A 
ATOM     74  F   UNL A   1      43.177  26.176  33.707  1.00  0.00    -0.205 F 
ATOM     75  C   UNL A   1      45.103  26.391  36.761  1.00  0.00     0.022 A 
BRANCH  73  76
ATOM     76  S   UNL A   1      44.299  24.078  35.521  1.00  0.00     0.127 S 
ATOM     77  O   UNL A   1      44.993  23.640  36.734  1.00  0.00    -0.237 OA
ATOM     78  O   UNL A   1      42.855  23.826  35.512  1.00  0.00    -0.237 OA
ATOM     79  O   UNL A   1      44.965  23.793  34.265  1.00  0.00    -0.744 OA
ENDBRANCH  73  76
ENDBRANCH  55  69
BRANCH  56  80
ATOM     80  C   UNL A   1      42.412  24.181  27.532  1.00  0.00     0.023 A 
ATOM     81  C   UNL A   1      41.124  23.600  27.600  1.00  0.00     0.012 A 
ATOM     82  C   UNL A   1      43.370  23.540  26.717  1.00  0.00     0.148 A 
ATOM     83  C   UNL A   1      40.789  22.472  26.837  1.00  0.00     0.002 A 
ATOM     84  C   UNL A   1      43.037  22.409  25.973  1.00  0.00     0.091 A 
ATOM     85  F   UNL A   1      44.584  24.086  26.583  1.00  0.00    -0.205 F 
ATOM     86  C   UNL A   1      41.742  21.882  26.015  1.00  0.00     0.022 A 
BRANCH  84  87
ATOM     87  S   UNL A   1      44.230  21.608  24.890  1.00  0.00     0.127 S 
ATOM     88  O   UNL A   1      45.471  21.720  25.661  1.00  0.00    -0.237 OA
ATOM     89  O   UNL A   1      43.691  20.255  24.792  1.00  0.00    -0.237 OA
ATOM     90  O   UNL A   1      44.226  22.388  23.658  1.00  0.00    -0.744 OA
ENDBRANCH  84  87
ENDBRANCH  56  80
BRANCH  68  91
ATOM     91  C   UNL A   1      45.342  29.646  28.612  1.00  0.00     0.023 A 
ATOM     92  C   UNL A   1      44.223  30.163  27.926  1.00  0.00     0.012 A 
ATOM     93  C   UNL A   1      46.622  30.132  28.304  1.00  0.00     0.148 A 
ATOM     94  C   UNL A   1      44.381  31.164  26.962  1.00  0.00     0.002 A 
ATOM     95  C   UNL A   1      46.770  31.158  27.381  1.00  0.00     0.091 A 
ATOM     96  F   UNL A   1      47.665  29.631  28.983  1.00  0.00    -0.205 F 
ATOM     97  C   UNL A   1      45.652  31.676  26.707  1.00  0.00     0.022 A 
BRANCH  95  98
ATOM     98  S   UNL A   1      48.351  31.957  27.102  1.00  0.00     0.127 S 
ATOM     99  O   UNL A   1      48.682  32.455  28.436  1.00  0.00    -0.237 OA
ATOM    100  O   UNL A   1      49.180  30.843  26.641  1.00  0.00    -0.237 OA
ATOM    101  O   UNL A   1      48.118  32.989  26.099  1.00  0.00    -0.744 OA
ENDBRANCH  95  98
ENDBRANCH  68  91
ENDBRANCH  42  43
ENDBRANCH  34  37
ENDBRANCH  32  33
ENDBRANCH   1  32
TORSDOF 16
ENDMDL
MODEL 3
REMARK VINA RESULT:     -12.8      3.292      7.174
REMARK SMILES C[N@@H+]1CCN(C(=O)c2ccc3[nH]c4c(c3c2)CSCC4)C[C@H]1C(=O)NCCCCNC(=O)c1ccc(-c2c3nc(c(-c4cccc(S(=O)(=O)[O-])c4F)c4ccc([nH]4)c(-c4cccc(S(=O)(=O)[O-])c4F)c4nc(c(-c5cccc(S(=O)(=O)[O-])c5F)c5ccc2[nH]5)C=C4)C=C3)cc1
REMARK SMILES IDX 28 1 27 2 26 3 25 4 23 5 24 6 22 8 1 9 2 10 3 11 4 13 21 14
REMARK SMILES IDX 5 15 6 16 7 17 8 18 9 19 16 20 10 21 15 22 11 23 14 24 12 25
REMARK SMILES IDX 13 26 17 27 20 29 18 30 19 31 29 32 30 33 31 34 32 36 33 37
REMARK SMILES IDX 34 38 95 39 35 40 94 41 36 42 37 43 38 44 88 45 39 46 93 47
REMARK SMILES IDX 87 48 89 49 40 50 92 51 86 52 85 53 41 55 73 56 53 57 72 58
REMARK SMILES IDX 54 59 57 60 71 61 90 62 55 63 56 64 70 66 91 67 58 68 42 69
REMARK SMILES IDX 43 70 51 71 44 72 46 73 52 74 45 75 47 76 48 77 49 78 50 79
REMARK SMILES IDX 74 80 75 81 83 82 76 83 78 84 84 85 77 86 79 87 80 88 81 89
REMARK SMILES IDX 82 90 59 91 60 92 68 93 61 94 63 95 69 96 62 97 64 98 65 99
REMARK SMILES IDX 66 100 67 101
REMARK H PARENT 25 7 2 12 12 28 30 35 89 54 57 65
REMARK Flexibility Score: inf
ROOT
ATOM      1  C   UNL A   1      31.084  32.054  26.783  1.00  0.00     0.023 C 
ENDROOT
BRANCH   1   2
ATOM      2  C   UNL A   1      31.421  30.915  25.819  1.00  0.00     0.023 C 
BRANCH   2   3
ATOM      3  C   UNL A   1      32.639  30.087  26.206  1.00  0.00     0.116 C 
BRANCH   3   4
ATOM      4  N   UNL A   1      33.408  29.657  25.050  1.00  0.00    -0.351 N 
ATOM      5  C   UNL A   1      33.236  28.561  24.256  1.00  0.00     0.280 C 
ATOM      6  O   UNL A   1      34.004  28.409  23.300  1.00  0.00    -0.268 OA
ATOM      7  H   UNL A   1      34.162  30.242  24.804  1.00  0.00     0.163 HD
BRANCH   5   8
ATOM      8  C   UNL A   1      32.087  27.573  24.495  1.00  0.00     0.293 C 
ATOM      9  C   UNL A   1      30.594  28.635  22.874  1.00  0.00     0.333 C 
ATOM     10  N   UNL A   1      31.234  27.383  23.284  1.00  0.00    -0.324 N 
ATOM     11  C   UNL A   1      30.210  26.352  23.557  1.00  0.00     0.284 C 
ATOM     12  H   UNL A   1      31.833  27.078  22.517  1.00  0.00     0.348 HD
ATOM     13  C   UNL A   1      30.814  25.021  24.047  1.00  0.00     0.181 C 
ATOM     14  C   UNL A   1      32.698  26.261  25.033  1.00  0.00     0.195 C 
ATOM     15  N   UNL A   1      31.692  25.205  25.204  1.00  0.00    -0.326 N 
BRANCH  15  16
ATOM     16  C   UNL A   1      31.727  24.217  26.183  1.00  0.00     0.254 C 
ATOM     17  O   UNL A   1      30.943  24.164  27.127  1.00  0.00    -0.269 OA
BRANCH  16  18
ATOM     18  C   UNL A   1      32.740  23.144  26.074  1.00  0.00     0.040 A 
ATOM     19  C   UNL A   1      33.963  23.246  26.740  1.00  0.00     0.016 A 
ATOM     20  C   UNL A   1      32.425  22.017  25.300  1.00  0.00     0.024 A 
ATOM     21  C   UNL A   1      34.942  22.262  26.586  1.00  0.00     0.027 A 
ATOM     22  C   UNL A   1      33.389  20.999  25.157  1.00  0.00     0.004 A 
ATOM     23  C   UNL A   1      34.625  21.155  25.788  1.00  0.00     0.046 A 
ATOM     24  C   UNL A   1      33.407  19.739  24.483  1.00  0.00    -0.009 A 
ATOM     25  N   UNL A   1      35.384  20.051  25.472  1.00  0.00    -0.358 N 
ATOM     26  C   UNL A   1      34.644  19.174  24.731  1.00  0.00     0.021 A 
ATOM     27  C   UNL A   1      32.288  19.112  23.713  1.00  0.00     0.107 C 
ATOM     28  H   UNL A   1      36.321  19.914  25.742  1.00  0.00     0.166 HD
ATOM     29  C   UNL A   1      35.132  17.838  24.290  1.00  0.00     0.065 C 
ATOM     30  S   UNL A   1      32.754  17.556  22.860  1.00  0.00    -0.157 SA
ATOM     31  C   UNL A   1      33.951  16.888  24.073  1.00  0.00     0.076 C 
ENDBRANCH  16  18
ENDBRANCH  15  16
ENDBRANCH   5   8
ENDBRANCH   3   4
ENDBRANCH   2   3
ENDBRANCH   1   2
BRANCH   1  32
ATOM     32  C   UNL A   1      31.948  33.308  26.642  1.00  0.00     0.116 C 
BRANCH  32  33
ATOM     33  N   UNL A   1      31.991  34.154  27.815  1.00  0.00    -0.352 N 
ATOM     34  C   UNL A   1      32.967  34.489  28.713  1.00  0.00     0.251 C 
ATOM     35  H   UNL A   1      31.126  34.582  28.011  1.00  0.00     0.163 HD
ATOM     36  O   UNL A   1      32.711  35.441  29.454  1.00  0.00    -0.269 OA
BRANCH  34  37
ATOM     37  C   UNL A   1      34.237  33.740  28.908  1.00  0.00     0.039 A 
ATOM     38  C   UNL A   1      34.571  33.001  30.042  1.00  0.00     0.014 A 
ATOM     39  C   UNL A   1      35.196  33.875  27.885  1.00  0.00     0.014 A 
ATOM     40  C   UNL A   1      35.865  32.531  30.215  1.00  0.00     0.010 A 
ATOM     41  C   UNL A   1      36.486  33.384  28.040  1.00  0.00     0.010 A 
ATOM     42  C   UNL A   1      36.831  32.759  29.231  1.00  0.00    -0.014 A 
BRANCH  42  43
ATOM     43  C   UNL A   1      38.147  32.170  29.436  1.00  0.00     0.031 A 
ATOM     44  C   UNL A   1      38.243  30.758  28.977  1.00  0.00     0.074 A 
ATOM     45  C   UNL A   1      39.206  32.846  29.926  1.00  0.00     0.049 A 
ATOM     46  N   UNL A   1      38.425  29.706  29.707  1.00  0.00    -0.248 NA
ATOM     47  C   UNL A   1      37.932  30.465  27.569  1.00  0.00     0.031 C 
ATOM     48  C   UNL A   1      39.312  34.280  30.193  1.00  0.00     0.029 A 
ATOM     49  N   UNL A   1      40.468  32.395  30.178  1.00  0.00    -0.354 N 
ATOM     50  C   UNL A   1      38.486  28.639  28.814  1.00  0.00     0.074 A 
ATOM     51  C   UNL A   1      38.002  29.133  27.552  1.00  0.00     0.031 C 
ATOM     52  C   UNL A   1      40.617  34.612  30.322  1.00  0.00     0.029 A 
ATOM     53  C   UNL A   1      41.423  33.407  30.267  1.00  0.00     0.049 A 
ATOM     54  H   UNL A   1      40.684  31.441  30.287  1.00  0.00     0.167 HD
ATOM     55  C   UNL A   1      39.157  27.496  29.121  1.00  0.00     0.034 A 
ATOM     56  C   UNL A   1      42.772  33.250  30.212  1.00  0.00     0.034 A 
ATOM     57  C   UNL A   1      39.392  27.378  30.533  1.00  0.00     0.049 A 
ATOM     58  C   UNL A   1      43.050  31.846  30.599  1.00  0.00     0.074 A 
ATOM     59  C   UNL A   1      38.585  27.343  31.653  1.00  0.00     0.029 A 
ATOM     60  N   UNL A   1      40.656  27.668  30.985  1.00  0.00    -0.354 N 
ATOM     61  N   UNL A   1      42.831  31.372  31.794  1.00  0.00    -0.248 NA
ATOM     62  C   UNL A   1      43.166  30.857  29.538  1.00  0.00     0.031 C 
ATOM     63  C   UNL A   1      39.293  28.092  32.633  1.00  0.00     0.029 A 
ATOM     64  C   UNL A   1      40.515  28.476  32.079  1.00  0.00     0.049 A 
ATOM     65  H   UNL A   1      41.504  27.353  30.594  1.00  0.00     0.167 HD
ATOM     66  C   UNL A   1      42.329  30.099  31.565  1.00  0.00     0.074 A 
ATOM     67  C   UNL A   1      42.650  29.801  30.171  1.00  0.00     0.031 C 
ATOM     68  C   UNL A   1      41.442  29.528  32.428  1.00  0.00     0.034 A 
BRANCH  55  69
ATOM     69  C   UNL A   1      39.928  26.669  28.123  1.00  0.00     0.023 A 
ATOM     70  C   UNL A   1      39.797  25.265  28.195  1.00  0.00     0.012 A 
ATOM     71  C   UNL A   1      40.981  27.178  27.328  1.00  0.00     0.148 A 
ATOM     72  C   UNL A   1      40.695  24.412  27.545  1.00  0.00     0.002 A 
ATOM     73  C   UNL A   1      41.827  26.328  26.627  1.00  0.00     0.091 A 
ATOM     74  F   UNL A   1      41.262  28.484  27.350  1.00  0.00    -0.205 F 
ATOM     75  C   UNL A   1      41.706  24.944  26.754  1.00  0.00     0.022 A 
BRANCH  73  76
ATOM     76  S   UNL A   1      43.135  26.969  25.575  1.00  0.00     0.127 S 
ATOM     77  O   UNL A   1      43.656  25.737  24.979  1.00  0.00    -0.237 OA
ATOM     78  O   UNL A   1      42.381  27.827  24.656  1.00  0.00    -0.237 OA
ATOM     79  O   UNL A   1      44.037  27.684  26.457  1.00  0.00    -0.744 OA
ENDBRANCH  73  76
ENDBRANCH  55  69
BRANCH  56  80
ATOM     80  C   UNL A   1      43.823  34.113  29.598  1.00  0.00     0.023 A 
ATOM     81  C   UNL A   1      44.643  34.902  30.436  1.00  0.00     0.012 A 
ATOM     82  C   UNL A   1      44.225  33.963  28.253  1.00  0.00     0.148 A 
ATOM     83  C   UNL A   1      45.844  35.459  29.973  1.00  0.00     0.002 A 
ATOM     84  C   UNL A   1      45.411  34.533  27.791  1.00  0.00     0.091 A 
ATOM     85  F   UNL A   1      43.507  33.181  27.439  1.00  0.00    -0.205 F 
ATOM     86  C   UNL A   1      46.233  35.266  28.653  1.00  0.00     0.022 A 
BRANCH  84  87
ATOM     87  S   UNL A   1      45.965  34.311  26.094  1.00  0.00     0.127 S 
ATOM     88  O   UNL A   1      46.274  32.880  26.054  1.00  0.00    -0.237 OA
ATOM     89  O   UNL A   1      44.782  34.704  25.335  1.00  0.00    -0.237 OA
ATOM     90  O   UNL A   1      47.132  35.173  25.947  1.00  0.00    -0.744 OA
ENDBRANCH  84  87
ENDBRANCH  56  80
BRANCH  68  91
ATOM     91  C   UNL A   1      41.185  30.192  33.755  1.00  0.00     0.023 A 
ATOM     92  C   UNL A   1      42.057  30.025  34.852  1.00  0.00     0.012 A 
ATOM     93  C   UNL A   1      40.219  31.210  33.793  1.00  0.00     0.148 A 
ATOM     94  C   UNL A   1      41.976  30.876  35.959  1.00  0.00     0.002 A 
ATOM     95  C   UNL A   1      40.173  32.081  34.872  1.00  0.00     0.091 A 
ATOM     96  F   UNL A   1      39.414  31.353  32.730  1.00  0.00    -0.205 F 
ATOM     97  C   UNL A   1      41.048  31.917  35.959  1.00  0.00     0.022 A 
BRANCH  95  98
ATOM     98  S   UNL A   1      39.103  33.520  34.880  1.00  0.00     0.127 S 
ATOM     99  O   UNL A   1      39.713  34.360  33.851  1.00  0.00    -0.237 OA
ATOM    100  O   UNL A   1      37.809  32.942  34.512  1.00  0.00    -0.237 OA
ATOM    101  O   UNL A   1      39.157  34.064  36.232  1.00  0.00    -0.744 OA
ENDBRANCH  95  98
ENDBRANCH  68  91
ENDBRANCH  42  43
ENDBRANCH  34  37
ENDBRANCH  32  33
ENDBRANCH   1  32
TORSDOF 16
ENDMDL
