MODEL 1
REMARK VINA RESULT:     -11.6      0.000      0.000
REMARK SMILES O=C(NCCCCNC(=O)c1cc2n[nH]cc2cc1[N+](=O)[O-])c1ccc(-c2c3nc(c(-c4cccc(S(=O)(=O)[O-])c4F)c4ccc([nH]4)c(-c4cccc(S(=O)(=O)[O-])c4F)c4nc(c(-c5cccc(S(=O)(=O)[O-])c5F)c5ccc2[nH]5)C=C4)C=C3)cc1
REMARK SMILES IDX 4 1 3 2 1 3 2 4 23 6 24 7 85 8 25 9 84 10 26 11 27 12 28 13
REMARK SMILES IDX 78 14 29 15 83 16 77 17 79 18 30 19 82 20 76 21 75 22 31 24
REMARK SMILES IDX 63 25 43 26 62 27 44 28 47 29 61 30 80 31 45 32 46 33 60 35
REMARK SMILES IDX 81 36 48 37 32 38 33 39 41 40 34 41 36 42 42 43 35 44 37 45
REMARK SMILES IDX 38 46 39 47 40 48 64 49 65 50 73 51 66 52 68 53 74 54 67 55
REMARK SMILES IDX 69 56 70 57 71 58 72 59 49 60 50 61 58 62 51 63 53 64 59 65
REMARK SMILES IDX 52 66 54 67 55 68 56 69 57 70 5 71 6 72 7 73 8 74 9 75 10 77
REMARK SMILES IDX 11 78 12 79 19 80 13 81 18 82 14 83 17 84 15 85 16 86 20 88
REMARK SMILES IDX 21 89 22 90
REMARK H PARENT 3 5 79 23 47 34 8 76 15 87
REMARK Flexibility Score: inf
ROOT
ATOM      1  C   UNL A   1      32.983  29.140  25.540  1.00  0.00     0.116 C 
ENDROOT
BRANCH   1   2
ATOM      2  N   UNL A   1      32.546  30.455  25.981  1.00  0.00    -0.352 N 
ATOM      3  O   UNL A   1      32.516  32.315  27.251  1.00  0.00    -0.269 OA
ATOM      4  C   UNL A   1      33.108  31.293  26.918  1.00  0.00     0.251 C 
ATOM      5  H   UNL A   1      31.731  30.796  25.548  1.00  0.00     0.163 HD
BRANCH   4   6
ATOM      6  C   UNL A   1      34.403  30.940  27.545  1.00  0.00     0.039 A 
ATOM      7  C   UNL A   1      34.647  29.642  27.997  1.00  0.00     0.014 A 
ATOM      8  C   UNL A   1      35.382  31.927  27.695  1.00  0.00     0.014 A 
ATOM      9  C   UNL A   1      35.791  29.374  28.742  1.00  0.00     0.010 A 
ATOM     10  C   UNL A   1      36.571  31.633  28.369  1.00  0.00     0.010 A 
ATOM     11  C   UNL A   1      36.769  30.365  28.936  1.00  0.00    -0.014 A 
BRANCH  11  12
ATOM     12  C   UNL A   1      38.004  30.024  29.691  1.00  0.00     0.031 A 
ATOM     13  C   UNL A   1      38.244  30.540  31.084  1.00  0.00     0.074 A 
ATOM     14  C   UNL A   1      38.903  29.203  29.114  1.00  0.00     0.049 A 
ATOM     15  N   UNL A   1      39.233  30.273  31.899  1.00  0.00    -0.248 NA
ATOM     16  C   UNL A   1      37.257  31.483  31.636  1.00  0.00     0.031 C 
ATOM     17  C   UNL A   1      38.809  28.683  27.748  1.00  0.00     0.029 A 
ATOM     18  N   UNL A   1      40.062  28.653  29.600  1.00  0.00    -0.354 N 
ATOM     19  C   UNL A   1      39.007  31.029  33.043  1.00  0.00     0.074 A 
ATOM     20  C   UNL A   1      37.791  31.782  32.813  1.00  0.00     0.031 C 
ATOM     21  C   UNL A   1      39.843  27.862  27.517  1.00  0.00     0.029 A 
ATOM     22  C   UNL A   1      40.695  27.827  28.700  1.00  0.00     0.049 A 
ATOM     23  H   UNL A   1      40.409  28.834  30.503  1.00  0.00     0.167 HD
ATOM     24  C   UNL A   1      39.729  31.073  34.189  1.00  0.00     0.034 A 
ATOM     25  C   UNL A   1      41.833  27.114  28.813  1.00  0.00     0.034 A 
ATOM     26  C   UNL A   1      40.916  30.294  34.430  1.00  0.00     0.049 A 
ATOM     27  C   UNL A   1      42.580  27.139  30.115  1.00  0.00     0.074 A 
ATOM     28  C   UNL A   1      41.698  30.247  35.571  1.00  0.00     0.029 A 
ATOM     29  N   UNL A   1      41.488  29.419  33.519  1.00  0.00    -0.354 N 
ATOM     30  N   UNL A   1      42.281  27.770  31.224  1.00  0.00    -0.248 NA
ATOM     31  C   UNL A   1      43.804  26.330  30.193  1.00  0.00     0.031 C 
ATOM     32  C   UNL A   1      42.743  29.342  35.350  1.00  0.00     0.029 A 
ATOM     33  C   UNL A   1      42.609  28.823  34.073  1.00  0.00     0.049 A 
ATOM     34  H   UNL A   1      41.148  29.246  32.611  1.00  0.00     0.167 HD
ATOM     35  C   UNL A   1      43.272  27.428  32.135  1.00  0.00     0.074 A 
ATOM     36  C   UNL A   1      44.157  26.501  31.460  1.00  0.00     0.031 C 
ATOM     37  C   UNL A   1      43.451  27.864  33.405  1.00  0.00     0.034 A 
BRANCH  24  38
ATOM     38  C   UNL A   1      39.222  31.947  35.307  1.00  0.00     0.023 A 
ATOM     39  C   UNL A   1      38.273  31.424  36.207  1.00  0.00     0.012 A 
ATOM     40  C   UNL A   1      39.735  33.243  35.517  1.00  0.00     0.148 A 
ATOM     41  C   UNL A   1      37.827  32.181  37.290  1.00  0.00     0.002 A 
ATOM     42  C   UNL A   1      39.308  33.980  36.618  1.00  0.00     0.091 A 
ATOM     43  F   UNL A   1      40.620  33.732  34.638  1.00  0.00    -0.205 F 
ATOM     44  C   UNL A   1      38.351  33.453  37.501  1.00  0.00     0.022 A 
BRANCH  42  45
ATOM     45  S   UNL A   1      39.976  35.602  37.013  1.00  0.00     0.127 S 
ATOM     46  O   UNL A   1      39.273  35.915  38.257  1.00  0.00    -0.237 OA
ATOM     47  O   UNL A   1      41.403  35.321  37.175  1.00  0.00    -0.237 OA
ATOM     48  O   UNL A   1      39.653  36.453  35.876  1.00  0.00    -0.744 OA
ENDBRANCH  42  45
ENDBRANCH  24  38
BRANCH  25  49
ATOM     49  C   UNL A   1      42.285  26.270  27.674  1.00  0.00     0.023 A 
ATOM     50  C   UNL A   1      43.232  26.779  26.765  1.00  0.00     0.012 A 
ATOM     51  C   UNL A   1      41.834  24.944  27.522  1.00  0.00     0.148 A 
ATOM     52  C   UNL A   1      43.706  25.990  25.717  1.00  0.00     0.002 A 
ATOM     53  C   UNL A   1      42.356  24.144  26.513  1.00  0.00     0.091 A 
ATOM     54  F   UNL A   1      40.914  24.479  28.380  1.00  0.00    -0.205 F 
ATOM     55  C   UNL A   1      43.281  24.669  25.598  1.00  0.00     0.022 A 
BRANCH  53  56
ATOM     56  S   UNL A   1      41.963  22.394  26.417  1.00  0.00     0.127 S 
ATOM     57  O   UNL A   1      40.511  22.417  26.271  1.00  0.00    -0.237 OA
ATOM     58  O   UNL A   1      42.695  21.969  25.222  1.00  0.00    -0.237 OA
ATOM     59  O   UNL A   1      42.480  21.830  27.657  1.00  0.00    -0.744 OA
ENDBRANCH  53  56
ENDBRANCH  25  49
BRANCH  37  60
ATOM     60  C   UNL A   1      44.653  27.347  34.147  1.00  0.00     0.023 A 
ATOM     61  C   UNL A   1      45.864  28.063  34.077  1.00  0.00     0.012 A 
ATOM     62  C   UNL A   1      44.576  26.191  34.946  1.00  0.00     0.148 A 
ATOM     63  C   UNL A   1      46.990  27.618  34.769  1.00  0.00     0.002 A 
ATOM     64  C   UNL A   1      45.692  25.775  35.663  1.00  0.00     0.091 A 
ATOM     65  F   UNL A   1      43.421  25.508  34.979  1.00  0.00    -0.205 F 
ATOM     66  C   UNL A   1      46.902  26.482  35.568  1.00  0.00     0.022 A 
BRANCH  64  67
ATOM     67  S   UNL A   1      45.634  24.365  36.775  1.00  0.00     0.127 S 
ATOM     68  O   UNL A   1      44.608  24.777  37.729  1.00  0.00    -0.237 OA
ATOM     69  O   UNL A   1      45.234  23.274  35.884  1.00  0.00    -0.237 OA
ATOM     70  O   UNL A   1      46.983  24.234  37.310  1.00  0.00    -0.744 OA
ENDBRANCH  64  67
ENDBRANCH  37  60
ENDBRANCH  11  12
ENDBRANCH   4   6
ENDBRANCH   1   2
BRANCH   1  71
ATOM     71  C   UNL A   1      32.074  28.014  26.017  1.00  0.00     0.023 C 
BRANCH  71  72
ATOM     72  C   UNL A   1      32.739  26.648  26.172  1.00  0.00     0.023 C 
BRANCH  72  73
ATOM     73  C   UNL A   1      31.884  25.451  25.765  1.00  0.00     0.116 C 
BRANCH  73  74
ATOM     74  N   UNL A   1      31.723  24.473  26.831  1.00  0.00    -0.352 N 
ATOM     75  C   UNL A   1      32.451  23.344  27.096  1.00  0.00     0.258 C 
ATOM     76  H   UNL A   1      30.981  24.649  27.454  1.00  0.00     0.163 HD
ATOM     77  O   UNL A   1      32.144  22.577  28.001  1.00  0.00    -0.269 OA
BRANCH  75  78
ATOM     78  C   UNL A   1      33.591  23.008  26.231  1.00  0.00     0.119 A 
ATOM     79  C   UNL A   1      34.841  23.525  26.652  1.00  0.00     0.052 A 
ATOM     80  C   UNL A   1      33.436  22.171  25.078  1.00  0.00     0.282 A 
ATOM     81  C   UNL A   1      35.916  23.077  25.872  1.00  0.00     0.093 A 
ATOM     82  C   UNL A   1      34.499  21.700  24.272  1.00  0.00     0.098 A 
ATOM     83  N   UNL A   1      37.230  23.324  25.992  1.00  0.00    -0.176 NA
ATOM     84  C   UNL A   1      35.705  22.197  24.746  1.00  0.00     0.026 A 
ATOM     85  N   UNL A   1      37.809  22.621  25.000  1.00  0.00    -0.285 N 
ATOM     86  C   UNL A   1      36.935  21.919  24.220  1.00  0.00     0.114 A 
ATOM     87  H   UNL A   1      38.782  22.613  24.849  1.00  0.00     0.189 HD
BRANCH  80  88
ATOM     88  N   UNL A   1      32.101  21.745  24.694  1.00  0.00     0.063 N 
ATOM     89  O   UNL A   1      31.778  20.591  25.005  1.00  0.00    -0.258 OA
ATOM     90  O   UNL A   1      31.410  22.541  24.051  1.00  0.00    -0.258 OA
ENDBRANCH  80  88
ENDBRANCH  75  78
ENDBRANCH  73  74
ENDBRANCH  72  73
ENDBRANCH  71  72
ENDBRANCH   1  71
TORSDOF 15
ENDMDL
MODEL 2
REMARK VINA RESULT:     -11.6      2.548      3.187
REMARK SMILES O=C(NCCCCNC(=O)c1cc2n[nH]cc2cc1[N+](=O)[O-])c1ccc(-c2c3nc(c(-c4cccc(S(=O)(=O)[O-])c4F)c4ccc([nH]4)c(-c4cccc(S(=O)(=O)[O-])c4F)c4nc(c(-c5cccc(S(=O)(=O)[O-])c5F)c5ccc2[nH]5)C=C4)C=C3)cc1
REMARK SMILES IDX 4 1 3 2 1 3 2 4 23 6 24 7 85 8 25 9 84 10 26 11 27 12 28 13
REMARK SMILES IDX 78 14 29 15 83 16 77 17 79 18 30 19 82 20 76 21 75 22 31 24
REMARK SMILES IDX 63 25 43 26 62 27 44 28 47 29 61 30 80 31 45 32 46 33 60 35
REMARK SMILES IDX 81 36 48 37 32 38 33 39 41 40 34 41 36 42 42 43 35 44 37 45
REMARK SMILES IDX 38 46 39 47 40 48 64 49 65 50 73 51 66 52 68 53 74 54 67 55
REMARK SMILES IDX 69 56 70 57 71 58 72 59 49 60 50 61 58 62 51 63 53 64 59 65
REMARK SMILES IDX 52 66 54 67 55 68 56 69 57 70 5 71 6 72 7 73 8 74 9 75 10 77
REMARK SMILES IDX 11 78 12 79 19 80 13 81 18 82 14 83 17 84 15 85 16 86 20 88
REMARK SMILES IDX 21 89 22 90
REMARK H PARENT 3 5 79 23 47 34 8 76 15 87
REMARK Flexibility Score: inf
ROOT
ATOM      1  C   UNL A   1      32.791  29.176  27.044  1.00  0.00     0.116 C 
ENDROOT
BRANCH   1   2
ATOM      2  N   UNL A   1      32.701  30.627  27.047  1.00  0.00    -0.352 N 
ATOM      3  O   UNL A   1      33.283  32.742  27.558  1.00  0.00    -0.269 OA
ATOM      4  C   UNL A   1      33.598  31.556  27.526  1.00  0.00     0.251 C 
ATOM      5  H   UNL A   1      31.881  30.999  26.650  1.00  0.00     0.163 HD
BRANCH   4   6
ATOM      6  C   UNL A   1      34.918  31.118  28.034  1.00  0.00     0.039 A 
ATOM      7  C   UNL A   1      35.087  29.844  28.579  1.00  0.00     0.014 A 
ATOM      8  C   UNL A   1      36.001  32.000  27.973  1.00  0.00     0.014 A 
ATOM      9  C   UNL A   1      36.282  29.517  29.212  1.00  0.00     0.010 A 
ATOM     10  C   UNL A   1      37.230  31.635  28.533  1.00  0.00     0.010 A 
ATOM     11  C   UNL A   1      37.369  30.407  29.196  1.00  0.00    -0.014 A 
BRANCH  11  12
ATOM     12  C   UNL A   1      38.648  29.998  29.835  1.00  0.00     0.031 A 
ATOM     13  C   UNL A   1      39.036  30.487  31.205  1.00  0.00     0.074 A 
ATOM     14  C   UNL A   1      39.451  29.141  29.174  1.00  0.00     0.049 A 
ATOM     15  N   UNL A   1      40.080  30.162  31.926  1.00  0.00    -0.248 NA
ATOM     16  C   UNL A   1      38.150  31.470  31.849  1.00  0.00     0.031 C 
ATOM     17  C   UNL A   1      39.211  28.642  27.818  1.00  0.00     0.029 A 
ATOM     18  N   UNL A   1      40.620  28.531  29.550  1.00  0.00    -0.354 N 
ATOM     19  C   UNL A   1      39.993  30.916  33.091  1.00  0.00     0.074 A 
ATOM     20  C   UNL A   1      38.801  31.729  32.976  1.00  0.00     0.031 C 
ATOM     21  C   UNL A   1      40.178  27.775  27.490  1.00  0.00     0.029 A 
ATOM     22  C   UNL A   1      41.129  27.685  28.592  1.00  0.00     0.049 A 
ATOM     23  H   UNL A   1      41.054  28.684  30.420  1.00  0.00     0.167 HD
ATOM     24  C   UNL A   1      40.816  30.911  34.167  1.00  0.00     0.034 A 
ATOM     25  C   UNL A   1      42.236  26.916  28.598  1.00  0.00     0.034 A 
ATOM     26  C   UNL A   1      41.979  30.073  34.297  1.00  0.00     0.049 A 
ATOM     27  C   UNL A   1      43.096  26.890  29.828  1.00  0.00     0.074 A 
ATOM     28  C   UNL A   1      42.856  29.975  35.363  1.00  0.00     0.029 A 
ATOM     29  N   UNL A   1      42.425  29.182  33.332  1.00  0.00    -0.354 N 
ATOM     30  N   UNL A   1      42.928  27.523  30.964  1.00  0.00    -0.248 NA
ATOM     31  C   UNL A   1      44.281  26.022  29.791  1.00  0.00     0.031 C 
ATOM     32  C   UNL A   1      43.832  29.024  35.043  1.00  0.00     0.029 A 
ATOM     33  C   UNL A   1      43.560  28.526  33.780  1.00  0.00     0.049 A 
ATOM     34  H   UNL A   1      41.997  29.036  32.457  1.00  0.00     0.167 HD
ATOM     35  C   UNL A   1      43.978  27.123  31.780  1.00  0.00     0.074 A 
ATOM     36  C   UNL A   1      44.753  26.161  31.022  1.00  0.00     0.031 C 
ATOM     37  C   UNL A   1      44.290  27.535  33.033  1.00  0.00     0.034 A 
BRANCH  24  38
ATOM     38  C   UNL A   1      40.454  31.797  35.332  1.00  0.00     0.023 A 
ATOM     39  C   UNL A   1      41.130  33.022  35.495  1.00  0.00     0.012 A 
ATOM     40  C   UNL A   1      39.403  31.464  36.211  1.00  0.00     0.148 A 
ATOM     41  C   UNL A   1      40.780  33.896  36.524  1.00  0.00     0.002 A 
ATOM     42  C   UNL A   1      39.039  32.355  37.216  1.00  0.00     0.091 A 
ATOM     43  F   UNL A   1      38.787  30.284  36.054  1.00  0.00    -0.205 F 
ATOM     44  C   UNL A   1      39.730  33.567  37.378  1.00  0.00     0.022 A 
BRANCH  42  45
ATOM     45  S   UNL A   1      37.655  32.052  38.322  1.00  0.00     0.127 S 
ATOM     46  O   UNL A   1      38.246  32.356  39.624  1.00  0.00    -0.237 OA
ATOM     47  O   UNL A   1      36.667  33.029  37.860  1.00  0.00    -0.237 OA
ATOM     48  O   UNL A   1      37.274  30.662  38.112  1.00  0.00    -0.744 OA
ENDBRANCH  42  45
ENDBRANCH  24  38
BRANCH  25  49
ATOM     49  C   UNL A   1      42.543  26.064  27.417  1.00  0.00     0.023 A 
ATOM     50  C   UNL A   1      43.336  26.581  26.375  1.00  0.00     0.012 A 
ATOM     51  C   UNL A   1      42.111  24.725  27.349  1.00  0.00     0.148 A 
ATOM     52  C   UNL A   1      43.676  25.786  25.281  1.00  0.00     0.002 A 
ATOM     53  C   UNL A   1      42.504  23.922  26.286  1.00  0.00     0.091 A 
ATOM     54  F   UNL A   1      41.336  24.253  28.337  1.00  0.00    -0.205 F 
ATOM     55  C   UNL A   1      43.275  24.453  25.242  1.00  0.00     0.022 A 
BRANCH  53  56
ATOM     56  S   UNL A   1      42.148  22.161  26.272  1.00  0.00     0.127 S 
ATOM     57  O   UNL A   1      40.699  22.146  26.103  1.00  0.00    -0.237 OA
ATOM     58  O   UNL A   1      42.908  21.694  25.110  1.00  0.00    -0.237 OA
ATOM     59  O   UNL A   1      42.658  21.669  27.545  1.00  0.00    -0.744 OA
ENDBRANCH  53  56
ENDBRANCH  25  49
BRANCH  37  60
ATOM     60  C   UNL A   1      45.527  26.952  33.660  1.00  0.00     0.023 A 
ATOM     61  C   UNL A   1      46.746  27.650  33.556  1.00  0.00     0.012 A 
ATOM     62  C   UNL A   1      45.477  25.749  34.389  1.00  0.00     0.148 A 
ATOM     63  C   UNL A   1      47.905  27.144  34.143  1.00  0.00     0.002 A 
ATOM     64  C   UNL A   1      46.628  25.271  35.004  1.00  0.00     0.091 A 
ATOM     65  F   UNL A   1      44.313  25.085  34.456  1.00  0.00    -0.205 F 
ATOM     66  C   UNL A   1      47.844  25.961  34.875  1.00  0.00     0.022 A 
BRANCH  64  67
ATOM     67  S   UNL A   1      46.613  23.794  36.028  1.00  0.00     0.127 S 
ATOM     68  O   UNL A   1      46.438  22.740  35.031  1.00  0.00    -0.237 OA
ATOM     69  O   UNL A   1      47.937  23.827  36.653  1.00  0.00    -0.237 OA
ATOM     70  O   UNL A   1      45.508  23.976  36.960  1.00  0.00    -0.744 OA
ENDBRANCH  64  67
ENDBRANCH  37  60
ENDBRANCH  11  12
ENDBRANCH   4   6
ENDBRANCH   1   2
BRANCH   1  71
ATOM     71  C   UNL A   1      33.378  28.613  25.755  1.00  0.00     0.023 C 
BRANCH  71  72
ATOM     72  C   UNL A   1      33.420  29.577  24.571  1.00  0.00     0.023 C 
BRANCH  72  73
ATOM     73  C   UNL A   1      33.367  28.926  23.192  1.00  0.00     0.116 C 
BRANCH  73  74
ATOM     74  N   UNL A   1      32.083  29.096  22.527  1.00  0.00    -0.352 N 
ATOM     75  C   UNL A   1      30.993  28.269  22.513  1.00  0.00     0.258 C 
ATOM     76  H   UNL A   1      31.984  29.930  22.013  1.00  0.00     0.163 HD
ATOM     77  O   UNL A   1      30.000  28.524  21.842  1.00  0.00    -0.269 OA
BRANCH  75  78
ATOM     78  C   UNL A   1      31.040  27.009  23.269  1.00  0.00     0.119 A 
ATOM     79  C   UNL A   1      30.416  27.044  24.540  1.00  0.00     0.052 A 
ATOM     80  C   UNL A   1      31.633  25.827  22.718  1.00  0.00     0.282 A 
ATOM     81  C   UNL A   1      30.373  25.794  25.171  1.00  0.00     0.093 A 
ATOM     82  C   UNL A   1      31.604  24.550  23.327  1.00  0.00     0.098 A 
ATOM     83  N   UNL A   1      29.836  25.440  26.349  1.00  0.00    -0.176 NA
ATOM     84  C   UNL A   1      30.948  24.624  24.548  1.00  0.00     0.026 A 
ATOM     85  N   UNL A   1      30.054  24.115  26.448  1.00  0.00    -0.285 N 
ATOM     86  C   UNL A   1      30.718  23.570  25.386  1.00  0.00     0.114 A 
ATOM     87  H   UNL A   1      29.759  23.581  27.222  1.00  0.00     0.189 HD
BRANCH  80  88
ATOM     88  N   UNL A   1      32.305  25.910  21.433  1.00  0.00     0.063 N 
ATOM     89  O   UNL A   1      31.580  25.904  20.428  1.00  0.00    -0.258 OA
ATOM     90  O   UNL A   1      33.539  25.935  21.434  1.00  0.00    -0.258 OA
ENDBRANCH  80  88
ENDBRANCH  75  78
ENDBRANCH  73  74
ENDBRANCH  72  73
ENDBRANCH  71  72
ENDBRANCH   1  71
TORSDOF 15
ENDMDL
MODEL 3
REMARK VINA RESULT:     -11.6      1.723      2.343
REMARK SMILES O=C(NCCCCNC(=O)c1cc2n[nH]cc2cc1[N+](=O)[O-])c1ccc(-c2c3nc(c(-c4cccc(S(=O)(=O)[O-])c4F)c4ccc([nH]4)c(-c4cccc(S(=O)(=O)[O-])c4F)c4nc(c(-c5cccc(S(=O)(=O)[O-])c5F)c5ccc2[nH]5)C=C4)C=C3)cc1
REMARK SMILES IDX 4 1 3 2 1 3 2 4 23 6 24 7 85 8 25 9 84 10 26 11 27 12 28 13
REMARK SMILES IDX 78 14 29 15 83 16 77 17 79 18 30 19 82 20 76 21 75 22 31 24
REMARK SMILES IDX 63 25 43 26 62 27 44 28 47 29 61 30 80 31 45 32 46 33 60 35
REMARK SMILES IDX 81 36 48 37 32 38 33 39 41 40 34 41 36 42 42 43 35 44 37 45
REMARK SMILES IDX 38 46 39 47 40 48 64 49 65 50 73 51 66 52 68 53 74 54 67 55
REMARK SMILES IDX 69 56 70 57 71 58 72 59 49 60 50 61 58 62 51 63 53 64 59 65
REMARK SMILES IDX 52 66 54 67 55 68 56 69 57 70 5 71 6 72 7 73 8 74 9 75 10 77
REMARK SMILES IDX 11 78 12 79 19 80 13 81 18 82 14 83 17 84 15 85 16 86 20 88
REMARK SMILES IDX 21 89 22 90
REMARK H PARENT 3 5 79 23 47 34 8 76 15 87
REMARK Flexibility Score: inf
ROOT
ATOM      1  C   UNL A   1      32.855  29.458  25.770  1.00  0.00     0.116 C 
ENDROOT
BRANCH   1   2
ATOM      2  N   UNL A   1      32.475  30.798  26.186  1.00  0.00    -0.352 N 
ATOM      3  O   UNL A   1      32.544  32.693  27.402  1.00  0.00    -0.269 OA
ATOM      4  C   UNL A   1      33.093  31.644  27.081  1.00  0.00     0.251 C 
ATOM      5  H   UNL A   1      31.657  31.153  25.768  1.00  0.00     0.163 HD
BRANCH   4   6
ATOM      6  C   UNL A   1      34.394  31.266  27.678  1.00  0.00     0.039 A 
ATOM      7  C   UNL A   1      34.636  29.955  28.093  1.00  0.00     0.014 A 
ATOM      8  C   UNL A   1      35.383  32.242  27.836  1.00  0.00     0.014 A 
ATOM      9  C   UNL A   1      35.790  29.660  28.813  1.00  0.00     0.010 A 
ATOM     10  C   UNL A   1      36.582  31.922  28.483  1.00  0.00     0.010 A 
ATOM     11  C   UNL A   1      36.778  30.639  29.016  1.00  0.00    -0.014 A 
BRANCH  11  12
ATOM     12  C   UNL A   1      38.023  30.271  29.742  1.00  0.00     0.031 A 
ATOM     13  C   UNL A   1      38.291  30.754  31.142  1.00  0.00     0.074 A 
ATOM     14  C   UNL A   1      38.905  29.455  29.131  1.00  0.00     0.049 A 
ATOM     15  N   UNL A   1      39.291  30.459  31.933  1.00  0.00    -0.248 NA
ATOM     16  C   UNL A   1      37.322  31.693  31.731  1.00  0.00     0.031 C 
ATOM     17  C   UNL A   1      38.783  28.966  27.756  1.00  0.00     0.029 A 
ATOM     18  N   UNL A   1      40.066  28.884  29.585  1.00  0.00    -0.354 N 
ATOM     19  C   UNL A   1      39.090  31.192  33.097  1.00  0.00     0.074 A 
ATOM     20  C   UNL A   1      37.879  31.960  32.905  1.00  0.00     0.031 C 
ATOM     21  C   UNL A   1      39.805  28.141  27.489  1.00  0.00     0.029 A 
ATOM     22  C   UNL A   1      40.676  28.072  28.657  1.00  0.00     0.049 A 
ATOM     23  H   UNL A   1      40.430  29.041  30.486  1.00  0.00     0.167 HD
ATOM     24  C   UNL A   1      39.832  31.204  34.231  1.00  0.00     0.034 A 
ATOM     25  C   UNL A   1      41.809  27.347  28.735  1.00  0.00     0.034 A 
ATOM     26  C   UNL A   1      41.016  30.410  34.435  1.00  0.00     0.049 A 
ATOM     27  C   UNL A   1      42.578  27.336  30.024  1.00  0.00     0.074 A 
ATOM     28  C   UNL A   1      41.816  30.330  35.562  1.00  0.00     0.029 A 
ATOM     29  N   UNL A   1      41.565  29.550  33.496  1.00  0.00    -0.354 N 
ATOM     30  N   UNL A   1      42.303  27.946  31.151  1.00  0.00    -0.248 NA
ATOM     31  C   UNL A   1      43.796  26.516  30.063  1.00  0.00     0.031 C 
ATOM     32  C   UNL A   1      42.849  29.422  35.303  1.00  0.00     0.029 A 
ATOM     33  C   UNL A   1      42.689  28.932  34.017  1.00  0.00     0.049 A 
ATOM     34  H   UNL A   1      41.208  29.401  32.590  1.00  0.00     0.167 HD
ATOM     35  C   UNL A   1      43.307  27.575  32.038  1.00  0.00     0.074 A 
ATOM     36  C   UNL A   1      44.172  26.655  31.327  1.00  0.00     0.031 C 
ATOM     37  C   UNL A   1      43.511  27.981  33.314  1.00  0.00     0.034 A 
BRANCH  24  38
ATOM     38  C   UNL A   1      39.352  32.058  35.377  1.00  0.00     0.023 A 
ATOM     39  C   UNL A   1      38.487  31.493  36.334  1.00  0.00     0.012 A 
ATOM     40  C   UNL A   1      39.813  33.378  35.554  1.00  0.00     0.148 A 
ATOM     41  C   UNL A   1      38.071  32.232  37.441  1.00  0.00     0.002 A 
ATOM     42  C   UNL A   1      39.419  34.099  36.678  1.00  0.00     0.091 A 
ATOM     43  F   UNL A   1      40.618  33.906  34.621  1.00  0.00    -0.205 F 
ATOM     44  C   UNL A   1      38.544  33.530  37.618  1.00  0.00     0.022 A 
BRANCH  42  45
ATOM     45  S   UNL A   1      40.029  35.752  37.028  1.00  0.00     0.127 S 
ATOM     46  O   UNL A   1      39.322  36.070  38.268  1.00  0.00    -0.237 OA
ATOM     47  O   UNL A   1      41.466  35.528  37.188  1.00  0.00    -0.237 OA
ATOM     48  O   UNL A   1      39.669  36.563  35.873  1.00  0.00    -0.744 OA
ENDBRANCH  42  45
ENDBRANCH  24  38
BRANCH  25  49
ATOM     49  C   UNL A   1      42.234  26.525  27.569  1.00  0.00     0.023 A 
ATOM     50  C   UNL A   1      43.091  27.082  26.601  1.00  0.00     0.012 A 
ATOM     51  C   UNL A   1      41.850  25.175  27.448  1.00  0.00     0.148 A 
ATOM     52  C   UNL A   1      43.541  26.316  25.526  1.00  0.00     0.002 A 
ATOM     53  C   UNL A   1      42.351  24.402  26.408  1.00  0.00     0.091 A 
ATOM     54  F   UNL A   1      41.015  24.663  28.364  1.00  0.00    -0.205 F 
ATOM     55  C   UNL A   1      43.185  24.973  25.436  1.00  0.00     0.022 A 
BRANCH  53  56
ATOM     56  S   UNL A   1      42.051  22.632  26.340  1.00  0.00     0.127 S 
ATOM     57  O   UNL A   1      42.702  22.263  25.086  1.00  0.00    -0.237 OA
ATOM     58  O   UNL A   1      42.724  22.149  27.548  1.00  0.00    -0.237 OA
ATOM     59  O   UNL A   1      40.601  22.499  26.380  1.00  0.00    -0.744 OA
ENDBRANCH  53  56
ENDBRANCH  25  49
BRANCH  37  60
ATOM     60  C   UNL A   1      44.720  27.437  34.023  1.00  0.00     0.023 A 
ATOM     61  C   UNL A   1      45.944  28.128  33.925  1.00  0.00     0.012 A 
ATOM     62  C   UNL A   1      44.640  26.280  34.822  1.00  0.00     0.148 A 
ATOM     63  C   UNL A   1      47.078  27.658  34.587  1.00  0.00     0.002 A 
ATOM     64  C   UNL A   1      45.765  25.840  35.508  1.00  0.00     0.091 A 
ATOM     65  F   UNL A   1      43.472  25.621  34.882  1.00  0.00    -0.205 F 
ATOM     66  C   UNL A   1      46.987  26.522  35.385  1.00  0.00     0.022 A 
BRANCH  64  67
ATOM     67  S   UNL A   1      45.706  24.427  36.618  1.00  0.00     0.127 S 
ATOM     68  O   UNL A   1      47.119  24.239  36.938  1.00  0.00    -0.237 OA
ATOM     69  O   UNL A   1      44.892  24.927  37.727  1.00  0.00    -0.237 OA
ATOM     70  O   UNL A   1      45.081  23.356  35.854  1.00  0.00    -0.744 OA
ENDBRANCH  64  67
ENDBRANCH  37  60
ENDBRANCH  11  12
ENDBRANCH   4   6
ENDBRANCH   1   2
BRANCH   1  71
ATOM     71  C   UNL A   1      31.661  28.541  25.533  1.00  0.00     0.023 C 
BRANCH  71  72
ATOM     72  C   UNL A   1      30.760  28.919  24.359  1.00  0.00     0.023 C 
BRANCH  72  73
ATOM     73  C   UNL A   1      31.015  28.155  23.063  1.00  0.00     0.116 C 
BRANCH  73  74
ATOM     74  N   UNL A   1      32.267  28.522  22.418  1.00  0.00    -0.352 N 
ATOM     75  C   UNL A   1      33.408  27.785  22.245  1.00  0.00     0.258 C 
ATOM     76  H   UNL A   1      32.298  29.435  22.050  1.00  0.00     0.163 HD
ATOM     77  O   UNL A   1      34.413  28.265  21.736  1.00  0.00    -0.269 OA
BRANCH  75  78
ATOM     78  C   UNL A   1      33.449  26.402  22.744  1.00  0.00     0.119 A 
ATOM     79  C   UNL A   1      33.976  26.247  24.049  1.00  0.00     0.052 A 
ATOM     80  C   UNL A   1      32.937  25.312  21.969  1.00  0.00     0.282 A 
ATOM     81  C   UNL A   1      33.881  24.935  24.533  1.00  0.00     0.093 A 
ATOM     82  C   UNL A   1      32.823  23.978  22.427  1.00  0.00     0.098 A 
ATOM     83  N   UNL A   1      34.237  24.426  25.722  1.00  0.00    -0.176 NA
ATOM     84  C   UNL A   1      33.313  23.882  23.723  1.00  0.00     0.026 A 
ATOM     85  N   UNL A   1      33.896  23.125  25.662  1.00  0.00    -0.285 N 
ATOM     86  C   UNL A   1      33.330  22.743  24.478  1.00  0.00     0.114 A 
ATOM     87  H   UNL A   1      34.041  22.499  26.408  1.00  0.00     0.189 HD
BRANCH  80  88
ATOM     88  N   UNL A   1      32.476  25.567  20.615  1.00  0.00     0.063 N 
ATOM     89  O   UNL A   1      31.345  26.059  20.498  1.00  0.00    -0.258 OA
ATOM     90  O   UNL A   1      33.219  25.235  19.686  1.00  0.00    -0.258 OA
ENDBRANCH  80  88
ENDBRANCH  75  78
ENDBRANCH  73  74
ENDBRANCH  72  73
ENDBRANCH  71  72
ENDBRANCH   1  71
TORSDOF 15
ENDMDL
