MODEL 1
REMARK VINA RESULT:     -12.7      0.000      0.000
REMARK SMILES C[C@@H]1CC[C@@](C(=O)NCCCCNC(=O)c2ccc(-c3c4nc(c(-c5cccc(S(=O)(=O)[O-])c5F)c5ccc([nH]5)c(-c5cccc(S(=O)(=O)[O-])c5F)c5nc(c(-c6cccc(S(=O)(=O)[O-])c6F)c6ccc3[nH]6)C=C5)C=C4)cc2)([C@@H]2CCC[C@H](S(C)(=O)=O)C2)C1
REMARK SMILES IDX 11 1 10 2 9 3 8 4 6 5 7 6 5 8 1 9 2 10 3 11 89 12 4 13 79 14
REMARK SMILES IDX 80 15 88 16 81 17 83 18 82 19 84 20 85 21 86 22 87 23 12 24
REMARK SMILES IDX 13 25 14 26 15 28 16 29 17 30 78 31 18 32 77 33 19 34 20 35
REMARK SMILES IDX 21 36 71 37 22 38 76 39 70 40 72 41 23 42 75 43 69 44 68 45
REMARK SMILES IDX 24 47 56 48 36 49 55 50 37 51 40 52 54 53 73 54 38 55 39 56
REMARK SMILES IDX 53 58 74 59 41 60 25 61 26 62 34 63 27 64 29 65 35 66 28 67
REMARK SMILES IDX 30 68 31 69 32 70 33 71 57 72 58 73 66 74 59 75 61 76 67 77
REMARK SMILES IDX 60 78 62 79 63 80 64 81 65 82 42 83 43 84 51 85 44 86 46 87
REMARK SMILES IDX 52 88 45 89 47 90 48 91 49 92 50 93
REMARK H PARENT 8 7 13 27 72 46 40 57
REMARK Flexibility Score: inf
ROOT
ATOM      1  C   UNL A   1      36.060  20.906  25.005  1.00  0.00     0.023 C 
ENDROOT
BRANCH   1   2
ATOM      2  C   UNL A   1      35.076  21.264  26.116  1.00  0.00     0.023 C 
BRANCH   2   3
ATOM      3  C   UNL A   1      34.963  22.755  26.412  1.00  0.00     0.116 C 
BRANCH   3   4
ATOM      4  N   UNL A   1      33.740  23.112  27.098  1.00  0.00    -0.356 N 
ATOM      5  C   UNL A   1      32.499  23.445  26.658  1.00  0.00     0.226 C 
ATOM      6  O   UNL A   1      31.614  23.428  27.523  1.00  0.00    -0.274 OA
ATOM      7  H   UNL A   1      33.825  23.114  28.078  1.00  0.00     0.163 HD
BRANCH   5   8
ATOM      8  C   UNL A   1      32.129  23.720  25.167  1.00  0.00     0.052 C 
ATOM      9  C   UNL A   1      32.606  20.415  23.839  1.00  0.00     0.007 C 
ATOM     10  C   UNL A   1      32.133  21.835  23.519  1.00  0.00    -0.013 C 
ATOM     11  C   UNL A   1      33.250  22.809  23.151  1.00  0.00     0.004 C 
ATOM     12  C   UNL A   1      31.351  22.473  24.669  1.00  0.00     0.020 C 
ATOM     13  C   UNL A   1      33.333  23.892  24.224  1.00  0.00     0.017 C 
BRANCH   8  14
ATOM     14  C   UNL A   1      31.210  25.019  25.126  1.00  0.00     0.006 C 
ATOM     15  C   UNL A   1      30.339  25.143  23.850  1.00  0.00     0.005 C 
ATOM     16  C   UNL A   1      32.028  26.328  25.308  1.00  0.00     0.024 C 
ATOM     17  C   UNL A   1      29.455  26.388  23.883  1.00  0.00     0.002 C 
ATOM     18  C   UNL A   1      31.144  27.585  25.324  1.00  0.00     0.108 C 
ATOM     19  C   UNL A   1      30.276  27.658  24.068  1.00  0.00     0.020 C 
BRANCH  18  20
ATOM     20  S   UNL A   1      32.179  29.056  25.503  1.00  0.00     0.150 S 
ATOM     21  C   UNL A   1      32.483  29.180  27.248  1.00  0.00     0.158 C 
ATOM     22  O   UNL A   1      33.460  28.787  24.881  1.00  0.00    -0.229 OA
ATOM     23  O   UNL A   1      31.398  30.219  25.120  1.00  0.00    -0.229 OA
ENDBRANCH  18  20
ENDBRANCH   8  14
ENDBRANCH   5   8
ENDBRANCH   3   4
ENDBRANCH   2   3
ENDBRANCH   1   2
BRANCH   1  24
ATOM     24  C   UNL A   1      37.474  21.453  25.172  1.00  0.00     0.116 C 
BRANCH  24  25
ATOM     25  N   UNL A   1      38.487  20.429  25.407  1.00  0.00    -0.352 N 
ATOM     26  C   UNL A   1      39.676  20.540  26.098  1.00  0.00     0.251 C 
ATOM     27  H   UNL A   1      38.296  19.543  25.022  1.00  0.00     0.163 HD
ATOM     28  O   UNL A   1      40.451  19.605  26.173  1.00  0.00    -0.269 OA
BRANCH  26  29
ATOM     29  C   UNL A   1      40.006  21.848  26.704  1.00  0.00     0.039 A 
ATOM     30  C   UNL A   1      40.932  21.890  27.749  1.00  0.00     0.014 A 
ATOM     31  C   UNL A   1      39.499  23.023  26.147  1.00  0.00     0.014 A 
ATOM     32  C   UNL A   1      41.434  23.124  28.167  1.00  0.00     0.010 A 
ATOM     33  C   UNL A   1      40.053  24.243  26.516  1.00  0.00     0.010 A 
ATOM     34  C   UNL A   1      41.041  24.304  27.513  1.00  0.00    -0.014 A 
BRANCH  34  35
ATOM     35  C   UNL A   1      41.688  25.608  27.802  1.00  0.00     0.031 A 
ATOM     36  C   UNL A   1      40.927  26.682  28.527  1.00  0.00     0.074 A 
ATOM     37  C   UNL A   1      42.906  25.873  27.286  1.00  0.00     0.049 A 
ATOM     38  N   UNL A   1      41.269  27.922  28.756  1.00  0.00    -0.248 NA
ATOM     39  C   UNL A   1      39.588  26.325  29.026  1.00  0.00     0.031 C 
ATOM     40  C   UNL A   1      43.705  24.949  26.478  1.00  0.00     0.029 A 
ATOM     41  N   UNL A   1      43.668  27.015  27.331  1.00  0.00    -0.354 N 
ATOM     42  C   UNL A   1      40.173  28.508  29.375  1.00  0.00     0.074 A 
ATOM     43  C   UNL A   1      39.145  27.493  29.466  1.00  0.00     0.031 C 
ATOM     44  C   UNL A   1      44.839  25.560  26.100  1.00  0.00     0.029 A 
ATOM     45  C   UNL A   1      44.840  26.925  26.616  1.00  0.00     0.049 A 
ATOM     46  H   UNL A   1      43.402  27.822  27.828  1.00  0.00     0.167 HD
ATOM     47  C   UNL A   1      40.043  29.768  29.853  1.00  0.00     0.034 A 
ATOM     48  C   UNL A   1      45.804  27.840  26.393  1.00  0.00     0.034 A 
ATOM     49  C   UNL A   1      41.092  30.750  29.828  1.00  0.00     0.049 A 
ATOM     50  C   UNL A   1      45.673  29.204  27.014  1.00  0.00     0.074 A 
ATOM     51  C   UNL A   1      41.099  32.015  30.389  1.00  0.00     0.029 A 
ATOM     52  N   UNL A   1      42.322  30.577  29.212  1.00  0.00    -0.354 N 
ATOM     53  N   UNL A   1      44.701  29.684  27.751  1.00  0.00    -0.248 NA
ATOM     54  C   UNL A   1      46.787  30.142  26.806  1.00  0.00     0.031 C 
ATOM     55  C   UNL A   1      42.336  32.608  30.111  1.00  0.00     0.029 A 
ATOM     56  C   UNL A   1      43.099  31.710  29.381  1.00  0.00     0.049 A 
ATOM     57  H   UNL A   1      42.602  29.767  28.727  1.00  0.00     0.167 HD
ATOM     58  C   UNL A   1      45.099  30.962  28.122  1.00  0.00     0.074 A 
ATOM     59  C   UNL A   1      46.410  31.178  27.545  1.00  0.00     0.031 C 
ATOM     60  C   UNL A   1      44.430  31.883  28.860  1.00  0.00     0.034 A 
BRANCH  47  61
ATOM     61  C   UNL A   1      38.741  30.131  30.513  1.00  0.00     0.023 A 
ATOM     62  C   UNL A   1      38.507  29.727  31.843  1.00  0.00     0.012 A 
ATOM     63  C   UNL A   1      37.774  30.906  29.845  1.00  0.00     0.148 A 
ATOM     64  C   UNL A   1      37.317  30.060  32.488  1.00  0.00     0.002 A 
ATOM     65  C   UNL A   1      36.606  31.267  30.508  1.00  0.00     0.091 A 
ATOM     66  F   UNL A   1      38.001  31.258  28.571  1.00  0.00    -0.205 F 
ATOM     67  C   UNL A   1      36.372  30.838  31.824  1.00  0.00     0.022 A 
BRANCH  65  68
ATOM     68  S   UNL A   1      35.365  32.328  29.757  1.00  0.00     0.127 S 
ATOM     69  O   UNL A   1      34.890  31.492  28.655  1.00  0.00    -0.237 OA
ATOM     70  O   UNL A   1      34.403  32.502  30.847  1.00  0.00    -0.237 OA
ATOM     71  O   UNL A   1      36.065  33.544  29.371  1.00  0.00    -0.744 OA
ENDBRANCH  65  68
ENDBRANCH  47  61
BRANCH  48  72
ATOM     72  C   UNL A   1      47.019  27.465  25.616  1.00  0.00     0.023 A 
ATOM     73  C   UNL A   1      48.026  26.707  26.244  1.00  0.00     0.012 A 
ATOM     74  C   UNL A   1      47.165  27.810  24.259  1.00  0.00     0.148 A 
ATOM     75  C   UNL A   1      49.170  26.322  25.543  1.00  0.00     0.002 A 
ATOM     76  C   UNL A   1      48.283  27.380  23.553  1.00  0.00     0.091 A 
ATOM     77  F   UNL A   1      46.202  28.544  23.682  1.00  0.00    -0.205 F 
ATOM     78  C   UNL A   1      49.293  26.648  24.197  1.00  0.00     0.022 A 
BRANCH  76  79
ATOM     79  S   UNL A   1      48.458  27.644  21.784  1.00  0.00     0.127 S 
ATOM     80  O   UNL A   1      48.698  26.286  21.301  1.00  0.00    -0.237 OA
ATOM     81  O   UNL A   1      47.152  28.202  21.427  1.00  0.00    -0.237 OA
ATOM     82  O   UNL A   1      49.565  28.579  21.642  1.00  0.00    -0.744 OA
ENDBRANCH  76  79
ENDBRANCH  48  72
BRANCH  60  83
ATOM     83  C   UNL A   1      45.109  33.200  29.121  1.00  0.00     0.023 A 
ATOM     84  C   UNL A   1      45.927  33.346  30.258  1.00  0.00     0.012 A 
ATOM     85  C   UNL A   1      45.014  34.255  28.192  1.00  0.00     0.148 A 
ATOM     86  C   UNL A   1      46.626  34.532  30.477  1.00  0.00     0.002 A 
ATOM     87  C   UNL A   1      45.746  35.418  28.398  1.00  0.00     0.091 A 
ATOM     88  F   UNL A   1      44.212  34.103  27.129  1.00  0.00    -0.205 F 
ATOM     89  C   UNL A   1      46.546  35.562  29.542  1.00  0.00     0.022 A 
BRANCH  87  90
ATOM     90  S   UNL A   1      45.772  36.755  27.197  1.00  0.00     0.127 S 
ATOM     91  O   UNL A   1      46.693  37.703  27.823  1.00  0.00    -0.237 OA
ATOM     92  O   UNL A   1      46.297  36.094  26.001  1.00  0.00    -0.237 OA
ATOM     93  O   UNL A   1      44.391  37.205  27.076  1.00  0.00    -0.744 OA
ENDBRANCH  87  90
ENDBRANCH  60  83
ENDBRANCH  34  35
ENDBRANCH  26  29
ENDBRANCH  24  25
ENDBRANCH   1  24
TORSDOF 16
ENDMDL
MODEL 2
REMARK VINA RESULT:     -12.6      5.901     10.922
REMARK SMILES C[C@@H]1CC[C@@](C(=O)NCCCCNC(=O)c2ccc(-c3c4nc(c(-c5cccc(S(=O)(=O)[O-])c5F)c5ccc([nH]5)c(-c5cccc(S(=O)(=O)[O-])c5F)c5nc(c(-c6cccc(S(=O)(=O)[O-])c6F)c6ccc3[nH]6)C=C5)C=C4)cc2)([C@@H]2CCC[C@H](S(C)(=O)=O)C2)C1
REMARK SMILES IDX 11 1 10 2 9 3 8 4 6 5 7 6 5 8 1 9 2 10 3 11 89 12 4 13 79 14
REMARK SMILES IDX 80 15 88 16 81 17 83 18 82 19 84 20 85 21 86 22 87 23 12 24
REMARK SMILES IDX 13 25 14 26 15 28 16 29 17 30 78 31 18 32 77 33 19 34 20 35
REMARK SMILES IDX 21 36 71 37 22 38 76 39 70 40 72 41 23 42 75 43 69 44 68 45
REMARK SMILES IDX 24 47 56 48 36 49 55 50 37 51 40 52 54 53 73 54 38 55 39 56
REMARK SMILES IDX 53 58 74 59 41 60 25 61 26 62 34 63 27 64 29 65 35 66 28 67
REMARK SMILES IDX 30 68 31 69 32 70 33 71 57 72 58 73 66 74 59 75 61 76 67 77
REMARK SMILES IDX 60 78 62 79 63 80 64 81 65 82 42 83 43 84 51 85 44 86 46 87
REMARK SMILES IDX 52 88 45 89 47 90 48 91 49 92 50 93
REMARK H PARENT 8 7 13 27 72 46 40 57
REMARK Flexibility Score: inf
ROOT
ATOM      1  C   UNL A   1      32.527  30.873  26.668  1.00  0.00     0.023 C 
ENDROOT
BRANCH   1   2
ATOM      2  C   UNL A   1      32.379  29.453  27.208  1.00  0.00     0.023 C 
BRANCH   2   3
ATOM      3  C   UNL A   1      33.579  28.547  26.959  1.00  0.00     0.116 C 
BRANCH   3   4
ATOM      4  N   UNL A   1      34.132  28.682  25.629  1.00  0.00    -0.356 N 
ATOM      5  C   UNL A   1      33.963  27.972  24.483  1.00  0.00     0.226 C 
ATOM      6  O   UNL A   1      34.380  28.525  23.457  1.00  0.00    -0.274 OA
ATOM      7  H   UNL A   1      34.754  29.439  25.535  1.00  0.00     0.163 HD
BRANCH   5   8
ATOM      8  C   UNL A   1      33.201  26.614  24.384  1.00  0.00     0.052 C 
ATOM      9  C   UNL A   1      35.863  24.393  25.334  1.00  0.00     0.007 C 
ATOM     10  C   UNL A   1      34.375  24.486  24.987  1.00  0.00    -0.013 C 
ATOM     11  C   UNL A   1      34.069  24.469  23.490  1.00  0.00     0.004 C 
ATOM     12  C   UNL A   1      33.708  25.737  25.560  1.00  0.00     0.020 C 
ATOM     13  C   UNL A   1      33.468  25.816  23.095  1.00  0.00     0.017 C 
BRANCH   8  14
ATOM     14  C   UNL A   1      31.645  26.917  24.529  1.00  0.00     0.006 C 
ATOM     15  C   UNL A   1      30.727  25.720  24.176  1.00  0.00     0.005 C 
ATOM     16  C   UNL A   1      31.204  28.154  23.697  1.00  0.00     0.024 C 
ATOM     17  C   UNL A   1      29.250  26.060  24.366  1.00  0.00     0.002 C 
ATOM     18  C   UNL A   1      29.715  28.489  23.873  1.00  0.00     0.108 C 
ATOM     19  C   UNL A   1      28.841  27.278  23.548  1.00  0.00     0.020 C 
BRANCH  18  20
ATOM     20  S   UNL A   1      29.285  29.913  22.845  1.00  0.00     0.150 S 
ATOM     21  C   UNL A   1      27.526  29.791  22.627  1.00  0.00     0.158 C 
ATOM     22  O   UNL A   1      29.520  31.116  23.618  1.00  0.00    -0.229 OA
ATOM     23  O   UNL A   1      29.892  29.740  21.538  1.00  0.00    -0.229 OA
ENDBRANCH  18  20
ENDBRANCH   8  14
ENDBRANCH   5   8
ENDBRANCH   3   4
ENDBRANCH   2   3
ENDBRANCH   1   2
BRANCH   1  24
ATOM     24  C   UNL A   1      33.322  31.836  27.545  1.00  0.00     0.116 C 
BRANCH  24  25
ATOM     25  N   UNL A   1      32.756  33.179  27.622  1.00  0.00    -0.352 N 
ATOM     26  C   UNL A   1      33.157  34.234  28.417  1.00  0.00     0.251 C 
ATOM     27  H   UNL A   1      31.988  33.355  27.031  1.00  0.00     0.163 HD
ATOM     28  O   UNL A   1      32.555  35.291  28.410  1.00  0.00    -0.269 OA
BRANCH  26  29
ATOM     29  C   UNL A   1      34.311  34.026  29.316  1.00  0.00     0.039 A 
ATOM     30  C   UNL A   1      34.101  33.389  30.541  1.00  0.00     0.014 A 
ATOM     31  C   UNL A   1      35.600  34.340  28.883  1.00  0.00     0.014 A 
ATOM     32  C   UNL A   1      35.202  32.969  31.290  1.00  0.00     0.010 A 
ATOM     33  C   UNL A   1      36.692  33.858  29.594  1.00  0.00     0.010 A 
ATOM     34  C   UNL A   1      36.504  33.149  30.792  1.00  0.00    -0.014 A 
BRANCH  34  35
ATOM     35  C   UNL A   1      37.685  32.554  31.465  1.00  0.00     0.031 A 
ATOM     36  C   UNL A   1      38.424  31.414  30.822  1.00  0.00     0.074 A 
ATOM     37  C   UNL A   1      38.003  32.945  32.716  1.00  0.00     0.049 A 
ATOM     38  N   UNL A   1      39.391  30.681  31.307  1.00  0.00    -0.248 NA
ATOM     39  C   UNL A   1      37.992  31.022  29.470  1.00  0.00     0.031 C 
ATOM     40  C   UNL A   1      37.300  33.971  33.489  1.00  0.00     0.029 A 
ATOM     41  N   UNL A   1      38.976  32.494  33.576  1.00  0.00    -0.354 N 
ATOM     42  C   UNL A   1      39.647  29.711  30.348  1.00  0.00     0.074 A 
ATOM     43  C   UNL A   1      38.718  29.934  29.260  1.00  0.00     0.031 C 
ATOM     44  C   UNL A   1      37.859  34.070  34.706  1.00  0.00     0.029 A 
ATOM     45  C   UNL A   1      38.943  33.098  34.812  1.00  0.00     0.049 A 
ATOM     46  H   UNL A   1      39.634  31.805  33.331  1.00  0.00     0.167 HD
ATOM     47  C   UNL A   1      40.589  28.739  30.356  1.00  0.00     0.034 A 
ATOM     48  C   UNL A   1      39.695  32.889  35.911  1.00  0.00     0.034 A 
ATOM     49  C   UNL A   1      41.558  28.566  31.404  1.00  0.00     0.049 A 
ATOM     50  C   UNL A   1      40.795  31.864  35.858  1.00  0.00     0.074 A 
ATOM     51  C   UNL A   1      42.625  27.687  31.451  1.00  0.00     0.029 A 
ATOM     52  N   UNL A   1      41.580  29.289  32.586  1.00  0.00    -0.354 N 
ATOM     53  N   UNL A   1      41.137  31.073  34.870  1.00  0.00    -0.248 NA
ATOM     54  C   UNL A   1      41.638  31.727  37.055  1.00  0.00     0.031 C 
ATOM     55  C   UNL A   1      43.294  27.880  32.666  1.00  0.00     0.029 A 
ATOM     56  C   UNL A   1      42.644  28.880  33.371  1.00  0.00     0.049 A 
ATOM     57  H   UNL A   1      40.934  29.991  32.831  1.00  0.00     0.167 HD
ATOM     58  C   UNL A   1      42.251  30.371  35.311  1.00  0.00     0.074 A 
ATOM     59  C   UNL A   1      42.540  30.842  36.650  1.00  0.00     0.031 C 
ATOM     60  C   UNL A   1      42.961  29.408  34.672  1.00  0.00     0.034 A 
BRANCH  47  61
ATOM     61  C   UNL A   1      40.666  27.833  29.157  1.00  0.00     0.023 A 
ATOM     62  C   UNL A   1      39.810  26.715  29.084  1.00  0.00     0.012 A 
ATOM     63  C   UNL A   1      41.541  28.107  28.089  1.00  0.00     0.148 A 
ATOM     64  C   UNL A   1      39.847  25.864  27.980  1.00  0.00     0.002 A 
ATOM     65  C   UNL A   1      41.543  27.276  26.974  1.00  0.00     0.091 A 
ATOM     66  F   UNL A   1      42.367  29.158  28.188  1.00  0.00    -0.205 F 
ATOM     67  C   UNL A   1      40.705  26.150  26.922  1.00  0.00     0.022 A 
BRANCH  65  68
ATOM     68  S   UNL A   1      42.563  27.606  25.532  1.00  0.00     0.127 S 
ATOM     69  O   UNL A   1      42.007  28.874  25.061  1.00  0.00    -0.237 OA
ATOM     70  O   UNL A   1      43.903  27.709  26.114  1.00  0.00    -0.237 OA
ATOM     71  O   UNL A   1      42.378  26.466  24.646  1.00  0.00    -0.744 OA
ENDBRANCH  65  68
ENDBRANCH  47  61
BRANCH  48  72
ATOM     72  C   UNL A   1      39.488  33.730  37.123  1.00  0.00     0.023 A 
ATOM     73  C   UNL A   1      39.962  35.056  37.125  1.00  0.00     0.012 A 
ATOM     74  C   UNL A   1      38.794  33.247  38.249  1.00  0.00     0.148 A 
ATOM     75  C   UNL A   1      39.770  35.879  38.236  1.00  0.00     0.002 A 
ATOM     76  C   UNL A   1      38.563  34.088  39.332  1.00  0.00     0.091 A 
ATOM     77  F   UNL A   1      38.363  31.977  38.234  1.00  0.00    -0.205 F 
ATOM     78  C   UNL A   1      39.063  35.399  39.334  1.00  0.00     0.022 A 
BRANCH  76  79
ATOM     79  S   UNL A   1      37.548  33.592  40.729  1.00  0.00     0.127 S 
ATOM     80  O   UNL A   1      36.383  33.015  40.064  1.00  0.00    -0.237 OA
ATOM     81  O   UNL A   1      38.413  32.624  41.408  1.00  0.00    -0.237 OA
ATOM     82  O   UNL A   1      37.313  34.814  41.487  1.00  0.00    -0.744 OA
ENDBRANCH  76  79
ENDBRANCH  48  72
BRANCH  60  83
ATOM     83  C   UNL A   1      44.143  28.815  35.390  1.00  0.00     0.023 A 
ATOM     84  C   UNL A   1      45.423  29.368  35.193  1.00  0.00     0.012 A 
ATOM     85  C   UNL A   1      43.970  27.779  36.328  1.00  0.00     0.148 A 
ATOM     86  C   UNL A   1      46.519  28.884  35.906  1.00  0.00     0.002 A 
ATOM     87  C   UNL A   1      45.061  27.330  37.064  1.00  0.00     0.091 A 
ATOM     88  F   UNL A   1      42.747  27.251  36.483  1.00  0.00    -0.205 F 
ATOM     89  C   UNL A   1      46.335  27.876  36.850  1.00  0.00     0.022 A 
BRANCH  87  90
ATOM     90  S   UNL A   1      44.894  26.100  38.364  1.00  0.00     0.127 S 
ATOM     91  O   UNL A   1      44.350  24.959  37.628  1.00  0.00    -0.237 OA
ATOM     92  O   UNL A   1      46.275  25.931  38.817  1.00  0.00    -0.237 OA
ATOM     93  O   UNL A   1      44.005  26.690  39.356  1.00  0.00    -0.744 OA
ENDBRANCH  87  90
ENDBRANCH  60  83
ENDBRANCH  34  35
ENDBRANCH  26  29
ENDBRANCH  24  25
ENDBRANCH   1  24
TORSDOF 16
ENDMDL
MODEL 3
REMARK VINA RESULT:     -12.5      5.240      7.835
REMARK SMILES C[C@@H]1CC[C@@](C(=O)NCCCCNC(=O)c2ccc(-c3c4nc(c(-c5cccc(S(=O)(=O)[O-])c5F)c5ccc([nH]5)c(-c5cccc(S(=O)(=O)[O-])c5F)c5nc(c(-c6cccc(S(=O)(=O)[O-])c6F)c6ccc3[nH]6)C=C5)C=C4)cc2)([C@@H]2CCC[C@H](S(C)(=O)=O)C2)C1
REMARK SMILES IDX 11 1 10 2 9 3 8 4 6 5 7 6 5 8 1 9 2 10 3 11 89 12 4 13 79 14
REMARK SMILES IDX 80 15 88 16 81 17 83 18 82 19 84 20 85 21 86 22 87 23 12 24
REMARK SMILES IDX 13 25 14 26 15 28 16 29 17 30 78 31 18 32 77 33 19 34 20 35
REMARK SMILES IDX 21 36 71 37 22 38 76 39 70 40 72 41 23 42 75 43 69 44 68 45
REMARK SMILES IDX 24 47 56 48 36 49 55 50 37 51 40 52 54 53 73 54 38 55 39 56
REMARK SMILES IDX 53 58 74 59 41 60 25 61 26 62 34 63 27 64 29 65 35 66 28 67
REMARK SMILES IDX 30 68 31 69 32 70 33 71 57 72 58 73 66 74 59 75 61 76 67 77
REMARK SMILES IDX 60 78 62 79 63 80 64 81 65 82 42 83 43 84 51 85 44 86 46 87
REMARK SMILES IDX 52 88 45 89 47 90 48 91 49 92 50 93
REMARK H PARENT 8 7 13 27 72 46 40 57
REMARK Flexibility Score: inf
ROOT
ATOM      1  C   UNL A   1      31.719  29.672  26.476  1.00  0.00     0.023 C 
ENDROOT
BRANCH   1   2
ATOM      2  C   UNL A   1      31.783  28.658  27.616  1.00  0.00     0.023 C 
BRANCH   2   3
ATOM      3  C   UNL A   1      32.167  27.246  27.192  1.00  0.00     0.116 C 
BRANCH   3   4
ATOM      4  N   UNL A   1      31.036  26.444  26.781  1.00  0.00    -0.356 N 
ATOM      5  C   UNL A   1      30.902  25.423  25.894  1.00  0.00     0.226 C 
ATOM      6  O   UNL A   1      29.846  24.783  25.987  1.00  0.00    -0.274 OA
ATOM      7  H   UNL A   1      30.197  26.685  27.233  1.00  0.00     0.163 HD
BRANCH   5   8
ATOM      8  C   UNL A   1      32.008  24.965  24.894  1.00  0.00     0.052 C 
ATOM      9  C   UNL A   1      31.779  21.410  25.372  1.00  0.00     0.007 C 
ATOM     10  C   UNL A   1      32.444  22.523  24.557  1.00  0.00    -0.013 C 
ATOM     11  C   UNL A   1      33.668  23.151  25.218  1.00  0.00     0.004 C 
ATOM     12  C   UNL A   1      31.486  23.667  24.222  1.00  0.00     0.020 C 
ATOM     13  C   UNL A   1      33.359  24.611  25.541  1.00  0.00     0.017 C 
BRANCH   8  14
ATOM     14  C   UNL A   1      32.201  26.124  23.819  1.00  0.00     0.006 C 
ATOM     15  C   UNL A   1      33.480  26.974  24.022  1.00  0.00     0.005 C 
ATOM     16  C   UNL A   1      30.971  27.072  23.745  1.00  0.00     0.024 C 
ATOM     17  C   UNL A   1      33.629  28.046  22.944  1.00  0.00     0.002 C 
ATOM     18  C   UNL A   1      31.124  28.162  22.673  1.00  0.00     0.108 C 
ATOM     19  C   UNL A   1      32.410  28.959  22.885  1.00  0.00     0.020 C 
BRANCH  18  20
ATOM     20  S   UNL A   1      29.669  29.235  22.683  1.00  0.00     0.150 S 
ATOM     21  C   UNL A   1      28.324  28.161  23.123  1.00  0.00     0.158 C 
ATOM     22  O   UNL A   1      29.812  30.181  23.772  1.00  0.00    -0.229 OA
ATOM     23  O   UNL A   1      29.424  29.695  21.328  1.00  0.00    -0.229 OA
ENDBRANCH  18  20
ENDBRANCH   8  14
ENDBRANCH   5   8
ENDBRANCH   3   4
ENDBRANCH   2   3
ENDBRANCH   1   2
BRANCH   1  24
ATOM     24  C   UNL A   1      32.967  30.527  26.279  1.00  0.00     0.116 C 
BRANCH  24  25
ATOM     25  N   UNL A   1      32.884  31.853  26.883  1.00  0.00    -0.352 N 
ATOM     26  C   UNL A   1      33.802  32.484  27.698  1.00  0.00     0.251 C 
ATOM     27  H   UNL A   1      32.067  32.364  26.682  1.00  0.00     0.163 HD
ATOM     28  O   UNL A   1      33.574  33.582  28.170  1.00  0.00    -0.269 OA
BRANCH  26  29
ATOM     29  C   UNL A   1      35.051  31.764  28.023  1.00  0.00     0.039 A 
ATOM     30  C   UNL A   1      36.238  32.491  28.126  1.00  0.00     0.014 A 
ATOM     31  C   UNL A   1      35.010  30.407  28.349  1.00  0.00     0.014 A 
ATOM     32  C   UNL A   1      37.371  31.877  28.664  1.00  0.00     0.010 A 
ATOM     33  C   UNL A   1      36.116  29.820  28.950  1.00  0.00     0.010 A 
ATOM     34  C   UNL A   1      37.300  30.554  29.134  1.00  0.00    -0.014 A 
BRANCH  34  35
ATOM     35  C   UNL A   1      38.422  29.930  29.878  1.00  0.00     0.031 A 
ATOM     36  C   UNL A   1      38.743  30.381  31.275  1.00  0.00     0.074 A 
ATOM     37  C   UNL A   1      39.237  29.062  29.244  1.00  0.00     0.049 A 
ATOM     38  N   UNL A   1      39.754  30.053  32.035  1.00  0.00    -0.248 NA
ATOM     39  C   UNL A   1      37.825  31.360  31.883  1.00  0.00     0.031 C 
ATOM     40  C   UNL A   1      39.092  28.621  27.855  1.00  0.00     0.029 A 
ATOM     41  N   UNL A   1      40.377  28.426  29.674  1.00  0.00    -0.354 N 
ATOM     42  C   UNL A   1      39.628  30.821  33.184  1.00  0.00     0.074 A 
ATOM     43  C   UNL A   1      38.452  31.649  33.014  1.00  0.00     0.031 C 
ATOM     44  C   UNL A   1      40.102  27.792  27.546  1.00  0.00     0.029 A 
ATOM     45  C   UNL A   1      40.982  27.661  28.703  1.00  0.00     0.049 A 
ATOM     46  H   UNL A   1      40.728  28.509  30.590  1.00  0.00     0.167 HD
ATOM     47  C   UNL A   1      40.401  30.818  34.295  1.00  0.00     0.034 A 
ATOM     48  C   UNL A   1      42.120  26.941  28.738  1.00  0.00     0.034 A 
ATOM     49  C   UNL A   1      41.524  29.942  34.491  1.00  0.00     0.049 A 
ATOM     50  C   UNL A   1      42.911  26.884  30.017  1.00  0.00     0.074 A 
ATOM     51  C   UNL A   1      42.300  29.780  35.625  1.00  0.00     0.029 A 
ATOM     52  N   UNL A   1      42.028  29.078  33.532  1.00  0.00    -0.354 N 
ATOM     53  N   UNL A   1      42.674  27.484  31.158  1.00  0.00    -0.248 NA
ATOM     54  C   UNL A   1      44.103  26.023  30.027  1.00  0.00     0.031 C 
ATOM     55  C   UNL A   1      43.276  28.815  35.350  1.00  0.00     0.029 A 
ATOM     56  C   UNL A   1      43.104  28.376  34.047  1.00  0.00     0.049 A 
ATOM     57  H   UNL A   1      41.673  28.977  32.619  1.00  0.00     0.167 HD
ATOM     58  C   UNL A   1      43.664  27.049  32.030  1.00  0.00     0.074 A 
ATOM     59  C   UNL A   1      44.494  26.119  31.292  1.00  0.00     0.031 C 
ATOM     60  C   UNL A   1      43.878  27.402  33.322  1.00  0.00     0.034 A 
BRANCH  47  61
ATOM     61  C   UNL A   1      40.012  31.741  35.418  1.00  0.00     0.023 A 
ATOM     62  C   UNL A   1      40.624  33.007  35.511  1.00  0.00     0.012 A 
ATOM     63  C   UNL A   1      39.017  31.383  36.346  1.00  0.00     0.148 A 
ATOM     64  C   UNL A   1      40.276  33.891  36.531  1.00  0.00     0.002 A 
ATOM     65  C   UNL A   1      38.646  32.285  37.338  1.00  0.00     0.091 A 
ATOM     66  F   UNL A   1      38.465  30.163  36.260  1.00  0.00    -0.205 F 
ATOM     67  C   UNL A   1      39.280  33.535  37.437  1.00  0.00     0.022 A 
BRANCH  65  68
ATOM     68  S   UNL A   1      37.324  31.941  38.505  1.00  0.00     0.127 S 
ATOM     69  O   UNL A   1      37.024  30.541  38.207  1.00  0.00    -0.237 OA
ATOM     70  O   UNL A   1      37.980  32.163  39.794  1.00  0.00    -0.237 OA
ATOM     71  O   UNL A   1      36.266  32.893  38.196  1.00  0.00    -0.744 OA
ENDBRANCH  65  68
ENDBRANCH  47  61
BRANCH  48  72
ATOM     72  C   UNL A   1      42.531  26.145  27.547  1.00  0.00     0.023 A 
ATOM     73  C   UNL A   1      43.332  26.753  26.560  1.00  0.00     0.012 A 
ATOM     74  C   UNL A   1      42.177  24.790  27.405  1.00  0.00     0.148 A 
ATOM     75  C   UNL A   1      43.751  26.034  25.440  1.00  0.00     0.002 A 
ATOM     76  C   UNL A   1      42.640  24.065  26.312  1.00  0.00     0.091 A 
ATOM     77  F   UNL A   1      41.402  24.233  28.347  1.00  0.00    -0.205 F 
ATOM     78  C   UNL A   1      43.415  24.689  25.321  1.00  0.00     0.022 A 
BRANCH  76  79
ATOM     79  S   UNL A   1      42.363  22.298  26.148  1.00  0.00     0.127 S 
ATOM     80  O   UNL A   1      40.905  22.225  26.107  1.00  0.00    -0.237 OA
ATOM     81  O   UNL A   1      43.031  21.999  24.880  1.00  0.00    -0.237 OA
ATOM     82  O   UNL A   1      43.001  21.698  27.313  1.00  0.00    -0.744 OA
ENDBRANCH  76  79
ENDBRANCH  48  72
BRANCH  60  83
ATOM     83  C   UNL A   1      45.033  26.762  34.042  1.00  0.00     0.023 A 
ATOM     84  C   UNL A   1      46.316  27.334  33.941  1.00  0.00     0.012 A 
ATOM     85  C   UNL A   1      44.830  25.656  34.890  1.00  0.00     0.148 A 
ATOM     86  C   UNL A   1      47.385  26.802  34.660  1.00  0.00     0.002 A 
ATOM     87  C   UNL A   1      45.893  25.158  35.635  1.00  0.00     0.091 A 
ATOM     88  F   UNL A   1      43.606  25.112  34.953  1.00  0.00    -0.205 F 
ATOM     89  C   UNL A   1      47.171  25.724  35.516  1.00  0.00     0.022 A 
BRANCH  87  90
ATOM     90  S   UNL A   1      45.682  23.832  36.830  1.00  0.00     0.127 S 
ATOM     91  O   UNL A   1      45.163  22.753  35.991  1.00  0.00    -0.237 OA
ATOM     92  O   UNL A   1      47.047  23.624  37.314  1.00  0.00    -0.237 OA
ATOM     93  O   UNL A   1      44.761  24.346  37.834  1.00  0.00    -0.744 OA
ENDBRANCH  87  90
ENDBRANCH  60  83
ENDBRANCH  34  35
ENDBRANCH  26  29
ENDBRANCH  24  25
ENDBRANCH   1  24
TORSDOF 16
ENDMDL
