MODEL 1
REMARK VINA RESULT:     -11.5      0.000      0.000
REMARK SMILES CCCCCCNC(=O)Oc1cccc(-c2ccc([C@H](C)C(=O)NCCCCNC(=O)c3ccc(-c4c5nc(c(-c6cccc(S(=O)(=O)[O-])c6F)c6ccc([nH]6)c(-c6cccc(S(=O)(=O)[O-])c6F)c6nc(c(-c7cccc(S(=O)(=O)[O-])c7F)c7ccc4[nH]7)C=C6)C=C5)cc3)cc2F)c1
REMARK SMILES IDX 20 1 21 2 19 3 16 4 17 5 96 6 18 7 95 8 97 9 15 10 11 11
REMARK SMILES IDX 12 12 98 13 13 14 14 15 10 16 8 17 7 18 9 20 6 21 5 22 4 23
REMARK SMILES IDX 3 24 2 25 1 26 22 27 23 28 24 29 25 31 26 32 27 33 28 34
REMARK SMILES IDX 29 35 30 36 31 38 32 39 33 40 94 41 34 42 93 43 35 44 36 45
REMARK SMILES IDX 37 46 87 47 38 48 92 49 86 50 88 51 39 52 91 53 85 54 84 55
REMARK SMILES IDX 40 57 72 58 52 59 71 60 53 61 56 62 70 63 89 64 54 65 55 66
REMARK SMILES IDX 69 68 90 69 57 70 41 71 42 72 50 73 43 74 45 75 51 76 44 77
REMARK SMILES IDX 46 78 47 79 48 80 49 81 73 82 74 83 82 84 75 85 77 86 83 87
REMARK SMILES IDX 76 88 78 89 79 90 80 91 81 92 58 93 59 94 67 95 60 96 62 97
REMARK SMILES IDX 68 98 61 99 63 100 64 101 65 102 66 103
REMARK H PARENT 7 19 24 30 29 37 88 56 56 67
REMARK Flexibility Score: inf
ROOT
ATOM      1  C   UNL A   1      30.013  27.082  24.123  1.00  0.00     0.105 C 
ATOM      2  C   UNL A   1      28.559  26.642  23.863  1.00  0.00     0.023 C 
ENDROOT
BRANCH   1   3
ATOM      3  C   UNL A   1      31.018  25.931  24.159  1.00  0.00    -0.033 A 
ATOM      4  C   UNL A   1      32.827  23.731  24.388  1.00  0.00     0.018 A 
ATOM      5  C   UNL A   1      31.814  23.747  23.418  1.00  0.00     0.012 A 
ATOM      6  C   UNL A   1      32.950  24.872  25.192  1.00  0.00     0.131 A 
ATOM      7  C   UNL A   1      30.950  24.838  23.285  1.00  0.00     0.005 A 
ATOM      8  C   UNL A   1      32.069  25.952  25.086  1.00  0.00     0.044 A 
ATOM      9  F   UNL A   1      33.930  24.956  26.108  1.00  0.00    -0.206 F 
BRANCH   4  10
ATOM     10  C   UNL A   1      33.689  22.546  24.552  1.00  0.00    -0.012 A 
ATOM     11  C   UNL A   1      35.868  21.553  24.967  1.00  0.00     0.133 A 
ATOM     12  C   UNL A   1      35.327  20.272  24.941  1.00  0.00     0.047 A 
ATOM     13  C   UNL A   1      35.070  22.680  24.763  1.00  0.00     0.056 A 
ATOM     14  C   UNL A   1      33.960  20.118  24.734  1.00  0.00     0.004 A 
ATOM     15  C   UNL A   1      33.152  21.244  24.540  1.00  0.00     0.009 A 
BRANCH  11  16
ATOM     16  O   UNL A   1      37.260  21.662  25.086  1.00  0.00    -0.410 OA
BRANCH  16  17
ATOM     17  C   UNL A   1      37.765  22.778  25.730  1.00  0.00     0.412 C 
ATOM     18  N   UNL A   1      38.992  22.566  26.290  1.00  0.00    -0.321 N 
ATOM     19  H   UNL A   1      39.388  23.318  26.786  1.00  0.00     0.167 HD
ATOM     20  O   UNL A   1      37.212  23.873  25.830  1.00  0.00    -0.224 OA
BRANCH  18  21
ATOM     21  C   UNL A   1      39.771  21.347  26.226  1.00  0.00     0.119 C 
BRANCH  21  22
ATOM     22  C   UNL A   1      40.801  21.269  27.353  1.00  0.00     0.021 C 
BRANCH  22  23
ATOM     23  C   UNL A   1      42.256  21.467  26.908  1.00  0.00     0.002 C 
BRANCH  23  24
ATOM     24  C   UNL A   1      42.938  22.735  27.432  1.00  0.00    -0.000 C 
BRANCH  24  25
ATOM     25  C   UNL A   1      42.477  23.203  28.815  1.00  0.00    -0.003 C 
ATOM     26  C   UNL A   1      43.351  24.301  29.401  1.00  0.00     0.004 C 
ENDBRANCH  24  25
ENDBRANCH  23  24
ENDBRANCH  22  23
ENDBRANCH  21  22
ENDBRANCH  18  21
ENDBRANCH  16  17
ENDBRANCH  11  16
ENDBRANCH   4  10
ENDBRANCH   1   3
BRANCH   1  27
ATOM     27  C   UNL A   1      30.381  28.247  23.199  1.00  0.00     0.227 C 
ATOM     28  O   UNL A   1      29.923  28.312  22.056  1.00  0.00    -0.274 OA
ATOM     29  N   UNL A   1      31.228  29.236  23.611  1.00  0.00    -0.356 N 
ATOM     30  H   UNL A   1      31.492  29.882  22.917  1.00  0.00     0.163 HD
BRANCH  29  31
ATOM     31  C   UNL A   1      31.794  29.471  24.929  1.00  0.00     0.116 C 
BRANCH  31  32
ATOM     32  C   UNL A   1      31.301  30.773  25.548  1.00  0.00     0.023 C 
BRANCH  32  33
ATOM     33  C   UNL A   1      31.800  31.031  26.970  1.00  0.00     0.023 C 
BRANCH  33  34
ATOM     34  C   UNL A   1      33.008  31.957  27.080  1.00  0.00     0.116 C 
BRANCH  34  35
ATOM     35  N   UNL A   1      32.640  33.339  27.351  1.00  0.00    -0.352 N 
ATOM     36  C   UNL A   1      33.130  34.194  28.311  1.00  0.00     0.251 C 
ATOM     37  H   UNL A   1      31.942  33.715  26.766  1.00  0.00     0.163 HD
ATOM     38  O   UNL A   1      32.592  35.280  28.502  1.00  0.00    -0.269 OA
BRANCH  36  39
ATOM     39  C   UNL A   1      34.290  33.783  29.132  1.00  0.00     0.039 A 
ATOM     40  C   UNL A   1      34.079  32.954  30.235  1.00  0.00     0.014 A 
ATOM     41  C   UNL A   1      35.582  34.192  28.794  1.00  0.00     0.014 A 
ATOM     42  C   UNL A   1      35.175  32.473  30.957  1.00  0.00     0.010 A 
ATOM     43  C   UNL A   1      36.675  33.650  29.466  1.00  0.00     0.010 A 
ATOM     44  C   UNL A   1      36.484  32.785  30.554  1.00  0.00    -0.014 A 
BRANCH  44  45
ATOM     45  C   UNL A   1      37.664  32.196  31.241  1.00  0.00     0.031 A 
ATOM     46  C   UNL A   1      38.421  31.057  30.609  1.00  0.00     0.074 A 
ATOM     47  C   UNL A   1      37.992  32.616  32.480  1.00  0.00     0.049 A 
ATOM     48  N   UNL A   1      39.429  30.375  31.086  1.00  0.00    -0.248 NA
ATOM     49  C   UNL A   1      37.969  30.605  29.281  1.00  0.00     0.031 C 
ATOM     50  C   UNL A   1      37.281  33.647  33.241  1.00  0.00     0.029 A 
ATOM     51  N   UNL A   1      38.987  32.204  33.334  1.00  0.00    -0.354 N 
ATOM     52  C   UNL A   1      39.702  29.389  30.146  1.00  0.00     0.074 A 
ATOM     53  C   UNL A   1      38.741  29.546  29.077  1.00  0.00     0.031 C 
ATOM     54  C   UNL A   1      37.856  33.779  34.447  1.00  0.00     0.029 A 
ATOM     55  C   UNL A   1      38.954  32.825  34.562  1.00  0.00     0.049 A 
ATOM     56  H   UNL A   1      39.658  31.527  33.090  1.00  0.00     0.167 HD
ATOM     57  C   UNL A   1      40.676  28.449  30.162  1.00  0.00     0.034 A 
ATOM     58  C   UNL A   1      39.709  32.638  35.662  1.00  0.00     0.034 A 
ATOM     59  C   UNL A   1      41.667  28.332  31.197  1.00  0.00     0.049 A 
ATOM     60  C   UNL A   1      40.827  31.629  35.620  1.00  0.00     0.074 A 
ATOM     61  C   UNL A   1      42.770  27.496  31.237  1.00  0.00     0.029 A 
ATOM     62  N   UNL A   1      41.670  29.055  32.378  1.00  0.00    -0.354 N 
ATOM     63  N   UNL A   1      41.189  30.839  34.638  1.00  0.00    -0.248 NA
ATOM     64  C   UNL A   1      41.665  31.511  36.823  1.00  0.00     0.031 C 
ATOM     65  C   UNL A   1      43.421  27.690  32.458  1.00  0.00     0.029 A 
ATOM     66  C   UNL A   1      42.744  28.672  33.162  1.00  0.00     0.049 A 
ATOM     67  H   UNL A   1      41.008  29.741  32.623  1.00  0.00     0.167 HD
ATOM     68  C   UNL A   1      42.316  30.162  35.091  1.00  0.00     0.074 A 
ATOM     69  C   UNL A   1      42.592  30.651  36.424  1.00  0.00     0.031 C 
ATOM     70  C   UNL A   1      43.046  29.207  34.463  1.00  0.00     0.034 A 
BRANCH  57  71
ATOM     71  C   UNL A   1      40.761  27.490  29.005  1.00  0.00     0.023 A 
ATOM     72  C   UNL A   1      39.832  26.435  28.901  1.00  0.00     0.012 A 
ATOM     73  C   UNL A   1      41.691  27.699  27.968  1.00  0.00     0.148 A 
ATOM     74  C   UNL A   1      39.840  25.590  27.792  1.00  0.00     0.002 A 
ATOM     75  C   UNL A   1      41.663  26.883  26.845  1.00  0.00     0.091 A 
ATOM     76  F   UNL A   1      42.577  28.697  28.097  1.00  0.00    -0.205 F 
ATOM     77  C   UNL A   1      40.745  25.822  26.759  1.00  0.00     0.022 A 
BRANCH  75  78
ATOM     78  S   UNL A   1      42.727  27.149  25.423  1.00  0.00     0.127 S 
ATOM     79  O   UNL A   1      44.028  27.349  26.060  1.00  0.00    -0.237 OA
ATOM     80  O   UNL A   1      42.591  25.885  24.697  1.00  0.00    -0.237 OA
ATOM     81  O   UNL A   1      42.191  28.311  24.728  1.00  0.00    -0.744 OA
ENDBRANCH  75  78
ENDBRANCH  57  71
BRANCH  58  82
ATOM     82  C   UNL A   1      39.465  33.446  36.891  1.00  0.00     0.023 A 
ATOM     83  C   UNL A   1      40.002  34.745  36.990  1.00  0.00     0.012 A 
ATOM     84  C   UNL A   1      38.708  32.934  37.962  1.00  0.00     0.148 A 
ATOM     85  C   UNL A   1      39.831  35.500  38.152  1.00  0.00     0.002 A 
ATOM     86  C   UNL A   1      38.490  33.714  39.092  1.00  0.00     0.091 A 
ATOM     87  F   UNL A   1      38.216  31.692  37.858  1.00  0.00    -0.205 F 
ATOM     88  C   UNL A   1      39.069  34.988  39.198  1.00  0.00     0.022 A 
BRANCH  86  89
ATOM     89  S   UNL A   1      37.408  33.186  40.425  1.00  0.00     0.127 S 
ATOM     90  O   UNL A   1      37.286  34.409  41.213  1.00  0.00    -0.237 OA
ATOM     91  O   UNL A   1      36.199  32.795  39.699  1.00  0.00    -0.237 OA
ATOM     92  O   UNL A   1      38.101  32.077  41.069  1.00  0.00    -0.744 OA
ENDBRANCH  86  89
ENDBRANCH  58  82
BRANCH  70  93
ATOM     93  C   UNL A   1      44.246  28.654  35.184  1.00  0.00     0.023 A 
ATOM     94  C   UNL A   1      45.514  29.237  34.991  1.00  0.00     0.012 A 
ATOM     95  C   UNL A   1      44.102  27.607  36.117  1.00  0.00     0.148 A 
ATOM     96  C   UNL A   1      46.625  28.764  35.688  1.00  0.00     0.002 A 
ATOM     97  C   UNL A   1      45.202  27.176  36.846  1.00  0.00     0.091 A 
ATOM     98  F   UNL A   1      42.890  27.054  36.273  1.00  0.00    -0.205 F 
ATOM     99  C   UNL A   1      46.468  27.744  36.623  1.00  0.00     0.022 A 
BRANCH  97 100
ATOM    100  S   UNL A   1      45.073  25.939  38.142  1.00  0.00     0.127 S 
ATOM    101  O   UNL A   1      46.448  25.882  38.636  1.00  0.00    -0.237 OA
ATOM    102  O   UNL A   1      44.119  26.555  39.064  1.00  0.00    -0.237 OA
ATOM    103  O   UNL A   1      44.592  24.727  37.495  1.00  0.00    -0.744 OA
ENDBRANCH  97 100
ENDBRANCH  70  93
ENDBRANCH  44  45
ENDBRANCH  36  39
ENDBRANCH  34  35
ENDBRANCH  33  34
ENDBRANCH  32  33
ENDBRANCH  31  32
ENDBRANCH  29  31
ENDBRANCH   1  27
TORSDOF 23
ENDMDL
MODEL 2
REMARK VINA RESULT:     -10.9      5.178     10.151
REMARK SMILES CCCCCCNC(=O)Oc1cccc(-c2ccc([C@H](C)C(=O)NCCCCNC(=O)c3ccc(-c4c5nc(c(-c6cccc(S(=O)(=O)[O-])c6F)c6ccc([nH]6)c(-c6cccc(S(=O)(=O)[O-])c6F)c6nc(c(-c7cccc(S(=O)(=O)[O-])c7F)c7ccc4[nH]7)C=C6)C=C5)cc3)cc2F)c1
REMARK SMILES IDX 20 1 21 2 19 3 16 4 17 5 96 6 18 7 95 8 97 9 15 10 11 11
REMARK SMILES IDX 12 12 98 13 13 14 14 15 10 16 8 17 7 18 9 20 6 21 5 22 4 23
REMARK SMILES IDX 3 24 2 25 1 26 22 27 23 28 24 29 25 31 26 32 27 33 28 34
REMARK SMILES IDX 29 35 30 36 31 38 32 39 33 40 94 41 34 42 93 43 35 44 36 45
REMARK SMILES IDX 37 46 87 47 38 48 92 49 86 50 88 51 39 52 91 53 85 54 84 55
REMARK SMILES IDX 40 57 72 58 52 59 71 60 53 61 56 62 70 63 89 64 54 65 55 66
REMARK SMILES IDX 69 68 90 69 57 70 41 71 42 72 50 73 43 74 45 75 51 76 44 77
REMARK SMILES IDX 46 78 47 79 48 80 49 81 73 82 74 83 82 84 75 85 77 86 83 87
REMARK SMILES IDX 76 88 78 89 79 90 80 91 81 92 58 93 59 94 67 95 60 96 62 97
REMARK SMILES IDX 68 98 61 99 63 100 64 101 65 102 66 103
REMARK H PARENT 7 19 24 30 29 37 88 56 56 67
REMARK Flexibility Score: inf
ROOT
ATOM      1  C   UNL A   1      33.275  20.744  23.881  1.00  0.00     0.105 C 
ATOM      2  C   UNL A   1      32.274  19.644  23.476  1.00  0.00     0.023 C 
ENDROOT
BRANCH   1   3
ATOM      3  C   UNL A   1      32.712  22.162  23.798  1.00  0.00    -0.033 A 
ATOM      4  C   UNL A   1      31.743  24.850  23.802  1.00  0.00     0.018 A 
ATOM      5  C   UNL A   1      32.692  24.417  22.864  1.00  0.00     0.012 A 
ATOM      6  C   UNL A   1      31.246  23.887  24.690  1.00  0.00     0.131 A 
ATOM      7  C   UNL A   1      33.141  23.092  22.842  1.00  0.00     0.005 A 
ATOM      8  C   UNL A   1      31.715  22.570  24.694  1.00  0.00     0.044 A 
ATOM      9  F   UNL A   1      30.295  24.211  25.583  1.00  0.00    -0.206 F 
BRANCH   4  10
ATOM     10  C   UNL A   1      31.327  26.264  23.848  1.00  0.00    -0.012 A 
ATOM     11  C   UNL A   1      31.310  28.431  24.948  1.00  0.00     0.133 A 
ATOM     12  C   UNL A   1      30.591  28.995  23.899  1.00  0.00     0.047 A 
ATOM     13  C   UNL A   1      31.666  27.082  24.938  1.00  0.00     0.056 A 
ATOM     14  C   UNL A   1      30.246  28.201  22.810  1.00  0.00     0.004 A 
ATOM     15  C   UNL A   1      30.610  26.851  22.788  1.00  0.00     0.009 A 
BRANCH  11  16
ATOM     16  O   UNL A   1      31.558  29.239  26.065  1.00  0.00    -0.410 OA
BRANCH  16  17
ATOM     17  C   UNL A   1      31.876  28.609  27.256  1.00  0.00     0.412 C 
ATOM     18  N   UNL A   1      33.126  28.921  27.711  1.00  0.00    -0.321 N 
ATOM     19  H   UNL A   1      33.416  28.479  28.541  1.00  0.00     0.167 HD
ATOM     20  O   UNL A   1      31.157  27.834  27.884  1.00  0.00    -0.224 OA
BRANCH  18  21
ATOM     21  C   UNL A   1      34.065  29.836  27.097  1.00  0.00     0.119 C 
BRANCH  21  22
ATOM     22  C   UNL A   1      33.826  31.280  27.538  1.00  0.00     0.021 C 
BRANCH  22  23
ATOM     23  C   UNL A   1      35.039  31.963  28.182  1.00  0.00     0.002 C 
BRANCH  23  24
ATOM     24  C   UNL A   1      34.939  32.196  29.693  1.00  0.00    -0.000 C 
BRANCH  24  25
ATOM     25  C   UNL A   1      35.253  33.620  30.159  1.00  0.00    -0.003 C 
ATOM     26  C   UNL A   1      36.649  33.766  30.745  1.00  0.00     0.004 C 
ENDBRANCH  24  25
ENDBRANCH  23  24
ENDBRANCH  22  23
ENDBRANCH  21  22
ENDBRANCH  18  21
ENDBRANCH  16  17
ENDBRANCH  11  16
ENDBRANCH   4  10
ENDBRANCH   1   3
BRANCH   1  27
ATOM     27  C   UNL A   1      33.945  20.379  25.209  1.00  0.00     0.227 C 
ATOM     28  O   UNL A   1      33.318  19.784  26.088  1.00  0.00    -0.274 OA
ATOM     29  N   UNL A   1      35.248  20.708  25.458  1.00  0.00    -0.356 N 
ATOM     30  H   UNL A   1      35.559  20.532  26.375  1.00  0.00     0.163 HD
BRANCH  29  31
ATOM     31  C   UNL A   1      36.238  21.281  24.561  1.00  0.00     0.116 C 
BRANCH  31  32
ATOM     32  C   UNL A   1      37.583  21.492  25.244  1.00  0.00     0.023 C 
BRANCH  32  33
ATOM     33  C   UNL A   1      38.463  20.243  25.317  1.00  0.00     0.023 C 
BRANCH  33  34
ATOM     34  C   UNL A   1      39.618  20.316  26.311  1.00  0.00     0.116 C 
BRANCH  34  35
ATOM     35  N   UNL A   1      40.662  19.338  26.041  1.00  0.00    -0.352 N 
ATOM     36  C   UNL A   1      42.012  19.536  25.874  1.00  0.00     0.251 C 
ATOM     37  H   UNL A   1      40.358  18.404  25.967  1.00  0.00     0.163 HD
ATOM     38  O   UNL A   1      42.728  18.616  25.493  1.00  0.00    -0.269 OA
BRANCH  36  39
ATOM     39  C   UNL A   1      42.592  20.874  26.126  1.00  0.00     0.039 A 
ATOM     40  C   UNL A   1      42.694  21.778  25.067  1.00  0.00     0.014 A 
ATOM     41  C   UNL A   1      43.004  21.240  27.410  1.00  0.00     0.014 A 
ATOM     42  C   UNL A   1      43.141  23.079  25.312  1.00  0.00     0.010 A 
ATOM     43  C   UNL A   1      43.375  22.558  27.664  1.00  0.00     0.010 A 
ATOM     44  C   UNL A   1      43.448  23.492  26.619  1.00  0.00    -0.014 A 
BRANCH  44  45
ATOM     45  C   UNL A   1      43.820  24.901  26.916  1.00  0.00     0.031 A 
ATOM     46  C   UNL A   1      45.253  25.349  26.798  1.00  0.00     0.074 A 
ATOM     47  C   UNL A   1      42.886  25.751  27.390  1.00  0.00     0.049 A 
ATOM     48  N   UNL A   1      45.775  26.515  27.076  1.00  0.00    -0.248 NA
ATOM     49  C   UNL A   1      46.233  24.352  26.334  1.00  0.00     0.031 C 
ATOM     50  C   UNL A   1      41.482  25.414  27.639  1.00  0.00     0.029 A 
ATOM     51  N   UNL A   1      42.984  27.065  27.782  1.00  0.00    -0.354 N 
ATOM     52  C   UNL A   1      47.143  26.381  26.870  1.00  0.00     0.074 A 
ATOM     53  C   UNL A   1      47.375  25.013  26.460  1.00  0.00     0.031 C 
ATOM     54  C   UNL A   1      40.854  26.486  28.148  1.00  0.00     0.029 A 
ATOM     55  C   UNL A   1      41.813  27.578  28.292  1.00  0.00     0.049 A 
ATOM     56  H   UNL A   1      43.813  27.588  27.706  1.00  0.00     0.167 HD
ATOM     57  C   UNL A   1      48.114  27.315  26.991  1.00  0.00     0.034 A 
ATOM     58  C   UNL A   1      41.542  28.784  28.831  1.00  0.00     0.034 A 
ATOM     59  C   UNL A   1      47.873  28.688  27.341  1.00  0.00     0.049 A 
ATOM     60  C   UNL A   1      42.633  29.820  28.889  1.00  0.00     0.074 A 
ATOM     61  C   UNL A   1      48.775  29.738  27.364  1.00  0.00     0.029 A 
ATOM     62  N   UNL A   1      46.652  29.202  27.745  1.00  0.00    -0.354 N 
ATOM     63  N   UNL A   1      43.882  29.727  28.501  1.00  0.00    -0.248 NA
ATOM     64  C   UNL A   1      42.269  31.142  29.423  1.00  0.00     0.031 C 
ATOM     65  C   UNL A   1      48.107  30.879  27.814  1.00  0.00     0.029 A 
ATOM     66  C   UNL A   1      46.781  30.549  28.037  1.00  0.00     0.049 A 
ATOM     67  H   UNL A   1      45.817  28.686  27.812  1.00  0.00     0.167 HD
ATOM     68  C   UNL A   1      44.440  30.984  28.709  1.00  0.00     0.074 A 
ATOM     69  C   UNL A   1      43.388  31.829  29.232  1.00  0.00     0.031 C 
ATOM     70  C   UNL A   1      45.714  31.396  28.500  1.00  0.00     0.034 A 
BRANCH  57  71
ATOM     71  C   UNL A   1      49.535  26.909  26.701  1.00  0.00     0.023 A 
ATOM     72  C   UNL A   1      50.237  26.110  27.626  1.00  0.00     0.012 A 
ATOM     73  C   UNL A   1      50.133  27.229  25.466  1.00  0.00     0.148 A 
ATOM     74  C   UNL A   1      51.521  25.652  27.335  1.00  0.00     0.002 A 
ATOM     75  C   UNL A   1      51.394  26.731  25.164  1.00  0.00     0.091 A 
ATOM     76  F   UNL A   1      49.454  28.006  24.610  1.00  0.00    -0.205 F 
ATOM     77  C   UNL A   1      52.092  25.950  26.100  1.00  0.00     0.022 A 
BRANCH  75  78
ATOM     78  S   UNL A   1      52.182  26.984  23.571  1.00  0.00     0.127 S 
ATOM     79  O   UNL A   1      52.624  28.374  23.678  1.00  0.00    -0.237 OA
ATOM     80  O   UNL A   1      53.262  25.997  23.603  1.00  0.00    -0.237 OA
ATOM     81  O   UNL A   1      51.157  26.735  22.567  1.00  0.00    -0.744 OA
ENDBRANCH  75  78
ENDBRANCH  57  71
BRANCH  58  82
ATOM     82  C   UNL A   1      40.172  29.097  29.327  1.00  0.00     0.023 A 
ATOM     83  C   UNL A   1      39.195  29.569  28.427  1.00  0.00     0.012 A 
ATOM     84  C   UNL A   1      39.833  28.935  30.683  1.00  0.00     0.148 A 
ATOM     85  C   UNL A   1      37.922  29.919  28.879  1.00  0.00     0.002 A 
ATOM     86  C   UNL A   1      38.544  29.228  31.116  1.00  0.00     0.091 A 
ATOM     87  F   UNL A   1      40.777  28.499  31.529  1.00  0.00    -0.205 F 
ATOM     88  C   UNL A   1      37.594  29.741  30.220  1.00  0.00     0.022 A 
BRANCH  86  89
ATOM     89  S   UNL A   1      38.000  28.898  32.795  1.00  0.00     0.127 S 
ATOM     90  O   UNL A   1      36.664  29.486  32.799  1.00  0.00    -0.237 OA
ATOM     91  O   UNL A   1      38.031  27.436  32.843  1.00  0.00    -0.237 OA
ATOM     92  O   UNL A   1      38.985  29.543  33.655  1.00  0.00    -0.744 OA
ENDBRANCH  86  89
ENDBRANCH  58  82
BRANCH  70  93
ATOM     93  C   UNL A   1      46.043  32.836  28.790  1.00  0.00     0.023 A 
ATOM     94  C   UNL A   1      46.534  33.206  30.058  1.00  0.00     0.012 A 
ATOM     95  C   UNL A   1      45.942  33.811  27.776  1.00  0.00     0.148 A 
ATOM     96  C   UNL A   1      46.886  34.528  30.323  1.00  0.00     0.002 A 
ATOM     97  C   UNL A   1      46.343  35.115  28.032  1.00  0.00     0.091 A 
ATOM     98  F   UNL A   1      45.456  33.443  26.582  1.00  0.00    -0.205 F 
ATOM     99  C   UNL A   1      46.803  35.480  29.309  1.00  0.00     0.022 A 
BRANCH  97 100
ATOM    100  S   UNL A   1      46.368  36.382  26.758  1.00  0.00     0.127 S 
ATOM    101  O   UNL A   1      46.525  35.581  25.545  1.00  0.00    -0.237 OA
ATOM    102  O   UNL A   1      45.051  37.001  26.912  1.00  0.00    -0.237 OA
ATOM    103  O   UNL A   1      47.488  37.254  27.079  1.00  0.00    -0.744 OA
ENDBRANCH  97 100
ENDBRANCH  70  93
ENDBRANCH  44  45
ENDBRANCH  36  39
ENDBRANCH  34  35
ENDBRANCH  33  34
ENDBRANCH  32  33
ENDBRANCH  31  32
ENDBRANCH  29  31
ENDBRANCH   1  27
TORSDOF 23
ENDMDL
MODEL 3
REMARK VINA RESULT:     -10.9      5.275     10.655
REMARK SMILES CCCCCCNC(=O)Oc1cccc(-c2ccc([C@H](C)C(=O)NCCCCNC(=O)c3ccc(-c4c5nc(c(-c6cccc(S(=O)(=O)[O-])c6F)c6ccc([nH]6)c(-c6cccc(S(=O)(=O)[O-])c6F)c6nc(c(-c7cccc(S(=O)(=O)[O-])c7F)c7ccc4[nH]7)C=C6)C=C5)cc3)cc2F)c1
REMARK SMILES IDX 20 1 21 2 19 3 16 4 17 5 96 6 18 7 95 8 97 9 15 10 11 11
REMARK SMILES IDX 12 12 98 13 13 14 14 15 10 16 8 17 7 18 9 20 6 21 5 22 4 23
REMARK SMILES IDX 3 24 2 25 1 26 22 27 23 28 24 29 25 31 26 32 27 33 28 34
REMARK SMILES IDX 29 35 30 36 31 38 32 39 33 40 94 41 34 42 93 43 35 44 36 45
REMARK SMILES IDX 37 46 87 47 38 48 92 49 86 50 88 51 39 52 91 53 85 54 84 55
REMARK SMILES IDX 40 57 72 58 52 59 71 60 53 61 56 62 70 63 89 64 54 65 55 66
REMARK SMILES IDX 69 68 90 69 57 70 41 71 42 72 50 73 43 74 45 75 51 76 44 77
REMARK SMILES IDX 46 78 47 79 48 80 49 81 73 82 74 83 82 84 75 85 77 86 83 87
REMARK SMILES IDX 76 88 78 89 79 90 80 91 81 92 58 93 59 94 67 95 60 96 62 97
REMARK SMILES IDX 68 98 61 99 63 100 64 101 65 102 66 103
REMARK H PARENT 7 19 24 30 29 37 88 56 56 67
REMARK Flexibility Score: inf
ROOT
ATOM      1  C   UNL A   1      44.902  24.404  25.311  1.00  0.00     0.105 C 
ATOM      2  C   UNL A   1      43.589  23.921  24.667  1.00  0.00     0.023 C 
ENDROOT
BRANCH   1   3
ATOM      3  C   UNL A   1      44.849  25.836  25.843  1.00  0.00    -0.033 A 
ATOM      4  C   UNL A   1      44.854  28.563  26.697  1.00  0.00     0.018 A 
ATOM      5  C   UNL A   1      43.690  27.953  26.207  1.00  0.00     0.012 A 
ATOM      6  C   UNL A   1      45.993  27.754  26.809  1.00  0.00     0.131 A 
ATOM      7  C   UNL A   1      43.680  26.609  25.820  1.00  0.00     0.005 A 
ATOM      8  C   UNL A   1      45.997  26.419  26.394  1.00  0.00     0.044 A 
ATOM      9  F   UNL A   1      47.133  28.250  27.320  1.00  0.00    -0.206 F 
BRANCH   4  10
ATOM     10  C   UNL A   1      44.861  29.997  27.043  1.00  0.00    -0.012 A 
ATOM     11  C   UNL A   1      45.453  32.296  26.527  1.00  0.00     0.133 A 
ATOM     12  C   UNL A   1      44.806  32.754  27.670  1.00  0.00     0.047 A 
ATOM     13  C   UNL A   1      45.497  30.936  26.216  1.00  0.00     0.056 A 
ATOM     14  C   UNL A   1      44.170  31.839  28.502  1.00  0.00     0.004 A 
ATOM     15  C   UNL A   1      44.200  30.475  28.191  1.00  0.00     0.009 A 
BRANCH  11  16
ATOM     16  O   UNL A   1      46.158  33.237  25.766  1.00  0.00    -0.410 OA
BRANCH  16  17
ATOM     17  C   UNL A   1      45.427  34.087  24.955  1.00  0.00     0.412 C 
ATOM     18  N   UNL A   1      45.632  35.407  25.237  1.00  0.00    -0.321 N 
ATOM     19  H   UNL A   1      45.115  36.057  24.709  1.00  0.00     0.167 HD
ATOM     20  O   UNL A   1      44.651  33.751  24.061  1.00  0.00    -0.224 OA
BRANCH  18  21
ATOM     21  C   UNL A   1      46.533  35.948  26.233  1.00  0.00     0.119 C 
BRANCH  21  22
ATOM     22  C   UNL A   1      45.846  36.986  27.120  1.00  0.00     0.021 C 
BRANCH  22  23
ATOM     23  C   UNL A   1      44.557  36.501  27.795  1.00  0.00     0.002 C 
BRANCH  23  24
ATOM     24  C   UNL A   1      43.254  36.988  27.151  1.00  0.00    -0.000 C 
BRANCH  24  25
ATOM     25  C   UNL A   1      42.099  35.983  27.171  1.00  0.00    -0.003 C 
ATOM     26  C   UNL A   1      41.784  35.457  28.562  1.00  0.00     0.004 C 
ENDBRANCH  24  25
ENDBRANCH  23  24
ENDBRANCH  22  23
ENDBRANCH  21  22
ENDBRANCH  18  21
ENDBRANCH  16  17
ENDBRANCH  11  16
ENDBRANCH   4  10
ENDBRANCH   1   3
BRANCH   1  27
ATOM     27  C   UNL A   1      45.416  23.355  26.301  1.00  0.00     0.227 C 
ATOM     28  O   UNL A   1      46.505  22.804  26.126  1.00  0.00    -0.274 OA
ATOM     29  N   UNL A   1      44.683  22.996  27.396  1.00  0.00    -0.356 N 
ATOM     30  H   UNL A   1      45.040  22.239  27.914  1.00  0.00     0.163 HD
BRANCH  29  31
ATOM     31  C   UNL A   1      43.450  23.573  27.906  1.00  0.00     0.116 C 
BRANCH  31  32
ATOM     32  C   UNL A   1      42.674  22.600  28.784  1.00  0.00     0.023 C 
BRANCH  32  33
ATOM     33  C   UNL A   1      41.534  21.871  28.072  1.00  0.00     0.023 C 
BRANCH  33  34
ATOM     34  C   UNL A   1      41.454  22.097  26.565  1.00  0.00     0.116 C 
BRANCH  34  35
ATOM     35  N   UNL A   1      40.090  22.065  26.058  1.00  0.00    -0.352 N 
ATOM     36  C   UNL A   1      39.084  22.988  26.220  1.00  0.00     0.251 C 
ATOM     37  H   UNL A   1      39.854  21.271  25.525  1.00  0.00     0.163 HD
ATOM     38  O   UNL A   1      37.942  22.726  25.857  1.00  0.00    -0.269 OA
BRANCH  36  39
ATOM     39  C   UNL A   1      39.380  24.287  26.863  1.00  0.00     0.039 A 
ATOM     40  C   UNL A   1      38.982  24.495  28.185  1.00  0.00     0.014 A 
ATOM     41  C   UNL A   1      40.075  25.282  26.171  1.00  0.00     0.014 A 
ATOM     42  C   UNL A   1      39.347  25.675  28.838  1.00  0.00     0.010 A 
ATOM     43  C   UNL A   1      40.503  26.422  26.847  1.00  0.00     0.010 A 
ATOM     44  C   UNL A   1      40.144  26.631  28.187  1.00  0.00    -0.014 A 
BRANCH  44  45
ATOM     45  C   UNL A   1      40.634  27.841  28.900  1.00  0.00     0.031 A 
ATOM     46  C   UNL A   1      41.967  27.821  29.603  1.00  0.00     0.074 A 
ATOM     47  C   UNL A   1      39.837  28.923  29.002  1.00  0.00     0.049 A 
ATOM     48  N   UNL A   1      42.528  28.754  30.327  1.00  0.00    -0.248 NA
ATOM     49  C   UNL A   1      42.761  26.584  29.504  1.00  0.00     0.031 C 
ATOM     50  C   UNL A   1      38.485  29.035  28.446  1.00  0.00     0.029 A 
ATOM     51  N   UNL A   1      40.030  30.126  29.640  1.00  0.00    -0.354 N 
ATOM     52  C   UNL A   1      43.710  28.205  30.808  1.00  0.00     0.074 A 
ATOM     53  C   UNL A   1      43.779  26.849  30.309  1.00  0.00     0.031 C 
ATOM     54  C   UNL A   1      37.971  30.231  28.773  1.00  0.00     0.029 A 
ATOM     55  C   UNL A   1      38.938  30.961  29.587  1.00  0.00     0.049 A 
ATOM     56  H   UNL A   1      40.871  30.365  30.092  1.00  0.00     0.167 HD
ATOM     57  C   UNL A   1      44.661  28.783  31.579  1.00  0.00     0.034 A 
ATOM     58  C   UNL A   1      38.729  32.171  30.144  1.00  0.00     0.034 A 
ATOM     59  C   UNL A   1      44.619  30.149  32.024  1.00  0.00     0.049 A 
ATOM     60  C   UNL A   1      39.836  32.811  30.941  1.00  0.00     0.074 A 
ATOM     61  C   UNL A   1      45.595  30.861  32.699  1.00  0.00     0.029 A 
ATOM     62  N   UNL A   1      43.543  31.005  31.856  1.00  0.00    -0.354 N 
ATOM     63  N   UNL A   1      41.029  32.345  31.217  1.00  0.00    -0.248 NA
ATOM     64  C   UNL A   1      39.582  34.160  31.470  1.00  0.00     0.031 C 
ATOM     65  C   UNL A   1      45.096  32.138  32.970  1.00  0.00     0.029 A 
ATOM     66  C   UNL A   1      43.823  32.232  32.432  1.00  0.00     0.049 A 
ATOM     67  H   UNL A   1      42.704  30.775  31.396  1.00  0.00     0.167 HD
ATOM     68  C   UNL A   1      41.679  33.355  31.918  1.00  0.00     0.074 A 
ATOM     69  C   UNL A   1      40.758  34.468  32.001  1.00  0.00     0.031 C 
ATOM     70  C   UNL A   1      42.923  33.354  32.458  1.00  0.00     0.034 A 
BRANCH  57  71
ATOM     71  C   UNL A   1      45.864  27.963  31.962  1.00  0.00     0.023 A 
ATOM     72  C   UNL A   1      45.849  27.215  33.157  1.00  0.00     0.012 A 
ATOM     73  C   UNL A   1      46.962  27.849  31.086  1.00  0.00     0.148 A 
ATOM     74  C   UNL A   1      46.917  26.381  33.484  1.00  0.00     0.002 A 
ATOM     75  C   UNL A   1      48.002  26.982  31.397  1.00  0.00     0.091 A 
ATOM     76  F   UNL A   1      46.963  28.584  29.965  1.00  0.00    -0.205 F 
ATOM     77  C   UNL A   1      47.985  26.254  32.599  1.00  0.00     0.022 A 
BRANCH  75  78
ATOM     78  S   UNL A   1      49.381  26.681  30.287  1.00  0.00     0.127 S 
ATOM     79  O   UNL A   1      48.728  25.961  29.194  1.00  0.00    -0.237 OA
ATOM     80  O   UNL A   1      49.807  28.040  29.952  1.00  0.00    -0.237 OA
ATOM     81  O   UNL A   1      50.351  25.906  31.047  1.00  0.00    -0.744 OA
ENDBRANCH  75  78
ENDBRANCH  57  71
BRANCH  58  82
ATOM     82  C   UNL A   1      37.434  32.881  29.941  1.00  0.00     0.023 A 
ATOM     83  C   UNL A   1      37.060  33.296  28.648  1.00  0.00     0.012 A 
ATOM     84  C   UNL A   1      36.573  33.150  31.022  1.00  0.00     0.148 A 
ATOM     85  C   UNL A   1      35.878  34.009  28.442  1.00  0.00     0.002 A 
ATOM     86  C   UNL A   1      35.367  33.807  30.802  1.00  0.00     0.091 A 
ATOM     87  F   UNL A   1      36.949  32.761  32.248  1.00  0.00    -0.205 F 
ATOM     88  C   UNL A   1      35.028  34.256  29.516  1.00  0.00     0.022 A 
BRANCH  86  89
ATOM     89  S   UNL A   1      34.154  34.043  32.105  1.00  0.00     0.127 S 
ATOM     90  O   UNL A   1      33.094  34.759  31.401  1.00  0.00    -0.237 OA
ATOM     91  O   UNL A   1      33.830  32.665  32.473  1.00  0.00    -0.237 OA
ATOM     92  O   UNL A   1      34.847  34.791  33.147  1.00  0.00    -0.744 OA
ENDBRANCH  86  89
ENDBRANCH  58  82
BRANCH  70  93
ATOM     93  C   UNL A   1      43.389  34.607  33.149  1.00  0.00     0.023 A 
ATOM     94  C   UNL A   1      43.241  34.739  34.544  1.00  0.00     0.012 A 
ATOM     95  C   UNL A   1      44.050  35.620  32.425  1.00  0.00     0.148 A 
ATOM     96  C   UNL A   1      43.711  35.875  35.202  1.00  0.00     0.002 A 
ATOM     97  C   UNL A   1      44.562  36.724  33.094  1.00  0.00     0.091 A 
ATOM     98  F   UNL A   1      44.165  35.483  31.096  1.00  0.00    -0.205 F 
ATOM     99  C   UNL A   1      44.382  36.860  34.481  1.00  0.00     0.022 A 
BRANCH  97 100
ATOM    100  S   UNL A   1      45.528  37.990  32.263  1.00  0.00     0.127 S 
ATOM    101  O   UNL A   1      45.949  38.828  33.385  1.00  0.00    -0.237 OA
ATOM    102  O   UNL A   1      46.601  37.208  31.649  1.00  0.00    -0.237 OA
ATOM    103  O   UNL A   1      44.625  38.626  31.314  1.00  0.00    -0.744 OA
ENDBRANCH  97 100
ENDBRANCH  70  93
ENDBRANCH  44  45
ENDBRANCH  36  39
ENDBRANCH  34  35
ENDBRANCH  33  34
ENDBRANCH  32  33
ENDBRANCH  31  32
ENDBRANCH  29  31
ENDBRANCH   1  27
TORSDOF 23
ENDMDL
