MODEL 1
REMARK VINA RESULT:     -10.0      0.000      0.000
REMARK SMILES C[C@H](CCO)S[C@H]1CC[C@]([NH2+]C2CC2)(C(=O)NCCCCNC(=O)c2ccc(-c3c4nc(c(-c5cccc(S(=O)(=O)[O-])c5F)c5ccc([nH]5)c(-c5cccc(S(=O)(=O)[O-])c5F)c5nc(c(-c6cccc(S(=O)(=O)[O-])c6F)c6ccc3[nH]6)C=C5)C=C4)cc2)C1
REMARK SMILES IDX 18 1 17 2 15 3 16 4 10 6 7 7 8 8 88 9 9 10 6 11 2 12 1 13
REMARK SMILES IDX 3 14 4 15 5 16 11 18 12 21 13 22 14 23 19 24 20 25 21 26
REMARK SMILES IDX 22 27 23 28 24 30 25 31 26 32 87 33 27 34 86 35 28 36 29 37
REMARK SMILES IDX 30 38 80 39 31 40 85 41 79 42 81 43 32 44 84 45 78 46 77 47
REMARK SMILES IDX 33 49 65 50 45 51 64 52 46 53 49 54 63 55 82 56 47 57 48 58
REMARK SMILES IDX 62 60 83 61 50 62 34 63 35 64 43 65 36 66 38 67 44 68 37 69
REMARK SMILES IDX 39 70 40 71 41 72 42 73 66 74 67 75 75 76 68 77 70 78 76 79
REMARK SMILES IDX 69 80 71 81 72 82 73 83 74 84 51 85 52 86 60 87 53 88 55 89
REMARK SMILES IDX 61 90 54 91 56 92 57 93 58 94 59 95
REMARK H PARENT 17 5 5 17 11 19 11 20 22 29 81 48 49 59
REMARK Flexibility Score: inf
ROOT
ATOM      1  C   UNL A   1      34.081  23.548  23.509  1.00  0.00     0.116 C 
ENDROOT
BRANCH   1   2
ATOM      2  N   UNL A   1      34.224  24.681  22.629  1.00  0.00    -0.351 N 
ATOM      3  C   UNL A   1      33.474  25.810  22.518  1.00  0.00     0.281 C 
ATOM      4  O   UNL A   1      33.700  26.516  21.531  1.00  0.00    -0.268 OA
ATOM      5  H   UNL A   1      34.986  24.629  22.008  1.00  0.00     0.163 HD
BRANCH   3   6
ATOM      6  C   UNL A   1      32.402  26.194  23.587  1.00  0.00     0.176 C 
ATOM      7  C   UNL A   1      32.081  26.108  26.038  1.00  0.00     0.054 C 
ATOM      8  C   UNL A   1      31.052  25.157  25.362  1.00  0.00     0.022 C 
ATOM      9  C   UNL A   1      33.137  26.244  24.956  1.00  0.00     0.093 C 
ATOM     10  C   UNL A   1      31.460  25.015  23.886  1.00  0.00     0.080 C 
BRANCH   7  11
ATOM     11  S   UNL A   1      31.113  27.514  26.722  1.00  0.00    -0.155 SA
BRANCH  11  12
ATOM     12  C   UNL A   1      32.217  28.954  27.124  1.00  0.00     0.046 C 
ATOM     13  C   UNL A   1      31.944  29.936  25.968  1.00  0.00     0.019 C 
BRANCH  12  14
ATOM     14  C   UNL A   1      33.725  28.727  27.366  1.00  0.00     0.042 C 
BRANCH  14  15
ATOM     15  C   UNL A   1      34.759  29.449  26.512  1.00  0.00     0.157 C 
BRANCH  15  16
ATOM     16  O   UNL A   1      35.271  30.590  27.180  1.00  0.00    -0.396 OA
ATOM     17  H   UNL A   1      35.790  31.123  26.557  1.00  0.00     0.210 HD
ENDBRANCH  15  16
ENDBRANCH  14  15
ENDBRANCH  12  14
ENDBRANCH  11  12
ENDBRANCH   7  11
BRANCH   6  18
ATOM     18  N   UNL A   1      31.790  27.518  23.261  1.00  0.00    -0.331 N 
ATOM     19  H   UNL A   1      32.461  28.020  22.680  1.00  0.00     0.347 HD
ATOM     20  H   UNL A   1      31.583  27.917  24.177  1.00  0.00     0.347 HD
BRANCH  18  21
ATOM     21  C   UNL A   1      30.494  27.567  22.561  1.00  0.00     0.183 C 
ATOM     22  C   UNL A   1      29.206  27.637  23.327  1.00  0.00     0.071 C 
ATOM     23  C   UNL A   1      29.688  28.843  22.598  1.00  0.00     0.071 C 
ENDBRANCH  18  21
ENDBRANCH   6  18
ENDBRANCH   3   6
ENDBRANCH   1   2
BRANCH   1  24
ATOM     24  C   UNL A   1      35.431  22.870  23.726  1.00  0.00     0.023 C 
BRANCH  24  25
ATOM     25  C   UNL A   1      35.703  22.508  25.188  1.00  0.00     0.023 C 
BRANCH  25  26
ATOM     26  C   UNL A   1      36.891  23.234  25.809  1.00  0.00     0.116 C 
BRANCH  26  27
ATOM     27  N   UNL A   1      38.007  22.343  26.098  1.00  0.00    -0.352 N 
ATOM     28  C   UNL A   1      39.256  22.669  26.560  1.00  0.00     0.251 C 
ATOM     29  H   UNL A   1      37.844  21.385  25.941  1.00  0.00     0.163 HD
ATOM     30  O   UNL A   1      40.140  21.818  26.616  1.00  0.00    -0.269 OA
BRANCH  28  31
ATOM     31  C   UNL A   1      39.525  24.062  26.961  1.00  0.00     0.039 A 
ATOM     32  C   UNL A   1      39.297  24.442  28.283  1.00  0.00     0.014 A 
ATOM     33  C   UNL A   1      40.056  24.969  26.038  1.00  0.00     0.014 A 
ATOM     34  C   UNL A   1      39.652  25.727  28.695  1.00  0.00     0.010 A 
ATOM     35  C   UNL A   1      40.485  26.216  26.471  1.00  0.00     0.010 A 
ATOM     36  C   UNL A   1      40.276  26.613  27.800  1.00  0.00    -0.014 A 
BRANCH  36  37
ATOM     37  C   UNL A   1      40.713  27.961  28.238  1.00  0.00     0.031 A 
ATOM     38  C   UNL A   1      42.176  28.315  28.246  1.00  0.00     0.074 A 
ATOM     39  C   UNL A   1      39.802  28.840  28.699  1.00  0.00     0.049 A 
ATOM     40  N   UNL A   1      42.751  29.428  28.620  1.00  0.00    -0.248 NA
ATOM     41  C   UNL A   1      43.119  27.274  27.803  1.00  0.00     0.031 C 
ATOM     42  C   UNL A   1      38.365  28.582  28.823  1.00  0.00     0.029 A 
ATOM     43  N   UNL A   1      39.950  30.120  29.170  1.00  0.00    -0.354 N 
ATOM     44  C   UNL A   1      44.118  29.209  28.493  1.00  0.00     0.074 A 
ATOM     45  C   UNL A   1      44.288  27.845  28.047  1.00  0.00     0.031 C 
ATOM     46  C   UNL A   1      37.764  29.672  29.327  1.00  0.00     0.029 A 
ATOM     47  C   UNL A   1      38.772  30.694  29.588  1.00  0.00     0.049 A 
ATOM     48  H   UNL A   1      40.818  30.583  29.204  1.00  0.00     0.167 HD
ATOM     49  C   UNL A   1      45.138  30.075  28.698  1.00  0.00     0.034 A 
ATOM     50  C   UNL A   1      38.532  31.906  30.126  1.00  0.00     0.034 A 
ATOM     51  C   UNL A   1      44.960  31.443  29.103  1.00  0.00     0.049 A 
ATOM     52  C   UNL A   1      39.680  32.866  30.300  1.00  0.00     0.074 A 
ATOM     53  C   UNL A   1      45.921  32.428  29.250  1.00  0.00     0.029 A 
ATOM     54  N   UNL A   1      43.743  32.018  29.435  1.00  0.00    -0.354 N 
ATOM     55  N   UNL A   1      40.948  32.694  30.017  1.00  0.00    -0.248 NA
ATOM     56  C   UNL A   1      39.356  34.199  30.825  1.00  0.00     0.031 C 
ATOM     57  C   UNL A   1      45.288  33.590  29.701  1.00  0.00     0.029 A 
ATOM     58  C   UNL A   1      43.927  33.341  29.797  1.00  0.00     0.049 A 
ATOM     59  H   UNL A   1      42.875  31.553  29.415  1.00  0.00     0.167 HD
ATOM     60  C   UNL A   1      41.567  33.908  30.295  1.00  0.00     0.074 A 
ATOM     61  C   UNL A   1      40.528  34.811  30.746  1.00  0.00     0.031 C 
ATOM     62  C   UNL A   1      42.878  34.242  30.196  1.00  0.00     0.034 A 
BRANCH  49  63
ATOM     63  C   UNL A   1      46.538  29.580  28.444  1.00  0.00     0.023 A 
ATOM     64  C   UNL A   1      47.115  29.742  27.167  1.00  0.00     0.012 A 
ATOM     65  C   UNL A   1      47.302  29.006  29.478  1.00  0.00     0.148 A 
ATOM     66  C   UNL A   1      48.415  29.307  26.914  1.00  0.00     0.002 A 
ATOM     67  C   UNL A   1      48.614  28.619  29.231  1.00  0.00     0.091 A 
ATOM     68  F   UNL A   1      46.730  28.839  30.679  1.00  0.00    -0.205 F 
ATOM     69  C   UNL A   1      49.167  28.757  27.947  1.00  0.00     0.022 A 
BRANCH  67  70
ATOM     70  S   UNL A   1      49.694  27.977  30.515  1.00  0.00     0.127 S 
ATOM     71  O   UNL A   1      50.613  27.148  29.737  1.00  0.00    -0.237 OA
ATOM     72  O   UNL A   1      50.285  29.200  31.057  1.00  0.00    -0.237 OA
ATOM     73  O   UNL A   1      48.833  27.255  31.441  1.00  0.00    -0.744 OA
ENDBRANCH  67  70
ENDBRANCH  49  63
BRANCH  50  74
ATOM     74  C   UNL A   1      37.141  32.305  30.479  1.00  0.00     0.023 A 
ATOM     75  C   UNL A   1      36.676  32.114  31.795  1.00  0.00     0.012 A 
ATOM     76  C   UNL A   1      36.286  32.892  29.527  1.00  0.00     0.148 A 
ATOM     77  C   UNL A   1      35.373  32.464  32.147  1.00  0.00     0.002 A 
ATOM     78  C   UNL A   1      35.007  33.291  29.899  1.00  0.00     0.091 A 
ATOM     79  F   UNL A   1      36.745  33.057  28.278  1.00  0.00    -0.205 F 
ATOM     80  C   UNL A   1      34.542  33.062  31.203  1.00  0.00     0.022 A 
BRANCH  78  81
ATOM     81  S   UNL A   1      33.917  34.187  28.787  1.00  0.00     0.127 S 
ATOM     82  O   UNL A   1      34.786  35.264  28.320  1.00  0.00    -0.237 OA
ATOM     83  O   UNL A   1      33.605  33.166  27.786  1.00  0.00    -0.237 OA
ATOM     84  O   UNL A   1      32.779  34.598  29.598  1.00  0.00    -0.744 OA
ENDBRANCH  78  81
ENDBRANCH  50  74
BRANCH  62  85
ATOM     85  C   UNL A   1      43.266  35.657  30.537  1.00  0.00     0.023 A 
ATOM     86  C   UNL A   1      43.694  35.978  31.841  1.00  0.00     0.012 A 
ATOM     87  C   UNL A   1      43.268  36.655  29.543  1.00  0.00     0.148 A 
ATOM     88  C   UNL A   1      44.081  37.280  32.157  1.00  0.00     0.002 A 
ATOM     89  C   UNL A   1      43.707  37.936  29.853  1.00  0.00     0.091 A 
ATOM     90  F   UNL A   1      42.840  36.335  28.313  1.00  0.00    -0.205 F 
ATOM     91  C   UNL A   1      44.100  38.254  31.163  1.00  0.00     0.022 A 
BRANCH  89  92
ATOM     92  S   UNL A   1      43.860  39.227  28.613  1.00  0.00     0.127 S 
ATOM     93  O   UNL A   1      44.716  38.582  27.618  1.00  0.00    -0.237 OA
ATOM     94  O   UNL A   1      42.473  39.420  28.191  1.00  0.00    -0.237 OA
ATOM     95  O   UNL A   1      44.448  40.372  29.295  1.00  0.00    -0.744 OA
ENDBRANCH  89  92
ENDBRANCH  62  85
ENDBRANCH  36  37
ENDBRANCH  28  31
ENDBRANCH  26  27
ENDBRANCH  25  26
ENDBRANCH  24  25
ENDBRANCH   1  24
TORSDOF 21
ENDMDL
MODEL 2
REMARK VINA RESULT:      -9.8      1.168      2.101
REMARK SMILES C[C@H](CCO)S[C@H]1CC[C@]([NH2+]C2CC2)(C(=O)NCCCCNC(=O)c2ccc(-c3c4nc(c(-c5cccc(S(=O)(=O)[O-])c5F)c5ccc([nH]5)c(-c5cccc(S(=O)(=O)[O-])c5F)c5nc(c(-c6cccc(S(=O)(=O)[O-])c6F)c6ccc3[nH]6)C=C5)C=C4)cc2)C1
REMARK SMILES IDX 18 1 17 2 15 3 16 4 10 6 7 7 8 8 88 9 9 10 6 11 2 12 1 13
REMARK SMILES IDX 3 14 4 15 5 16 11 18 12 21 13 22 14 23 19 24 20 25 21 26
REMARK SMILES IDX 22 27 23 28 24 30 25 31 26 32 87 33 27 34 86 35 28 36 29 37
REMARK SMILES IDX 30 38 80 39 31 40 85 41 79 42 81 43 32 44 84 45 78 46 77 47
REMARK SMILES IDX 33 49 65 50 45 51 64 52 46 53 49 54 63 55 82 56 47 57 48 58
REMARK SMILES IDX 62 60 83 61 50 62 34 63 35 64 43 65 36 66 38 67 44 68 37 69
REMARK SMILES IDX 39 70 40 71 41 72 42 73 66 74 67 75 75 76 68 77 70 78 76 79
REMARK SMILES IDX 69 80 71 81 72 82 73 83 74 84 51 85 52 86 60 87 53 88 55 89
REMARK SMILES IDX 61 90 54 91 56 92 57 93 58 94 59 95
REMARK H PARENT 17 5 5 17 11 19 11 20 22 29 81 48 49 59
REMARK Flexibility Score: inf
ROOT
ATOM      1  C   UNL A   1      33.618  22.010  24.587  1.00  0.00     0.116 C 
ENDROOT
BRANCH   1   2
ATOM      2  N   UNL A   1      33.825  22.337  23.198  1.00  0.00    -0.351 N 
ATOM      3  C   UNL A   1      33.366  23.385  22.463  1.00  0.00     0.281 C 
ATOM      4  O   UNL A   1      33.524  23.298  21.241  1.00  0.00    -0.268 OA
ATOM      5  H   UNL A   1      34.388  21.700  22.703  1.00  0.00     0.163 HD
BRANCH   3   6
ATOM      6  C   UNL A   1      32.694  24.626  23.129  1.00  0.00     0.176 C 
ATOM      7  C   UNL A   1      32.063  26.950  22.561  1.00  0.00     0.054 C 
ATOM      8  C   UNL A   1      33.176  26.982  23.646  1.00  0.00     0.022 C 
ATOM      9  C   UNL A   1      32.242  25.562  21.972  1.00  0.00     0.093 C 
ATOM     10  C   UNL A   1      33.740  25.556  23.766  1.00  0.00     0.080 C 
BRANCH   7  11
ATOM     11  S   UNL A   1      30.525  27.536  23.380  1.00  0.00    -0.155 SA
BRANCH  11  12
ATOM     12  C   UNL A   1      30.478  29.392  23.468  1.00  0.00     0.046 C 
ATOM     13  C   UNL A   1      31.096  29.691  24.847  1.00  0.00     0.019 C 
BRANCH  12  14
ATOM     14  C   UNL A   1      29.149  30.142  23.237  1.00  0.00     0.042 C 
BRANCH  14  15
ATOM     15  C   UNL A   1      29.122  31.424  22.415  1.00  0.00     0.157 C 
BRANCH  15  16
ATOM     16  O   UNL A   1      29.237  31.149  21.029  1.00  0.00    -0.396 OA
ATOM     17  H   UNL A   1      29.870  31.766  20.628  1.00  0.00     0.210 HD
ENDBRANCH  15  16
ENDBRANCH  14  15
ENDBRANCH  12  14
ENDBRANCH  11  12
ENDBRANCH   7  11
BRANCH   6  18
ATOM     18  N   UNL A   1      31.526  24.206  23.961  1.00  0.00    -0.331 N 
ATOM     19  H   UNL A   1      31.461  23.191  23.890  1.00  0.00     0.347 HD
ATOM     20  H   UNL A   1      30.751  24.746  23.577  1.00  0.00     0.347 HD
BRANCH  18  21
ATOM     21  C   UNL A   1      31.501  24.538  25.398  1.00  0.00     0.183 C 
ATOM     22  C   UNL A   1      30.219  24.924  26.077  1.00  0.00     0.071 C 
ATOM     23  C   UNL A   1      30.822  23.590  26.358  1.00  0.00     0.071 C 
ENDBRANCH  18  21
ENDBRANCH   6  18
ENDBRANCH   3   6
ENDBRANCH   1   2
BRANCH   1  24
ATOM     24  C   UNL A   1      34.942  22.047  25.346  1.00  0.00     0.023 C 
BRANCH  24  25
ATOM     25  C   UNL A   1      35.203  23.381  26.051  1.00  0.00     0.023 C 
BRANCH  25  26
ATOM     26  C   UNL A   1      36.655  23.842  26.013  1.00  0.00     0.116 C 
BRANCH  26  27
ATOM     27  N   UNL A   1      37.598  22.732  26.060  1.00  0.00    -0.352 N 
ATOM     28  C   UNL A   1      38.936  22.767  26.362  1.00  0.00     0.251 C 
ATOM     29  H   UNL A   1      37.229  21.845  25.847  1.00  0.00     0.163 HD
ATOM     30  O   UNL A   1      39.633  21.767  26.217  1.00  0.00    -0.269 OA
BRANCH  28  31
ATOM     31  C   UNL A   1      39.524  24.033  26.837  1.00  0.00     0.039 A 
ATOM     32  C   UNL A   1      40.027  24.939  25.904  1.00  0.00     0.014 A 
ATOM     33  C   UNL A   1      39.524  24.339  28.202  1.00  0.00     0.014 A 
ATOM     34  C   UNL A   1      40.485  26.183  26.338  1.00  0.00     0.010 A 
ATOM     35  C   UNL A   1      39.901  25.608  28.619  1.00  0.00     0.010 A 
ATOM     36  C   UNL A   1      40.397  26.539  27.695  1.00  0.00    -0.014 A 
BRANCH  36  37
ATOM     37  C   UNL A   1      40.825  27.879  28.163  1.00  0.00     0.031 A 
ATOM     38  C   UNL A   1      42.286  28.238  28.195  1.00  0.00     0.074 A 
ATOM     39  C   UNL A   1      39.904  28.746  28.630  1.00  0.00     0.049 A 
ATOM     40  N   UNL A   1      42.852  29.345  28.597  1.00  0.00    -0.248 NA
ATOM     41  C   UNL A   1      43.237  27.208  27.744  1.00  0.00     0.031 C 
ATOM     42  C   UNL A   1      38.467  28.481  28.733  1.00  0.00     0.029 A 
ATOM     43  N   UNL A   1      40.043  30.017  29.127  1.00  0.00    -0.354 N 
ATOM     44  C   UNL A   1      44.222  29.134  28.483  1.00  0.00     0.074 A 
ATOM     45  C   UNL A   1      44.402  27.779  28.012  1.00  0.00     0.031 C 
ATOM     46  C   UNL A   1      37.856  29.560  29.250  1.00  0.00     0.029 A 
ATOM     47  C   UNL A   1      38.858  30.580  29.542  1.00  0.00     0.049 A 
ATOM     48  H   UNL A   1      40.908  30.483  29.181  1.00  0.00     0.167 HD
ATOM     49  C   UNL A   1      45.236  29.999  28.716  1.00  0.00     0.034 A 
ATOM     50  C   UNL A   1      38.608  31.780  30.100  1.00  0.00     0.034 A 
ATOM     51  C   UNL A   1      45.049  31.358  29.145  1.00  0.00     0.049 A 
ATOM     52  C   UNL A   1      39.749  32.740  30.306  1.00  0.00     0.074 A 
ATOM     53  C   UNL A   1      46.004  32.343  29.323  1.00  0.00     0.029 A 
ATOM     54  N   UNL A   1      43.826  31.922  29.474  1.00  0.00    -0.354 N 
ATOM     55  N   UNL A   1      41.022  32.578  30.036  1.00  0.00    -0.248 NA
ATOM     56  C   UNL A   1      39.415  34.062  30.853  1.00  0.00     0.031 C 
ATOM     57  C   UNL A   1      45.362  33.494  29.788  1.00  0.00     0.029 A 
ATOM     58  C   UNL A   1      44.001  33.239  29.863  1.00  0.00     0.049 A 
ATOM     59  H   UNL A   1      42.960  31.456  29.435  1.00  0.00     0.167 HD
ATOM     60  C   UNL A   1      41.633  33.789  30.344  1.00  0.00     0.074 A 
ATOM     61  C   UNL A   1      40.586  34.680  30.800  1.00  0.00     0.031 C 
ATOM     62  C   UNL A   1      42.944  34.129  30.267  1.00  0.00     0.034 A 
BRANCH  49  63
ATOM     63  C   UNL A   1      46.640  29.513  28.470  1.00  0.00     0.023 A 
ATOM     64  C   UNL A   1      47.243  29.728  27.212  1.00  0.00     0.012 A 
ATOM     65  C   UNL A   1      47.384  28.896  29.494  1.00  0.00     0.148 A 
ATOM     66  C   UNL A   1      48.548  29.302  26.966  1.00  0.00     0.002 A 
ATOM     67  C   UNL A   1      48.701  28.519  29.257  1.00  0.00     0.091 A 
ATOM     68  F   UNL A   1      46.788  28.680  30.675  1.00  0.00    -0.205 F 
ATOM     69  C   UNL A   1      49.279  28.709  27.991  1.00  0.00     0.022 A 
BRANCH  67  70
ATOM     70  S   UNL A   1      49.755  27.823  30.534  1.00  0.00     0.127 S 
ATOM     71  O   UNL A   1      51.043  27.756  29.846  1.00  0.00    -0.237 OA
ATOM     72  O   UNL A   1      49.675  28.838  31.584  1.00  0.00    -0.237 OA
ATOM     73  O   UNL A   1      49.168  26.538  30.884  1.00  0.00    -0.744 OA
ENDBRANCH  67  70
ENDBRANCH  49  63
BRANCH  50  74
ATOM     74  C   UNL A   1      37.211  32.168  30.444  1.00  0.00     0.023 A 
ATOM     75  C   UNL A   1      36.729  31.942  31.749  1.00  0.00     0.012 A 
ATOM     76  C   UNL A   1      36.367  32.778  29.496  1.00  0.00     0.148 A 
ATOM     77  C   UNL A   1      35.419  32.281  32.091  1.00  0.00     0.002 A 
ATOM     78  C   UNL A   1      35.084  33.166  29.861  1.00  0.00     0.091 A 
ATOM     79  F   UNL A   1      36.843  32.977  28.259  1.00  0.00    -0.205 F 
ATOM     80  C   UNL A   1      34.601  32.902  31.152  1.00  0.00     0.022 A 
BRANCH  78  81
ATOM     81  S   UNL A   1      34.007  34.089  28.758  1.00  0.00     0.127 S 
ATOM     82  O   UNL A   1      34.873  35.191  28.349  1.00  0.00    -0.237 OA
ATOM     83  O   UNL A   1      33.730  33.101  27.714  1.00  0.00    -0.237 OA
ATOM     84  O   UNL A   1      32.846  34.457  29.557  1.00  0.00    -0.744 OA
ENDBRANCH  78  81
ENDBRANCH  50  74
BRANCH  62  85
ATOM     85  C   UNL A   1      43.323  35.539  30.639  1.00  0.00     0.023 A 
ATOM     86  C   UNL A   1      43.806  35.822  31.932  1.00  0.00     0.012 A 
ATOM     87  C   UNL A   1      43.262  36.570  29.681  1.00  0.00     0.148 A 
ATOM     88  C   UNL A   1      44.185  37.119  32.276  1.00  0.00     0.002 A 
ATOM     89  C   UNL A   1      43.692  37.848  30.016  1.00  0.00     0.091 A 
ATOM     90  F   UNL A   1      42.782  36.284  28.462  1.00  0.00    -0.205 F 
ATOM     91  C   UNL A   1      44.140  38.127  31.318  1.00  0.00     0.022 A 
BRANCH  89  92
ATOM     92  S   UNL A   1      43.766  39.183  28.816  1.00  0.00     0.127 S 
ATOM     93  O   UNL A   1      44.262  38.489  27.629  1.00  0.00    -0.237 OA
ATOM     94  O   UNL A   1      42.368  39.606  28.736  1.00  0.00    -0.237 OA
ATOM     95  O   UNL A   1      44.666  40.180  29.380  1.00  0.00    -0.744 OA
ENDBRANCH  89  92
ENDBRANCH  62  85
ENDBRANCH  36  37
ENDBRANCH  28  31
ENDBRANCH  26  27
ENDBRANCH  25  26
ENDBRANCH  24  25
ENDBRANCH   1  24
TORSDOF 21
ENDMDL
MODEL 3
REMARK VINA RESULT:      -9.7      3.877      8.823
REMARK SMILES C[C@H](CCO)S[C@H]1CC[C@]([NH2+]C2CC2)(C(=O)NCCCCNC(=O)c2ccc(-c3c4nc(c(-c5cccc(S(=O)(=O)[O-])c5F)c5ccc([nH]5)c(-c5cccc(S(=O)(=O)[O-])c5F)c5nc(c(-c6cccc(S(=O)(=O)[O-])c6F)c6ccc3[nH]6)C=C5)C=C4)cc2)C1
REMARK SMILES IDX 18 1 17 2 15 3 16 4 10 6 7 7 8 8 88 9 9 10 6 11 2 12 1 13
REMARK SMILES IDX 3 14 4 15 5 16 11 18 12 21 13 22 14 23 19 24 20 25 21 26
REMARK SMILES IDX 22 27 23 28 24 30 25 31 26 32 87 33 27 34 86 35 28 36 29 37
REMARK SMILES IDX 30 38 80 39 31 40 85 41 79 42 81 43 32 44 84 45 78 46 77 47
REMARK SMILES IDX 33 49 65 50 45 51 64 52 46 53 49 54 63 55 82 56 47 57 48 58
REMARK SMILES IDX 62 60 83 61 50 62 34 63 35 64 43 65 36 66 38 67 44 68 37 69
REMARK SMILES IDX 39 70 40 71 41 72 42 73 66 74 67 75 75 76 68 77 70 78 76 79
REMARK SMILES IDX 69 80 71 81 72 82 73 83 74 84 51 85 52 86 60 87 53 88 55 89
REMARK SMILES IDX 61 90 54 91 56 92 57 93 58 94 59 95
REMARK H PARENT 17 5 5 17 11 19 11 20 22 29 81 48 49 59
REMARK Flexibility Score: inf
ROOT
ATOM      1  C   UNL A   1      37.797  22.917  25.973  1.00  0.00     0.116 C 
ENDROOT
BRANCH   1   2
ATOM      2  N   UNL A   1      37.493  23.099  24.575  1.00  0.00    -0.351 N 
ATOM      3  C   UNL A   1      36.305  23.030  23.916  1.00  0.00     0.281 C 
ATOM      4  O   UNL A   1      36.371  23.018  22.683  1.00  0.00    -0.268 OA
ATOM      5  H   UNL A   1      38.270  23.305  24.007  1.00  0.00     0.163 HD
BRANCH   3   6
ATOM      6  C   UNL A   1      34.943  22.986  24.677  1.00  0.00     0.176 C 
ATOM      7  C   UNL A   1      33.460  24.494  25.960  1.00  0.00     0.054 C 
ATOM      8  C   UNL A   1      34.019  23.404  26.919  1.00  0.00     0.022 C 
ATOM      9  C   UNL A   1      34.468  24.459  24.826  1.00  0.00     0.093 C 
ATOM     10  C   UNL A   1      35.143  22.669  26.169  1.00  0.00     0.080 C 
BRANCH   7  11
ATOM     11  S   UNL A   1      31.667  24.136  25.762  1.00  0.00    -0.155 SA
BRANCH  11  12
ATOM     12  C   UNL A   1      30.944  25.100  24.347  1.00  0.00     0.046 C 
ATOM     13  C   UNL A   1      30.945  24.078  23.194  1.00  0.00     0.019 C 
BRANCH  12  14
ATOM     14  C   UNL A   1      31.562  26.455  23.940  1.00  0.00     0.042 C 
BRANCH  14  15
ATOM     15  C   UNL A   1      32.173  26.638  22.557  1.00  0.00     0.157 C 
BRANCH  15  16
ATOM     16  O   UNL A   1      31.205  27.084  21.623  1.00  0.00    -0.396 OA
ATOM     17  H   UNL A   1      31.641  27.294  20.781  1.00  0.00     0.210 HD
ENDBRANCH  15  16
ENDBRANCH  14  15
ENDBRANCH  12  14
ENDBRANCH  11  12
ENDBRANCH   7  11
BRANCH   6  18
ATOM     18  N   UNL A   1      33.944  22.178  23.915  1.00  0.00    -0.331 N 
ATOM     19  H   UNL A   1      34.310  22.068  22.970  1.00  0.00     0.347 HD
ATOM     20  H   UNL A   1      33.079  22.710  24.016  1.00  0.00     0.347 HD
BRANCH  18  21
ATOM     21  C   UNL A   1      33.580  20.832  24.394  1.00  0.00     0.183 C 
ATOM     22  C   UNL A   1      32.247  20.576  25.034  1.00  0.00     0.071 C 
ATOM     23  C   UNL A   1      32.510  20.057  23.662  1.00  0.00     0.071 C 
ENDBRANCH  18  21
ENDBRANCH   6  18
ENDBRANCH   3   6
ENDBRANCH   1   2
BRANCH   1  24
ATOM     24  C   UNL A   1      39.187  22.310  26.140  1.00  0.00     0.023 C 
BRANCH  24  25
ATOM     25  C   UNL A   1      39.288  20.868  25.636  1.00  0.00     0.023 C 
BRANCH  25  26
ATOM     26  C   UNL A   1      39.883  19.888  26.641  1.00  0.00     0.116 C 
BRANCH  26  27
ATOM     27  N   UNL A   1      41.028  19.163  26.108  1.00  0.00    -0.352 N 
ATOM     28  C   UNL A   1      42.269  19.652  25.789  1.00  0.00     0.251 C 
ATOM     29  H   UNL A   1      40.895  18.200  25.957  1.00  0.00     0.163 HD
ATOM     30  O   UNL A   1      43.087  18.943  25.210  1.00  0.00    -0.269 OA
BRANCH  28  31
ATOM     31  C   UNL A   1      42.591  21.050  26.129  1.00  0.00     0.039 A 
ATOM     32  C   UNL A   1      42.811  21.389  27.464  1.00  0.00     0.014 A 
ATOM     33  C   UNL A   1      42.729  22.005  25.117  1.00  0.00     0.014 A 
ATOM     34  C   UNL A   1      43.224  22.684  27.780  1.00  0.00     0.010 A 
ATOM     35  C   UNL A   1      43.220  23.267  25.427  1.00  0.00     0.010 A 
ATOM     36  C   UNL A   1      43.460  23.623  26.762  1.00  0.00    -0.014 A 
BRANCH  36  37
ATOM     37  C   UNL A   1      43.955  24.985  27.078  1.00  0.00     0.031 A 
ATOM     38  C   UNL A   1      43.027  26.006  27.679  1.00  0.00     0.074 A 
ATOM     39  C   UNL A   1      45.218  25.326  26.754  1.00  0.00     0.049 A 
ATOM     40  N   UNL A   1      43.267  27.251  27.997  1.00  0.00    -0.248 NA
ATOM     41  C   UNL A   1      41.639  25.582  27.931  1.00  0.00     0.031 C 
ATOM     42  C   UNL A   1      46.186  24.453  26.087  1.00  0.00     0.029 A 
ATOM     43  N   UNL A   1      45.897  26.506  26.922  1.00  0.00    -0.354 N 
ATOM     44  C   UNL A   1      42.058  27.767  28.449  1.00  0.00     0.074 A 
ATOM     45  C   UNL A   1      41.076  26.714  28.326  1.00  0.00     0.031 C 
ATOM     46  C   UNL A   1      47.337  25.123  25.912  1.00  0.00     0.029 A 
ATOM     47  C   UNL A   1      47.180  26.480  26.426  1.00  0.00     0.049 A 
ATOM     48  H   UNL A   1      45.504  27.297  27.357  1.00  0.00     0.167 HD
ATOM     49  C   UNL A   1      41.796  28.997  28.951  1.00  0.00     0.034 A 
ATOM     50  C   UNL A   1      48.123  27.442  26.386  1.00  0.00     0.034 A 
ATOM     51  C   UNL A   1      42.786  30.027  29.108  1.00  0.00     0.049 A 
ATOM     52  C   UNL A   1      47.819  28.785  26.993  1.00  0.00     0.074 A 
ATOM     53  C   UNL A   1      42.644  31.274  29.689  1.00  0.00     0.029 A 
ATOM     54  N   UNL A   1      44.099  29.935  28.673  1.00  0.00    -0.354 N 
ATOM     55  N   UNL A   1      46.715  29.201  27.567  1.00  0.00    -0.248 NA
ATOM     56  C   UNL A   1      48.902  29.777  26.987  1.00  0.00     0.031 C 
ATOM     57  C   UNL A   1      43.864  31.949  29.579  1.00  0.00     0.029 A 
ATOM     58  C   UNL A   1      44.777  31.106  28.964  1.00  0.00     0.049 A 
ATOM     59  H   UNL A   1      44.492  29.152  28.225  1.00  0.00     0.167 HD
ATOM     60  C   UNL A   1      46.983  30.487  28.022  1.00  0.00     0.074 A 
ATOM     61  C   UNL A   1      48.362  30.771  27.677  1.00  0.00     0.031 C 
ATOM     62  C   UNL A   1      46.162  31.357  28.658  1.00  0.00     0.034 A 
BRANCH  49  63
ATOM     63  C   UNL A   1      40.389  29.279  29.409  1.00  0.00     0.023 A 
ATOM     64  C   UNL A   1      39.437  29.758  28.484  1.00  0.00     0.012 A 
ATOM     65  C   UNL A   1      39.993  29.020  30.735  1.00  0.00     0.148 A 
ATOM     66  C   UNL A   1      38.124  30.009  28.882  1.00  0.00     0.002 A 
ATOM     67  C   UNL A   1      38.672  29.226  31.112  1.00  0.00     0.091 A 
ATOM     68  F   UNL A   1      40.917  28.586  31.605  1.00  0.00    -0.205 F 
ATOM     69  C   UNL A   1      37.739  29.734  30.191  1.00  0.00     0.022 A 
BRANCH  67  70
ATOM     70  S   UNL A   1      38.055  28.824  32.750  1.00  0.00     0.127 S 
ATOM     71  O   UNL A   1      38.913  29.650  33.598  1.00  0.00    -0.237 OA
ATOM     72  O   UNL A   1      36.664  29.268  32.671  1.00  0.00    -0.237 OA
ATOM     73  O   UNL A   1      38.227  27.386  32.903  1.00  0.00    -0.744 OA
ENDBRANCH  67  70
ENDBRANCH  49  63
BRANCH  50  74
ATOM     74  C   UNL A   1      49.464  27.150  25.806  1.00  0.00     0.023 A 
ATOM     75  C   UNL A   1      50.468  26.593  26.622  1.00  0.00     0.012 A 
ATOM     76  C   UNL A   1      49.742  27.398  24.448  1.00  0.00     0.148 A 
ATOM     77  C   UNL A   1      51.736  26.325  26.106  1.00  0.00     0.002 A 
ATOM     78  C   UNL A   1      50.989  27.075  23.927  1.00  0.00     0.091 A 
ATOM     79  F   UNL A   1      48.774  27.935  23.691  1.00  0.00    -0.205 F 
ATOM     80  C   UNL A   1      51.994  26.557  24.758  1.00  0.00     0.022 A 
BRANCH  78  81
ATOM     81  S   UNL A   1      51.366  27.215  22.176  1.00  0.00     0.127 S 
ATOM     82  O   UNL A   1      51.474  28.662  22.008  1.00  0.00    -0.237 OA
ATOM     83  O   UNL A   1      52.632  26.485  22.083  1.00  0.00    -0.237 OA
ATOM     84  O   UNL A   1      50.256  26.577  21.482  1.00  0.00    -0.744 OA
ENDBRANCH  78  81
ENDBRANCH  50  74
BRANCH  62  85
ATOM     85  C   UNL A   1      46.737  32.688  29.069  1.00  0.00     0.023 A 
ATOM     86  C   UNL A   1      47.377  32.825  30.318  1.00  0.00     0.012 A 
ATOM     87  C   UNL A   1      46.700  33.785  28.187  1.00  0.00     0.148 A 
ATOM     88  C   UNL A   1      47.936  34.045  30.695  1.00  0.00     0.002 A 
ATOM     89  C   UNL A   1      47.307  34.981  28.548  1.00  0.00     0.091 A 
ATOM     90  F   UNL A   1      46.071  33.640  27.011  1.00  0.00    -0.205 F 
ATOM     91  C   UNL A   1      47.913  35.117  29.808  1.00  0.00     0.022 A 
BRANCH  89  92
ATOM     92  S   UNL A   1      47.414  36.382  27.428  1.00  0.00     0.127 S 
ATOM     93  O   UNL A   1      48.164  37.347  28.231  1.00  0.00    -0.237 OA
ATOM     94  O   UNL A   1      48.154  35.820  26.299  1.00  0.00    -0.237 OA
ATOM     95  O   UNL A   1      46.040  36.757  27.123  1.00  0.00    -0.744 OA
ENDBRANCH  89  92
ENDBRANCH  62  85
ENDBRANCH  36  37
ENDBRANCH  28  31
ENDBRANCH  26  27
ENDBRANCH  25  26
ENDBRANCH  24  25
ENDBRANCH   1  24
TORSDOF 21
ENDMDL
