MODEL 1
REMARK VINA RESULT:     -12.8      0.000      0.000
REMARK SMILES Cc1ccccc1OC1(C(=O)NCCCCNC(=O)c2ccc(-c3c4nc(c(-c5cccc(S(=O)(=O)[O-])c5F)c5ccc([nH]5)c(-c5cccc(S(=O)(=O)[O-])c5F)c5nc(c(-c6cccc(S(=O)(=O)[O-])c6F)c6ccc3[nH]6)C=C5)C=C4)cc2)CCN(c2ncc(C#N)c(N)n2)CC1
REMARK SMILES IDX 15 1 14 2 13 3 12 4 10 5 11 6 9 8 83 9 96 10 84 11 95 12
REMARK SMILES IDX 85 13 8 14 7 15 1 16 2 17 3 18 4 19 6 20 5 21 86 22 87 23
REMARK SMILES IDX 94 24 88 25 92 26 89 27 93 28 90 31 91 32 16 33 17 34 18 35
REMARK SMILES IDX 19 37 20 38 21 39 82 40 22 41 81 42 23 43 24 44 25 45 75 46
REMARK SMILES IDX 26 47 80 48 74 49 76 50 27 51 79 52 73 53 72 54 28 56 60 57
REMARK SMILES IDX 40 58 59 59 41 60 44 61 58 62 77 63 42 64 43 65 57 67 78 68
REMARK SMILES IDX 45 69 29 70 30 71 38 72 31 73 33 74 39 75 32 76 34 77 35 78
REMARK SMILES IDX 36 79 37 80 61 81 62 82 70 83 63 84 65 85 71 86 64 87 66 88
REMARK SMILES IDX 67 89 68 90 69 91 46 92 47 93 55 94 48 95 50 96 56 97 49 98
REMARK SMILES IDX 51 99 52 100 53 101 54 102
REMARK H PARENT 12 7 93 29 93 30 17 36 76 55 44 66
REMARK Flexibility Score: inf
ROOT
ATOM      1  C   UNL A   1      35.084  30.131  27.625  1.00  0.00     0.023 C 
ENDROOT
BRANCH   1   2
ATOM      2  C   UNL A   1      33.775  30.638  27.046  1.00  0.00     0.023 C 
BRANCH   2   3
ATOM      3  C   UNL A   1      33.004  29.624  26.190  1.00  0.00     0.116 C 
BRANCH   3   4
ATOM      4  N   UNL A   1      33.650  29.277  24.930  1.00  0.00    -0.353 N 
ATOM      5  C   UNL A   1      33.345  28.309  23.993  1.00  0.00     0.264 C 
ATOM      6  O   UNL A   1      34.027  28.308  22.964  1.00  0.00    -0.270 OA
ATOM      7  H   UNL A   1      34.437  29.827  24.710  1.00  0.00     0.163 HD
BRANCH   5   8
ATOM      8  C   UNL A   1      32.184  27.251  24.247  1.00  0.00     0.190 C 
ATOM      9  C   UNL A   1      31.969  26.599  22.882  1.00  0.00     0.080 C 
ATOM     10  C   UNL A   1      32.666  26.457  25.465  1.00  0.00     0.080 C 
ATOM     11  C   UNL A   1      32.209  25.106  22.780  1.00  0.00     0.124 C 
ATOM     12  C   UNL A   1      32.641  24.950  25.340  1.00  0.00     0.124 C 
ATOM     13  N   UNL A   1      32.731  24.456  23.974  1.00  0.00    -0.340 N 
BRANCH   8  14
ATOM     14  O   UNL A   1      31.003  28.019  24.608  1.00  0.00    -0.477 OA
BRANCH  14  15
ATOM     15  C   UNL A   1      29.916  28.444  23.891  1.00  0.00     0.123 A 
ATOM     16  C   UNL A   1      28.157  26.522  23.891  1.00  0.00     0.048 C 
ATOM     17  C   UNL A   1      28.681  27.866  23.545  1.00  0.00    -0.009 A 
ATOM     18  C   UNL A   1      27.739  28.589  22.771  1.00  0.00     0.007 A 
ATOM     19  C   UNL A   1      27.992  29.872  22.324  1.00  0.00     0.001 A 
ATOM     20  C   UNL A   1      30.140  29.753  23.416  1.00  0.00     0.047 A 
ATOM     21  C   UNL A   1      29.202  30.457  22.647  1.00  0.00     0.004 A 
ENDBRANCH  14  15
ENDBRANCH   8  14
BRANCH  13  22
ATOM     22  C   UNL A   1      32.647  23.075  23.858  1.00  0.00     0.227 A 
ATOM     23  N   UNL A   1      33.188  22.337  24.833  1.00  0.00    -0.220 NA
ATOM     24  N   UNL A   1      32.125  22.551  22.735  1.00  0.00    -0.195 NA
ATOM     25  C   UNL A   1      33.113  21.003  24.697  1.00  0.00     0.138 A 
ATOM     26  C   UNL A   1      32.106  21.217  22.602  1.00  0.00     0.147 A 
ATOM     27  C   UNL A   1      32.577  20.383  23.593  1.00  0.00     0.113 A 
BRANCH  26  28
ATOM     28  N   UNL A   1      31.678  20.762  21.366  1.00  0.00    -0.382 N 
ATOM     29  H   UNL A   1      32.026  21.176  20.542  1.00  0.00     0.158 HD
ATOM     30  H   UNL A   1      31.027  20.026  21.309  1.00  0.00     0.158 HD
ENDBRANCH  26  28
BRANCH  27  31
ATOM     31  C   UNL A   1      32.524  18.962  23.508  1.00  0.00     0.105 C 
ATOM     32  N   UNL A   1      32.479  17.810  23.455  1.00  0.00    -0.192 NA
ENDBRANCH  27  31
ENDBRANCH  13  22
ENDBRANCH   5   8
ENDBRANCH   3   4
ENDBRANCH   2   3
ENDBRANCH   1   2
BRANCH   1  33
ATOM     33  C   UNL A   1      36.013  31.253  28.011  1.00  0.00     0.116 C 
BRANCH  33  34
ATOM     34  N   UNL A   1      35.512  32.566  27.708  1.00  0.00    -0.352 N 
ATOM     35  C   UNL A   1      35.436  33.635  28.580  1.00  0.00     0.251 C 
ATOM     36  H   UNL A   1      35.193  32.719  26.789  1.00  0.00     0.163 HD
ATOM     37  O   UNL A   1      34.575  34.481  28.365  1.00  0.00    -0.269 OA
BRANCH  35  38
ATOM     38  C   UNL A   1      36.504  33.836  29.614  1.00  0.00     0.039 A 
ATOM     39  C   UNL A   1      37.769  34.144  29.101  1.00  0.00     0.014 A 
ATOM     40  C   UNL A   1      36.417  33.243  30.868  1.00  0.00     0.014 A 
ATOM     41  C   UNL A   1      38.876  33.474  29.591  1.00  0.00     0.010 A 
ATOM     42  C   UNL A   1      37.468  32.489  31.292  1.00  0.00     0.010 A 
ATOM     43  C   UNL A   1      38.653  32.518  30.560  1.00  0.00    -0.014 A 
BRANCH  43  44
ATOM     44  C   UNL A   1      39.619  31.576  31.056  1.00  0.00     0.031 A 
ATOM     45  C   UNL A   1      39.655  30.303  30.329  1.00  0.00     0.074 A 
ATOM     46  C   UNL A   1      40.640  32.161  31.725  1.00  0.00     0.049 A 
ATOM     47  N   UNL A   1      40.439  29.331  30.603  1.00  0.00    -0.248 NA
ATOM     48  C   UNL A   1      38.759  30.017  29.204  1.00  0.00     0.031 C 
ATOM     49  C   UNL A   1      42.061  31.853  31.690  1.00  0.00     0.029 A 
ATOM     50  N   UNL A   1      40.570  33.220  32.624  1.00  0.00    -0.354 N 
ATOM     51  C   UNL A   1      40.439  28.513  29.490  1.00  0.00     0.074 A 
ATOM     52  C   UNL A   1      39.249  28.857  28.764  1.00  0.00     0.031 C 
ATOM     53  C   UNL A   1      42.683  32.518  32.684  1.00  0.00     0.029 A 
ATOM     54  C   UNL A   1      41.656  33.144  33.505  1.00  0.00     0.049 A 
ATOM     55  H   UNL A   1      39.871  33.912  32.638  1.00  0.00     0.167 HD
ATOM     56  C   UNL A   1      41.577  27.816  29.222  1.00  0.00     0.034 A 
ATOM     57  C   UNL A   1      41.412  32.805  34.812  1.00  0.00     0.034 A 
ATOM     58  C   UNL A   1      42.536  28.024  30.329  1.00  0.00     0.049 A 
ATOM     59  C   UNL A   1      41.783  31.356  35.108  1.00  0.00     0.074 A 
ATOM     60  C   UNL A   1      43.652  28.834  30.470  1.00  0.00     0.029 A 
ATOM     61  N   UNL A   1      42.158  27.659  31.621  1.00  0.00    -0.354 N 
ATOM     62  N   UNL A   1      42.128  30.487  34.195  1.00  0.00    -0.248 NA
ATOM     63  C   UNL A   1      41.854  30.786  36.450  1.00  0.00     0.031 C 
ATOM     64  C   UNL A   1      43.860  29.046  31.867  1.00  0.00     0.029 A 
ATOM     65  C   UNL A   1      42.898  28.344  32.576  1.00  0.00     0.049 A 
ATOM     66  H   UNL A   1      41.456  27.001  31.828  1.00  0.00     0.167 HD
ATOM     67  C   UNL A   1      42.368  29.265  34.753  1.00  0.00     0.074 A 
ATOM     68  C   UNL A   1      42.246  29.525  36.182  1.00  0.00     0.031 C 
ATOM     69  C   UNL A   1      42.615  28.144  34.001  1.00  0.00     0.034 A 
BRANCH  56  70
ATOM     70  C   UNL A   1      41.968  27.171  27.896  1.00  0.00     0.023 A 
ATOM     71  C   UNL A   1      42.006  28.034  26.777  1.00  0.00     0.012 A 
ATOM     72  C   UNL A   1      42.251  25.806  27.622  1.00  0.00     0.148 A 
ATOM     73  C   UNL A   1      42.267  27.583  25.478  1.00  0.00     0.002 A 
ATOM     74  C   UNL A   1      42.533  25.356  26.326  1.00  0.00     0.091 A 
ATOM     75  F   UNL A   1      42.241  24.903  28.599  1.00  0.00    -0.205 F 
ATOM     76  C   UNL A   1      42.531  26.243  25.250  1.00  0.00     0.022 A 
BRANCH  74  77
ATOM     77  S   UNL A   1      42.910  23.630  25.939  1.00  0.00     0.127 S 
ATOM     78  O   UNL A   1      43.307  23.712  24.533  1.00  0.00    -0.237 OA
ATOM     79  O   UNL A   1      44.006  23.336  26.862  1.00  0.00    -0.237 OA
ATOM     80  O   UNL A   1      41.688  22.873  26.180  1.00  0.00    -0.744 OA
ENDBRANCH  74  77
ENDBRANCH  56  70
BRANCH  57  81
ATOM     81  C   UNL A   1      40.219  33.554  35.346  1.00  0.00     0.023 A 
ATOM     82  C   UNL A   1      38.987  32.849  35.314  1.00  0.00     0.012 A 
ATOM     83  C   UNL A   1      40.392  34.569  36.304  1.00  0.00     0.148 A 
ATOM     84  C   UNL A   1      38.058  32.988  36.349  1.00  0.00     0.002 A 
ATOM     85  C   UNL A   1      39.467  34.693  37.340  1.00  0.00     0.091 A 
ATOM     86  F   UNL A   1      41.491  35.331  36.238  1.00  0.00    -0.205 F 
ATOM     87  C   UNL A   1      38.330  33.867  37.393  1.00  0.00     0.022 A 
BRANCH  85  88
ATOM     88  S   UNL A   1      39.778  35.766  38.748  1.00  0.00     0.127 S 
ATOM     89  O   UNL A   1      38.797  35.285  39.717  1.00  0.00    -0.237 OA
ATOM     90  O   UNL A   1      41.162  35.450  39.089  1.00  0.00    -0.237 OA
ATOM     91  O   UNL A   1      39.574  37.120  38.254  1.00  0.00    -0.744 OA
ENDBRANCH  85  88
ENDBRANCH  57  81
BRANCH  69  92
ATOM     92  C   UNL A   1      42.618  26.725  34.543  1.00  0.00     0.023 A 
ATOM     93  C   UNL A   1      41.516  26.174  35.222  1.00  0.00     0.012 A 
ATOM     94  C   UNL A   1      43.691  25.838  34.258  1.00  0.00     0.148 A 
ATOM     95  C   UNL A   1      41.514  24.854  35.682  1.00  0.00     0.002 A 
ATOM     96  C   UNL A   1      43.614  24.488  34.578  1.00  0.00     0.091 A 
ATOM     97  F   UNL A   1      44.818  26.297  33.696  1.00  0.00    -0.205 F 
ATOM     98  C   UNL A   1      42.552  24.001  35.337  1.00  0.00     0.022 A 
BRANCH  96  99
ATOM     99  S   UNL A   1      44.774  23.299  33.890  1.00  0.00     0.127 S 
ATOM    100  O   UNL A   1      46.038  23.743  34.471  1.00  0.00    -0.237 OA
ATOM    101  O   UNL A   1      44.267  22.033  34.423  1.00  0.00    -0.237 OA
ATOM    102  O   UNL A   1      44.652  23.427  32.444  1.00  0.00    -0.744 OA
ENDBRANCH  96  99
ENDBRANCH  69  92
ENDBRANCH  43  44
ENDBRANCH  35  38
ENDBRANCH  33  34
ENDBRANCH   1  33
TORSDOF 19
ENDMDL
MODEL 2
REMARK VINA RESULT:     -12.7      2.852      3.953
REMARK SMILES Cc1ccccc1OC1(C(=O)NCCCCNC(=O)c2ccc(-c3c4nc(c(-c5cccc(S(=O)(=O)[O-])c5F)c5ccc([nH]5)c(-c5cccc(S(=O)(=O)[O-])c5F)c5nc(c(-c6cccc(S(=O)(=O)[O-])c6F)c6ccc3[nH]6)C=C5)C=C4)cc2)CCN(c2ncc(C#N)c(N)n2)CC1
REMARK SMILES IDX 15 1 14 2 13 3 12 4 10 5 11 6 9 8 83 9 96 10 84 11 95 12
REMARK SMILES IDX 85 13 8 14 7 15 1 16 2 17 3 18 4 19 6 20 5 21 86 22 87 23
REMARK SMILES IDX 94 24 88 25 92 26 89 27 93 28 90 31 91 32 16 33 17 34 18 35
REMARK SMILES IDX 19 37 20 38 21 39 82 40 22 41 81 42 23 43 24 44 25 45 75 46
REMARK SMILES IDX 26 47 80 48 74 49 76 50 27 51 79 52 73 53 72 54 28 56 60 57
REMARK SMILES IDX 40 58 59 59 41 60 44 61 58 62 77 63 42 64 43 65 57 67 78 68
REMARK SMILES IDX 45 69 29 70 30 71 38 72 31 73 33 74 39 75 32 76 34 77 35 78
REMARK SMILES IDX 36 79 37 80 61 81 62 82 70 83 63 84 65 85 71 86 64 87 66 88
REMARK SMILES IDX 67 89 68 90 69 91 46 92 47 93 55 94 48 95 50 96 56 97 49 98
REMARK SMILES IDX 51 99 52 100 53 101 54 102
REMARK H PARENT 12 7 93 29 93 30 17 36 76 55 44 66
REMARK Flexibility Score: inf
ROOT
ATOM      1  C   UNL A   1      33.631  29.988  26.669  1.00  0.00     0.023 C 
ENDROOT
BRANCH   1   2
ATOM      2  C   UNL A   1      32.352  29.170  26.710  1.00  0.00     0.023 C 
BRANCH   2   3
ATOM      3  C   UNL A   1      32.551  27.658  26.885  1.00  0.00     0.116 C 
BRANCH   3   4
ATOM      4  N   UNL A   1      31.316  26.888  26.962  1.00  0.00    -0.353 N 
ATOM      5  C   UNL A   1      30.924  25.738  26.304  1.00  0.00     0.264 C 
ATOM      6  O   UNL A   1      29.840  25.255  26.643  1.00  0.00    -0.270 OA
ATOM      7  H   UNL A   1      30.648  27.248  27.591  1.00  0.00     0.163 HD
BRANCH   5   8
ATOM      8  C   UNL A   1      31.825  25.092  25.164  1.00  0.00     0.190 C 
ATOM      9  C   UNL A   1      33.068  24.601  25.905  1.00  0.00     0.080 C 
ATOM     10  C   UNL A   1      30.875  24.133  24.439  1.00  0.00     0.080 C 
ATOM     11  C   UNL A   1      33.362  23.114  25.862  1.00  0.00     0.124 C 
ATOM     12  C   UNL A   1      31.370  22.718  24.237  1.00  0.00     0.124 C 
ATOM     13  N   UNL A   1      32.363  22.281  25.208  1.00  0.00    -0.340 N 
BRANCH   8  14
ATOM     14  O   UNL A   1      32.193  26.177  24.268  1.00  0.00    -0.477 OA
BRANCH  14  15
ATOM     15  C   UNL A   1      31.470  27.181  23.680  1.00  0.00     0.123 A 
ATOM     16  C   UNL A   1      33.139  29.042  22.945  1.00  0.00     0.048 C 
ATOM     17  C   UNL A   1      31.802  28.420  23.102  1.00  0.00    -0.009 A 
ATOM     18  C   UNL A   1      30.793  29.254  22.559  1.00  0.00     0.007 A 
ATOM     19  C   UNL A   1      29.459  28.896  22.581  1.00  0.00     0.001 A 
ATOM     20  C   UNL A   1      30.100  26.849  23.687  1.00  0.00     0.047 A 
ATOM     21  C   UNL A   1      29.109  27.685  23.151  1.00  0.00     0.004 A 
ENDBRANCH  14  15
ENDBRANCH   8  14
BRANCH  13  22
ATOM     22  C   UNL A   1      32.859  21.004  24.984  1.00  0.00     0.227 A 
ATOM     23  N   UNL A   1      31.976  20.003  24.897  1.00  0.00    -0.220 NA
ATOM     24  N   UNL A   1      34.191  20.822  24.969  1.00  0.00    -0.195 NA
ATOM     25  C   UNL A   1      32.474  18.771  24.696  1.00  0.00     0.138 A 
ATOM     26  C   UNL A   1      34.662  19.575  24.816  1.00  0.00     0.147 A 
ATOM     27  C   UNL A   1      33.820  18.498  24.646  1.00  0.00     0.113 A 
BRANCH  26  28
ATOM     28  N   UNL A   1      36.036  19.453  24.946  1.00  0.00    -0.382 N 
ATOM     29  H   UNL A   1      36.430  19.252  25.826  1.00  0.00     0.158 HD
ATOM     30  H   UNL A   1      36.618  19.568  24.161  1.00  0.00     0.158 HD
ENDBRANCH  26  28
BRANCH  27  31
ATOM     31  C   UNL A   1      34.287  17.169  24.429  1.00  0.00     0.105 C 
ATOM     32  N   UNL A   1      34.676  16.095  24.266  1.00  0.00    -0.192 NA
ENDBRANCH  27  31
ENDBRANCH  13  22
ENDBRANCH   5   8
ENDBRANCH   3   4
ENDBRANCH   2   3
ENDBRANCH   1   2
BRANCH   1  33
ATOM     33  C   UNL A   1      33.636  31.096  27.691  1.00  0.00     0.116 C 
BRANCH  33  34
ATOM     34  N   UNL A   1      34.772  31.972  27.608  1.00  0.00    -0.352 N 
ATOM     35  C   UNL A   1      36.024  31.742  28.145  1.00  0.00     0.251 C 
ATOM     36  H   UNL A   1      34.647  32.818  27.120  1.00  0.00     0.163 HD
ATOM     37  O   UNL A   1      36.705  32.721  28.433  1.00  0.00    -0.269 OA
BRANCH  35  38
ATOM     38  C   UNL A   1      36.585  30.351  28.172  1.00  0.00     0.039 A 
ATOM     39  C   UNL A   1      36.578  29.738  29.429  1.00  0.00     0.014 A 
ATOM     40  C   UNL A   1      37.511  29.928  27.226  1.00  0.00     0.014 A 
ATOM     41  C   UNL A   1      37.718  29.090  29.869  1.00  0.00     0.010 A 
ATOM     42  C   UNL A   1      38.681  29.395  27.673  1.00  0.00     0.010 A 
ATOM     43  C   UNL A   1      38.812  29.103  29.029  1.00  0.00    -0.014 A 
BRANCH  43  44
ATOM     44  C   UNL A   1      40.141  28.672  29.365  1.00  0.00     0.031 A 
ATOM     45  C   UNL A   1      40.382  27.238  29.172  1.00  0.00     0.074 A 
ATOM     46  C   UNL A   1      41.057  29.667  29.303  1.00  0.00     0.049 A 
ATOM     47  N   UNL A   1      41.492  26.649  29.407  1.00  0.00    -0.248 NA
ATOM     48  C   UNL A   1      39.337  26.325  28.697  1.00  0.00     0.031 C 
ATOM     49  C   UNL A   1      42.415  29.637  28.784  1.00  0.00     0.029 A 
ATOM     50  N   UNL A   1      40.911  30.984  29.726  1.00  0.00    -0.354 N 
ATOM     51  C   UNL A   1      41.429  25.436  28.750  1.00  0.00     0.074 A 
ATOM     52  C   UNL A   1      40.031  25.200  28.518  1.00  0.00     0.031 C 
ATOM     53  C   UNL A   1      43.048  30.775  29.135  1.00  0.00     0.029 A 
ATOM     54  C   UNL A   1      42.172  31.504  30.041  1.00  0.00     0.049 A 
ATOM     55  H   UNL A   1      40.059  31.471  29.794  1.00  0.00     0.167 HD
ATOM     56  C   UNL A   1      42.596  24.911  28.287  1.00  0.00     0.034 A 
ATOM     57  C   UNL A   1      42.467  31.745  31.360  1.00  0.00     0.034 A 
ATOM     58  C   UNL A   1      43.716  25.758  28.748  1.00  0.00     0.049 A 
ATOM     59  C   UNL A   1      43.377  30.672  31.948  1.00  0.00     0.074 A 
ATOM     60  C   UNL A   1      44.480  26.733  28.125  1.00  0.00     0.029 A 
ATOM     61  N   UNL A   1      43.897  25.945  30.118  1.00  0.00    -0.354 N 
ATOM     62  N   UNL A   1      43.700  29.565  31.332  1.00  0.00    -0.248 NA
ATOM     63  C   UNL A   1      44.042  30.783  33.243  1.00  0.00     0.031 C 
ATOM     64  C   UNL A   1      45.020  27.578  29.141  1.00  0.00     0.029 A 
ATOM     65  C   UNL A   1      44.616  27.104  30.380  1.00  0.00     0.049 A 
ATOM     66  H   UNL A   1      43.557  25.333  30.810  1.00  0.00     0.167 HD
ATOM     67  C   UNL A   1      44.496  28.786  32.120  1.00  0.00     0.074 A 
ATOM     68  C   UNL A   1      44.735  29.628  33.285  1.00  0.00     0.031 C 
ATOM     69  C   UNL A   1      44.865  27.512  31.766  1.00  0.00     0.034 A 
BRANCH  56  70
ATOM     70  C   UNL A   1      42.757  23.825  27.228  1.00  0.00     0.023 A 
ATOM     71  C   UNL A   1      43.374  24.227  26.021  1.00  0.00     0.012 A 
ATOM     72  C   UNL A   1      42.326  22.472  27.270  1.00  0.00     0.148 A 
ATOM     73  C   UNL A   1      43.523  23.372  24.922  1.00  0.00     0.002 A 
ATOM     74  C   UNL A   1      42.493  21.609  26.179  1.00  0.00     0.091 A 
ATOM     75  F   UNL A   1      41.730  21.985  28.355  1.00  0.00    -0.205 F 
ATOM     76  C   UNL A   1      43.083  22.062  24.999  1.00  0.00     0.022 A 
BRANCH  74  77
ATOM     77  S   UNL A   1      41.968  19.879  26.197  1.00  0.00     0.127 S 
ATOM     78  O   UNL A   1      40.519  19.997  26.034  1.00  0.00    -0.237 OA
ATOM     79  O   UNL A   1      42.666  19.330  25.035  1.00  0.00    -0.237 OA
ATOM     80  O   UNL A   1      42.391  19.329  27.479  1.00  0.00    -0.744 OA
ENDBRANCH  74  77
ENDBRANCH  56  70
BRANCH  57  81
ATOM     81  C   UNL A   1      41.315  32.425  32.051  1.00  0.00     0.023 A 
ATOM     82  C   UNL A   1      40.859  33.626  31.448  1.00  0.00     0.012 A 
ATOM     83  C   UNL A   1      40.414  31.674  32.827  1.00  0.00     0.148 A 
ATOM     84  C   UNL A   1      39.497  33.939  31.422  1.00  0.00     0.002 A 
ATOM     85  C   UNL A   1      39.055  31.986  32.786  1.00  0.00     0.091 A 
ATOM     86  F   UNL A   1      40.882  30.625  33.515  1.00  0.00    -0.205 F 
ATOM     87  C   UNL A   1      38.591  33.084  32.040  1.00  0.00     0.022 A 
BRANCH  85  88
ATOM     88  S   UNL A   1      37.823  30.899  33.515  1.00  0.00     0.127 S 
ATOM     89  O   UNL A   1      38.220  29.596  32.988  1.00  0.00    -0.237 OA
ATOM     90  O   UNL A   1      38.061  31.065  34.946  1.00  0.00    -0.237 OA
ATOM     91  O   UNL A   1      36.539  31.407  33.054  1.00  0.00    -0.744 OA
ENDBRANCH  85  88
ENDBRANCH  57  81
BRANCH  69  92
ATOM     92  C   UNL A   1      45.512  26.509  32.706  1.00  0.00     0.023 A 
ATOM     93  C   UNL A   1      46.903  26.308  32.752  1.00  0.00     0.012 A 
ATOM     94  C   UNL A   1      44.743  25.831  33.690  1.00  0.00     0.148 A 
ATOM     95  C   UNL A   1      47.492  25.411  33.650  1.00  0.00     0.002 A 
ATOM     96  C   UNL A   1      45.351  25.067  34.678  1.00  0.00     0.091 A 
ATOM     97  F   UNL A   1      43.405  25.893  33.665  1.00  0.00    -0.205 F 
ATOM     98  C   UNL A   1      46.720  24.811  34.632  1.00  0.00     0.022 A 
BRANCH  96  99
ATOM     99  S   UNL A   1      44.441  24.528  36.133  1.00  0.00     0.127 S 
ATOM    100  O   UNL A   1      45.514  24.032  36.991  1.00  0.00    -0.237 OA
ATOM    101  O   UNL A   1      43.821  25.774  36.585  1.00  0.00    -0.237 OA
ATOM    102  O   UNL A   1      43.493  23.532  35.651  1.00  0.00    -0.744 OA
ENDBRANCH  96  99
ENDBRANCH  69  92
ENDBRANCH  43  44
ENDBRANCH  35  38
ENDBRANCH  33  34
ENDBRANCH   1  33
TORSDOF 19
ENDMDL
MODEL 3
REMARK VINA RESULT:     -12.7      4.149      9.736
REMARK SMILES Cc1ccccc1OC1(C(=O)NCCCCNC(=O)c2ccc(-c3c4nc(c(-c5cccc(S(=O)(=O)[O-])c5F)c5ccc([nH]5)c(-c5cccc(S(=O)(=O)[O-])c5F)c5nc(c(-c6cccc(S(=O)(=O)[O-])c6F)c6ccc3[nH]6)C=C5)C=C4)cc2)CCN(c2ncc(C#N)c(N)n2)CC1
REMARK SMILES IDX 15 1 14 2 13 3 12 4 10 5 11 6 9 8 83 9 96 10 84 11 95 12
REMARK SMILES IDX 85 13 8 14 7 15 1 16 2 17 3 18 4 19 6 20 5 21 86 22 87 23
REMARK SMILES IDX 94 24 88 25 92 26 89 27 93 28 90 31 91 32 16 33 17 34 18 35
REMARK SMILES IDX 19 37 20 38 21 39 82 40 22 41 81 42 23 43 24 44 25 45 75 46
REMARK SMILES IDX 26 47 80 48 74 49 76 50 27 51 79 52 73 53 72 54 28 56 60 57
REMARK SMILES IDX 40 58 59 59 41 60 44 61 58 62 77 63 42 64 43 65 57 67 78 68
REMARK SMILES IDX 45 69 29 70 30 71 38 72 31 73 33 74 39 75 32 76 34 77 35 78
REMARK SMILES IDX 36 79 37 80 61 81 62 82 70 83 63 84 65 85 71 86 64 87 66 88
REMARK SMILES IDX 67 89 68 90 69 91 46 92 47 93 55 94 48 95 50 96 56 97 49 98
REMARK SMILES IDX 51 99 52 100 53 101 54 102
REMARK H PARENT 12 7 93 29 93 30 17 36 76 55 44 66
REMARK Flexibility Score: inf
ROOT
ATOM      1  C   UNL A   1      38.088  23.253  25.622  1.00  0.00     0.023 C 
ENDROOT
BRANCH   1   2
ATOM      2  C   UNL A   1      36.675  23.506  26.117  1.00  0.00     0.023 C 
BRANCH   2   3
ATOM      3  C   UNL A   1      35.878  22.247  26.484  1.00  0.00     0.116 C 
BRANCH   3   4
ATOM      4  N   UNL A   1      34.680  22.496  27.276  1.00  0.00    -0.353 N 
ATOM      5  C   UNL A   1      33.402  22.858  26.895  1.00  0.00     0.264 C 
ATOM      6  O   UNL A   1      32.556  22.911  27.794  1.00  0.00    -0.270 OA
ATOM      7  H   UNL A   1      34.803  22.387  28.248  1.00  0.00     0.163 HD
BRANCH   5   8
ATOM      8  C   UNL A   1      33.057  23.197  25.380  1.00  0.00     0.190 C 
ATOM      9  C   UNL A   1      31.535  23.093  25.312  1.00  0.00     0.080 C 
ATOM     10  C   UNL A   1      33.799  24.512  25.117  1.00  0.00     0.080 C 
ATOM     11  C   UNL A   1      30.769  24.343  24.926  1.00  0.00     0.124 C 
ATOM     12  C   UNL A   1      32.988  25.631  24.503  1.00  0.00     0.124 C 
ATOM     13  N   UNL A   1      31.558  25.556  24.765  1.00  0.00    -0.340 N 
BRANCH   8  14
ATOM     14  O   UNL A   1      33.652  22.140  24.579  1.00  0.00    -0.477 OA
BRANCH  14  15
ATOM     15  C   UNL A   1      33.185  20.925  24.150  1.00  0.00     0.123 A 
ATOM     16  C   UNL A   1      31.810  21.322  21.972  1.00  0.00     0.048 C 
ATOM     17  C   UNL A   1      32.400  20.505  23.061  1.00  0.00    -0.009 A 
ATOM     18  C   UNL A   1      32.084  19.134  22.887  1.00  0.00     0.007 A 
ATOM     19  C   UNL A   1      32.521  18.166  23.772  1.00  0.00     0.001 A 
ATOM     20  C   UNL A   1      33.611  19.912  25.032  1.00  0.00     0.047 A 
ATOM     21  C   UNL A   1      33.287  18.559  24.854  1.00  0.00     0.004 A 
ENDBRANCH  14  15
ENDBRANCH   8  14
BRANCH  13  22
ATOM     22  C   UNL A   1      30.810  26.550  24.149  1.00  0.00     0.227 A 
ATOM     23  N   UNL A   1      29.481  26.409  24.137  1.00  0.00    -0.220 NA
ATOM     24  N   UNL A   1      31.456  27.543  23.512  1.00  0.00    -0.195 NA
ATOM     25  C   UNL A   1      28.774  27.372  23.523  1.00  0.00     0.138 A 
ATOM     26  C   UNL A   1      30.728  28.466  22.865  1.00  0.00     0.147 A 
ATOM     27  C   UNL A   1      29.350  28.433  22.866  1.00  0.00     0.113 A 
BRANCH  26  28
ATOM     28  N   UNL A   1      31.466  29.374  22.125  1.00  0.00    -0.382 N 
ATOM     29  H   UNL A   1      31.789  29.129  21.226  1.00  0.00     0.158 HD
ATOM     30  H   UNL A   1      31.668  30.263  22.494  1.00  0.00     0.158 HD
ENDBRANCH  26  28
BRANCH  27  31
ATOM     31  C   UNL A   1      28.546  29.424  22.234  1.00  0.00     0.105 C 
ATOM     32  N   UNL A   1      27.880  30.222  21.731  1.00  0.00    -0.192 NA
ENDBRANCH  27  31
ENDBRANCH  13  22
ENDBRANCH   5   8
ENDBRANCH   3   4
ENDBRANCH   2   3
ENDBRANCH   1   2
BRANCH   1  33
ATOM     33  C   UNL A   1      38.637  21.936  26.108  1.00  0.00     0.116 C 
BRANCH  33  34
ATOM     34  N   UNL A   1      39.766  22.055  26.991  1.00  0.00    -0.352 N 
ATOM     35  C   UNL A   1      40.521  23.192  27.203  1.00  0.00     0.251 C 
ATOM     36  H   UNL A   1      40.025  21.250  27.492  1.00  0.00     0.163 HD
ATOM     37  O   UNL A   1      41.686  23.040  27.557  1.00  0.00    -0.269 OA
BRANCH  35  38
ATOM     38  C   UNL A   1      39.865  24.541  27.198  1.00  0.00     0.039 A 
ATOM     39  C   UNL A   1      40.423  25.463  26.306  1.00  0.00     0.014 A 
ATOM     40  C   UNL A   1      39.181  25.016  28.311  1.00  0.00     0.014 A 
ATOM     41  C   UNL A   1      40.692  26.747  26.746  1.00  0.00     0.010 A 
ATOM     42  C   UNL A   1      39.533  26.234  28.805  1.00  0.00     0.010 A 
ATOM     43  C   UNL A   1      40.400  27.034  28.063  1.00  0.00    -0.014 A 
BRANCH  43  44
ATOM     44  C   UNL A   1      40.778  28.226  28.772  1.00  0.00     0.031 A 
ATOM     45  C   UNL A   1      39.844  29.346  28.620  1.00  0.00     0.074 A 
ATOM     46  C   UNL A   1      41.595  27.984  29.824  1.00  0.00     0.049 A 
ATOM     47  N   UNL A   1      39.989  30.493  29.166  1.00  0.00    -0.248 NA
ATOM     48  C   UNL A   1      38.638  29.254  27.791  1.00  0.00     0.031 C 
ATOM     49  C   UNL A   1      41.586  28.576  31.152  1.00  0.00     0.029 A 
ATOM     50  N   UNL A   1      42.658  27.089  29.886  1.00  0.00    -0.354 N 
ATOM     51  C   UNL A   1      38.753  31.106  29.104  1.00  0.00     0.074 A 
ATOM     52  C   UNL A   1      38.032  30.408  28.077  1.00  0.00     0.031 C 
ATOM     53  C   UNL A   1      42.715  28.223  31.802  1.00  0.00     0.029 A 
ATOM     54  C   UNL A   1      43.572  27.532  30.850  1.00  0.00     0.049 A 
ATOM     55  H   UNL A   1      42.753  26.276  29.340  1.00  0.00     0.167 HD
ATOM     56  C   UNL A   1      38.433  31.977  30.100  1.00  0.00     0.034 A 
ATOM     57  C   UNL A   1      44.785  28.013  30.425  1.00  0.00     0.034 A 
ATOM     58  C   UNL A   1      39.611  32.154  30.976  1.00  0.00     0.049 A 
ATOM     59  C   UNL A   1      44.845  29.536  30.471  1.00  0.00     0.074 A 
ATOM     60  C   UNL A   1      39.953  31.632  32.213  1.00  0.00     0.029 A 
ATOM     61  N   UNL A   1      40.797  32.630  30.417  1.00  0.00    -0.354 N 
ATOM     62  N   UNL A   1      43.816  30.304  30.717  1.00  0.00    -0.248 NA
ATOM     63  C   UNL A   1      46.070  30.313  30.305  1.00  0.00     0.031 C 
ATOM     64  C   UNL A   1      41.375  31.693  32.332  1.00  0.00     0.029 A 
ATOM     65  C   UNL A   1      41.897  32.278  31.188  1.00  0.00     0.049 A 
ATOM     66  H   UNL A   1      40.847  33.150  29.582  1.00  0.00     0.167 HD
ATOM     67  C   UNL A   1      44.167  31.621  30.657  1.00  0.00     0.074 A 
ATOM     68  C   UNL A   1      45.611  31.570  30.460  1.00  0.00     0.031 C 
ATOM     69  C   UNL A   1      43.247  32.635  30.743  1.00  0.00     0.034 A 
BRANCH  56  70
ATOM     70  C   UNL A   1      37.040  32.473  30.473  1.00  0.00     0.023 A 
ATOM     71  C   UNL A   1      36.571  32.093  31.752  1.00  0.00     0.012 A 
ATOM     72  C   UNL A   1      36.124  33.224  29.688  1.00  0.00     0.148 A 
ATOM     73  C   UNL A   1      35.284  32.399  32.211  1.00  0.00     0.002 A 
ATOM     74  C   UNL A   1      34.844  33.549  30.154  1.00  0.00     0.091 A 
ATOM     75  F   UNL A   1      36.457  33.633  28.466  1.00  0.00    -0.205 F 
ATOM     76  C   UNL A   1      34.418  33.127  31.414  1.00  0.00     0.022 A 
BRANCH  74  77
ATOM     77  S   UNL A   1      33.656  34.513  29.190  1.00  0.00     0.127 S 
ATOM     78  O   UNL A   1      34.484  35.611  28.694  1.00  0.00    -0.237 OA
ATOM     79  O   UNL A   1      33.239  33.557  28.164  1.00  0.00    -0.237 OA
ATOM     80  O   UNL A   1      32.602  34.917  30.112  1.00  0.00    -0.744 OA
ENDBRANCH  74  77
ENDBRANCH  56  70
BRANCH  57  81
ATOM     81  C   UNL A   1      45.373  27.123  29.362  1.00  0.00     0.023 A 
ATOM     82  C   UNL A   1      45.552  25.763  29.730  1.00  0.00     0.012 A 
ATOM     83  C   UNL A   1      45.203  27.438  28.003  1.00  0.00     0.148 A 
ATOM     84  C   UNL A   1      45.329  24.738  28.806  1.00  0.00     0.002 A 
ATOM     85  C   UNL A   1      44.970  26.410  27.089  1.00  0.00     0.091 A 
ATOM     86  F   UNL A   1      45.184  28.727  27.642  1.00  0.00    -0.205 F 
ATOM     87  C   UNL A   1      44.979  25.066  27.500  1.00  0.00     0.022 A 
BRANCH  85  88
ATOM     88  S   UNL A   1      44.459  26.757  25.401  1.00  0.00     0.127 S 
ATOM     89  O   UNL A   1      45.742  26.926  24.725  1.00  0.00    -0.237 OA
ATOM     90  O   UNL A   1      43.741  25.540  25.030  1.00  0.00    -0.237 OA
ATOM     91  O   UNL A   1      43.623  27.946  25.487  1.00  0.00    -0.744 OA
ENDBRANCH  85  88
ENDBRANCH  57  81
BRANCH  69  92
ATOM     92  C   UNL A   1      43.534  34.091  30.414  1.00  0.00     0.023 A 
ATOM     93  C   UNL A   1      43.946  35.017  31.388  1.00  0.00     0.012 A 
ATOM     94  C   UNL A   1      43.540  34.546  29.067  1.00  0.00     0.148 A 
ATOM     95  C   UNL A   1      44.247  36.345  31.067  1.00  0.00     0.002 A 
ATOM     96  C   UNL A   1      43.992  35.818  28.740  1.00  0.00     0.091 A 
ATOM     97  F   UNL A   1      43.076  33.761  28.085  1.00  0.00    -0.205 F 
ATOM     98  C   UNL A   1      44.297  36.739  29.740  1.00  0.00     0.022 A 
BRANCH  96  99
ATOM     99  S   UNL A   1      44.364  36.266  27.038  1.00  0.00     0.127 S 
ATOM    100  O   UNL A   1      43.031  36.312  26.443  1.00  0.00    -0.237 OA
ATOM    101  O   UNL A   1      45.008  37.571  27.199  1.00  0.00    -0.237 OA
ATOM    102  O   UNL A   1      45.251  35.221  26.545  1.00  0.00    -0.744 OA
ENDBRANCH  96  99
ENDBRANCH  69  92
ENDBRANCH  43  44
ENDBRANCH  35  38
ENDBRANCH  33  34
ENDBRANCH   1  33
TORSDOF 19
ENDMDL
