MODEL 1
REMARK VINA RESULT:     -12.3      0.000      0.000
REMARK SMILES CC(C)[C@H]([NH2+]C[C@H]1CC[C@@H](C(=O)NCCCCNC(=O)c2ccc(-c3c4nc(c(-c5cccc(S(=O)(=O)[O-])c5F)c5ccc([nH]5)c(-c5cccc(S(=O)(=O)[O-])c5F)c5nc(c(-c6cccc(S(=O)(=O)[O-])c6F)c6ccc3[nH]6)C=C5)C=C4)cc2)CC1)c1ccccc1
REMARK SMILES IDX 15 1 14 2 13 3 11 4 12 5 10 7 7 8 8 9 85 10 9 11 84 12 6 13
REMARK SMILES IDX 5 14 4 17 2 18 1 19 3 20 86 21 87 22 91 23 88 24 90 25 89 26
REMARK SMILES IDX 16 27 17 28 18 29 19 30 20 32 21 33 22 34 83 35 23 36 82 37
REMARK SMILES IDX 24 38 25 39 26 40 76 41 27 42 81 43 75 44 77 45 28 46 80 47
REMARK SMILES IDX 74 48 73 49 29 51 61 52 41 53 60 54 42 55 45 56 59 57 78 58
REMARK SMILES IDX 43 59 44 60 58 62 79 63 46 64 30 65 31 66 39 67 32 68 34 69
REMARK SMILES IDX 40 70 33 71 35 72 36 73 37 74 38 75 62 76 63 77 71 78 64 79
REMARK SMILES IDX 66 80 72 81 65 82 67 83 68 84 69 85 70 86 47 87 48 88 56 89
REMARK SMILES IDX 49 90 51 91 57 92 50 93 52 94 53 95 54 96 55 97
REMARK H PARENT 13 6 5 15 5 16 18 31 77 50 45 61
REMARK Flexibility Score: inf
ROOT
ATOM      1  C   UNL A   1      31.599  29.412  25.198  1.00  0.00     0.023 C 
ENDROOT
BRANCH   1   2
ATOM      2  C   UNL A   1      30.946  29.319  23.820  1.00  0.00     0.116 C 
BRANCH   2   3
ATOM      3  N   UNL A   1      31.585  28.358  22.954  1.00  0.00    -0.356 N 
ATOM      4  C   UNL A   1      31.644  27.004  22.975  1.00  0.00     0.223 C 
ATOM      5  O   UNL A   1      32.232  26.476  22.022  1.00  0.00    -0.275 OA
ATOM      6  H   UNL A   1      32.075  28.764  22.203  1.00  0.00     0.163 HD
BRANCH   4   7
ATOM      7  C   UNL A   1      31.048  26.102  24.069  1.00  0.00     0.078 C 
ATOM      8  C   UNL A   1      31.706  23.171  24.482  1.00  0.00     0.044 C 
ATOM      9  C   UNL A   1      32.630  24.283  25.015  1.00  0.00     0.010 C 
ATOM     10  C   UNL A   1      30.684  23.631  23.420  1.00  0.00     0.010 C 
ATOM     11  C   UNL A   1      31.992  25.654  25.180  1.00  0.00     0.014 C 
ATOM     12  C   UNL A   1      30.086  25.015  23.608  1.00  0.00     0.014 C 
BRANCH   8  13
ATOM     13  C   UNL A   1      32.508  21.988  23.868  1.00  0.00     0.264 C 
BRANCH  13  14
ATOM     14  N   UNL A   1      32.833  20.916  24.809  1.00  0.00    -0.340 N 
ATOM     15  H   UNL A   1      32.853  21.314  25.747  1.00  0.00     0.346 HD
ATOM     16  H   UNL A   1      32.114  20.202  24.689  1.00  0.00     0.346 HD
BRANCH  14  17
ATOM     17  C   UNL A   1      34.142  20.238  24.565  1.00  0.00     0.216 C 
BRANCH  17  18
ATOM     18  C   UNL A   1      35.289  20.990  25.346  1.00  0.00     0.046 C 
ATOM     19  C   UNL A   1      36.220  21.941  24.592  1.00  0.00     0.014 C 
ATOM     20  C   UNL A   1      34.713  21.602  26.630  1.00  0.00     0.014 C 
ENDBRANCH  17  18
BRANCH  17  21
ATOM     21  C   UNL A   1      33.943  18.721  24.729  1.00  0.00     0.009 A 
ATOM     22  C   UNL A   1      32.772  18.264  25.371  1.00  0.00     0.010 A 
ATOM     23  C   UNL A   1      34.816  17.733  24.254  1.00  0.00     0.010 A 
ATOM     24  C   UNL A   1      32.552  16.910  25.638  1.00  0.00     0.001 A 
ATOM     25  C   UNL A   1      34.623  16.378  24.554  1.00  0.00     0.001 A 
ATOM     26  C   UNL A   1      33.500  15.968  25.260  1.00  0.00     0.000 A 
ENDBRANCH  17  21
ENDBRANCH  14  17
ENDBRANCH  13  14
ENDBRANCH   8  13
ENDBRANCH   4   7
ENDBRANCH   2   3
ENDBRANCH   1   2
BRANCH   1  27
ATOM     27  C   UNL A   1      31.494  30.782  25.865  1.00  0.00     0.023 C 
BRANCH  27  28
ATOM     28  C   UNL A   1      32.460  31.011  27.028  1.00  0.00     0.116 C 
BRANCH  28  29
ATOM     29  N   UNL A   1      32.650  32.410  27.376  1.00  0.00    -0.352 N 
ATOM     30  C   UNL A   1      33.769  33.028  27.906  1.00  0.00     0.251 C 
ATOM     31  H   UNL A   1      31.877  32.998  27.211  1.00  0.00     0.163 HD
ATOM     32  O   UNL A   1      33.732  34.201  28.249  1.00  0.00    -0.269 OA
BRANCH  30  33
ATOM     33  C   UNL A   1      35.005  32.267  28.129  1.00  0.00     0.039 A 
ATOM     34  C   UNL A   1      36.202  32.989  28.110  1.00  0.00     0.014 A 
ATOM     35  C   UNL A   1      34.997  30.906  28.428  1.00  0.00     0.014 A 
ATOM     36  C   UNL A   1      37.370  32.382  28.543  1.00  0.00     0.010 A 
ATOM     37  C   UNL A   1      36.138  30.329  28.959  1.00  0.00     0.010 A 
ATOM     38  C   UNL A   1      37.317  31.077  29.052  1.00  0.00    -0.014 A 
BRANCH  38  39
ATOM     39  C   UNL A   1      38.475  30.526  29.779  1.00  0.00     0.031 A 
ATOM     40  C   UNL A   1      38.748  30.952  31.184  1.00  0.00     0.074 A 
ATOM     41  C   UNL A   1      39.306  29.701  29.111  1.00  0.00     0.049 A 
ATOM     42  N   UNL A   1      39.710  30.574  31.980  1.00  0.00    -0.248 NA
ATOM     43  C   UNL A   1      37.844  31.960  31.765  1.00  0.00     0.031 C 
ATOM     44  C   UNL A   1      39.166  29.321  27.699  1.00  0.00     0.029 A 
ATOM     45  N   UNL A   1      40.433  29.039  29.516  1.00  0.00    -0.354 N 
ATOM     46  C   UNL A   1      39.547  31.314  33.142  1.00  0.00     0.074 A 
ATOM     47  C   UNL A   1      38.421  32.196  32.934  1.00  0.00     0.031 C 
ATOM     48  C   UNL A   1      40.147  28.467  27.370  1.00  0.00     0.029 A 
ATOM     49  C   UNL A   1      40.999  28.262  28.533  1.00  0.00     0.049 A 
ATOM     50  H   UNL A   1      40.802  29.113  30.426  1.00  0.00     0.167 HD
ATOM     51  C   UNL A   1      40.255  31.232  34.291  1.00  0.00     0.034 A 
ATOM     52  C   UNL A   1      42.080  27.461  28.578  1.00  0.00     0.034 A 
ATOM     53  C   UNL A   1      41.346  30.317  34.478  1.00  0.00     0.049 A 
ATOM     54  C   UNL A   1      42.799  27.331  29.892  1.00  0.00     0.074 A 
ATOM     55  C   UNL A   1      42.101  30.092  35.613  1.00  0.00     0.029 A 
ATOM     56  N   UNL A   1      41.837  29.470  33.492  1.00  0.00    -0.354 N 
ATOM     57  N   UNL A   1      42.539  27.924  31.034  1.00  0.00    -0.248 NA
ATOM     58  C   UNL A   1      43.929  26.396  29.940  1.00  0.00     0.031 C 
ATOM     59  C   UNL A   1      43.057  29.115  35.310  1.00  0.00     0.029 A 
ATOM     60  C   UNL A   1      42.884  28.717  33.991  1.00  0.00     0.049 A 
ATOM     61  H   UNL A   1      41.491  29.415  32.573  1.00  0.00     0.167 HD
ATOM     62  C   UNL A   1      43.450  27.413  31.945  1.00  0.00     0.074 A 
ATOM     63  C   UNL A   1      44.254  26.441  31.225  1.00  0.00     0.031 C 
ATOM     64  C   UNL A   1      43.624  27.724  33.254  1.00  0.00     0.034 A 
BRANCH  51  65
ATOM     65  C   UNL A   1      39.826  32.118  35.431  1.00  0.00     0.023 A 
ATOM     66  C   UNL A   1      40.380  33.411  35.549  1.00  0.00     0.012 A 
ATOM     67  C   UNL A   1      38.879  31.684  36.376  1.00  0.00     0.148 A 
ATOM     68  C   UNL A   1      40.032  34.239  36.616  1.00  0.00     0.002 A 
ATOM     69  C   UNL A   1      38.503  32.533  37.412  1.00  0.00     0.091 A 
ATOM     70  F   UNL A   1      38.384  30.443  36.264  1.00  0.00    -0.205 F 
ATOM     71  C   UNL A   1      39.089  33.804  37.541  1.00  0.00     0.022 A 
BRANCH  69  72
ATOM     72  S   UNL A   1      37.247  32.093  38.617  1.00  0.00     0.127 S 
ATOM     73  O   UNL A   1      37.078  30.663  38.358  1.00  0.00    -0.237 OA
ATOM     74  O   UNL A   1      37.910  32.409  39.882  1.00  0.00    -0.237 OA
ATOM     75  O   UNL A   1      36.092  32.925  38.314  1.00  0.00    -0.744 OA
ENDBRANCH  69  72
ENDBRANCH  51  65
BRANCH  52  76
ATOM     76  C   UNL A   1      42.466  26.655  27.385  1.00  0.00     0.023 A 
ATOM     77  C   UNL A   1      43.224  27.258  26.362  1.00  0.00     0.012 A 
ATOM     78  C   UNL A   1      42.138  25.289  27.279  1.00  0.00     0.148 A 
ATOM     79  C   UNL A   1      43.619  26.527  25.240  1.00  0.00     0.002 A 
ATOM     80  C   UNL A   1      42.580  24.553  26.185  1.00  0.00     0.091 A 
ATOM     81  F   UNL A   1      41.412  24.732  28.259  1.00  0.00    -0.205 F 
ATOM     82  C   UNL A   1      43.307  25.173  25.156  1.00  0.00     0.022 A 
BRANCH  80  83
ATOM     83  S   UNL A   1      42.338  22.776  26.061  1.00  0.00     0.127 S 
ATOM     84  O   UNL A   1      40.884  22.666  26.151  1.00  0.00    -0.237 OA
ATOM     85  O   UNL A   1      42.898  22.481  24.742  1.00  0.00    -0.237 OA
ATOM     86  O   UNL A   1      43.091  22.204  27.170  1.00  0.00    -0.744 OA
ENDBRANCH  80  83
ENDBRANCH  52  76
BRANCH  64  87
ATOM     87  C   UNL A   1      44.705  26.987  33.994  1.00  0.00     0.023 A 
ATOM     88  C   UNL A   1      46.018  27.495  33.997  1.00  0.00     0.012 A 
ATOM     89  C   UNL A   1      44.399  25.838  34.746  1.00  0.00     0.148 A 
ATOM     90  C   UNL A   1      47.021  26.850  34.718  1.00  0.00     0.002 A 
ATOM     91  C   UNL A   1      45.392  25.229  35.501  1.00  0.00     0.091 A 
ATOM     92  F   UNL A   1      43.146  25.361  34.708  1.00  0.00    -0.205 F 
ATOM     93  C   UNL A   1      46.705  25.726  35.479  1.00  0.00     0.022 A 
BRANCH  91  94
ATOM     94  S   UNL A   1      45.049  23.842  36.588  1.00  0.00     0.127 S 
ATOM     95  O   UNL A   1      46.389  23.490  37.055  1.00  0.00    -0.237 OA
ATOM     96  O   UNL A   1      44.188  24.448  37.605  1.00  0.00    -0.237 OA
ATOM     97  O   UNL A   1      44.388  22.842  35.760  1.00  0.00    -0.744 OA
ENDBRANCH  91  94
ENDBRANCH  64  87
ENDBRANCH  38  39
ENDBRANCH  30  33
ENDBRANCH  28  29
ENDBRANCH  27  28
ENDBRANCH   1  27
TORSDOF 19
ENDMDL
MODEL 2
REMARK VINA RESULT:     -12.2      1.458      1.796
REMARK SMILES CC(C)[C@H]([NH2+]C[C@H]1CC[C@@H](C(=O)NCCCCNC(=O)c2ccc(-c3c4nc(c(-c5cccc(S(=O)(=O)[O-])c5F)c5ccc([nH]5)c(-c5cccc(S(=O)(=O)[O-])c5F)c5nc(c(-c6cccc(S(=O)(=O)[O-])c6F)c6ccc3[nH]6)C=C5)C=C4)cc2)CC1)c1ccccc1
REMARK SMILES IDX 15 1 14 2 13 3 11 4 12 5 10 7 7 8 8 9 85 10 9 11 84 12 6 13
REMARK SMILES IDX 5 14 4 17 2 18 1 19 3 20 86 21 87 22 91 23 88 24 90 25 89 26
REMARK SMILES IDX 16 27 17 28 18 29 19 30 20 32 21 33 22 34 83 35 23 36 82 37
REMARK SMILES IDX 24 38 25 39 26 40 76 41 27 42 81 43 75 44 77 45 28 46 80 47
REMARK SMILES IDX 74 48 73 49 29 51 61 52 41 53 60 54 42 55 45 56 59 57 78 58
REMARK SMILES IDX 43 59 44 60 58 62 79 63 46 64 30 65 31 66 39 67 32 68 34 69
REMARK SMILES IDX 40 70 33 71 35 72 36 73 37 74 38 75 62 76 63 77 71 78 64 79
REMARK SMILES IDX 66 80 72 81 65 82 67 83 68 84 69 85 70 86 47 87 48 88 56 89
REMARK SMILES IDX 49 90 51 91 57 92 50 93 52 94 53 95 54 96 55 97
REMARK H PARENT 13 6 5 15 5 16 18 31 77 50 45 61
REMARK Flexibility Score: inf
ROOT
ATOM      1  C   UNL A   1      31.860  28.391  26.921  1.00  0.00     0.023 C 
ENDROOT
BRANCH   1   2
ATOM      2  C   UNL A   1      32.731  27.991  25.731  1.00  0.00     0.116 C 
BRANCH   2   3
ATOM      3  N   UNL A   1      31.976  27.791  24.518  1.00  0.00    -0.356 N 
ATOM      4  C   UNL A   1      32.128  26.941  23.475  1.00  0.00     0.223 C 
ATOM      5  O   UNL A   1      31.243  26.985  22.610  1.00  0.00    -0.275 OA
ATOM      6  H   UNL A   1      31.200  28.390  24.431  1.00  0.00     0.163 HD
BRANCH   4   7
ATOM      7  C   UNL A   1      33.291  25.950  23.293  1.00  0.00     0.078 C 
ATOM      8  C   UNL A   1      33.136  22.955  23.748  1.00  0.00     0.044 C 
ATOM      9  C   UNL A   1      32.641  23.594  22.436  1.00  0.00     0.010 C 
ATOM     10  C   UNL A   1      33.329  23.945  24.918  1.00  0.00     0.010 C 
ATOM     11  C   UNL A   1      33.189  24.978  22.123  1.00  0.00     0.014 C 
ATOM     12  C   UNL A   1      33.858  25.323  24.561  1.00  0.00     0.014 C 
BRANCH   8  13
ATOM     13  C   UNL A   1      32.185  21.831  24.248  1.00  0.00     0.264 C 
BRANCH  13  14
ATOM     14  N   UNL A   1      32.794  20.886  25.184  1.00  0.00    -0.340 N 
ATOM     15  H   UNL A   1      33.043  21.397  26.032  1.00  0.00     0.346 HD
ATOM     16  H   UNL A   1      32.102  20.154  25.342  1.00  0.00     0.346 HD
BRANCH  14  17
ATOM     17  C   UNL A   1      34.022  20.201  24.679  1.00  0.00     0.216 C 
BRANCH  17  18
ATOM     18  C   UNL A   1      35.300  20.797  25.389  1.00  0.00     0.046 C 
ATOM     19  C   UNL A   1      36.323  21.585  24.567  1.00  0.00     0.014 C 
ATOM     20  C   UNL A   1      34.877  21.517  26.676  1.00  0.00     0.014 C 
ENDBRANCH  17  18
BRANCH  17  21
ATOM     21  C   UNL A   1      33.764  18.683  24.670  1.00  0.00     0.009 A 
ATOM     22  C   UNL A   1      32.726  18.175  25.480  1.00  0.00     0.010 A 
ATOM     23  C   UNL A   1      34.453  17.749  23.885  1.00  0.00     0.010 A 
ATOM     24  C   UNL A   1      32.480  16.804  25.597  1.00  0.00     0.001 A 
ATOM     25  C   UNL A   1      34.241  16.371  24.029  1.00  0.00     0.001 A 
ATOM     26  C   UNL A   1      33.265  15.899  24.897  1.00  0.00     0.000 A 
ENDBRANCH  17  21
ENDBRANCH  14  17
ENDBRANCH  13  14
ENDBRANCH   8  13
ENDBRANCH   4   7
ENDBRANCH   2   3
ENDBRANCH   1   2
BRANCH   1  27
ATOM     27  C   UNL A   1      31.444  29.860  26.944  1.00  0.00     0.023 C 
BRANCH  27  28
ATOM     28  C   UNL A   1      32.472  30.833  26.364  1.00  0.00     0.116 C 
BRANCH  28  29
ATOM     29  N   UNL A   1      32.459  32.149  26.982  1.00  0.00    -0.352 N 
ATOM     30  C   UNL A   1      33.432  32.754  27.757  1.00  0.00     0.251 C 
ATOM     31  H   UNL A   1      31.645  32.683  26.828  1.00  0.00     0.163 HD
ATOM     32  O   UNL A   1      33.222  33.828  28.300  1.00  0.00    -0.269 OA
BRANCH  30  33
ATOM     33  C   UNL A   1      34.717  32.083  27.998  1.00  0.00     0.039 A 
ATOM     34  C   UNL A   1      35.850  32.897  28.067  1.00  0.00     0.014 A 
ATOM     35  C   UNL A   1      34.807  30.711  28.228  1.00  0.00     0.014 A 
ATOM     36  C   UNL A   1      37.046  32.362  28.522  1.00  0.00     0.010 A 
ATOM     37  C   UNL A   1      35.969  30.199  28.780  1.00  0.00     0.010 A 
ATOM     38  C   UNL A   1      37.079  31.032  28.963  1.00  0.00    -0.014 A 
BRANCH  38  39
ATOM     39  C   UNL A   1      38.247  30.537  29.713  1.00  0.00     0.031 A 
ATOM     40  C   UNL A   1      38.503  31.019  31.103  1.00  0.00     0.074 A 
ATOM     41  C   UNL A   1      39.102  29.712  29.077  1.00  0.00     0.049 A 
ATOM     42  N   UNL A   1      39.470  30.694  31.915  1.00  0.00    -0.248 NA
ATOM     43  C   UNL A   1      37.570  32.023  31.645  1.00  0.00     0.031 C 
ATOM     44  C   UNL A   1      38.978  29.279  27.679  1.00  0.00     0.029 A 
ATOM     45  N   UNL A   1      40.244  29.093  29.510  1.00  0.00    -0.354 N 
ATOM     46  C   UNL A   1      39.283  31.470  33.050  1.00  0.00     0.074 A 
ATOM     47  C   UNL A   1      38.136  32.314  32.807  1.00  0.00     0.031 C 
ATOM     48  C   UNL A   1      39.982  28.440  27.383  1.00  0.00     0.029 A 
ATOM     49  C   UNL A   1      40.835  28.298  28.556  1.00  0.00     0.049 A 
ATOM     50  H   UNL A   1      40.607  29.209  30.417  1.00  0.00     0.167 HD
ATOM     51  C   UNL A   1      39.988  31.447  34.204  1.00  0.00     0.034 A 
ATOM     52  C   UNL A   1      41.936  27.527  28.633  1.00  0.00     0.034 A 
ATOM     53  C   UNL A   1      41.102  30.568  34.427  1.00  0.00     0.049 A 
ATOM     54  C   UNL A   1      42.652  27.462  29.953  1.00  0.00     0.074 A 
ATOM     55  C   UNL A   1      41.857  30.402  35.572  1.00  0.00     0.029 A 
ATOM     56  N   UNL A   1      41.619  29.699  33.473  1.00  0.00    -0.354 N 
ATOM     57  N   UNL A   1      42.371  28.088  31.072  1.00  0.00    -0.248 NA
ATOM     58  C   UNL A   1      43.805  26.559  30.038  1.00  0.00     0.031 C 
ATOM     59  C   UNL A   1      42.839  29.439  35.306  1.00  0.00     0.029 A 
ATOM     60  C   UNL A   1      42.682  28.992  34.002  1.00  0.00     0.049 A 
ATOM     61  H   UNL A   1      41.279  29.603  32.555  1.00  0.00     0.167 HD
ATOM     62  C   UNL A   1      43.291  27.632  32.005  1.00  0.00     0.074 A 
ATOM     63  C   UNL A   1      44.123  26.658  31.322  1.00  0.00     0.031 C 
ATOM     64  C   UNL A   1      43.451  27.993  33.302  1.00  0.00     0.034 A 
BRANCH  51  65
ATOM     65  C   UNL A   1      39.531  32.360  35.310  1.00  0.00     0.023 A 
ATOM     66  C   UNL A   1      38.557  31.905  36.225  1.00  0.00     0.012 A 
ATOM     67  C   UNL A   1      40.059  33.656  35.453  1.00  0.00     0.148 A 
ATOM     68  C   UNL A   1      38.085  32.741  37.236  1.00  0.00     0.002 A 
ATOM     69  C   UNL A   1      39.615  34.469  36.491  1.00  0.00     0.091 A 
ATOM     70  F   UNL A   1      40.962  34.081  34.558  1.00  0.00    -0.205 F 
ATOM     71  C   UNL A   1      38.619  34.018  37.374  1.00  0.00     0.022 A 
BRANCH  69  72
ATOM     72  S   UNL A   1      40.289  36.105  36.796  1.00  0.00     0.127 S 
ATOM     73  O   UNL A   1      39.931  36.805  35.562  1.00  0.00    -0.237 OA
ATOM     74  O   UNL A   1      39.539  36.531  37.977  1.00  0.00    -0.237 OA
ATOM     75  O   UNL A   1      41.715  35.917  37.017  1.00  0.00    -0.744 OA
ENDBRANCH  69  72
ENDBRANCH  51  65
BRANCH  52  76
ATOM     76  C   UNL A   1      42.348  26.691  27.470  1.00  0.00     0.023 A 
ATOM     77  C   UNL A   1      43.150  27.260  26.461  1.00  0.00     0.012 A 
ATOM     78  C   UNL A   1      42.000  25.329  27.380  1.00  0.00     0.148 A 
ATOM     79  C   UNL A   1      43.570  26.499  25.369  1.00  0.00     0.002 A 
ATOM     80  C   UNL A   1      42.466  24.563  26.317  1.00  0.00     0.091 A 
ATOM     81  F   UNL A   1      41.232  24.804  28.346  1.00  0.00    -0.205 F 
ATOM     82  C   UNL A   1      43.237  25.150  25.302  1.00  0.00     0.022 A 
BRANCH  80  83
ATOM     83  S   UNL A   1      42.197  22.788  26.221  1.00  0.00     0.127 S 
ATOM     84  O   UNL A   1      42.843  22.321  27.444  1.00  0.00    -0.237 OA
ATOM     85  O   UNL A   1      40.736  22.700  26.221  1.00  0.00    -0.237 OA
ATOM     86  O   UNL A   1      42.819  22.368  24.971  1.00  0.00    -0.744 OA
ENDBRANCH  80  83
ENDBRANCH  52  76
BRANCH  64  87
ATOM     87  C   UNL A   1      44.548  27.311  34.071  1.00  0.00     0.023 A 
ATOM     88  C   UNL A   1      45.864  27.805  33.996  1.00  0.00     0.012 A 
ATOM     89  C   UNL A   1      44.255  26.232  34.926  1.00  0.00     0.148 A 
ATOM     90  C   UNL A   1      46.882  27.214  34.740  1.00  0.00     0.002 A 
ATOM     91  C   UNL A   1      45.265  25.680  35.702  1.00  0.00     0.091 A 
ATOM     92  F   UNL A   1      42.998  25.765  34.962  1.00  0.00    -0.205 F 
ATOM     93  C   UNL A   1      46.581  26.161  35.601  1.00  0.00     0.022 A 
BRANCH  91  94
ATOM     94  S   UNL A   1      44.943  24.392  36.911  1.00  0.00     0.127 S 
ATOM     95  O   UNL A   1      46.163  24.426  37.715  1.00  0.00    -0.237 OA
ATOM     96  O   UNL A   1      43.749  24.895  37.591  1.00  0.00    -0.237 OA
ATOM     97  O   UNL A   1      44.729  23.172  36.144  1.00  0.00    -0.744 OA
ENDBRANCH  91  94
ENDBRANCH  64  87
ENDBRANCH  38  39
ENDBRANCH  30  33
ENDBRANCH  28  29
ENDBRANCH  27  28
ENDBRANCH   1  27
TORSDOF 19
ENDMDL
MODEL 3
REMARK VINA RESULT:     -12.1      2.524      3.216
REMARK SMILES CC(C)[C@H]([NH2+]C[C@H]1CC[C@@H](C(=O)NCCCCNC(=O)c2ccc(-c3c4nc(c(-c5cccc(S(=O)(=O)[O-])c5F)c5ccc([nH]5)c(-c5cccc(S(=O)(=O)[O-])c5F)c5nc(c(-c6cccc(S(=O)(=O)[O-])c6F)c6ccc3[nH]6)C=C5)C=C4)cc2)CC1)c1ccccc1
REMARK SMILES IDX 15 1 14 2 13 3 11 4 12 5 10 7 7 8 8 9 85 10 9 11 84 12 6 13
REMARK SMILES IDX 5 14 4 17 2 18 1 19 3 20 86 21 87 22 91 23 88 24 90 25 89 26
REMARK SMILES IDX 16 27 17 28 18 29 19 30 20 32 21 33 22 34 83 35 23 36 82 37
REMARK SMILES IDX 24 38 25 39 26 40 76 41 27 42 81 43 75 44 77 45 28 46 80 47
REMARK SMILES IDX 74 48 73 49 29 51 61 52 41 53 60 54 42 55 45 56 59 57 78 58
REMARK SMILES IDX 43 59 44 60 58 62 79 63 46 64 30 65 31 66 39 67 32 68 34 69
REMARK SMILES IDX 40 70 33 71 35 72 36 73 37 74 38 75 62 76 63 77 71 78 64 79
REMARK SMILES IDX 66 80 72 81 65 82 67 83 68 84 69 85 70 86 47 87 48 88 56 89
REMARK SMILES IDX 49 90 51 91 57 92 50 93 52 94 53 95 54 96 55 97
REMARK H PARENT 13 6 5 15 5 16 18 31 77 50 45 61
REMARK Flexibility Score: inf
ROOT
ATOM      1  C   UNL A   1      32.714  29.417  24.806  1.00  0.00     0.023 C 
ENDROOT
BRANCH   1   2
ATOM      2  C   UNL A   1      32.251  28.345  23.822  1.00  0.00     0.116 C 
BRANCH   2   3
ATOM      3  N   UNL A   1      30.884  28.520  23.395  1.00  0.00    -0.356 N 
ATOM      4  C   UNL A   1      29.787  27.730  23.491  1.00  0.00     0.223 C 
ATOM      5  O   UNL A   1      28.730  28.223  23.075  1.00  0.00    -0.275 OA
ATOM      6  H   UNL A   1      30.715  29.380  22.947  1.00  0.00     0.163 HD
BRANCH   4   7
ATOM      7  C   UNL A   1      29.763  26.303  24.063  1.00  0.00     0.078 C 
ATOM      8  C   UNL A   1      32.104  24.898  25.384  1.00  0.00     0.044 C 
ATOM      9  C   UNL A   1      31.231  25.904  26.159  1.00  0.00     0.010 C 
ATOM     10  C   UNL A   1      31.957  24.962  23.847  1.00  0.00     0.010 C 
ATOM     11  C   UNL A   1      29.849  26.169  25.580  1.00  0.00     0.014 C 
ATOM     12  C   UNL A   1      30.567  25.250  23.310  1.00  0.00     0.014 C 
BRANCH   8  13
ATOM     13  C   UNL A   1      33.616  25.061  25.711  1.00  0.00     0.264 C 
BRANCH  13  14
ATOM     14  N   UNL A   1      34.351  23.803  25.843  1.00  0.00    -0.340 N 
ATOM     15  H   UNL A   1      35.162  23.972  26.439  1.00  0.00     0.346 HD
ATOM     16  H   UNL A   1      33.695  23.128  26.238  1.00  0.00     0.346 HD
BRANCH  14  17
ATOM     17  C   UNL A   1      34.834  23.217  24.557  1.00  0.00     0.216 C 
BRANCH  17  18
ATOM     18  C   UNL A   1      36.388  23.451  24.411  1.00  0.00     0.046 C 
ATOM     19  C   UNL A   1      37.268  23.489  25.662  1.00  0.00     0.014 C 
ATOM     20  C   UNL A   1      36.940  22.531  23.313  1.00  0.00     0.014 C 
ENDBRANCH  17  18
BRANCH  17  21
ATOM     21  C   UNL A   1      34.234  21.806  24.409  1.00  0.00     0.009 A 
ATOM     22  C   UNL A   1      33.053  21.657  23.652  1.00  0.00     0.010 A 
ATOM     23  C   UNL A   1      34.788  20.631  24.934  1.00  0.00     0.010 A 
ATOM     24  C   UNL A   1      32.396  20.428  23.538  1.00  0.00     0.001 A 
ATOM     25  C   UNL A   1      34.114  19.405  24.860  1.00  0.00     0.001 A 
ATOM     26  C   UNL A   1      32.910  19.308  24.176  1.00  0.00     0.000 A 
ENDBRANCH  17  21
ENDBRANCH  14  17
ENDBRANCH  13  14
ENDBRANCH   8  13
ENDBRANCH   4   7
ENDBRANCH   2   3
ENDBRANCH   1   2
BRANCH   1  27
ATOM     27  C   UNL A   1      33.384  28.880  26.069  1.00  0.00     0.023 C 
BRANCH  27  28
ATOM     28  C   UNL A   1      33.132  29.700  27.334  1.00  0.00     0.116 C 
BRANCH  28  29
ATOM     29  N   UNL A   1      33.700  31.038  27.298  1.00  0.00    -0.352 N 
ATOM     30  C   UNL A   1      34.982  31.447  27.622  1.00  0.00     0.251 C 
ATOM     31  H   UNL A   1      33.088  31.752  27.002  1.00  0.00     0.163 HD
ATOM     32  O   UNL A   1      35.273  32.634  27.646  1.00  0.00    -0.269 OA
BRANCH  30  33
ATOM     33  C   UNL A   1      36.001  30.463  28.010  1.00  0.00     0.039 A 
ATOM     34  C   UNL A   1      37.129  30.367  27.190  1.00  0.00     0.014 A 
ATOM     35  C   UNL A   1      35.903  29.712  29.180  1.00  0.00     0.014 A 
ATOM     36  C   UNL A   1      38.226  29.638  27.623  1.00  0.00     0.010 A 
ATOM     37  C   UNL A   1      37.031  29.070  29.662  1.00  0.00     0.010 A 
ATOM     38  C   UNL A   1      38.206  29.063  28.902  1.00  0.00    -0.014 A 
BRANCH  38  39
ATOM     39  C   UNL A   1      39.453  28.541  29.489  1.00  0.00     0.031 A 
ATOM     40  C   UNL A   1      40.020  29.168  30.720  1.00  0.00     0.074 A 
ATOM     41  C   UNL A   1      40.089  27.547  28.839  1.00  0.00     0.049 A 
ATOM     42  N   UNL A   1      41.097  28.843  31.379  1.00  0.00    -0.248 NA
ATOM     43  C   UNL A   1      39.304  30.334  31.267  1.00  0.00     0.031 C 
ATOM     44  C   UNL A   1      39.653  26.952  27.568  1.00  0.00     0.029 A 
ATOM     45  N   UNL A   1      41.236  26.864  29.141  1.00  0.00    -0.354 N 
ATOM     46  C   UNL A   1      41.207  29.777  32.400  1.00  0.00     0.074 A 
ATOM     47  C   UNL A   1      40.112  30.708  32.248  1.00  0.00     0.031 C 
ATOM     48  C   UNL A   1      40.502  25.973  27.222  1.00  0.00     0.029 A 
ATOM     49  C   UNL A   1      41.554  25.889  28.226  1.00  0.00     0.049 A 
ATOM     50  H   UNL A   1      41.781  27.055  29.939  1.00  0.00     0.167 HD
ATOM     51  C   UNL A   1      42.122  29.825  33.394  1.00  0.00     0.034 A 
ATOM     52  C   UNL A   1      42.578  25.014  28.214  1.00  0.00     0.034 A 
ATOM     53  C   UNL A   1      43.177  28.861  33.538  1.00  0.00     0.049 A 
ATOM     54  C   UNL A   1      43.533  25.041  29.374  1.00  0.00     0.074 A 
ATOM     55  C   UNL A   1      44.128  28.761  34.536  1.00  0.00     0.029 A 
ATOM     56  N   UNL A   1      43.417  27.823  32.647  1.00  0.00    -0.354 N 
ATOM     57  N   UNL A   1      43.536  25.835  30.419  1.00  0.00    -0.248 NA
ATOM     58  C   UNL A   1      44.597  24.031  29.380  1.00  0.00     0.031 C 
ATOM     59  C   UNL A   1      44.950  27.667  34.242  1.00  0.00     0.029 A 
ATOM     60  C   UNL A   1      44.499  27.073  33.071  1.00  0.00     0.049 A 
ATOM     61  H   UNL A   1      42.895  27.647  31.832  1.00  0.00     0.167 HD
ATOM     62  C   UNL A   1      44.579  25.404  31.224  1.00  0.00     0.074 A 
ATOM     63  C   UNL A   1      45.171  24.260  30.554  1.00  0.00     0.031 C 
ATOM     64  C   UNL A   1      45.024  25.911  32.400  1.00  0.00     0.034 A 
BRANCH  51  65
ATOM     65  C   UNL A   1      41.975  30.922  34.416  1.00  0.00     0.023 A 
ATOM     66  C   UNL A   1      41.234  30.677  35.592  1.00  0.00     0.012 A 
ATOM     67  C   UNL A   1      42.566  32.184  34.223  1.00  0.00     0.148 A 
ATOM     68  C   UNL A   1      41.046  31.684  36.538  1.00  0.00     0.002 A 
ATOM     69  C   UNL A   1      42.411  33.170  35.192  1.00  0.00     0.091 A 
ATOM     70  F   UNL A   1      43.242  32.407  33.088  1.00  0.00    -0.205 F 
ATOM     71  C   UNL A   1      41.641  32.926  36.341  1.00  0.00     0.022 A 
BRANCH  69  72
ATOM     72  S   UNL A   1      43.194  34.781  35.067  1.00  0.00     0.127 S 
ATOM     73  O   UNL A   1      44.604  34.415  34.936  1.00  0.00    -0.237 OA
ATOM     74  O   UNL A   1      42.589  35.323  33.851  1.00  0.00    -0.237 OA
ATOM     75  O   UNL A   1      42.843  35.493  36.288  1.00  0.00    -0.744 OA
ENDBRANCH  69  72
ENDBRANCH  51  65
BRANCH  52  76
ATOM     76  C   UNL A   1      42.677  23.991  27.134  1.00  0.00     0.023 A 
ATOM     77  C   UNL A   1      43.421  24.283  25.974  1.00  0.00     0.012 A 
ATOM     78  C   UNL A   1      42.089  22.718  27.267  1.00  0.00     0.148 A 
ATOM     79  C   UNL A   1      43.551  23.341  24.953  1.00  0.00     0.002 A 
ATOM     80  C   UNL A   1      42.266  21.764  26.270  1.00  0.00     0.091 A 
ATOM     81  F   UNL A   1      41.380  22.458  28.375  1.00  0.00    -0.205 F 
ATOM     82  C   UNL A   1      42.983  22.079  25.105  1.00  0.00     0.022 A 
BRANCH  80  83
ATOM     83  S   UNL A   1      41.683  20.073  26.443  1.00  0.00     0.127 S 
ATOM     84  O   UNL A   1      42.246  19.694  27.736  1.00  0.00    -0.237 OA
ATOM     85  O   UNL A   1      40.230  20.248  26.430  1.00  0.00    -0.237 OA
ATOM     86  O   UNL A   1      42.209  19.361  25.286  1.00  0.00    -0.744 OA
ENDBRANCH  80  83
ENDBRANCH  52  76
BRANCH  64  87
ATOM     87  C   UNL A   1      46.188  25.214  33.048  1.00  0.00     0.023 A 
ATOM     88  C   UNL A   1      47.494  25.695  32.836  1.00  0.00     0.012 A 
ATOM     89  C   UNL A   1      45.976  24.134  33.925  1.00  0.00     0.148 A 
ATOM     90  C   UNL A   1      48.579  25.090  33.468  1.00  0.00     0.002 A 
ATOM     91  C   UNL A   1      47.055  23.569  34.589  1.00  0.00     0.091 A 
ATOM     92  F   UNL A   1      44.724  23.680  34.092  1.00  0.00    -0.205 F 
ATOM     93  C   UNL A   1      48.358  24.037  34.353  1.00  0.00     0.022 A 
BRANCH  91  94
ATOM     94  S   UNL A   1      46.848  22.280  35.821  1.00  0.00     0.127 S 
ATOM     95  O   UNL A   1      45.844  22.871  36.705  1.00  0.00    -0.237 OA
ATOM     96  O   UNL A   1      46.367  21.155  35.018  1.00  0.00    -0.237 OA
ATOM     97  O   UNL A   1      48.164  22.078  36.411  1.00  0.00    -0.744 OA
ENDBRANCH  91  94
ENDBRANCH  64  87
ENDBRANCH  38  39
ENDBRANCH  30  33
ENDBRANCH  28  29
ENDBRANCH  27  28
ENDBRANCH   1  27
TORSDOF 19
ENDMDL
