MODEL 1
REMARK VINA RESULT:     -13.2      0.000      0.000
REMARK SMILES CC1(C)[C@@]2(C(=O)NCCCCNC(=O)c3ccc(-c4c5nc(c(-c6cccc(S(=O)(=O)[O-])c6F)c6ccc([nH]6)c(-c6cccc(S(=O)(=O)[O-])c6F)c6nc(c(-c7cccc(S(=O)(=O)[O-])c7F)c7ccc4[nH]7)C=C6)C=C5)cc3)CC[C@]1(C)/C(=N/NC(=O)c1ccc(Cl)cc1)C2
REMARK SMILES IDX 10 1 9 2 8 3 7 4 5 5 6 6 4 8 1 9 2 10 3 11 80 12 78 13 94 14
REMARK SMILES IDX 79 15 81 16 82 17 83 18 84 19 85 20 86 22 87 23 88 24 93 25
REMARK SMILES IDX 89 26 92 27 90 28 91 29 11 30 12 31 13 32 14 34 15 35 16 36
REMARK SMILES IDX 77 37 17 38 76 39 18 40 19 41 20 42 70 43 21 44 75 45 69 46
REMARK SMILES IDX 71 47 22 48 74 49 68 50 67 51 23 53 55 54 35 55 54 56 36 57
REMARK SMILES IDX 39 58 53 59 72 60 37 61 38 62 52 64 73 65 40 66 24 67 25 68
REMARK SMILES IDX 33 69 26 70 28 71 34 72 27 73 29 74 30 75 31 76 32 77 56 78
REMARK SMILES IDX 57 79 65 80 58 81 60 82 66 83 59 84 61 85 62 86 63 87 64 88
REMARK SMILES IDX 41 89 42 90 50 91 43 92 45 93 51 94 44 95 46 96 47 97 48 98
REMARK SMILES IDX 49 99
REMARK H PARENT 7 7 84 21 12 33 71 52 39 63
REMARK Flexibility Score: inf
ROOT
ATOM      1  C   UNL A   1      36.520  22.187  23.842  1.00  0.00     0.023 C 
ENDROOT
BRANCH   1   2
ATOM      2  C   UNL A   1      35.707  23.429  23.439  1.00  0.00     0.023 C 
BRANCH   2   3
ATOM      3  C   UNL A   1      34.304  23.157  22.880  1.00  0.00     0.116 C 
BRANCH   3   4
ATOM      4  N   UNL A   1      33.679  24.252  22.142  1.00  0.00    -0.356 N 
ATOM      5  C   UNL A   1      33.578  25.591  22.416  1.00  0.00     0.227 C 
ATOM      6  O   UNL A   1      33.701  26.355  21.455  1.00  0.00    -0.274 OA
ATOM      7  H   UNL A   1      33.254  23.980  21.298  1.00  0.00     0.163 HD
BRANCH   5   8
ATOM      8  C   UNL A   1      33.117  26.124  23.774  1.00  0.00     0.060 C 
ATOM      9  C   UNL A   1      33.598  28.653  23.467  1.00  0.00     0.013 C 
ATOM     10  C   UNL A   1      32.547  27.584  23.847  1.00  0.00    -0.010 C 
ATOM     11  C   UNL A   1      31.274  27.913  23.037  1.00  0.00     0.013 C 
ATOM     12  C   UNL A   1      32.238  27.455  25.376  1.00  0.00     0.014 C 
ATOM     13  C   UNL A   1      34.175  26.121  24.920  1.00  0.00     0.019 C 
ATOM     14  C   UNL A   1      31.911  25.283  24.263  1.00  0.00     0.071 C 
ATOM     15  C   UNL A   1      33.603  27.086  25.977  1.00  0.00     0.014 C 
ATOM     16  C   UNL A   1      31.550  28.618  26.059  1.00  0.00     0.018 C 
ATOM     17  C   UNL A   1      31.477  26.098  25.437  1.00  0.00     0.046 C 
ATOM     18  N   UNL A   1      30.768  25.819  26.480  1.00  0.00    -0.181 NA
BRANCH  18  19
ATOM     19  N   UNL A   1      30.109  24.717  26.919  1.00  0.00    -0.243 N 
ATOM     20  C   UNL A   1      30.185  23.343  26.951  1.00  0.00     0.271 C 
ATOM     21  H   UNL A   1      29.284  25.001  27.376  1.00  0.00     0.194 HD
ATOM     22  O   UNL A   1      29.263  22.711  27.475  1.00  0.00    -0.267 OA
BRANCH  20  23
ATOM     23  C   UNL A   1      31.269  22.545  26.394  1.00  0.00     0.041 A 
ATOM     24  C   UNL A   1      32.517  22.532  27.030  1.00  0.00     0.015 A 
ATOM     25  C   UNL A   1      31.103  21.900  25.180  1.00  0.00     0.015 A 
ATOM     26  C   UNL A   1      33.527  21.683  26.571  1.00  0.00     0.021 A 
ATOM     27  C   UNL A   1      32.088  21.002  24.776  1.00  0.00     0.021 A 
ATOM     28  C   UNL A   1      33.277  20.861  25.482  1.00  0.00     0.041 A 
ATOM     29  Cl  UNL A   1      34.394  19.637  25.033  1.00  0.00    -0.084 Cl
ENDBRANCH  20  23
ENDBRANCH  18  19
ENDBRANCH   5   8
ENDBRANCH   3   4
ENDBRANCH   2   3
ENDBRANCH   1   2
BRANCH   1  30
ATOM     30  C   UNL A   1      36.889  22.109  25.311  1.00  0.00     0.116 C 
BRANCH  30  31
ATOM     31  N   UNL A   1      37.830  21.033  25.591  1.00  0.00    -0.352 N 
ATOM     32  C   UNL A   1      39.110  21.110  26.100  1.00  0.00     0.251 C 
ATOM     33  H   UNL A   1      37.507  20.125  25.390  1.00  0.00     0.163 HD
ATOM     34  O   UNL A   1      39.795  20.102  26.167  1.00  0.00    -0.269 OA
BRANCH  32  35
ATOM     35  C   UNL A   1      39.662  22.423  26.522  1.00  0.00     0.039 A 
ATOM     36  C   UNL A   1      40.641  22.453  27.521  1.00  0.00     0.014 A 
ATOM     37  C   UNL A   1      39.226  23.615  25.944  1.00  0.00     0.014 A 
ATOM     38  C   UNL A   1      41.211  23.673  27.898  1.00  0.00     0.010 A 
ATOM     39  C   UNL A   1      39.862  24.812  26.245  1.00  0.00     0.010 A 
ATOM     40  C   UNL A   1      40.841  24.859  27.246  1.00  0.00    -0.014 A 
BRANCH  40  41
ATOM     41  C   UNL A   1      41.431  26.169  27.618  1.00  0.00     0.031 A 
ATOM     42  C   UNL A   1      42.858  26.477  27.242  1.00  0.00     0.074 A 
ATOM     43  C   UNL A   1      40.719  27.030  28.371  1.00  0.00     0.049 A 
ATOM     44  N   UNL A   1      43.568  27.541  27.509  1.00  0.00    -0.248 NA
ATOM     45  C   UNL A   1      43.600  25.438  26.506  1.00  0.00     0.031 C 
ATOM     46  C   UNL A   1      39.371  26.788  28.889  1.00  0.00     0.029 A 
ATOM     47  N   UNL A   1      41.040  28.273  28.853  1.00  0.00    -0.354 N 
ATOM     48  C   UNL A   1      44.845  27.277  27.026  1.00  0.00     0.074 A 
ATOM     49  C   UNL A   1      44.825  25.940  26.480  1.00  0.00     0.031 C 
ATOM     50  C   UNL A   1      38.977  27.851  29.610  1.00  0.00     0.029 A 
ATOM     51  C   UNL A   1      40.047  28.843  29.616  1.00  0.00     0.049 A 
ATOM     52  H   UNL A   1      41.900  28.716  28.671  1.00  0.00     0.167 HD
ATOM     53  C   UNL A   1      45.927  28.090  27.007  1.00  0.00     0.034 A 
ATOM     54  C   UNL A   1      40.005  30.036  30.243  1.00  0.00     0.034 A 
ATOM     55  C   UNL A   1      45.906  29.449  27.469  1.00  0.00     0.049 A 
ATOM     56  C   UNL A   1      41.182  30.965  30.097  1.00  0.00     0.074 A 
ATOM     57  C   UNL A   1      46.896  30.409  27.366  1.00  0.00     0.029 A 
ATOM     58  N   UNL A   1      44.835  30.042  28.118  1.00  0.00    -0.354 N 
ATOM     59  N   UNL A   1      42.310  30.773  29.458  1.00  0.00    -0.248 NA
ATOM     60  C   UNL A   1      41.062  32.292  30.718  1.00  0.00     0.031 C 
ATOM     61  C   UNL A   1      46.427  31.582  27.967  1.00  0.00     0.029 A 
ATOM     62  C   UNL A   1      45.140  31.354  28.429  1.00  0.00     0.049 A 
ATOM     63  H   UNL A   1      43.982  29.596  28.327  1.00  0.00     0.167 HD
ATOM     64  C   UNL A   1      43.020  31.961  29.570  1.00  0.00     0.074 A 
ATOM     65  C   UNL A   1      42.182  32.878  30.316  1.00  0.00     0.031 C 
ATOM     66  C   UNL A   1      44.262  32.265  29.119  1.00  0.00     0.034 A 
BRANCH  53  67
ATOM     67  C   UNL A   1      47.201  27.558  26.404  1.00  0.00     0.023 A 
ATOM     68  C   UNL A   1      47.518  27.863  25.065  1.00  0.00     0.012 A 
ATOM     69  C   UNL A   1      48.114  26.816  27.178  1.00  0.00     0.148 A 
ATOM     70  C   UNL A   1      48.707  27.409  24.495  1.00  0.00     0.002 A 
ATOM     71  C   UNL A   1      49.317  26.405  26.616  1.00  0.00     0.091 A 
ATOM     72  F   UNL A   1      47.787  26.518  28.444  1.00  0.00    -0.205 F 
ATOM     73  C   UNL A   1      49.610  26.691  25.272  1.00  0.00     0.022 A 
BRANCH  71  74
ATOM     74  S   UNL A   1      50.583  25.539  27.552  1.00  0.00     0.127 S 
ATOM     75  O   UNL A   1      49.917  24.270  27.846  1.00  0.00    -0.237 OA
ATOM     76  O   UNL A   1      51.673  25.444  26.580  1.00  0.00    -0.237 OA
ATOM     77  O   UNL A   1      50.871  26.374  28.710  1.00  0.00    -0.744 OA
ENDBRANCH  71  74
ENDBRANCH  53  67
BRANCH  54  78
ATOM     78  C   UNL A   1      38.777  30.456  30.976  1.00  0.00     0.023 A 
ATOM     79  C   UNL A   1      38.676  30.197  32.357  1.00  0.00     0.012 A 
ATOM     80  C   UNL A   1      37.724  31.129  30.328  1.00  0.00     0.148 A 
ATOM     81  C   UNL A   1      37.536  30.566  33.071  1.00  0.00     0.002 A 
ATOM     82  C   UNL A   1      36.612  31.542  31.057  1.00  0.00     0.091 A 
ATOM     83  F   UNL A   1      37.827  31.356  29.010  1.00  0.00    -0.205 F 
ATOM     84  C   UNL A   1      36.508  31.247  32.424  1.00  0.00     0.022 A 
BRANCH  82  85
ATOM     85  S   UNL A   1      35.312  32.541  30.322  1.00  0.00     0.127 S 
ATOM     86  O   UNL A   1      34.901  31.714  29.190  1.00  0.00    -0.237 OA
ATOM     87  O   UNL A   1      34.335  32.626  31.408  1.00  0.00    -0.237 OA
ATOM     88  O   UNL A   1      35.946  33.811  29.993  1.00  0.00    -0.744 OA
ENDBRANCH  82  85
ENDBRANCH  54  78
BRANCH  66  89
ATOM     89  C   UNL A   1      44.783  33.649  29.393  1.00  0.00     0.023 A 
ATOM     90  C   UNL A   1      45.526  33.892  30.565  1.00  0.00     0.012 A 
ATOM     91  C   UNL A   1      44.607  34.682  28.454  1.00  0.00     0.148 A 
ATOM     92  C   UNL A   1      46.059  35.155  30.813  1.00  0.00     0.002 A 
ATOM     93  C   UNL A   1      45.183  35.925  28.685  1.00  0.00     0.091 A 
ATOM     94  F   UNL A   1      43.880  34.434  27.354  1.00  0.00    -0.205 F 
ATOM     95  C   UNL A   1      45.899  36.167  29.869  1.00  0.00     0.022 A 
BRANCH  93  96
ATOM     96  S   UNL A   1      45.111  37.250  27.474  1.00  0.00     0.127 S 
ATOM     97  O   UNL A   1      43.705  37.216  27.077  1.00  0.00    -0.237 OA
ATOM     98  O   UNL A   1      45.494  38.420  28.266  1.00  0.00    -0.237 OA
ATOM     99  O   UNL A   1      46.068  36.890  26.436  1.00  0.00    -0.744 OA
ENDBRANCH  93  96
ENDBRANCH  66  89
ENDBRANCH  40  41
ENDBRANCH  32  35
ENDBRANCH  30  31
ENDBRANCH   1  30
TORSDOF 16
ENDMDL
MODEL 2
REMARK VINA RESULT:     -12.7      4.716      9.673
REMARK SMILES CC1(C)[C@@]2(C(=O)NCCCCNC(=O)c3ccc(-c4c5nc(c(-c6cccc(S(=O)(=O)[O-])c6F)c6ccc([nH]6)c(-c6cccc(S(=O)(=O)[O-])c6F)c6nc(c(-c7cccc(S(=O)(=O)[O-])c7F)c7ccc4[nH]7)C=C6)C=C5)cc3)CC[C@]1(C)/C(=N/NC(=O)c1ccc(Cl)cc1)C2
REMARK SMILES IDX 10 1 9 2 8 3 7 4 5 5 6 6 4 8 1 9 2 10 3 11 80 12 78 13 94 14
REMARK SMILES IDX 79 15 81 16 82 17 83 18 84 19 85 20 86 22 87 23 88 24 93 25
REMARK SMILES IDX 89 26 92 27 90 28 91 29 11 30 12 31 13 32 14 34 15 35 16 36
REMARK SMILES IDX 77 37 17 38 76 39 18 40 19 41 20 42 70 43 21 44 75 45 69 46
REMARK SMILES IDX 71 47 22 48 74 49 68 50 67 51 23 53 55 54 35 55 54 56 36 57
REMARK SMILES IDX 39 58 53 59 72 60 37 61 38 62 52 64 73 65 40 66 24 67 25 68
REMARK SMILES IDX 33 69 26 70 28 71 34 72 27 73 29 74 30 75 31 76 32 77 56 78
REMARK SMILES IDX 57 79 65 80 58 81 60 82 66 83 59 84 61 85 62 86 63 87 64 88
REMARK SMILES IDX 41 89 42 90 50 91 43 92 45 93 51 94 44 95 46 96 47 97 48 98
REMARK SMILES IDX 49 99
REMARK H PARENT 7 7 84 21 12 33 71 52 39 63
REMARK Flexibility Score: inf
ROOT
ATOM      1  C   UNL A   1      31.738  29.158  25.036  1.00  0.00     0.023 C 
ENDROOT
BRANCH   1   2
ATOM      2  C   UNL A   1      32.135  28.925  23.569  1.00  0.00     0.023 C 
BRANCH   2   3
ATOM      3  C   UNL A   1      33.600  28.537  23.326  1.00  0.00     0.116 C 
BRANCH   3   4
ATOM      4  N   UNL A   1      33.827  27.383  22.459  1.00  0.00    -0.356 N 
ATOM      5  C   UNL A   1      33.275  26.129  22.451  1.00  0.00     0.227 C 
ATOM      6  O   UNL A   1      33.039  25.644  21.340  1.00  0.00    -0.274 OA
ATOM      7  H   UNL A   1      34.498  27.533  21.754  1.00  0.00     0.163 HD
BRANCH   5   8
ATOM      8  C   UNL A   1      33.157  25.270  23.711  1.00  0.00     0.060 C 
ATOM      9  C   UNL A   1      30.736  25.845  24.440  1.00  0.00     0.013 C 
ATOM     10  C   UNL A   1      31.743  24.719  24.107  1.00  0.00    -0.010 C 
ATOM     11  C   UNL A   1      31.026  23.767  23.124  1.00  0.00     0.013 C 
ATOM     12  C   UNL A   1      32.319  23.944  25.340  1.00  0.00     0.014 C 
ATOM     13  C   UNL A   1      33.649  25.915  25.043  1.00  0.00     0.019 C 
ATOM     14  C   UNL A   1      33.966  23.964  23.508  1.00  0.00     0.071 C 
ATOM     15  C   UNL A   1      33.017  25.048  26.150  1.00  0.00     0.014 C 
ATOM     16  C   UNL A   1      31.366  23.087  26.145  1.00  0.00     0.018 C 
ATOM     17  C   UNL A   1      33.527  23.191  24.708  1.00  0.00     0.046 C 
ATOM     18  N   UNL A   1      34.043  22.187  25.338  1.00  0.00    -0.181 NA
BRANCH  18  19
ATOM     19  N   UNL A   1      35.144  21.415  25.162  1.00  0.00    -0.243 N 
ATOM     20  C   UNL A   1      35.543  20.107  25.001  1.00  0.00     0.271 C 
ATOM     21  H   UNL A   1      35.940  21.994  25.141  1.00  0.00     0.194 HD
ATOM     22  O   UNL A   1      36.749  19.864  24.898  1.00  0.00    -0.267 OA
BRANCH  20  23
ATOM     23  C   UNL A   1      34.654  18.953  24.959  1.00  0.00     0.041 A 
ATOM     24  C   UNL A   1      35.103  17.754  24.391  1.00  0.00     0.015 A 
ATOM     25  C   UNL A   1      33.338  19.076  25.369  1.00  0.00     0.015 A 
ATOM     26  C   UNL A   1      34.303  16.610  24.449  1.00  0.00     0.021 A 
ATOM     27  C   UNL A   1      32.579  17.915  25.489  1.00  0.00     0.021 A 
ATOM     28  C   UNL A   1      33.066  16.682  25.071  1.00  0.00     0.041 A 
ATOM     29  Cl  UNL A   1      32.155  15.259  25.377  1.00  0.00    -0.084 Cl
ENDBRANCH  20  23
ENDBRANCH  18  19
ENDBRANCH   5   8
ENDBRANCH   3   4
ENDBRANCH   2   3
ENDBRANCH   1   2
BRANCH   1  30
ATOM     30  C   UNL A   1      32.825  29.757  25.909  1.00  0.00     0.116 C 
BRANCH  30  31
ATOM     31  N   UNL A   1      32.525  31.124  26.310  1.00  0.00    -0.352 N 
ATOM     32  C   UNL A   1      33.177  31.922  27.228  1.00  0.00     0.251 C 
ATOM     33  H   UNL A   1      31.750  31.537  25.864  1.00  0.00     0.163 HD
ATOM     34  O   UNL A   1      32.714  33.014  27.516  1.00  0.00    -0.269 OA
BRANCH  32  35
ATOM     35  C   UNL A   1      34.412  31.431  27.891  1.00  0.00     0.039 A 
ATOM     36  C   UNL A   1      35.484  32.313  28.059  1.00  0.00     0.014 A 
ATOM     37  C   UNL A   1      34.519  30.117  28.349  1.00  0.00     0.014 A 
ATOM     38  C   UNL A   1      36.637  31.887  28.726  1.00  0.00     0.010 A 
ATOM     39  C   UNL A   1      35.620  29.725  29.098  1.00  0.00     0.010 A 
ATOM     40  C   UNL A   1      36.703  30.596  29.270  1.00  0.00    -0.014 A 
BRANCH  40  41
ATOM     41  C   UNL A   1      37.909  30.115  29.989  1.00  0.00     0.031 A 
ATOM     42  C   UNL A   1      38.171  30.578  31.399  1.00  0.00     0.074 A 
ATOM     43  C   UNL A   1      38.808  29.348  29.343  1.00  0.00     0.049 A 
ATOM     44  N   UNL A   1      39.183  30.308  32.180  1.00  0.00    -0.248 NA
ATOM     45  C   UNL A   1      37.188  31.499  31.999  1.00  0.00     0.031 C 
ATOM     46  C   UNL A   1      38.715  28.933  27.940  1.00  0.00     0.029 A 
ATOM     47  N   UNL A   1      39.990  28.800  29.771  1.00  0.00    -0.354 N 
ATOM     48  C   UNL A   1      38.988  31.064  33.332  1.00  0.00     0.074 A 
ATOM     49  C   UNL A   1      37.779  31.831  33.136  1.00  0.00     0.031 C 
ATOM     50  C   UNL A   1      39.790  28.190  27.628  1.00  0.00     0.029 A 
ATOM     51  C   UNL A   1      40.653  28.087  28.799  1.00  0.00     0.049 A 
ATOM     52  H   UNL A   1      40.332  28.907  30.688  1.00  0.00     0.167 HD
ATOM     53  C   UNL A   1      39.729  31.089  34.464  1.00  0.00     0.034 A 
ATOM     54  C   UNL A   1      41.823  27.418  28.854  1.00  0.00     0.034 A 
ATOM     55  C   UNL A   1      40.875  30.251  34.679  1.00  0.00     0.049 A 
ATOM     56  C   UNL A   1      42.560  27.366  30.167  1.00  0.00     0.074 A 
ATOM     57  C   UNL A   1      41.614  30.085  35.835  1.00  0.00     0.029 A 
ATOM     58  N   UNL A   1      41.444  29.435  33.715  1.00  0.00    -0.354 N 
ATOM     59  N   UNL A   1      42.248  27.927  31.310  1.00  0.00    -0.248 NA
ATOM     60  C   UNL A   1      43.783  26.553  30.211  1.00  0.00     0.031 C 
ATOM     61  C   UNL A   1      42.642  29.175  35.566  1.00  0.00     0.029 A 
ATOM     62  C   UNL A   1      42.531  28.765  34.246  1.00  0.00     0.049 A 
ATOM     63  H   UNL A   1      41.122  29.344  32.789  1.00  0.00     0.167 HD
ATOM     64  C   UNL A   1      43.215  27.510  32.216  1.00  0.00     0.074 A 
ATOM     65  C   UNL A   1      44.107  26.626  31.494  1.00  0.00     0.031 C 
ATOM     66  C   UNL A   1      43.367  27.842  33.522  1.00  0.00     0.034 A 
BRANCH  53  67
ATOM     67  C   UNL A   1      39.284  31.995  35.582  1.00  0.00     0.023 A 
ATOM     68  C   UNL A   1      38.401  31.505  36.565  1.00  0.00     0.012 A 
ATOM     69  C   UNL A   1      39.788  33.304  35.697  1.00  0.00     0.148 A 
ATOM     70  C   UNL A   1      38.000  32.315  37.628  1.00  0.00     0.002 A 
ATOM     71  C   UNL A   1      39.419  34.091  36.782  1.00  0.00     0.091 A 
ATOM     72  F   UNL A   1      40.610  33.761  34.741  1.00  0.00    -0.205 F 
ATOM     73  C   UNL A   1      38.517  33.601  37.742  1.00  0.00     0.022 A 
BRANCH  71  74
ATOM     74  S   UNL A   1      40.086  35.735  37.065  1.00  0.00     0.127 S 
ATOM     75  O   UNL A   1      41.522  35.465  37.128  1.00  0.00    -0.237 OA
ATOM     76  O   UNL A   1      39.653  36.453  35.865  1.00  0.00    -0.237 OA
ATOM     77  O   UNL A   1      39.486  36.206  38.306  1.00  0.00    -0.744 OA
ENDBRANCH  71  74
ENDBRANCH  53  67
BRANCH  54  78
ATOM     78  C   UNL A   1      42.314  26.667  27.664  1.00  0.00     0.023 A 
ATOM     79  C   UNL A   1      43.099  27.335  26.703  1.00  0.00     0.012 A 
ATOM     80  C   UNL A   1      42.035  25.299  27.486  1.00  0.00     0.148 A 
ATOM     81  C   UNL A   1      43.566  26.666  25.571  1.00  0.00     0.002 A 
ATOM     82  C   UNL A   1      42.548  24.624  26.382  1.00  0.00     0.091 A 
ATOM     83  F   UNL A   1      41.275  24.680  28.400  1.00  0.00    -0.205 F 
ATOM     84  C   UNL A   1      43.299  25.309  25.415  1.00  0.00     0.022 A 
BRANCH  82  85
ATOM     85  S   UNL A   1      42.361  22.848  26.184  1.00  0.00     0.127 S 
ATOM     86  O   UNL A   1      43.041  22.339  27.372  1.00  0.00    -0.237 OA
ATOM     87  O   UNL A   1      40.906  22.687  26.192  1.00  0.00    -0.237 OA
ATOM     88  O   UNL A   1      42.986  22.538  24.904  1.00  0.00    -0.744 OA
ENDBRANCH  82  85
ENDBRANCH  54  78
BRANCH  66  89
ATOM     89  C   UNL A   1      44.523  27.232  34.264  1.00  0.00     0.023 A 
ATOM     90  C   UNL A   1      45.755  27.914  34.315  1.00  0.00     0.012 A 
ATOM     91  C   UNL A   1      44.365  26.028  34.977  1.00  0.00     0.148 A 
ATOM     92  C   UNL A   1      46.823  27.389  35.039  1.00  0.00     0.002 A 
ATOM     93  C   UNL A   1      45.419  25.536  35.737  1.00  0.00     0.091 A 
ATOM     94  F   UNL A   1      43.190  25.385  34.899  1.00  0.00    -0.205 F 
ATOM     95  C   UNL A   1      46.653  26.208  35.759  1.00  0.00     0.022 A 
BRANCH  93  96
ATOM     96  S   UNL A   1      45.250  24.079  36.773  1.00  0.00     0.127 S 
ATOM     97  O   UNL A   1      44.581  23.146  35.869  1.00  0.00    -0.237 OA
ATOM     98  O   UNL A   1      46.643  23.744  37.074  1.00  0.00    -0.237 OA
ATOM     99  O   UNL A   1      44.473  24.504  37.929  1.00  0.00    -0.744 OA
ENDBRANCH  93  96
ENDBRANCH  66  89
ENDBRANCH  40  41
ENDBRANCH  32  35
ENDBRANCH  30  31
ENDBRANCH   1  30
TORSDOF 16
ENDMDL
MODEL 3
REMARK VINA RESULT:     -12.6      5.284      8.437
REMARK SMILES CC1(C)[C@@]2(C(=O)NCCCCNC(=O)c3ccc(-c4c5nc(c(-c6cccc(S(=O)(=O)[O-])c6F)c6ccc([nH]6)c(-c6cccc(S(=O)(=O)[O-])c6F)c6nc(c(-c7cccc(S(=O)(=O)[O-])c7F)c7ccc4[nH]7)C=C6)C=C5)cc3)CC[C@]1(C)/C(=N/NC(=O)c1ccc(Cl)cc1)C2
REMARK SMILES IDX 10 1 9 2 8 3 7 4 5 5 6 6 4 8 1 9 2 10 3 11 80 12 78 13 94 14
REMARK SMILES IDX 79 15 81 16 82 17 83 18 84 19 85 20 86 22 87 23 88 24 93 25
REMARK SMILES IDX 89 26 92 27 90 28 91 29 11 30 12 31 13 32 14 34 15 35 16 36
REMARK SMILES IDX 77 37 17 38 76 39 18 40 19 41 20 42 70 43 21 44 75 45 69 46
REMARK SMILES IDX 71 47 22 48 74 49 68 50 67 51 23 53 55 54 35 55 54 56 36 57
REMARK SMILES IDX 39 58 53 59 72 60 37 61 38 62 52 64 73 65 40 66 24 67 25 68
REMARK SMILES IDX 33 69 26 70 28 71 34 72 27 73 29 74 30 75 31 76 32 77 56 78
REMARK SMILES IDX 57 79 65 80 58 81 60 82 66 83 59 84 61 85 62 86 63 87 64 88
REMARK SMILES IDX 41 89 42 90 50 91 43 92 45 93 51 94 44 95 46 96 47 97 48 98
REMARK SMILES IDX 49 99
REMARK H PARENT 7 7 84 21 12 33 71 52 39 63
REMARK Flexibility Score: inf
ROOT
ATOM      1  C   UNL A   1      31.316  32.092  26.699  1.00  0.00     0.023 C 
ENDROOT
BRANCH   1   2
ATOM      2  C   UNL A   1      31.399  30.740  25.973  1.00  0.00     0.023 C 
BRANCH   2   3
ATOM      3  C   UNL A   1      32.773  30.056  25.989  1.00  0.00     0.116 C 
BRANCH   3   4
ATOM      4  N   UNL A   1      33.296  29.625  24.694  1.00  0.00    -0.356 N 
ATOM      5  C   UNL A   1      32.819  28.729  23.775  1.00  0.00     0.227 C 
ATOM      6  O   UNL A   1      32.949  29.043  22.589  1.00  0.00    -0.274 OA
ATOM      7  H   UNL A   1      34.142  30.056  24.437  1.00  0.00     0.163 HD
BRANCH   5   8
ATOM      8  C   UNL A   1      32.355  27.321  24.156  1.00  0.00     0.060 C 
ATOM      9  C   UNL A   1      29.994  27.305  23.087  1.00  0.00     0.013 C 
ATOM     10  C   UNL A   1      31.356  26.582  23.200  1.00  0.00    -0.010 C 
ATOM     11  C   UNL A   1      31.813  26.279  21.756  1.00  0.00     0.013 C 
ATOM     12  C   UNL A   1      31.363  25.291  24.086  1.00  0.00     0.014 C 
ATOM     13  C   UNL A   1      31.663  27.168  25.545  1.00  0.00     0.019 C 
ATOM     14  C   UNL A   1      33.577  26.368  24.145  1.00  0.00     0.071 C 
ATOM     15  C   UNL A   1      30.930  25.814  25.465  1.00  0.00     0.014 C 
ATOM     16  C   UNL A   1      30.575  24.094  23.599  1.00  0.00     0.018 C 
ATOM     17  C   UNL A   1      32.888  25.052  24.292  1.00  0.00     0.046 C 
ATOM     18  N   UNL A   1      33.295  23.891  24.688  1.00  0.00    -0.181 NA
BRANCH  18  19
ATOM     19  N   UNL A   1      34.489  23.385  25.088  1.00  0.00    -0.243 N 
ATOM     20  C   UNL A   1      35.168  22.200  25.258  1.00  0.00     0.271 C 
ATOM     21  H   UNL A   1      35.078  24.130  25.350  1.00  0.00     0.194 HD
ATOM     22  O   UNL A   1      36.315  22.235  25.713  1.00  0.00    -0.267 OA
BRANCH  20  23
ATOM     23  C   UNL A   1      34.639  20.875  24.963  1.00  0.00     0.041 A 
ATOM     24  C   UNL A   1      33.259  20.702  24.796  1.00  0.00     0.015 A 
ATOM     25  C   UNL A   1      35.481  19.776  24.963  1.00  0.00     0.015 A 
ATOM     26  C   UNL A   1      32.753  19.462  24.399  1.00  0.00     0.021 A 
ATOM     27  C   UNL A   1      34.975  18.565  24.495  1.00  0.00     0.021 A 
ATOM     28  C   UNL A   1      33.631  18.413  24.177  1.00  0.00     0.041 A 
ATOM     29  Cl  UNL A   1      33.086  16.950  23.463  1.00  0.00    -0.084 Cl
ENDBRANCH  20  23
ENDBRANCH  18  19
ENDBRANCH   5   8
ENDBRANCH   3   4
ENDBRANCH   2   3
ENDBRANCH   1   2
BRANCH   1  30
ATOM     30  C   UNL A   1      32.644  32.653  27.170  1.00  0.00     0.116 C 
BRANCH  30  31
ATOM     31  N   UNL A   1      32.540  34.038  27.605  1.00  0.00    -0.352 N 
ATOM     32  C   UNL A   1      33.278  34.706  28.561  1.00  0.00     0.251 C 
ATOM     33  H   UNL A   1      31.848  34.574  27.154  1.00  0.00     0.163 HD
ATOM     34  O   UNL A   1      32.975  35.847  28.870  1.00  0.00    -0.269 OA
BRANCH  32  35
ATOM     35  C   UNL A   1      34.407  34.019  29.238  1.00  0.00     0.039 A 
ATOM     36  C   UNL A   1      35.714  34.432  28.959  1.00  0.00     0.014 A 
ATOM     37  C   UNL A   1      34.189  32.978  30.142  1.00  0.00     0.014 A 
ATOM     38  C   UNL A   1      36.789  33.834  29.622  1.00  0.00     0.010 A 
ATOM     39  C   UNL A   1      35.247  32.456  30.875  1.00  0.00     0.010 A 
ATOM     40  C   UNL A   1      36.561  32.857  30.602  1.00  0.00    -0.014 A 
BRANCH  40  41
ATOM     41  C   UNL A   1      37.679  32.207  31.330  1.00  0.00     0.031 A 
ATOM     42  C   UNL A   1      38.437  31.079  30.677  1.00  0.00     0.074 A 
ATOM     43  C   UNL A   1      37.942  32.562  32.602  1.00  0.00     0.049 A 
ATOM     44  N   UNL A   1      39.414  30.356  31.158  1.00  0.00    -0.248 NA
ATOM     45  C   UNL A   1      38.019  30.683  29.320  1.00  0.00     0.031 C 
ATOM     46  C   UNL A   1      37.197  33.560  33.374  1.00  0.00     0.029 A 
ATOM     47  N   UNL A   1      38.892  32.108  33.480  1.00  0.00    -0.354 N 
ATOM     48  C   UNL A   1      39.685  29.392  30.193  1.00  0.00     0.074 A 
ATOM     49  C   UNL A   1      38.749  29.598  29.112  1.00  0.00     0.031 C 
ATOM     50  C   UNL A   1      37.725  33.648  34.606  1.00  0.00     0.029 A 
ATOM     51  C   UNL A   1      38.832  32.706  34.718  1.00  0.00     0.049 A 
ATOM     52  H   UNL A   1      39.555  31.418  33.247  1.00  0.00     0.167 HD
ATOM     53  C   UNL A   1      40.651  28.444  30.192  1.00  0.00     0.034 A 
ATOM     54  C   UNL A   1      39.594  32.518  35.814  1.00  0.00     0.034 A 
ATOM     55  C   UNL A   1      41.633  28.311  31.231  1.00  0.00     0.049 A 
ATOM     56  C   UNL A   1      40.738  31.541  35.736  1.00  0.00     0.074 A 
ATOM     57  C   UNL A   1      42.742  27.487  31.268  1.00  0.00     0.029 A 
ATOM     58  N   UNL A   1      41.624  29.029  32.416  1.00  0.00    -0.354 N 
ATOM     59  N   UNL A   1      41.104  30.780  34.733  1.00  0.00    -0.248 NA
ATOM     60  C   UNL A   1      41.600  31.431  36.921  1.00  0.00     0.031 C 
ATOM     61  C   UNL A   1      43.398  27.697  32.485  1.00  0.00     0.029 A 
ATOM     62  C   UNL A   1      42.705  28.663  33.197  1.00  0.00     0.049 A 
ATOM     63  H   UNL A   1      40.949  29.701  32.667  1.00  0.00     0.167 HD
ATOM     64  C   UNL A   1      42.256  30.126  35.152  1.00  0.00     0.074 A 
ATOM     65  C   UNL A   1      42.542  30.602  36.490  1.00  0.00     0.031 C 
ATOM     66  C   UNL A   1      43.001  29.198  34.501  1.00  0.00     0.034 A 
BRANCH  53  67
ATOM     67  C   UNL A   1      40.740  27.525  29.002  1.00  0.00     0.023 A 
ATOM     68  C   UNL A   1      39.845  26.442  28.891  1.00  0.00     0.012 A 
ATOM     69  C   UNL A   1      41.661  27.769  27.966  1.00  0.00     0.148 A 
ATOM     70  C   UNL A   1      39.887  25.596  27.782  1.00  0.00     0.002 A 
ATOM     71  C   UNL A   1      41.668  26.949  26.843  1.00  0.00     0.091 A 
ATOM     72  F   UNL A   1      42.518  28.791  28.098  1.00  0.00    -0.205 F 
ATOM     73  C   UNL A   1      40.789  25.856  26.755  1.00  0.00     0.022 A 
BRANCH  71  74
ATOM     74  S   UNL A   1      42.738  27.240  25.430  1.00  0.00     0.127 S 
ATOM     75  O   UNL A   1      44.045  27.378  26.073  1.00  0.00    -0.237 OA
ATOM     76  O   UNL A   1      42.567  26.011  24.655  1.00  0.00    -0.237 OA
ATOM     77  O   UNL A   1      42.233  28.443  24.783  1.00  0.00    -0.744 OA
ENDBRANCH  71  74
ENDBRANCH  53  67
BRANCH  54  78
ATOM     78  C   UNL A   1      39.362  33.337  37.038  1.00  0.00     0.023 A 
ATOM     79  C   UNL A   1      39.904  34.636  37.111  1.00  0.00     0.012 A 
ATOM     80  C   UNL A   1      38.595  32.856  38.115  1.00  0.00     0.148 A 
ATOM     81  C   UNL A   1      39.717  35.425  38.246  1.00  0.00     0.002 A 
ATOM     82  C   UNL A   1      38.367  33.668  39.222  1.00  0.00     0.091 A 
ATOM     83  F   UNL A   1      38.098  31.613  38.039  1.00  0.00    -0.205 F 
ATOM     84  C   UNL A   1      38.941  34.946  39.298  1.00  0.00     0.022 A 
BRANCH  82  85
ATOM     85  S   UNL A   1      37.267  33.172  40.554  1.00  0.00     0.127 S 
ATOM     86  O   UNL A   1      37.936  31.980  41.068  1.00  0.00    -0.237 OA
ATOM     87  O   UNL A   1      37.312  34.334  41.443  1.00  0.00    -0.237 OA
ATOM     88  O   UNL A   1      35.972  32.959  39.921  1.00  0.00    -0.744 OA
ENDBRANCH  82  85
ENDBRANCH  54  78
BRANCH  66  89
ATOM     89  C   UNL A   1      44.209  28.654  35.212  1.00  0.00     0.023 A 
ATOM     90  C   UNL A   1      45.474  29.222  34.966  1.00  0.00     0.012 A 
ATOM     91  C   UNL A   1      44.078  27.641  36.180  1.00  0.00     0.148 A 
ATOM     92  C   UNL A   1      46.598  28.766  35.651  1.00  0.00     0.002 A 
ATOM     93  C   UNL A   1      45.195  27.225  36.895  1.00  0.00     0.091 A 
ATOM     94  F   UNL A   1      42.868  27.101  36.385  1.00  0.00    -0.205 F 
ATOM     95  C   UNL A   1      46.458  27.778  36.623  1.00  0.00     0.022 A 
BRANCH  93  96
ATOM     96  S   UNL A   1      45.083  26.032  38.232  1.00  0.00     0.127 S 
ATOM     97  O   UNL A   1      46.473  25.946  38.674  1.00  0.00    -0.237 OA
ATOM     98  O   UNL A   1      44.182  26.699  39.174  1.00  0.00    -0.237 OA
ATOM     99  O   UNL A   1      44.535  24.820  37.636  1.00  0.00    -0.744 OA
ENDBRANCH  93  96
ENDBRANCH  66  89
ENDBRANCH  40  41
ENDBRANCH  32  35
ENDBRANCH  30  31
ENDBRANCH   1  30
TORSDOF 16
ENDMDL
