MODEL 1
REMARK VINA RESULT:     -12.0      0.000      0.000
REMARK SMILES CCCc1c(C(=O)NCCCCNC(=O)c2ccc(-c3c4nc(c(-c5cccc(S(=O)(=O)[O-])c5F)c5ccc([nH]5)c(-c5cccc(S(=O)(=O)[O-])c5F)c5nc(c(-c6cccc(S(=O)(=O)[O-])c6F)c6ccc3[nH]6)C=C5)C=C4)cc2)nnn1-c1cccc(C(F)(F)F)c1
REMARK SMILES IDX 11 1 10 2 9 3 8 4 6 5 7 6 5 8 4 9 81 10 79 11 80 12 3 13
REMARK SMILES IDX 2 14 1 15 82 16 83 17 91 18 84 19 86 20 85 21 87 22 88 23
REMARK SMILES IDX 89 24 90 25 12 26 13 27 14 28 15 30 16 31 17 32 78 33 18 34
REMARK SMILES IDX 77 35 19 36 20 37 21 38 71 39 22 40 76 41 70 42 72 43 23 44
REMARK SMILES IDX 75 45 69 46 68 47 24 49 56 50 36 51 55 52 37 53 40 54 54 55
REMARK SMILES IDX 73 56 38 57 39 58 53 60 74 61 41 62 25 63 26 64 34 65 27 66
REMARK SMILES IDX 29 67 35 68 28 69 30 70 31 71 32 72 33 73 57 74 58 75 66 76
REMARK SMILES IDX 59 77 61 78 67 79 60 80 62 81 63 82 64 83 65 84 42 85 43 86
REMARK SMILES IDX 51 87 44 88 46 89 52 90 45 91 47 92 48 93 49 94 50 95
REMARK H PARENT 8 7 13 29 72 48 40 59
REMARK Flexibility Score: inf
ROOT
ATOM      1  C   UNL A   1      31.531  31.181  26.499  1.00  0.00     0.023 C 
ENDROOT
BRANCH   1   2
ATOM      2  C   UNL A   1      32.043  30.239  25.400  1.00  0.00     0.023 C 
BRANCH   2   3
ATOM      3  C   UNL A   1      31.357  28.869  25.360  1.00  0.00     0.116 C 
BRANCH   3   4
ATOM      4  N   UNL A   1      30.974  28.458  24.033  1.00  0.00    -0.351 N 
ATOM      5  C   UNL A   1      31.287  27.451  23.158  1.00  0.00     0.273 C 
ATOM      6  O   UNL A   1      30.671  27.545  22.089  1.00  0.00    -0.267 OA
ATOM      7  H   UNL A   1      30.302  29.068  23.651  1.00  0.00     0.163 HD
BRANCH   5   8
ATOM      8  C   UNL A   1      32.268  26.359  23.328  1.00  0.00     0.174 A 
ATOM      9  C   UNL A   1      32.655  25.438  24.323  1.00  0.00     0.078 A 
ATOM     10  N   UNL A   1      33.629  24.670  23.678  1.00  0.00    -0.217 N 
ATOM     11  N   UNL A   1      33.099  26.167  22.234  1.00  0.00    -0.124 NA
ATOM     12  N   UNL A   1      33.975  25.228  22.507  1.00  0.00    -0.061 NA
BRANCH   9  13
ATOM     13  C   UNL A   1      32.218  25.347  25.756  1.00  0.00     0.059 C 
BRANCH  13  14
ATOM     14  C   UNL A   1      31.084  24.503  26.323  1.00  0.00     0.003 C 
ATOM     15  C   UNL A   1      30.835  23.172  25.634  1.00  0.00     0.004 C 
ENDBRANCH  13  14
ENDBRANCH   9  13
BRANCH  10  16
ATOM     16  C   UNL A   1      34.369  23.556  24.119  1.00  0.00     0.067 A 
ATOM     17  C   UNL A   1      35.556  23.787  24.827  1.00  0.00     0.028 A 
ATOM     18  C   UNL A   1      33.887  22.261  23.942  1.00  0.00     0.041 A 
ATOM     19  C   UNL A   1      36.171  22.730  25.494  1.00  0.00     0.003 A 
ATOM     20  C   UNL A   1      34.475  21.200  24.646  1.00  0.00     0.058 A 
ATOM     21  C   UNL A   1      35.616  21.451  25.429  1.00  0.00     0.013 A 
BRANCH  20  22
ATOM     22  C   UNL A   1      33.840  19.832  24.654  1.00  0.00     0.416 C 
ATOM     23  F   UNL A   1      34.737  18.831  24.447  1.00  0.00    -0.166 F 
ATOM     24  F   UNL A   1      33.242  19.556  25.849  1.00  0.00    -0.166 F 
ATOM     25  F   UNL A   1      32.868  19.675  23.714  1.00  0.00    -0.166 F 
ENDBRANCH  20  22
ENDBRANCH  10  16
ENDBRANCH   5   8
ENDBRANCH   3   4
ENDBRANCH   2   3
ENDBRANCH   1   2
BRANCH   1  26
ATOM     26  C   UNL A   1      32.618  31.972  27.222  1.00  0.00     0.116 C 
BRANCH  26  27
ATOM     27  N   UNL A   1      32.295  33.389  27.397  1.00  0.00    -0.352 N 
ATOM     28  C   UNL A   1      32.900  34.281  28.273  1.00  0.00     0.251 C 
ATOM     29  H   UNL A   1      31.573  33.748  26.833  1.00  0.00     0.163 HD
ATOM     30  O   UNL A   1      32.357  35.314  28.607  1.00  0.00    -0.269 OA
BRANCH  28  31
ATOM     31  C   UNL A   1      34.242  33.929  28.778  1.00  0.00     0.039 A 
ATOM     32  C   UNL A   1      34.420  33.331  30.027  1.00  0.00     0.014 A 
ATOM     33  C   UNL A   1      35.309  34.120  27.907  1.00  0.00     0.014 A 
ATOM     34  C   UNL A   1      35.680  32.833  30.356  1.00  0.00     0.010 A 
ATOM     35  C   UNL A   1      36.500  33.493  28.168  1.00  0.00     0.010 A 
ATOM     36  C   UNL A   1      36.714  32.894  29.410  1.00  0.00    -0.014 A 
BRANCH  36  37
ATOM     37  C   UNL A   1      37.996  32.234  29.648  1.00  0.00     0.031 A 
ATOM     38  C   UNL A   1      38.100  30.826  29.164  1.00  0.00     0.074 A 
ATOM     39  C   UNL A   1      39.090  32.926  30.040  1.00  0.00     0.049 A 
ATOM     40  N   UNL A   1      38.302  29.757  29.864  1.00  0.00    -0.248 NA
ATOM     41  C   UNL A   1      37.835  30.559  27.741  1.00  0.00     0.031 C 
ATOM     42  C   UNL A   1      39.209  34.378  30.245  1.00  0.00     0.029 A 
ATOM     43  N   UNL A   1      40.377  32.502  30.166  1.00  0.00    -0.354 N 
ATOM     44  C   UNL A   1      38.431  28.717  28.941  1.00  0.00     0.074 A 
ATOM     45  C   UNL A   1      37.934  29.229  27.693  1.00  0.00     0.031 C 
ATOM     46  C   UNL A   1      40.508  34.737  30.178  1.00  0.00     0.029 A 
ATOM     47  C   UNL A   1      41.312  33.533  30.128  1.00  0.00     0.049 A 
ATOM     48  H   UNL A   1      40.624  31.555  30.272  1.00  0.00     0.167 HD
ATOM     49  C   UNL A   1      39.179  27.609  29.220  1.00  0.00     0.034 A 
ATOM     50  C   UNL A   1      42.655  33.413  30.019  1.00  0.00     0.034 A 
ATOM     51  C   UNL A   1      39.465  27.514  30.630  1.00  0.00     0.049 A 
ATOM     52  C   UNL A   1      43.003  32.046  30.459  1.00  0.00     0.074 A 
ATOM     53  C   UNL A   1      38.719  27.437  31.789  1.00  0.00     0.029 A 
ATOM     54  N   UNL A   1      40.734  27.860  31.024  1.00  0.00    -0.354 N 
ATOM     55  N   UNL A   1      42.827  31.619  31.679  1.00  0.00    -0.248 NA
ATOM     56  C   UNL A   1      43.152  31.015  29.448  1.00  0.00     0.031 C 
ATOM     57  C   UNL A   1      39.449  28.206  32.744  1.00  0.00     0.029 A 
ATOM     58  C   UNL A   1      40.623  28.654  32.132  1.00  0.00     0.049 A 
ATOM     59  H   UNL A   1      41.573  27.587  30.588  1.00  0.00     0.167 HD
ATOM     60  C   UNL A   1      42.381  30.315  31.524  1.00  0.00     0.074 A 
ATOM     61  C   UNL A   1      42.730  29.959  30.149  1.00  0.00     0.031 C 
ATOM     62  C   UNL A   1      41.514  29.756  32.421  1.00  0.00     0.034 A 
BRANCH  49  63
ATOM     63  C   UNL A   1      40.007  26.824  28.214  1.00  0.00     0.023 A 
ATOM     64  C   UNL A   1      40.010  25.414  28.349  1.00  0.00     0.012 A 
ATOM     65  C   UNL A   1      40.998  27.378  27.372  1.00  0.00     0.148 A 
ATOM     66  C   UNL A   1      41.001  24.614  27.768  1.00  0.00     0.002 A 
ATOM     67  C   UNL A   1      41.940  26.572  26.738  1.00  0.00     0.091 A 
ATOM     68  F   UNL A   1      41.134  28.701  27.267  1.00  0.00    -0.205 F 
ATOM     69  C   UNL A   1      41.971  25.195  26.964  1.00  0.00     0.022 A 
BRANCH  67  70
ATOM     70  S   UNL A   1      43.193  27.270  25.654  1.00  0.00     0.127 S 
ATOM     71  O   UNL A   1      43.862  26.066  25.173  1.00  0.00    -0.237 OA
ATOM     72  O   UNL A   1      42.375  27.967  24.661  1.00  0.00    -0.237 OA
ATOM     73  O   UNL A   1      43.986  28.155  26.498  1.00  0.00    -0.744 OA
ENDBRANCH  67  70
ENDBRANCH  49  63
BRANCH  50  74
ATOM     74  C   UNL A   1      43.617  34.311  29.347  1.00  0.00     0.023 A 
ATOM     75  C   UNL A   1      44.295  35.299  30.085  1.00  0.00     0.012 A 
ATOM     76  C   UNL A   1      44.065  34.028  28.036  1.00  0.00     0.148 A 
ATOM     77  C   UNL A   1      45.401  35.967  29.546  1.00  0.00     0.002 A 
ATOM     78  C   UNL A   1      45.158  34.701  27.501  1.00  0.00     0.091 A 
ATOM     79  F   UNL A   1      43.471  33.042  27.352  1.00  0.00    -0.205 F 
ATOM     80  C   UNL A   1      45.838  35.663  28.259  1.00  0.00     0.022 A 
BRANCH  78  81
ATOM     81  S   UNL A   1      45.785  34.351  25.853  1.00  0.00     0.127 S 
ATOM     82  O   UNL A   1      44.573  34.466  25.041  1.00  0.00    -0.237 OA
ATOM     83  O   UNL A   1      46.754  35.428  25.666  1.00  0.00    -0.237 OA
ATOM     84  O   UNL A   1      46.338  33.004  25.918  1.00  0.00    -0.744 OA
ENDBRANCH  78  81
ENDBRANCH  50  74
BRANCH  62  85
ATOM     85  C   UNL A   1      41.248  30.497  33.710  1.00  0.00     0.023 A 
ATOM     86  C   UNL A   1      42.149  30.461  34.796  1.00  0.00     0.012 A 
ATOM     87  C   UNL A   1      40.174  31.400  33.752  1.00  0.00     0.148 A 
ATOM     88  C   UNL A   1      41.975  31.292  35.905  1.00  0.00     0.002 A 
ATOM     89  C   UNL A   1      40.028  32.259  34.837  1.00  0.00     0.091 A 
ATOM     90  F   UNL A   1      39.334  31.433  32.707  1.00  0.00    -0.205 F 
ATOM     91  C   UNL A   1      40.921  32.201  35.919  1.00  0.00     0.022 A 
BRANCH  89  92
ATOM     92  S   UNL A   1      38.775  33.542  34.863  1.00  0.00     0.127 S 
ATOM     93  O   UNL A   1      38.999  34.161  36.167  1.00  0.00    -0.237 OA
ATOM     94  O   UNL A   1      39.154  34.372  33.718  1.00  0.00    -0.237 OA
ATOM     95  O   UNL A   1      37.496  32.860  34.707  1.00  0.00    -0.744 OA
ENDBRANCH  89  92
ENDBRANCH  62  85
ENDBRANCH  36  37
ENDBRANCH  28  31
ENDBRANCH  26  27
ENDBRANCH   1  26
TORSDOF 18
ENDMDL
MODEL 2
REMARK VINA RESULT:     -12.0      3.167      7.293
REMARK SMILES CCCc1c(C(=O)NCCCCNC(=O)c2ccc(-c3c4nc(c(-c5cccc(S(=O)(=O)[O-])c5F)c5ccc([nH]5)c(-c5cccc(S(=O)(=O)[O-])c5F)c5nc(c(-c6cccc(S(=O)(=O)[O-])c6F)c6ccc3[nH]6)C=C5)C=C4)cc2)nnn1-c1cccc(C(F)(F)F)c1
REMARK SMILES IDX 11 1 10 2 9 3 8 4 6 5 7 6 5 8 4 9 81 10 79 11 80 12 3 13
REMARK SMILES IDX 2 14 1 15 82 16 83 17 91 18 84 19 86 20 85 21 87 22 88 23
REMARK SMILES IDX 89 24 90 25 12 26 13 27 14 28 15 30 16 31 17 32 78 33 18 34
REMARK SMILES IDX 77 35 19 36 20 37 21 38 71 39 22 40 76 41 70 42 72 43 23 44
REMARK SMILES IDX 75 45 69 46 68 47 24 49 56 50 36 51 55 52 37 53 40 54 54 55
REMARK SMILES IDX 73 56 38 57 39 58 53 60 74 61 41 62 25 63 26 64 34 65 27 66
REMARK SMILES IDX 29 67 35 68 28 69 30 70 31 71 32 72 33 73 57 74 58 75 66 76
REMARK SMILES IDX 59 77 61 78 67 79 60 80 62 81 63 82 64 83 65 84 42 85 43 86
REMARK SMILES IDX 51 87 44 88 46 89 52 90 45 91 47 92 48 93 49 94 50 95
REMARK H PARENT 8 7 13 29 72 48 40 59
REMARK Flexibility Score: inf
ROOT
ATOM      1  C   UNL A   1      33.126  28.793  26.535  1.00  0.00     0.023 C 
ENDROOT
BRANCH   1   2
ATOM      2  C   UNL A   1      32.421  29.564  25.410  1.00  0.00     0.023 C 
BRANCH   2   3
ATOM      3  C   UNL A   1      32.967  29.288  24.004  1.00  0.00     0.116 C 
BRANCH   3   4
ATOM      4  N   UNL A   1      32.033  28.597  23.152  1.00  0.00    -0.351 N 
ATOM      5  C   UNL A   1      31.840  27.321  22.693  1.00  0.00     0.273 C 
ATOM      6  O   UNL A   1      30.861  27.232  21.940  1.00  0.00    -0.267 OA
ATOM      7  H   UNL A   1      31.345  29.210  22.805  1.00  0.00     0.163 HD
BRANCH   5   8
ATOM      8  C   UNL A   1      32.663  26.120  22.944  1.00  0.00     0.174 A 
ATOM      9  C   UNL A   1      32.948  25.245  24.012  1.00  0.00     0.078 A 
ATOM     10  N   UNL A   1      33.784  24.292  23.423  1.00  0.00    -0.217 N 
ATOM     11  N   UNL A   1      33.424  25.715  21.857  1.00  0.00    -0.124 NA
ATOM     12  N   UNL A   1      34.168  24.688  22.200  1.00  0.00    -0.061 NA
BRANCH   9  13
ATOM     13  C   UNL A   1      32.548  25.344  25.456  1.00  0.00     0.059 C 
BRANCH  13  14
ATOM     14  C   UNL A   1      31.603  24.425  26.217  1.00  0.00     0.003 C 
ATOM     15  C   UNL A   1      32.257  23.308  27.013  1.00  0.00     0.004 C 
ENDBRANCH  13  14
ENDBRANCH   9  13
BRANCH  10  16
ATOM     16  C   UNL A   1      34.375  23.128  23.951  1.00  0.00     0.067 A 
ATOM     17  C   UNL A   1      35.602  23.250  24.618  1.00  0.00     0.028 A 
ATOM     18  C   UNL A   1      33.713  21.903  23.899  1.00  0.00     0.041 A 
ATOM     19  C   UNL A   1      36.082  22.180  25.368  1.00  0.00     0.003 A 
ATOM     20  C   UNL A   1      34.168  20.835  24.686  1.00  0.00     0.058 A 
ATOM     21  C   UNL A   1      35.353  20.990  25.426  1.00  0.00     0.013 A 
BRANCH  20  22
ATOM     22  C   UNL A   1      33.349  19.575  24.826  1.00  0.00     0.416 C 
ATOM     23  F   UNL A   1      34.034  18.457  24.467  1.00  0.00    -0.166 F 
ATOM     24  F   UNL A   1      32.950  19.370  26.115  1.00  0.00    -0.166 F 
ATOM     25  F   UNL A   1      32.208  19.579  24.086  1.00  0.00    -0.166 F 
ENDBRANCH  20  22
ENDBRANCH  10  16
ENDBRANCH   5   8
ENDBRANCH   3   4
ENDBRANCH   2   3
ENDBRANCH   1   2
BRANCH   1  26
ATOM     26  C   UNL A   1      33.645  29.661  27.679  1.00  0.00     0.116 C 
BRANCH  26  27
ATOM     27  N   UNL A   1      33.967  31.030  27.277  1.00  0.00    -0.352 N 
ATOM     28  C   UNL A   1      35.079  31.772  27.656  1.00  0.00     0.251 C 
ATOM     29  H   UNL A   1      33.329  31.473  26.674  1.00  0.00     0.163 HD
ATOM     30  O   UNL A   1      35.096  32.983  27.574  1.00  0.00    -0.269 OA
BRANCH  28  31
ATOM     31  C   UNL A   1      36.251  31.026  28.155  1.00  0.00     0.039 A 
ATOM     32  C   UNL A   1      36.480  29.696  27.795  1.00  0.00     0.014 A 
ATOM     33  C   UNL A   1      37.176  31.742  28.908  1.00  0.00     0.014 A 
ATOM     34  C   UNL A   1      37.704  29.116  28.123  1.00  0.00     0.010 A 
ATOM     35  C   UNL A   1      38.431  31.221  29.089  1.00  0.00     0.010 A 
ATOM     36  C   UNL A   1      38.690  29.893  28.750  1.00  0.00    -0.014 A 
BRANCH  36  37
ATOM     37  C   UNL A   1      40.041  29.376  28.956  1.00  0.00     0.031 A 
ATOM     38  C   UNL A   1      40.455  29.196  30.379  1.00  0.00     0.074 A 
ATOM     39  C   UNL A   1      40.766  28.855  27.941  1.00  0.00     0.049 A 
ATOM     40  N   UNL A   1      41.421  29.784  31.007  1.00  0.00    -0.248 NA
ATOM     41  C   UNL A   1      39.624  28.340  31.242  1.00  0.00     0.031 C 
ATOM     42  C   UNL A   1      40.353  28.676  26.540  1.00  0.00     0.029 A 
ATOM     43  N   UNL A   1      41.964  28.208  27.982  1.00  0.00    -0.354 N 
ATOM     44  C   UNL A   1      41.469  29.193  32.272  1.00  0.00     0.074 A 
ATOM     45  C   UNL A   1      40.231  28.478  32.422  1.00  0.00     0.031 C 
ATOM     46  C   UNL A   1      41.128  27.739  25.958  1.00  0.00     0.029 A 
ATOM     47  C   UNL A   1      42.203  27.405  26.870  1.00  0.00     0.049 A 
ATOM     48  H   UNL A   1      42.600  28.300  28.727  1.00  0.00     0.167 HD
ATOM     49  C   UNL A   1      42.634  29.124  32.980  1.00  0.00     0.034 A 
ATOM     50  C   UNL A   1      43.190  26.492  26.721  1.00  0.00     0.034 A 
ATOM     51  C   UNL A   1      43.626  30.020  32.440  1.00  0.00     0.049 A 
ATOM     52  C   UNL A   1      44.253  26.845  27.686  1.00  0.00     0.074 A 
ATOM     53  C   UNL A   1      43.714  31.379  32.214  1.00  0.00     0.029 A 
ATOM     54  N   UNL A   1      44.627  29.451  31.693  1.00  0.00    -0.354 N 
ATOM     55  N   UNL A   1      44.943  27.949  27.620  1.00  0.00    -0.248 NA
ATOM     56  C   UNL A   1      44.265  26.172  28.973  1.00  0.00     0.031 C 
ATOM     57  C   UNL A   1      44.434  31.499  30.988  1.00  0.00     0.029 A 
ATOM     58  C   UNL A   1      44.793  30.215  30.570  1.00  0.00     0.049 A 
ATOM     59  H   UNL A   1      45.134  28.639  31.922  1.00  0.00     0.167 HD
ATOM     60  C   UNL A   1      45.079  28.347  28.942  1.00  0.00     0.074 A 
ATOM     61  C   UNL A   1      44.764  27.155  29.727  1.00  0.00     0.031 C 
ATOM     62  C   UNL A   1      45.142  29.671  29.276  1.00  0.00     0.034 A 
BRANCH  49  63
ATOM     63  C   UNL A   1      43.048  27.981  33.894  1.00  0.00     0.023 A 
ATOM     64  C   UNL A   1      43.882  26.982  33.332  1.00  0.00     0.012 A 
ATOM     65  C   UNL A   1      42.438  27.669  35.130  1.00  0.00     0.148 A 
ATOM     66  C   UNL A   1      44.014  25.714  33.911  1.00  0.00     0.002 A 
ATOM     67  C   UNL A   1      42.630  26.432  35.739  1.00  0.00     0.091 A 
ATOM     68  F   UNL A   1      41.559  28.509  35.680  1.00  0.00    -0.205 F 
ATOM     69  C   UNL A   1      43.384  25.437  35.115  1.00  0.00     0.022 A 
BRANCH  67  70
ATOM     70  S   UNL A   1      41.869  26.037  37.319  1.00  0.00     0.127 S 
ATOM     71  O   UNL A   1      42.924  26.419  38.252  1.00  0.00    -0.237 OA
ATOM     72  O   UNL A   1      40.696  26.913  37.313  1.00  0.00    -0.237 OA
ATOM     73  O   UNL A   1      41.550  24.616  37.251  1.00  0.00    -0.744 OA
ENDBRANCH  67  70
ENDBRANCH  49  63
BRANCH  50  74
ATOM     74  C   UNL A   1      43.173  25.216  25.975  1.00  0.00     0.023 A 
ATOM     75  C   UNL A   1      44.164  24.949  25.013  1.00  0.00     0.012 A 
ATOM     76  C   UNL A   1      42.338  24.155  26.391  1.00  0.00     0.148 A 
ATOM     77  C   UNL A   1      44.337  23.656  24.500  1.00  0.00     0.002 A 
ATOM     78  C   UNL A   1      42.507  22.876  25.873  1.00  0.00     0.091 A 
ATOM     79  F   UNL A   1      41.438  24.384  27.356  1.00  0.00    -0.205 F 
ATOM     80  C   UNL A   1      43.516  22.619  24.935  1.00  0.00     0.022 A 
BRANCH  78  81
ATOM     81  S   UNL A   1      41.493  21.487  26.397  1.00  0.00     0.127 S 
ATOM     82  O   UNL A   1      41.746  21.458  27.838  1.00  0.00    -0.237 OA
ATOM     83  O   UNL A   1      40.155  21.932  26.018  1.00  0.00    -0.237 OA
ATOM     84  O   UNL A   1      42.005  20.329  25.674  1.00  0.00    -0.744 OA
ENDBRANCH  78  81
ENDBRANCH  50  74
BRANCH  62  85
ATOM     85  C   UNL A   1      45.311  30.679  28.164  1.00  0.00     0.023 A 
ATOM     86  C   UNL A   1      44.206  31.283  27.525  1.00  0.00     0.012 A 
ATOM     87  C   UNL A   1      46.598  31.171  27.897  1.00  0.00     0.148 A 
ATOM     88  C   UNL A   1      44.382  32.340  26.629  1.00  0.00     0.002 A 
ATOM     89  C   UNL A   1      46.767  32.252  27.039  1.00  0.00     0.091 A 
ATOM     90  F   UNL A   1      47.637  30.595  28.522  1.00  0.00    -0.205 F 
ATOM     91  C   UNL A   1      45.663  32.833  26.396  1.00  0.00     0.022 A 
BRANCH  89  92
ATOM     92  S   UNL A   1      48.369  33.022  26.795  1.00  0.00     0.127 S 
ATOM     93  O   UNL A   1      48.086  33.985  25.732  1.00  0.00    -0.237 OA
ATOM     94  O   UNL A   1      48.632  33.617  28.106  1.00  0.00    -0.237 OA
ATOM     95  O   UNL A   1      49.283  31.945  26.435  1.00  0.00    -0.744 OA
ENDBRANCH  89  92
ENDBRANCH  62  85
ENDBRANCH  36  37
ENDBRANCH  28  31
ENDBRANCH  26  27
ENDBRANCH   1  26
TORSDOF 18
ENDMDL
MODEL 3
REMARK VINA RESULT:     -11.8      3.708      7.632
REMARK SMILES CCCc1c(C(=O)NCCCCNC(=O)c2ccc(-c3c4nc(c(-c5cccc(S(=O)(=O)[O-])c5F)c5ccc([nH]5)c(-c5cccc(S(=O)(=O)[O-])c5F)c5nc(c(-c6cccc(S(=O)(=O)[O-])c6F)c6ccc3[nH]6)C=C5)C=C4)cc2)nnn1-c1cccc(C(F)(F)F)c1
REMARK SMILES IDX 11 1 10 2 9 3 8 4 6 5 7 6 5 8 4 9 81 10 79 11 80 12 3 13
REMARK SMILES IDX 2 14 1 15 82 16 83 17 91 18 84 19 86 20 85 21 87 22 88 23
REMARK SMILES IDX 89 24 90 25 12 26 13 27 14 28 15 30 16 31 17 32 78 33 18 34
REMARK SMILES IDX 77 35 19 36 20 37 21 38 71 39 22 40 76 41 70 42 72 43 23 44
REMARK SMILES IDX 75 45 69 46 68 47 24 49 56 50 36 51 55 52 37 53 40 54 54 55
REMARK SMILES IDX 73 56 38 57 39 58 53 60 74 61 41 62 25 63 26 64 34 65 27 66
REMARK SMILES IDX 29 67 35 68 28 69 30 70 31 71 32 72 33 73 57 74 58 75 66 76
REMARK SMILES IDX 59 77 61 78 67 79 60 80 62 81 63 82 64 83 65 84 42 85 43 86
REMARK SMILES IDX 51 87 44 88 46 89 52 90 45 91 47 92 48 93 49 94 50 95
REMARK H PARENT 8 7 13 29 72 48 40 59
REMARK Flexibility Score: inf
ROOT
ATOM      1  C   UNL A   1      32.176  28.680  27.105  1.00  0.00     0.023 C 
ENDROOT
BRANCH   1   2
ATOM      2  C   UNL A   1      31.772  28.938  25.646  1.00  0.00     0.023 C 
BRANCH   2   3
ATOM      3  C   UNL A   1      31.410  27.680  24.849  1.00  0.00     0.116 C 
BRANCH   3   4
ATOM      4  N   UNL A   1      30.445  26.839  25.511  1.00  0.00    -0.351 N 
ATOM      5  C   UNL A   1      30.412  25.591  26.075  1.00  0.00     0.273 C 
ATOM      6  O   UNL A   1      29.294  25.303  26.521  1.00  0.00    -0.267 OA
ATOM      7  H   UNL A   1      29.569  27.284  25.575  1.00  0.00     0.163 HD
BRANCH   5   8
ATOM      8  C   UNL A   1      31.496  24.590  26.153  1.00  0.00     0.174 A 
ATOM      9  C   UNL A   1      32.612  24.186  25.392  1.00  0.00     0.078 A 
ATOM     10  N   UNL A   1      33.195  23.197  26.189  1.00  0.00    -0.217 N 
ATOM     11  N   UNL A   1      31.418  23.754  27.257  1.00  0.00    -0.124 NA
ATOM     12  N   UNL A   1      32.379  22.860  27.200  1.00  0.00    -0.061 NA
BRANCH   9  13
ATOM     13  C   UNL A   1      33.036  24.623  24.020  1.00  0.00     0.059 C 
BRANCH  13  14
ATOM     14  C   UNL A   1      33.738  23.785  22.960  1.00  0.00     0.003 C 
ATOM     15  C   UNL A   1      32.927  22.646  22.367  1.00  0.00     0.004 C 
ENDBRANCH  13  14
ENDBRANCH   9  13
BRANCH  10  16
ATOM     16  C   UNL A   1      34.366  22.436  26.010  1.00  0.00     0.067 A 
ATOM     17  C   UNL A   1      34.247  21.158  25.446  1.00  0.00     0.028 A 
ATOM     18  C   UNL A   1      35.620  22.974  26.293  1.00  0.00     0.041 A 
ATOM     19  C   UNL A   1      35.391  20.489  25.020  1.00  0.00     0.003 A 
ATOM     20  C   UNL A   1      36.773  22.326  25.827  1.00  0.00     0.058 A 
ATOM     21  C   UNL A   1      36.644  21.084  25.181  1.00  0.00     0.013 A 
BRANCH  20  22
ATOM     22  C   UNL A   1      38.123  22.993  25.918  1.00  0.00     0.416 C 
ATOM     23  F   UNL A   1      39.137  22.197  25.485  1.00  0.00    -0.166 F 
ATOM     24  F   UNL A   1      38.184  24.123  25.154  1.00  0.00    -0.166 F 
ATOM     25  F   UNL A   1      38.456  23.386  27.178  1.00  0.00    -0.166 F 
ENDBRANCH  20  22
ENDBRANCH  10  16
ENDBRANCH   5   8
ENDBRANCH   3   4
ENDBRANCH   2   3
ENDBRANCH   1   2
BRANCH   1  26
ATOM     26  C   UNL A   1      33.625  29.026  27.439  1.00  0.00     0.116 C 
BRANCH  26  27
ATOM     27  N   UNL A   1      33.830  30.436  27.771  1.00  0.00    -0.352 N 
ATOM     28  C   UNL A   1      34.869  30.975  28.519  1.00  0.00     0.251 C 
ATOM     29  H   UNL A   1      33.161  31.070  27.428  1.00  0.00     0.163 HD
ATOM     30  O   UNL A   1      34.781  32.069  29.038  1.00  0.00    -0.269 OA
BRANCH  28  31
ATOM     31  C   UNL A   1      36.098  30.167  28.651  1.00  0.00     0.039 A 
ATOM     32  C   UNL A   1      37.055  30.122  27.634  1.00  0.00     0.014 A 
ATOM     33  C   UNL A   1      36.311  29.544  29.875  1.00  0.00     0.014 A 
ATOM     34  C   UNL A   1      38.283  29.517  27.900  1.00  0.00     0.010 A 
ATOM     35  C   UNL A   1      37.569  29.092  30.181  1.00  0.00     0.010 A 
ATOM     36  C   UNL A   1      38.545  29.025  29.187  1.00  0.00    -0.014 A 
BRANCH  36  37
ATOM     37  C   UNL A   1      39.874  28.539  29.555  1.00  0.00     0.031 A 
ATOM     38  C   UNL A   1      40.233  28.662  30.998  1.00  0.00     0.074 A 
ATOM     39  C   UNL A   1      40.620  27.797  28.706  1.00  0.00     0.049 A 
ATOM     40  N   UNL A   1      41.191  29.355  31.523  1.00  0.00    -0.248 NA
ATOM     41  C   UNL A   1      39.349  28.030  31.991  1.00  0.00     0.031 C 
ATOM     42  C   UNL A   1      40.251  27.328  27.360  1.00  0.00     0.029 A 
ATOM     43  N   UNL A   1      41.797  27.152  28.932  1.00  0.00    -0.354 N 
ATOM     44  C   UNL A   1      41.179  29.050  32.886  1.00  0.00     0.074 A 
ATOM     45  C   UNL A   1      39.917  28.407  33.137  1.00  0.00     0.031 C 
ATOM     46  C   UNL A   1      41.021  26.272  27.026  1.00  0.00     0.029 A 
ATOM     47  C   UNL A   1      42.053  26.123  28.030  1.00  0.00     0.049 A 
ATOM     48  H   UNL A   1      42.409  27.390  29.665  1.00  0.00     0.167 HD
ATOM     49  C   UNL A   1      42.316  29.113  33.639  1.00  0.00     0.034 A 
ATOM     50  C   UNL A   1      43.020  25.181  28.121  1.00  0.00     0.034 A 
ATOM     51  C   UNL A   1      43.350  29.853  32.959  1.00  0.00     0.049 A 
ATOM     52  C   UNL A   1      44.058  25.713  29.029  1.00  0.00     0.074 A 
ATOM     53  C   UNL A   1      43.483  31.129  32.449  1.00  0.00     0.029 A 
ATOM     54  N   UNL A   1      44.361  29.117  32.392  1.00  0.00    -0.354 N 
ATOM     55  N   UNL A   1      44.779  26.765  28.755  1.00  0.00    -0.248 NA
ATOM     56  C   UNL A   1      44.007  25.335  30.430  1.00  0.00     0.031 C 
ATOM     57  C   UNL A   1      44.249  30.967  31.256  1.00  0.00     0.029 A 
ATOM     58  C   UNL A   1      44.587  29.617  31.140  1.00  0.00     0.049 A 
ATOM     59  H   UNL A   1      44.838  28.364  32.812  1.00  0.00     0.167 HD
ATOM     60  C   UNL A   1      44.879  27.436  29.965  1.00  0.00     0.074 A 
ATOM     61  C   UNL A   1      44.505  26.448  30.975  1.00  0.00     0.031 C 
ATOM     62  C   UNL A   1      44.966  28.800  30.008  1.00  0.00     0.034 A 
BRANCH  49  63
ATOM     63  C   UNL A   1      42.667  28.187  34.793  1.00  0.00     0.023 A 
ATOM     64  C   UNL A   1      43.027  28.800  36.019  1.00  0.00     0.012 A 
ATOM     65  C   UNL A   1      42.962  26.811  34.668  1.00  0.00     0.148 A 
ATOM     66  C   UNL A   1      43.732  28.113  37.014  1.00  0.00     0.002 A 
ATOM     67  C   UNL A   1      43.599  26.113  35.689  1.00  0.00     0.091 A 
ATOM     68  F   UNL A   1      42.751  26.178  33.513  1.00  0.00    -0.205 F 
ATOM     69  C   UNL A   1      44.023  26.767  36.847  1.00  0.00     0.022 A 
BRANCH  67  70
ATOM     70  S   UNL A   1      43.963  24.358  35.540  1.00  0.00     0.127 S 
ATOM     71  O   UNL A   1      42.630  23.804  35.327  1.00  0.00    -0.237 OA
ATOM     72  O   UNL A   1      44.842  24.333  34.370  1.00  0.00    -0.237 OA
ATOM     73  O   UNL A   1      44.623  23.992  36.787  1.00  0.00    -0.744 OA
ENDBRANCH  67  70
ENDBRANCH  49  63
BRANCH  50  74
ATOM     74  C   UNL A   1      42.994  23.775  27.667  1.00  0.00     0.023 A 
ATOM     75  C   UNL A   1      41.929  22.933  28.037  1.00  0.00     0.012 A 
ATOM     76  C   UNL A   1      43.878  23.333  26.656  1.00  0.00     0.148 A 
ATOM     77  C   UNL A   1      41.734  21.700  27.402  1.00  0.00     0.002 A 
ATOM     78  C   UNL A   1      43.686  22.104  26.035  1.00  0.00     0.091 A 
ATOM     79  F   UNL A   1      44.854  24.156  26.249  1.00  0.00    -0.205 F 
ATOM     80  C   UNL A   1      42.606  21.289  26.397  1.00  0.00     0.022 A 
BRANCH  78  81
ATOM     81  S   UNL A   1      44.763  21.515  24.721  1.00  0.00     0.127 S 
ATOM     82  O   UNL A   1      44.251  20.162  24.499  1.00  0.00    -0.237 OA
ATOM     83  O   UNL A   1      44.476  22.464  23.649  1.00  0.00    -0.237 OA
ATOM     84  O   UNL A   1      46.114  21.563  25.267  1.00  0.00    -0.744 OA
ENDBRANCH  78  81
ENDBRANCH  50  74
BRANCH  62  85
ATOM     85  C   UNL A   1      45.201  29.540  28.712  1.00  0.00     0.023 A 
ATOM     86  C   UNL A   1      44.146  29.871  27.836  1.00  0.00     0.012 A 
ATOM     87  C   UNL A   1      46.474  30.082  28.473  1.00  0.00     0.148 A 
ATOM     88  C   UNL A   1      44.357  30.709  26.738  1.00  0.00     0.002 A 
ATOM     89  C   UNL A   1      46.672  30.952  27.406  1.00  0.00     0.091 A 
ATOM     90  F   UNL A   1      47.464  29.769  29.323  1.00  0.00    -0.205 F 
ATOM     91  C   UNL A   1      45.618  31.260  26.531  1.00  0.00     0.022 A 
BRANCH  89  92
ATOM     92  S   UNL A   1      48.233  31.799  27.157  1.00  0.00     0.127 S 
ATOM     93  O   UNL A   1      49.116  30.703  26.762  1.00  0.00    -0.237 OA
ATOM     94  O   UNL A   1      47.908  32.740  26.083  1.00  0.00    -0.237 OA
ATOM     95  O   UNL A   1      48.555  32.435  28.428  1.00  0.00    -0.744 OA
ENDBRANCH  89  92
ENDBRANCH  62  85
ENDBRANCH  36  37
ENDBRANCH  28  31
ENDBRANCH  26  27
ENDBRANCH   1  26
TORSDOF 18
ENDMDL
