MODEL 1
REMARK VINA RESULT:     -14.3      0.000      0.000
REMARK SMILES Cc1cccc(N2C(=O)/C(=C/c3ccc(C(=O)NCCCCNC(=O)c4ccc(-c5c6nc(c(-c7cccc(S(=O)(=O)[O-])c7F)c7ccc([nH]7)c(-c7cccc(S(=O)(=O)[O-])c7F)c7nc(c(-c8cccc(S(=O)(=O)[O-])c8F)c8ccc5[nH]8)C=C7)C=C6)cc4)cc3)c3ccccc3C2=O)c1
REMARK SMILES IDX 21 1 20 2 19 3 18 4 16 5 17 6 15 8 12 9 13 10 90 11 14 12
REMARK SMILES IDX 89 13 11 14 7 15 8 16 97 17 9 18 10 19 96 20 98 21 91 22
REMARK SMILES IDX 95 23 92 24 94 25 93 26 6 27 1 28 2 29 3 30 99 31 4 32 5 33
REMARK SMILES IDX 22 34 23 35 24 36 25 38 26 39 27 40 88 41 28 42 87 43 29 44
REMARK SMILES IDX 30 45 31 46 81 47 32 48 86 49 80 50 82 51 33 52 85 53 79 54
REMARK SMILES IDX 78 55 34 57 66 58 46 59 65 60 47 61 50 62 64 63 83 64 48 65
REMARK SMILES IDX 49 66 63 68 84 69 51 70 35 71 36 72 44 73 37 74 39 75 45 76
REMARK SMILES IDX 38 77 40 78 41 79 42 80 43 81 67 82 68 83 76 84 69 85 71 86
REMARK SMILES IDX 77 87 70 88 72 89 73 90 74 91 75 92 52 93 53 94 61 95 54 96
REMARK SMILES IDX 56 97 62 98 55 99 57 100 58 101 59 102 60 103
REMARK H PARENT 18 7 23 37 82 56 50 67
REMARK Flexibility Score: inf
ROOT
ATOM      1  C   UNL A   1      34.537  29.061  26.521  1.00  0.00     0.023 C 
ENDROOT
BRANCH   1   2
ATOM      2  C   UNL A   1      33.268  28.576  25.822  1.00  0.00     0.023 C 
BRANCH   2   3
ATOM      3  C   UNL A   1      33.080  29.029  24.369  1.00  0.00     0.116 C 
BRANCH   3   4
ATOM      4  N   UNL A   1      31.767  29.600  24.096  1.00  0.00    -0.352 N 
ATOM      5  C   UNL A   1      30.594  29.005  23.693  1.00  0.00     0.251 C 
ATOM      6  O   UNL A   1      29.618  29.693  23.405  1.00  0.00    -0.269 OA
ATOM      7  H   UNL A   1      31.709  30.575  24.221  1.00  0.00     0.163 HD
BRANCH   5   8
ATOM      8  C   UNL A   1      30.522  27.539  23.516  1.00  0.00     0.039 A 
ATOM      9  C   UNL A   1      30.837  24.779  23.286  1.00  0.00    -0.025 A 
ATOM     10  C   UNL A   1      31.184  25.614  22.216  1.00  0.00     0.009 A 
ATOM     11  C   UNL A   1      30.168  25.320  24.391  1.00  0.00     0.009 A 
ATOM     12  C   UNL A   1      31.026  26.995  22.331  1.00  0.00     0.014 A 
ATOM     13  C   UNL A   1      30.005  26.701  24.506  1.00  0.00     0.014 A 
BRANCH   9  14
ATOM     14  C   UNL A   1      31.232  23.367  23.235  1.00  0.00     0.022 C 
ATOM     15  N   UNL A   1      33.050  20.646  24.703  1.00  0.00    -0.242 N 
ATOM     16  C   UNL A   1      32.434  21.312  23.623  1.00  0.00     0.265 C 
ATOM     17  C   UNL A   1      33.573  21.363  25.805  1.00  0.00     0.265 C 
ATOM     18  O   UNL A   1      31.912  20.795  22.635  1.00  0.00    -0.268 OA
ATOM     19  C   UNL A   1      32.350  22.809  23.756  1.00  0.00     0.049 C 
ATOM     20  C   UNL A   1      33.948  22.780  25.583  1.00  0.00     0.048 A 
ATOM     21  O   UNL A   1      33.793  20.935  26.936  1.00  0.00    -0.268 OA
ATOM     22  C   UNL A   1      33.404  23.485  24.515  1.00  0.00    -0.000 A 
ATOM     23  C   UNL A   1      34.876  23.392  26.442  1.00  0.00     0.014 A 
ATOM     24  C   UNL A   1      33.889  24.775  24.245  1.00  0.00     0.010 A 
ATOM     25  C   UNL A   1      35.297  24.699  26.206  1.00  0.00     0.001 A 
ATOM     26  C   UNL A   1      34.817  25.383  25.095  1.00  0.00     0.001 A 
BRANCH  15  27
ATOM     27  C   UNL A   1      33.075  19.179  24.717  1.00  0.00     0.053 A 
ATOM     28  C   UNL A   1      34.665  16.285  22.746  1.00  0.00     0.044 C 
ATOM     29  C   UNL A   1      33.866  17.030  23.776  1.00  0.00    -0.049 A 
ATOM     30  C   UNL A   1      33.156  16.326  24.744  1.00  0.00     0.003 A 
ATOM     31  C   UNL A   1      33.835  18.438  23.786  1.00  0.00     0.030 A 
ATOM     32  C   UNL A   1      32.414  17.019  25.689  1.00  0.00     0.002 A 
ATOM     33  C   UNL A   1      32.371  18.419  25.667  1.00  0.00     0.027 A 
ENDBRANCH  15  27
ENDBRANCH   9  14
ENDBRANCH   5   8
ENDBRANCH   3   4
ENDBRANCH   2   3
ENDBRANCH   1   2
BRANCH   1  34
ATOM     34  C   UNL A   1      34.292  29.861  27.789  1.00  0.00     0.116 C 
BRANCH  34  35
ATOM     35  N   UNL A   1      33.856  31.223  27.567  1.00  0.00    -0.352 N 
ATOM     36  C   UNL A   1      34.198  32.380  28.244  1.00  0.00     0.251 C 
ATOM     37  H   UNL A   1      33.222  31.344  26.823  1.00  0.00     0.163 HD
ATOM     38  O   UNL A   1      33.495  33.374  28.047  1.00  0.00    -0.269 OA
BRANCH  36  39
ATOM     39  C   UNL A   1      35.444  32.478  29.058  1.00  0.00     0.039 A 
ATOM     40  C   UNL A   1      36.599  32.963  28.422  1.00  0.00     0.014 A 
ATOM     41  C   UNL A   1      35.563  31.899  30.316  1.00  0.00     0.014 A 
ATOM     42  C   UNL A   1      37.861  32.593  28.886  1.00  0.00     0.010 A 
ATOM     43  C   UNL A   1      36.795  31.465  30.740  1.00  0.00     0.010 A 
ATOM     44  C   UNL A   1      37.923  31.726  29.964  1.00  0.00    -0.014 A 
BRANCH  44  45
ATOM     45  C   UNL A   1      39.074  30.940  30.359  1.00  0.00     0.031 A 
ATOM     46  C   UNL A   1      39.272  29.599  29.790  1.00  0.00     0.074 A 
ATOM     47  C   UNL A   1      40.085  31.642  30.922  1.00  0.00     0.049 A 
ATOM     48  N   UNL A   1      40.225  28.807  30.137  1.00  0.00    -0.248 NA
ATOM     49  C   UNL A   1      38.383  29.031  28.781  1.00  0.00     0.031 C 
ATOM     50  C   UNL A   1      41.505  31.327  30.915  1.00  0.00     0.029 A 
ATOM     51  N   UNL A   1      39.999  32.765  31.756  1.00  0.00    -0.354 N 
ATOM     52  C   UNL A   1      40.288  27.821  29.179  1.00  0.00     0.074 A 
ATOM     53  C   UNL A   1      39.032  27.902  28.480  1.00  0.00     0.031 C 
ATOM     54  C   UNL A   1      42.106  32.028  31.894  1.00  0.00     0.029 A 
ATOM     55  C   UNL A   1      41.044  32.623  32.686  1.00  0.00     0.049 A 
ATOM     56  H   UNL A   1      39.344  33.499  31.703  1.00  0.00     0.167 HD
ATOM     57  C   UNL A   1      41.478  27.185  28.986  1.00  0.00     0.034 A 
ATOM     58  C   UNL A   1      40.823  32.375  34.014  1.00  0.00     0.034 A 
ATOM     59  C   UNL A   1      42.423  27.533  30.062  1.00  0.00     0.049 A 
ATOM     60  C   UNL A   1      41.421  31.049  34.472  1.00  0.00     0.074 A 
ATOM     61  C   UNL A   1      43.529  28.363  30.126  1.00  0.00     0.029 A 
ATOM     62  N   UNL A   1      42.096  27.220  31.380  1.00  0.00    -0.354 N 
ATOM     63  N   UNL A   1      41.938  30.161  33.667  1.00  0.00    -0.248 NA
ATOM     64  C   UNL A   1      41.473  30.611  35.865  1.00  0.00     0.031 C 
ATOM     65  C   UNL A   1      43.771  28.659  31.500  1.00  0.00     0.029 A 
ATOM     66  C   UNL A   1      42.852  27.966  32.272  1.00  0.00     0.049 A 
ATOM     67  H   UNL A   1      41.417  26.557  31.644  1.00  0.00     0.167 HD
ATOM     68  C   UNL A   1      42.253  29.020  34.353  1.00  0.00     0.074 A 
ATOM     69  C   UNL A   1      42.024  29.389  35.742  1.00  0.00     0.031 C 
ATOM     70  C   UNL A   1      42.608  27.860  33.712  1.00  0.00     0.034 A 
BRANCH  57  71
ATOM     71  C   UNL A   1      41.901  26.415  27.738  1.00  0.00     0.023 A 
ATOM     72  C   UNL A   1      42.272  27.181  26.608  1.00  0.00     0.012 A 
ATOM     73  C   UNL A   1      41.870  25.009  27.539  1.00  0.00     0.148 A 
ATOM     74  C   UNL A   1      42.574  26.603  25.367  1.00  0.00     0.002 A 
ATOM     75  C   UNL A   1      42.232  24.427  26.317  1.00  0.00     0.091 A 
ATOM     76  F   UNL A   1      41.415  24.201  28.495  1.00  0.00    -0.205 F 
ATOM     77  C   UNL A   1      42.567  25.224  25.223  1.00  0.00     0.022 A 
BRANCH  75  78
ATOM     78  S   UNL A   1      42.286  22.639  26.071  1.00  0.00     0.127 S 
ATOM     79  O   UNL A   1      42.884  22.528  24.742  1.00  0.00    -0.237 OA
ATOM     80  O   UNL A   1      43.151  22.199  27.166  1.00  0.00    -0.237 OA
ATOM     81  O   UNL A   1      40.909  22.167  26.169  1.00  0.00    -0.744 OA
ENDBRANCH  75  78
ENDBRANCH  57  71
BRANCH  58  82
ATOM     82  C   UNL A   1      39.553  32.985  34.520  1.00  0.00     0.023 A 
ATOM     83  C   UNL A   1      38.435  32.917  33.652  1.00  0.00     0.012 A 
ATOM     84  C   UNL A   1      39.329  33.178  35.895  1.00  0.00     0.148 A 
ATOM     85  C   UNL A   1      37.136  32.849  34.161  1.00  0.00     0.002 A 
ATOM     86  C   UNL A   1      38.025  33.123  36.395  1.00  0.00     0.091 A 
ATOM     87  F   UNL A   1      40.385  33.331  36.703  1.00  0.00    -0.205 F 
ATOM     88  C   UNL A   1      36.936  32.902  35.536  1.00  0.00     0.022 A 
BRANCH  86  89
ATOM     89  S   UNL A   1      37.696  33.207  38.161  1.00  0.00     0.127 S 
ATOM     90  O   UNL A   1      36.239  33.128  38.191  1.00  0.00    -0.237 OA
ATOM     91  O   UNL A   1      38.384  32.024  38.675  1.00  0.00    -0.237 OA
ATOM     92  O   UNL A   1      38.286  34.469  38.587  1.00  0.00    -0.744 OA
ENDBRANCH  86  89
ENDBRANCH  58  82
BRANCH  70  93
ATOM     93  C   UNL A   1      42.730  26.497  34.375  1.00  0.00     0.023 A 
ATOM     94  C   UNL A   1      41.707  25.946  35.171  1.00  0.00     0.012 A 
ATOM     95  C   UNL A   1      43.834  25.648  34.091  1.00  0.00     0.148 A 
ATOM     96  C   UNL A   1      41.798  24.659  35.716  1.00  0.00     0.002 A 
ATOM     97  C   UNL A   1      43.861  24.327  34.530  1.00  0.00     0.091 A 
ATOM     98  F   UNL A   1      44.883  26.122  33.405  1.00  0.00    -0.205 F 
ATOM     99  C   UNL A   1      42.864  23.839  35.375  1.00  0.00     0.022 A 
BRANCH  97 100
ATOM    100  S   UNL A   1      45.075  23.164  33.890  1.00  0.00     0.127 S 
ATOM    101  O   UNL A   1      44.677  21.919  34.540  1.00  0.00    -0.237 OA
ATOM    102  O   UNL A   1      44.824  23.206  32.448  1.00  0.00    -0.237 OA
ATOM    103  O   UNL A   1      46.367  23.713  34.283  1.00  0.00    -0.744 OA
ENDBRANCH  97 100
ENDBRANCH  70  93
ENDBRANCH  44  45
ENDBRANCH  36  39
ENDBRANCH  34  35
ENDBRANCH   1  34
TORSDOF 16
ENDMDL
MODEL 2
REMARK VINA RESULT:     -13.9      2.226      3.075
REMARK SMILES Cc1cccc(N2C(=O)/C(=C/c3ccc(C(=O)NCCCCNC(=O)c4ccc(-c5c6nc(c(-c7cccc(S(=O)(=O)[O-])c7F)c7ccc([nH]7)c(-c7cccc(S(=O)(=O)[O-])c7F)c7nc(c(-c8cccc(S(=O)(=O)[O-])c8F)c8ccc5[nH]8)C=C7)C=C6)cc4)cc3)c3ccccc3C2=O)c1
REMARK SMILES IDX 21 1 20 2 19 3 18 4 16 5 17 6 15 8 12 9 13 10 90 11 14 12
REMARK SMILES IDX 89 13 11 14 7 15 8 16 97 17 9 18 10 19 96 20 98 21 91 22
REMARK SMILES IDX 95 23 92 24 94 25 93 26 6 27 1 28 2 29 3 30 99 31 4 32 5 33
REMARK SMILES IDX 22 34 23 35 24 36 25 38 26 39 27 40 88 41 28 42 87 43 29 44
REMARK SMILES IDX 30 45 31 46 81 47 32 48 86 49 80 50 82 51 33 52 85 53 79 54
REMARK SMILES IDX 78 55 34 57 66 58 46 59 65 60 47 61 50 62 64 63 83 64 48 65
REMARK SMILES IDX 49 66 63 68 84 69 51 70 35 71 36 72 44 73 37 74 39 75 45 76
REMARK SMILES IDX 38 77 40 78 41 79 42 80 43 81 67 82 68 83 76 84 69 85 71 86
REMARK SMILES IDX 77 87 70 88 72 89 73 90 74 91 75 92 52 93 53 94 61 95 54 96
REMARK SMILES IDX 56 97 62 98 55 99 57 100 58 101 59 102 60 103
REMARK H PARENT 18 7 23 37 82 56 50 67
REMARK Flexibility Score: inf
ROOT
ATOM      1  C   UNL A   1      33.898  29.897  26.502  1.00  0.00     0.023 C 
ENDROOT
BRANCH   1   2
ATOM      2  C   UNL A   1      32.717  29.022  26.086  1.00  0.00     0.023 C 
BRANCH   2   3
ATOM      3  C   UNL A   1      32.513  28.833  24.578  1.00  0.00     0.116 C 
BRANCH   3   4
ATOM      4  N   UNL A   1      31.213  29.286  24.099  1.00  0.00    -0.352 N 
ATOM      5  C   UNL A   1      30.175  28.591  23.522  1.00  0.00     0.251 C 
ATOM      6  O   UNL A   1      29.199  29.191  23.081  1.00  0.00    -0.269 OA
ATOM      7  H   UNL A   1      31.049  30.251  24.207  1.00  0.00     0.163 HD
BRANCH   5   8
ATOM      8  C   UNL A   1      30.264  27.126  23.346  1.00  0.00     0.039 A 
ATOM      9  C   UNL A   1      30.869  24.412  23.156  1.00  0.00    -0.025 A 
ATOM     10  C   UNL A   1      31.220  25.280  22.116  1.00  0.00     0.009 A 
ATOM     11  C   UNL A   1      30.058  24.879  24.198  1.00  0.00     0.009 A 
ATOM     12  C   UNL A   1      30.918  26.639  22.211  1.00  0.00     0.014 A 
ATOM     13  C   UNL A   1      29.751  26.237  24.293  1.00  0.00     0.014 A 
BRANCH   9  14
ATOM     14  C   UNL A   1      31.405  23.046  23.145  1.00  0.00     0.022 C 
ATOM     15  N   UNL A   1      33.378  20.522  24.759  1.00  0.00    -0.242 N 
ATOM     16  C   UNL A   1      32.774  21.122  23.634  1.00  0.00     0.265 C 
ATOM     17  C   UNL A   1      33.749  21.290  25.887  1.00  0.00     0.265 C 
ATOM     18  O   UNL A   1      32.375  20.553  22.617  1.00  0.00    -0.268 OA
ATOM     19  C   UNL A   1      32.533  22.602  23.747  1.00  0.00     0.049 C 
ATOM     20  C   UNL A   1      33.997  22.737  25.678  1.00  0.00     0.048 A 
ATOM     21  O   UNL A   1      33.932  20.889  27.035  1.00  0.00    -0.268 OA
ATOM     22  C   UNL A   1      33.460  23.382  24.570  1.00  0.00    -0.000 A 
ATOM     23  C   UNL A   1      34.799  23.440  26.594  1.00  0.00     0.014 A 
ATOM     24  C   UNL A   1      33.832  24.714  24.322  1.00  0.00     0.010 A 
ATOM     25  C   UNL A   1      35.103  24.782  26.375  1.00  0.00     0.001 A 
ATOM     26  C   UNL A   1      34.635  25.413  25.228  1.00  0.00     0.001 A 
BRANCH  15  27
ATOM     27  C   UNL A   1      33.547  19.065  24.788  1.00  0.00     0.053 A 
ATOM     28  C   UNL A   1      31.685  15.952  26.065  1.00  0.00     0.044 C 
ATOM     29  C   UNL A   1      32.726  16.814  25.411  1.00  0.00    -0.049 A 
ATOM     30  C   UNL A   1      33.846  16.227  24.831  1.00  0.00     0.003 A 
ATOM     31  C   UNL A   1      32.580  18.214  25.366  1.00  0.00     0.030 A 
ATOM     32  C   UNL A   1      34.808  17.028  24.234  1.00  0.00     0.002 A 
ATOM     33  C   UNL A   1      34.661  18.421  24.222  1.00  0.00     0.027 A 
ENDBRANCH  15  27
ENDBRANCH   9  14
ENDBRANCH   5   8
ENDBRANCH   3   4
ENDBRANCH   2   3
ENDBRANCH   1   2
BRANCH   1  34
ATOM     34  C   UNL A   1      33.577  30.920  27.579  1.00  0.00     0.116 C 
BRANCH  34  35
ATOM     35  N   UNL A   1      34.562  31.969  27.726  1.00  0.00    -0.352 N 
ATOM     36  C   UNL A   1      35.832  31.916  28.273  1.00  0.00     0.251 C 
ATOM     37  H   UNL A   1      34.288  32.852  27.387  1.00  0.00     0.163 HD
ATOM     38  O   UNL A   1      36.376  32.992  28.532  1.00  0.00    -0.269 OA
BRANCH  36  39
ATOM     39  C   UNL A   1      36.580  30.633  28.406  1.00  0.00     0.039 A 
ATOM     40  C   UNL A   1      36.736  30.102  29.698  1.00  0.00     0.014 A 
ATOM     41  C   UNL A   1      37.315  30.084  27.361  1.00  0.00     0.014 A 
ATOM     42  C   UNL A   1      37.818  29.272  29.986  1.00  0.00     0.010 A 
ATOM     43  C   UNL A   1      38.426  29.330  27.647  1.00  0.00     0.010 A 
ATOM     44  C   UNL A   1      38.727  29.018  28.972  1.00  0.00    -0.014 A 
BRANCH  44  45
ATOM     45  C   UNL A   1      40.073  28.514  29.142  1.00  0.00     0.031 A 
ATOM     46  C   UNL A   1      40.340  27.076  28.985  1.00  0.00     0.074 A 
ATOM     47  C   UNL A   1      41.053  29.443  29.053  1.00  0.00     0.049 A 
ATOM     48  N   UNL A   1      41.489  26.535  29.187  1.00  0.00    -0.248 NA
ATOM     49  C   UNL A   1      39.306  26.120  28.596  1.00  0.00     0.031 C 
ATOM     50  C   UNL A   1      42.431  29.254  28.627  1.00  0.00     0.029 A 
ATOM     51  N   UNL A   1      41.017  30.781  29.471  1.00  0.00    -0.354 N 
ATOM     52  C   UNL A   1      41.438  25.279  28.626  1.00  0.00     0.074 A 
ATOM     53  C   UNL A   1      40.035  25.010  28.444  1.00  0.00     0.031 C 
ATOM     54  C   UNL A   1      43.161  30.300  29.052  1.00  0.00     0.029 A 
ATOM     55  C   UNL A   1      42.309  31.059  29.951  1.00  0.00     0.049 A 
ATOM     56  H   UNL A   1      40.249  31.396  29.435  1.00  0.00     0.167 HD
ATOM     57  C   UNL A   1      42.606  24.706  28.220  1.00  0.00     0.034 A 
ATOM     58  C   UNL A   1      42.571  31.287  31.275  1.00  0.00     0.034 A 
ATOM     59  C   UNL A   1      43.756  25.485  28.715  1.00  0.00     0.049 A 
ATOM     60  C   UNL A   1      43.530  30.261  31.870  1.00  0.00     0.074 A 
ATOM     61  C   UNL A   1      44.640  26.363  28.112  1.00  0.00     0.029 A 
ATOM     62  N   UNL A   1      43.929  25.640  30.089  1.00  0.00    -0.354 N 
ATOM     63  N   UNL A   1      43.929  29.185  31.248  1.00  0.00    -0.248 NA
ATOM     64  C   UNL A   1      44.103  30.356  33.210  1.00  0.00     0.031 C 
ATOM     65  C   UNL A   1      45.241  27.148  29.140  1.00  0.00     0.029 A 
ATOM     66  C   UNL A   1      44.767  26.711  30.366  1.00  0.00     0.049 A 
ATOM     67  H   UNL A   1      43.512  25.067  30.773  1.00  0.00     0.167 HD
ATOM     68  C   UNL A   1      44.661  28.392  32.088  1.00  0.00     0.074 A 
ATOM     69  C   UNL A   1      44.816  29.214  33.279  1.00  0.00     0.031 C 
ATOM     70  C   UNL A   1      45.015  27.109  31.754  1.00  0.00     0.034 A 
BRANCH  57  71
ATOM     71  C   UNL A   1      42.755  23.574  27.208  1.00  0.00     0.023 A 
ATOM     72  C   UNL A   1      41.701  22.632  27.140  1.00  0.00     0.012 A 
ATOM     73  C   UNL A   1      43.879  23.291  26.388  1.00  0.00     0.148 A 
ATOM     74  C   UNL A   1      41.760  21.486  26.336  1.00  0.00     0.002 A 
ATOM     75  C   UNL A   1      43.913  22.178  25.537  1.00  0.00     0.091 A 
ATOM     76  F   UNL A   1      44.978  24.039  26.466  1.00  0.00    -0.205 F 
ATOM     77  C   UNL A   1      42.861  21.263  25.523  1.00  0.00     0.022 A 
BRANCH  75  78
ATOM     78  S   UNL A   1      45.295  21.850  24.422  1.00  0.00     0.127 S 
ATOM     79  O   UNL A   1      46.348  21.439  25.349  1.00  0.00    -0.237 OA
ATOM     80  O   UNL A   1      44.770  20.772  23.582  1.00  0.00    -0.237 OA
ATOM     81  O   UNL A   1      45.554  23.095  23.708  1.00  0.00    -0.744 OA
ENDBRANCH  75  78
ENDBRANCH  57  71
BRANCH  58  82
ATOM     82  C   UNL A   1      41.432  31.941  31.994  1.00  0.00     0.023 A 
ATOM     83  C   UNL A   1      41.039  33.217  31.517  1.00  0.00     0.012 A 
ATOM     84  C   UNL A   1      40.513  31.192  32.751  1.00  0.00     0.148 A 
ATOM     85  C   UNL A   1      39.713  33.644  31.623  1.00  0.00     0.002 A 
ATOM     86  C   UNL A   1      39.194  31.634  32.866  1.00  0.00     0.091 A 
ATOM     87  F   UNL A   1      40.913  30.028  33.278  1.00  0.00    -0.205 F 
ATOM     88  C   UNL A   1      38.781  32.829  32.255  1.00  0.00     0.022 A 
BRANCH  86  89
ATOM     89  S   UNL A   1      37.942  30.638  33.688  1.00  0.00     0.127 S 
ATOM     90  O   UNL A   1      38.102  31.055  35.077  1.00  0.00    -0.237 OA
ATOM     91  O   UNL A   1      36.704  31.086  33.053  1.00  0.00    -0.237 OA
ATOM     92  O   UNL A   1      38.303  29.262  33.378  1.00  0.00    -0.744 OA
ENDBRANCH  86  89
ENDBRANCH  58  82
BRANCH  70  93
ATOM     93  C   UNL A   1      45.605  26.086  32.714  1.00  0.00     0.023 A 
ATOM     94  C   UNL A   1      46.988  25.837  32.799  1.00  0.00     0.012 A 
ATOM     95  C   UNL A   1      44.787  25.442  33.681  1.00  0.00     0.148 A 
ATOM     96  C   UNL A   1      47.528  24.948  33.737  1.00  0.00     0.002 A 
ATOM     97  C   UNL A   1      45.342  24.659  34.690  1.00  0.00     0.091 A 
ATOM     98  F   UNL A   1      43.454  25.567  33.620  1.00  0.00    -0.205 F 
ATOM     99  C   UNL A   1      46.709  24.378  34.699  1.00  0.00     0.022 A 
BRANCH  97 100
ATOM    100  S   UNL A   1      44.357  24.132  36.099  1.00  0.00     0.127 S 
ATOM    101  O   UNL A   1      43.932  25.408  36.669  1.00  0.00    -0.237 OA
ATOM    102  O   UNL A   1      43.285  23.361  35.466  1.00  0.00    -0.237 OA
ATOM    103  O   UNL A   1      45.262  23.330  36.914  1.00  0.00    -0.744 OA
ENDBRANCH  97 100
ENDBRANCH  70  93
ENDBRANCH  44  45
ENDBRANCH  36  39
ENDBRANCH  34  35
ENDBRANCH   1  34
TORSDOF 16
ENDMDL
MODEL 3
REMARK VINA RESULT:     -13.9      4.749      9.415
REMARK SMILES Cc1cccc(N2C(=O)/C(=C/c3ccc(C(=O)NCCCCNC(=O)c4ccc(-c5c6nc(c(-c7cccc(S(=O)(=O)[O-])c7F)c7ccc([nH]7)c(-c7cccc(S(=O)(=O)[O-])c7F)c7nc(c(-c8cccc(S(=O)(=O)[O-])c8F)c8ccc5[nH]8)C=C7)C=C6)cc4)cc3)c3ccccc3C2=O)c1
REMARK SMILES IDX 21 1 20 2 19 3 18 4 16 5 17 6 15 8 12 9 13 10 90 11 14 12
REMARK SMILES IDX 89 13 11 14 7 15 8 16 97 17 9 18 10 19 96 20 98 21 91 22
REMARK SMILES IDX 95 23 92 24 94 25 93 26 6 27 1 28 2 29 3 30 99 31 4 32 5 33
REMARK SMILES IDX 22 34 23 35 24 36 25 38 26 39 27 40 88 41 28 42 87 43 29 44
REMARK SMILES IDX 30 45 31 46 81 47 32 48 86 49 80 50 82 51 33 52 85 53 79 54
REMARK SMILES IDX 78 55 34 57 66 58 46 59 65 60 47 61 50 62 64 63 83 64 48 65
REMARK SMILES IDX 49 66 63 68 84 69 51 70 35 71 36 72 44 73 37 74 39 75 45 76
REMARK SMILES IDX 38 77 40 78 41 79 42 80 43 81 67 82 68 83 76 84 69 85 71 86
REMARK SMILES IDX 77 87 70 88 72 89 73 90 74 91 75 92 52 93 53 94 61 95 54 96
REMARK SMILES IDX 56 97 62 98 55 99 57 100 58 101 59 102 60 103
REMARK H PARENT 18 7 23 37 82 56 50 67
REMARK Flexibility Score: inf
ROOT
ATOM      1  C   UNL A   1      34.527  28.892  26.896  1.00  0.00     0.023 C 
ENDROOT
BRANCH   1   2
ATOM      2  C   UNL A   1      33.273  29.517  26.288  1.00  0.00     0.023 C 
BRANCH   2   3
ATOM      3  C   UNL A   1      32.906  29.057  24.872  1.00  0.00     0.116 C 
BRANCH   3   4
ATOM      4  N   UNL A   1      31.683  29.661  24.356  1.00  0.00    -0.352 N 
ATOM      5  C   UNL A   1      30.591  29.094  23.741  1.00  0.00     0.251 C 
ATOM      6  O   UNL A   1      29.706  29.805  23.274  1.00  0.00    -0.269 OA
ATOM      7  H   UNL A   1      31.630  30.638  24.466  1.00  0.00     0.163 HD
BRANCH   5   8
ATOM      8  C   UNL A   1      30.513  27.629  23.557  1.00  0.00     0.039 A 
ATOM      9  C   UNL A   1      30.817  24.869  23.317  1.00  0.00    -0.025 A 
ATOM     10  C   UNL A   1      31.174  25.707  22.254  1.00  0.00     0.009 A 
ATOM     11  C   UNL A   1      30.143  25.408  24.420  1.00  0.00     0.009 A 
ATOM     12  C   UNL A   1      31.023  27.088  22.373  1.00  0.00     0.014 A 
ATOM     13  C   UNL A   1      29.986  26.789  24.540  1.00  0.00     0.014 A 
BRANCH   9  14
ATOM     14  C   UNL A   1      31.206  23.455  23.262  1.00  0.00     0.022 C 
ATOM     15  N   UNL A   1      33.034  20.729  24.708  1.00  0.00    -0.242 N 
ATOM     16  C   UNL A   1      32.405  21.396  23.637  1.00  0.00     0.265 C 
ATOM     17  C   UNL A   1      33.575  21.445  25.801  1.00  0.00     0.265 C 
ATOM     18  O   UNL A   1      31.867  20.880  22.657  1.00  0.00    -0.268 OA
ATOM     19  C   UNL A   1      32.329  22.893  23.769  1.00  0.00     0.049 C 
ATOM     20  C   UNL A   1      33.953  22.861  25.572  1.00  0.00     0.048 A 
ATOM     21  O   UNL A   1      33.810  21.019  26.929  1.00  0.00    -0.268 OA
ATOM     22  C   UNL A   1      33.396  23.567  24.511  1.00  0.00    -0.000 A 
ATOM     23  C   UNL A   1      34.896  23.470  26.417  1.00  0.00     0.014 A 
ATOM     24  C   UNL A   1      33.882  24.854  24.232  1.00  0.00     0.010 A 
ATOM     25  C   UNL A   1      35.318  24.775  26.173  1.00  0.00     0.001 A 
ATOM     26  C   UNL A   1      34.825  25.460  25.068  1.00  0.00     0.001 A 
BRANCH  15  27
ATOM     27  C   UNL A   1      33.053  19.262  24.724  1.00  0.00     0.053 A 
ATOM     28  C   UNL A   1      34.590  16.359  22.725  1.00  0.00     0.044 C 
ATOM     29  C   UNL A   1      33.816  17.108  23.770  1.00  0.00    -0.049 A 
ATOM     30  C   UNL A   1      33.123  16.408  24.753  1.00  0.00     0.003 A 
ATOM     31  C   UNL A   1      33.791  18.517  23.778  1.00  0.00     0.030 A 
ATOM     32  C   UNL A   1      32.404  17.106  25.712  1.00  0.00     0.002 A 
ATOM     33  C   UNL A   1      32.367  18.506  25.690  1.00  0.00     0.027 A 
ENDBRANCH  15  27
ENDBRANCH   9  14
ENDBRANCH   5   8
ENDBRANCH   3   4
ENDBRANCH   2   3
ENDBRANCH   1   2
BRANCH   1  34
ATOM     34  C   UNL A   1      35.455  29.880  27.583  1.00  0.00     0.116 C 
BRANCH  34  35
ATOM     35  N   UNL A   1      34.796  31.049  28.122  1.00  0.00    -0.352 N 
ATOM     36  C   UNL A   1      35.248  31.964  29.056  1.00  0.00     0.251 C 
ATOM     37  H   UNL A   1      33.891  31.219  27.774  1.00  0.00     0.163 HD
ATOM     38  O   UNL A   1      34.409  32.718  29.555  1.00  0.00    -0.269 OA
BRANCH  36  39
ATOM     39  C   UNL A   1      36.701  32.147  29.341  1.00  0.00     0.039 A 
ATOM     40  C   UNL A   1      37.353  31.136  30.067  1.00  0.00     0.014 A 
ATOM     41  C   UNL A   1      37.357  33.355  29.133  1.00  0.00     0.014 A 
ATOM     42  C   UNL A   1      38.484  31.438  30.824  1.00  0.00     0.010 A 
ATOM     43  C   UNL A   1      38.424  33.684  29.932  1.00  0.00     0.010 A 
ATOM     44  C   UNL A   1      38.912  32.755  30.849  1.00  0.00    -0.014 A 
BRANCH  44  45
ATOM     45  C   UNL A   1      39.801  33.343  31.830  1.00  0.00     0.031 A 
ATOM     46  C   UNL A   1      39.242  33.978  33.033  1.00  0.00     0.074 A 
ATOM     47  C   UNL A   1      41.087  32.929  31.763  1.00  0.00     0.049 A 
ATOM     48  N   UNL A   1      39.953  34.584  33.918  1.00  0.00    -0.248 NA
ATOM     49  C   UNL A   1      37.812  33.991  33.327  1.00  0.00     0.031 C 
ATOM     50  C   UNL A   1      42.061  32.854  32.841  1.00  0.00     0.029 A 
ATOM     51  N   UNL A   1      41.832  32.599  30.622  1.00  0.00    -0.354 N 
ATOM     52  C   UNL A   1      39.154  34.740  35.028  1.00  0.00     0.074 A 
ATOM     53  C   UNL A   1      37.812  34.528  34.551  1.00  0.00     0.031 C 
ATOM     54  C   UNL A   1      43.292  32.784  32.305  1.00  0.00     0.029 A 
ATOM     55  C   UNL A   1      43.139  33.043  30.885  1.00  0.00     0.049 A 
ATOM     56  H   UNL A   1      41.507  32.149  29.808  1.00  0.00     0.167 HD
ATOM     57  C   UNL A   1      39.755  34.847  36.246  1.00  0.00     0.034 A 
ATOM     58  C   UNL A   1      43.712  34.089  30.212  1.00  0.00     0.034 A 
ATOM     59  C   UNL A   1      41.209  35.030  36.083  1.00  0.00     0.049 A 
ATOM     60  C   UNL A   1      44.081  35.249  31.131  1.00  0.00     0.074 A 
ATOM     61  C   UNL A   1      42.298  34.193  36.256  1.00  0.00     0.029 A 
ATOM     62  N   UNL A   1      41.679  36.142  35.387  1.00  0.00    -0.354 N 
ATOM     63  N   UNL A   1      43.740  35.323  32.389  1.00  0.00    -0.248 NA
ATOM     64  C   UNL A   1      44.847  36.419  30.708  1.00  0.00     0.031 C 
ATOM     65  C   UNL A   1      43.393  34.750  35.530  1.00  0.00     0.029 A 
ATOM     66  C   UNL A   1      42.987  35.949  34.966  1.00  0.00     0.049 A 
ATOM     67  H   UNL A   1      41.153  36.957  35.216  1.00  0.00     0.167 HD
ATOM     68  C   UNL A   1      44.084  36.542  32.906  1.00  0.00     0.074 A 
ATOM     69  C   UNL A   1      44.856  37.156  31.835  1.00  0.00     0.031 C 
ATOM     70  C   UNL A   1      43.649  36.960  34.138  1.00  0.00     0.034 A 
BRANCH  57  71
ATOM     71  C   UNL A   1      39.107  34.584  37.602  1.00  0.00     0.023 A 
ATOM     72  C   UNL A   1      39.435  35.474  38.652  1.00  0.00     0.012 A 
ATOM     73  C   UNL A   1      38.286  33.485  37.969  1.00  0.00     0.148 A 
ATOM     74  C   UNL A   1      38.999  35.284  39.971  1.00  0.00     0.002 A 
ATOM     75  C   UNL A   1      37.799  33.328  39.273  1.00  0.00     0.091 A 
ATOM     76  F   UNL A   1      38.019  32.519  37.091  1.00  0.00    -0.205 F 
ATOM     77  C   UNL A   1      38.169  34.217  40.280  1.00  0.00     0.022 A 
BRANCH  75  78
ATOM     78  S   UNL A   1      36.681  31.987  39.737  1.00  0.00     0.127 S 
ATOM     79  O   UNL A   1      36.532  32.195  41.177  1.00  0.00    -0.237 OA
ATOM     80  O   UNL A   1      35.485  32.291  38.952  1.00  0.00    -0.237 OA
ATOM     81  O   UNL A   1      37.347  30.746  39.360  1.00  0.00    -0.744 OA
ENDBRANCH  75  78
ENDBRANCH  57  71
BRANCH  58  82
ATOM     82  C   UNL A   1      43.234  34.209  28.799  1.00  0.00     0.023 A 
ATOM     83  C   UNL A   1      42.304  35.247  28.537  1.00  0.00     0.012 A 
ATOM     84  C   UNL A   1      43.974  33.680  27.725  1.00  0.00     0.148 A 
ATOM     85  C   UNL A   1      42.256  35.867  27.286  1.00  0.00     0.002 A 
ATOM     86  C   UNL A   1      43.908  34.297  26.474  1.00  0.00     0.091 A 
ATOM     87  F   UNL A   1      44.786  32.641  27.956  1.00  0.00    -0.205 F 
ATOM     88  C   UNL A   1      43.094  35.423  26.270  1.00  0.00     0.022 A 
BRANCH  86  89
ATOM     89  S   UNL A   1      44.951  33.759  25.110  1.00  0.00     0.127 S 
ATOM     90  O   UNL A   1      44.779  32.310  25.166  1.00  0.00    -0.237 OA
ATOM     91  O   UNL A   1      44.331  34.405  23.955  1.00  0.00    -0.237 OA
ATOM     92  O   UNL A   1      46.275  34.268  25.435  1.00  0.00    -0.744 OA
ENDBRANCH  86  89
ENDBRANCH  58  82
BRANCH  70  93
ATOM     93  C   UNL A   1      43.776  38.377  34.677  1.00  0.00     0.023 A 
ATOM     94  C   UNL A   1      44.394  38.667  35.908  1.00  0.00     0.012 A 
ATOM     95  C   UNL A   1      43.407  39.493  33.878  1.00  0.00     0.148 A 
ATOM     96  C   UNL A   1      44.573  39.980  36.361  1.00  0.00     0.002 A 
ATOM     97  C   UNL A   1      43.701  40.794  34.276  1.00  0.00     0.091 A 
ATOM     98  F   UNL A   1      42.745  39.303  32.728  1.00  0.00    -0.205 F 
ATOM     99  C   UNL A   1      44.250  41.045  35.534  1.00  0.00     0.022 A 
BRANCH  97 100
ATOM    100  S   UNL A   1      43.548  42.170  33.126  1.00  0.00     0.127 S 
ATOM    101  O   UNL A   1      43.977  43.300  33.945  1.00  0.00    -0.237 OA
ATOM    102  O   UNL A   1      44.484  41.798  32.063  1.00  0.00    -0.237 OA
ATOM    103  O   UNL A   1      42.150  42.163  32.714  1.00  0.00    -0.744 OA
ENDBRANCH  97 100
ENDBRANCH  70  93
ENDBRANCH  44  45
ENDBRANCH  36  39
ENDBRANCH  34  35
ENDBRANCH   1  34
TORSDOF 16
ENDMDL
