MODEL 1
REMARK VINA RESULT:     -11.6      0.000      0.000
REMARK SMILES COc1ccc(N2C[C@@H](C)Cn3c2nc2c3c(=O)n(CC(=O)NCCCCNC(=O)c3ccc(-c4c5nc(c(-c6cccc(S(=O)(=O)[O-])c6F)c6ccc([nH]6)c(-c6cccc(S(=O)(=O)[O-])c6F)c6nc(c(-c7cccc(S(=O)(=O)[O-])c7F)c7ccc4[nH]7)C=C6)C=C5)cc3)c(=O)n2C)cc1
REMARK SMILES IDX 25 1 24 2 23 3 21 4 22 5 20 7 19 8 7 9 8 10 13 11 9 12 12 13
REMARK SMILES IDX 14 14 11 15 10 16 16 17 15 18 17 19 96 20 18 21 94 22 97 23
REMARK SMILES IDX 95 24 6 25 3 26 4 27 99 28 5 29 98 30 2 31 1 32 26 33 27 34
REMARK SMILES IDX 28 35 29 36 30 38 31 39 32 40 93 41 33 42 92 43 34 44 35 45
REMARK SMILES IDX 36 46 86 47 37 48 91 49 85 50 87 51 38 52 90 53 84 54 83 55
REMARK SMILES IDX 39 57 71 58 51 59 70 60 52 61 55 62 69 63 88 64 53 65 54 66
REMARK SMILES IDX 68 68 89 69 56 70 40 71 41 72 49 73 42 74 44 75 50 76 43 77
REMARK SMILES IDX 45 78 46 79 47 80 48 81 72 82 73 83 81 84 74 85 76 86 82 87
REMARK SMILES IDX 75 88 77 89 78 90 79 91 80 92 57 93 58 94 66 95 59 96 61 97
REMARK SMILES IDX 67 98 60 99 62 100 63 101 64 102 65 103
REMARK H PARENT 23 6 28 37 87 56 55 67
REMARK Flexibility Score: inf
ROOT
ATOM      1  C   UNL A   1      43.257  39.479  27.284  1.00  0.00     0.023 C 
ENDROOT
BRANCH   1   2
ATOM      2  C   UNL A   1      42.968  40.430  26.123  1.00  0.00     0.116 C 
BRANCH   2   3
ATOM      3  N   UNL A   1      43.505  41.757  26.359  1.00  0.00    -0.355 N 
ATOM      4  C   UNL A   1      44.378  42.501  25.623  1.00  0.00     0.240 C 
ATOM      5  O   UNL A   1      44.511  43.691  25.926  1.00  0.00    -0.273 OA
ATOM      6  H   UNL A   1      43.187  42.189  27.184  1.00  0.00     0.163 HD
BRANCH   4   7
ATOM      7  C   UNL A   1      45.107  41.926  24.403  1.00  0.00     0.230 C 
BRANCH   7   8
ATOM      8  N   UNL A   1      45.289  42.902  23.335  1.00  0.00    -0.249 N 
ATOM      9  N   UNL A   1      43.842  45.922  18.584  1.00  0.00    -0.312 N 
ATOM     10  C   UNL A   1      42.754  45.196  17.913  1.00  0.00     0.131 C 
ATOM     11  C   UNL A   1      44.433  45.345  19.669  1.00  0.00     0.212 A 
ATOM     12  C   UNL A   1      41.740  44.741  18.963  1.00  0.00     0.026 C 
ATOM     13  N   UNL A   1      43.762  44.324  20.319  1.00  0.00    -0.304 N 
ATOM     14  N   UNL A   1      45.561  45.618  20.305  1.00  0.00    -0.194 NA
ATOM     15  C   UNL A   1      42.452  43.820  19.955  1.00  0.00     0.131 C 
ATOM     16  C   UNL A   1      40.543  44.043  18.328  1.00  0.00     0.011 C 
ATOM     17  C   UNL A   1      44.525  43.917  21.366  1.00  0.00     0.154 A 
ATOM     18  C   UNL A   1      45.608  44.735  21.348  1.00  0.00     0.170 A 
ATOM     19  C   UNL A   1      44.323  42.891  22.326  1.00  0.00     0.283 A 
ATOM     20  N   UNL A   1      46.604  44.610  22.289  1.00  0.00    -0.279 N 
ATOM     21  O   UNL A   1      43.412  42.084  22.244  1.00  0.00    -0.267 OA
ATOM     22  C   UNL A   1      46.483  43.643  23.292  1.00  0.00     0.332 A 
ATOM     23  C   UNL A   1      47.776  45.465  22.236  1.00  0.00     0.157 C 
ATOM     24  O   UNL A   1      47.394  43.435  24.099  1.00  0.00    -0.247 OA
BRANCH   9  25
ATOM     25  C   UNL A   1      44.215  47.153  18.013  1.00  0.00     0.044 A 
ATOM     26  C   UNL A   1      45.073  49.615  16.917  1.00  0.00     0.119 A 
ATOM     27  C   UNL A   1      45.760  48.443  16.622  1.00  0.00     0.048 A 
ATOM     28  C   UNL A   1      43.930  49.560  17.714  1.00  0.00     0.048 A 
ATOM     29  C   UNL A   1      45.340  47.231  17.173  1.00  0.00     0.030 A 
ATOM     30  C   UNL A   1      43.500  48.334  18.247  1.00  0.00     0.030 A 
BRANCH  26  31
ATOM     31  O   UNL A   1      45.546  50.751  16.321  1.00  0.00    -0.497 OA
ATOM     32  C   UNL A   1      46.937  50.709  16.022  1.00  0.00     0.278 C 
ENDBRANCH  26  31
ENDBRANCH   9  25
ENDBRANCH   7   8
ENDBRANCH   4   7
ENDBRANCH   2   3
ENDBRANCH   1   2
BRANCH   1  33
ATOM     33  C   UNL A   1      43.431  37.998  26.886  1.00  0.00     0.023 C 
BRANCH  33  34
ATOM     34  C   UNL A   1      44.791  37.356  27.228  1.00  0.00     0.116 C 
BRANCH  34  35
ATOM     35  N   UNL A   1      45.283  36.572  26.107  1.00  0.00    -0.352 N 
ATOM     36  C   UNL A   1      45.673  35.265  25.995  1.00  0.00     0.251 C 
ATOM     37  H   UNL A   1      45.350  37.080  25.266  1.00  0.00     0.163 HD
ATOM     38  O   UNL A   1      46.361  34.975  25.014  1.00  0.00    -0.269 OA
BRANCH  36  39
ATOM     39  C   UNL A   1      45.316  34.193  26.961  1.00  0.00     0.039 A 
ATOM     40  C   UNL A   1      46.218  33.966  28.013  1.00  0.00     0.014 A 
ATOM     41  C   UNL A   1      44.250  33.309  26.783  1.00  0.00     0.014 A 
ATOM     42  C   UNL A   1      46.054  32.884  28.883  1.00  0.00     0.010 A 
ATOM     43  C   UNL A   1      44.084  32.221  27.663  1.00  0.00     0.010 A 
ATOM     44  C   UNL A   1      44.978  32.004  28.724  1.00  0.00    -0.014 A 
BRANCH  44  45
ATOM     45  C   UNL A   1      44.752  30.992  29.788  1.00  0.00     0.031 A 
ATOM     46  C   UNL A   1      43.396  31.053  30.423  1.00  0.00     0.074 A 
ATOM     47  C   UNL A   1      45.470  29.849  29.892  1.00  0.00     0.049 A 
ATOM     48  N   UNL A   1      42.350  30.483  29.903  1.00  0.00    -0.248 NA
ATOM     49  C   UNL A   1      43.080  31.974  31.514  1.00  0.00     0.031 C 
ATOM     50  C   UNL A   1      45.921  29.080  28.724  1.00  0.00     0.029 A 
ATOM     51  N   UNL A   1      45.709  29.006  30.962  1.00  0.00    -0.354 N 
ATOM     52  C   UNL A   1      41.231  30.996  30.541  1.00  0.00     0.074 A 
ATOM     53  C   UNL A   1      41.737  31.911  31.543  1.00  0.00     0.031 C 
ATOM     54  C   UNL A   1      46.216  27.823  29.121  1.00  0.00     0.029 A 
ATOM     55  C   UNL A   1      46.125  27.725  30.580  1.00  0.00     0.049 A 
ATOM     56  H   UNL A   1      45.597  29.279  31.901  1.00  0.00     0.167 HD
ATOM     57  C   UNL A   1      39.961  30.637  30.204  1.00  0.00     0.034 A 
ATOM     58  C   UNL A   1      45.824  26.574  31.251  1.00  0.00     0.034 A 
ATOM     59  C   UNL A   1      39.863  29.657  29.158  1.00  0.00     0.049 A 
ATOM     60  C   UNL A   1      44.351  26.449  30.964  1.00  0.00     0.074 A 
ATOM     61  C   UNL A   1      39.601  29.633  27.806  1.00  0.00     0.029 A 
ATOM     62  N   UNL A   1      40.142  28.348  29.472  1.00  0.00    -0.354 N 
ATOM     63  N   UNL A   1      43.823  26.046  29.840  1.00  0.00    -0.248 NA
ATOM     64  C   UNL A   1      43.440  27.179  31.845  1.00  0.00     0.031 C 
ATOM     65  C   UNL A   1      40.204  28.426  27.320  1.00  0.00     0.029 A 
ATOM     66  C   UNL A   1      40.818  27.805  28.407  1.00  0.00     0.049 A 
ATOM     67  H   UNL A   1      39.903  27.886  30.306  1.00  0.00     0.167 HD
ATOM     68  C   UNL A   1      42.611  26.733  29.736  1.00  0.00     0.074 A 
ATOM     69  C   UNL A   1      42.431  27.398  31.012  1.00  0.00     0.031 C 
ATOM     70  C   UNL A   1      41.908  26.868  28.571  1.00  0.00     0.034 A 
BRANCH  57  71
ATOM     71  C   UNL A   1      38.732  31.025  30.942  1.00  0.00     0.023 A 
ATOM     72  C   UNL A   1      38.522  30.376  32.177  1.00  0.00     0.012 A 
ATOM     73  C   UNL A   1      37.699  31.801  30.388  1.00  0.00     0.148 A 
ATOM     74  C   UNL A   1      37.294  30.444  32.826  1.00  0.00     0.002 A 
ATOM     75  C   UNL A   1      36.472  31.873  31.049  1.00  0.00     0.091 A 
ATOM     76  F   UNL A   1      37.910  32.408  29.211  1.00  0.00    -0.205 F 
ATOM     77  C   UNL A   1      36.266  31.184  32.258  1.00  0.00     0.022 A 
BRANCH  75  78
ATOM     78  S   UNL A   1      35.057  32.791  30.422  1.00  0.00     0.127 S 
ATOM     79  O   UNL A   1      35.661  34.073  30.061  1.00  0.00    -0.237 OA
ATOM     80  O   UNL A   1      34.647  31.969  29.283  1.00  0.00    -0.237 OA
ATOM     81  O   UNL A   1      34.095  32.839  31.514  1.00  0.00    -0.744 OA
ENDBRANCH  75  78
ENDBRANCH  57  71
BRANCH  58  82
ATOM     82  C   UNL A   1      46.409  26.395  32.626  1.00  0.00     0.023 A 
ATOM     83  C   UNL A   1      47.217  27.446  33.121  1.00  0.00     0.012 A 
ATOM     84  C   UNL A   1      46.247  25.265  33.457  1.00  0.00     0.148 A 
ATOM     85  C   UNL A   1      47.744  27.429  34.416  1.00  0.00     0.002 A 
ATOM     86  C   UNL A   1      46.711  25.282  34.774  1.00  0.00     0.091 A 
ATOM     87  F   UNL A   1      45.657  24.172  32.963  1.00  0.00    -0.205 F 
ATOM     88  C   UNL A   1      47.457  26.363  35.257  1.00  0.00     0.022 A 
BRANCH  86  89
ATOM     89  S   UNL A   1      46.307  23.992  35.962  1.00  0.00     0.127 S 
ATOM     90  O   UNL A   1      44.846  23.996  35.933  1.00  0.00    -0.237 OA
ATOM     91  O   UNL A   1      46.933  22.823  35.344  1.00  0.00    -0.237 OA
ATOM     92  O   UNL A   1      46.904  24.411  37.223  1.00  0.00    -0.744 OA
ENDBRANCH  86  89
ENDBRANCH  58  82
BRANCH  70  93
ATOM     93  C   UNL A   1      42.450  26.130  27.380  1.00  0.00     0.023 A 
ATOM     94  C   UNL A   1      43.305  26.810  26.490  1.00  0.00     0.012 A 
ATOM     95  C   UNL A   1      42.167  24.767  27.143  1.00  0.00     0.148 A 
ATOM     96  C   UNL A   1      43.879  26.153  25.403  1.00  0.00     0.002 A 
ATOM     97  C   UNL A   1      42.778  24.105  26.082  1.00  0.00     0.091 A 
ATOM     98  F   UNL A   1      41.310  24.132  27.957  1.00  0.00    -0.205 F 
ATOM     99  C   UNL A   1      43.629  24.799  25.208  1.00  0.00     0.022 A 
BRANCH  97 100
ATOM    100  S   UNL A   1      42.581  22.344  25.781  1.00  0.00     0.127 S 
ATOM    101  O   UNL A   1      43.300  22.166  24.518  1.00  0.00    -0.237 OA
ATOM    102  O   UNL A   1      43.250  21.763  26.946  1.00  0.00    -0.237 OA
ATOM    103  O   UNL A   1      41.149  22.094  25.713  1.00  0.00    -0.744 OA
ENDBRANCH  97 100
ENDBRANCH  70  93
ENDBRANCH  44  45
ENDBRANCH  36  39
ENDBRANCH  34  35
ENDBRANCH  33  34
ENDBRANCH   1  33
TORSDOF 17
ENDMDL
MODEL 2
REMARK VINA RESULT:     -11.6      8.376     21.255
REMARK SMILES COc1ccc(N2C[C@@H](C)Cn3c2nc2c3c(=O)n(CC(=O)NCCCCNC(=O)c3ccc(-c4c5nc(c(-c6cccc(S(=O)(=O)[O-])c6F)c6ccc([nH]6)c(-c6cccc(S(=O)(=O)[O-])c6F)c6nc(c(-c7cccc(S(=O)(=O)[O-])c7F)c7ccc4[nH]7)C=C6)C=C5)cc3)c(=O)n2C)cc1
REMARK SMILES IDX 25 1 24 2 23 3 21 4 22 5 20 7 19 8 7 9 8 10 13 11 9 12 12 13
REMARK SMILES IDX 14 14 11 15 10 16 16 17 15 18 17 19 96 20 18 21 94 22 97 23
REMARK SMILES IDX 95 24 6 25 3 26 4 27 99 28 5 29 98 30 2 31 1 32 26 33 27 34
REMARK SMILES IDX 28 35 29 36 30 38 31 39 32 40 93 41 33 42 92 43 34 44 35 45
REMARK SMILES IDX 36 46 86 47 37 48 91 49 85 50 87 51 38 52 90 53 84 54 83 55
REMARK SMILES IDX 39 57 71 58 51 59 70 60 52 61 55 62 69 63 88 64 53 65 54 66
REMARK SMILES IDX 68 68 89 69 56 70 40 71 41 72 49 73 42 74 44 75 50 76 43 77
REMARK SMILES IDX 45 78 46 79 47 80 48 81 72 82 73 83 81 84 74 85 76 86 82 87
REMARK SMILES IDX 75 88 77 89 78 90 79 91 80 92 57 93 58 94 66 95 59 96 61 97
REMARK SMILES IDX 67 98 60 99 62 100 63 101 64 102 65 103
REMARK H PARENT 23 6 28 37 87 56 55 67
REMARK Flexibility Score: inf
ROOT
ATOM      1  C   UNL A   1      48.089  21.012  34.775  1.00  0.00     0.023 C 
ENDROOT
BRANCH   1   2
ATOM      2  C   UNL A   1      49.576  21.326  34.936  1.00  0.00     0.116 C 
BRANCH   2   3
ATOM      3  N   UNL A   1      50.286  20.261  35.618  1.00  0.00    -0.355 N 
ATOM      4  C   UNL A   1      50.355  19.950  36.943  1.00  0.00     0.240 C 
ATOM      5  O   UNL A   1      50.851  18.862  37.250  1.00  0.00    -0.273 OA
ATOM      6  H   UNL A   1      50.802  19.665  35.027  1.00  0.00     0.163 HD
BRANCH   4   7
ATOM      7  C   UNL A   1      49.761  20.863  38.022  1.00  0.00     0.230 C 
BRANCH   7   8
ATOM      8  N   UNL A   1      49.190  20.124  39.143  1.00  0.00    -0.249 N 
ATOM      9  N   UNL A   1      45.442  16.581  41.824  1.00  0.00    -0.312 N 
ATOM     10  C   UNL A   1      44.239  16.493  40.983  1.00  0.00     0.131 C 
ATOM     11  C   UNL A   1      46.425  17.452  41.457  1.00  0.00     0.212 A 
ATOM     12  C   UNL A   1      44.663  16.321  39.524  1.00  0.00     0.026 C 
ATOM     13  N   UNL A   1      46.440  17.917  40.154  1.00  0.00    -0.304 N 
ATOM     14  N   UNL A   1      47.469  17.928  42.117  1.00  0.00    -0.194 NA
ATOM     15  C   UNL A   1      45.499  17.536  39.119  1.00  0.00     0.131 C 
ATOM     16  C   UNL A   1      43.463  16.149  38.601  1.00  0.00     0.011 C 
ATOM     17  C   UNL A   1      47.504  18.750  40.016  1.00  0.00     0.154 A 
ATOM     18  C   UNL A   1      48.127  18.724  41.222  1.00  0.00     0.170 A 
ATOM     19  C   UNL A   1      47.957  19.512  38.907  1.00  0.00     0.283 A 
ATOM     20  N   UNL A   1      49.269  19.460  41.444  1.00  0.00    -0.279 N 
ATOM     21  O   UNL A   1      47.309  19.625  37.878  1.00  0.00    -0.267 OA
ATOM     22  C   UNL A   1      49.806  20.224  40.402  1.00  0.00     0.332 A 
ATOM     23  C   UNL A   1      49.903  19.454  42.749  1.00  0.00     0.157 C 
ATOM     24  O   UNL A   1      50.773  20.970  40.584  1.00  0.00    -0.247 OA
BRANCH   9  25
ATOM     25  C   UNL A   1      45.457  15.775  42.977  1.00  0.00     0.044 A 
ATOM     26  C   UNL A   1      45.541  14.067  45.230  1.00  0.00     0.119 A 
ATOM     27  C   UNL A   1      46.718  14.427  44.583  1.00  0.00     0.048 A 
ATOM     28  C   UNL A   1      44.327  14.595  44.792  1.00  0.00     0.048 A 
ATOM     29  C   UNL A   1      46.672  15.262  43.464  1.00  0.00     0.030 A 
ATOM     30  C   UNL A   1      44.290  15.452  43.680  1.00  0.00     0.030 A 
BRANCH  26  31
ATOM     31  O   UNL A   1      45.684  13.260  46.324  1.00  0.00    -0.497 OA
ATOM     32  C   UNL A   1      44.751  12.186  46.375  1.00  0.00     0.278 C 
ENDBRANCH  26  31
ENDBRANCH   9  25
ENDBRANCH   7   8
ENDBRANCH   4   7
ENDBRANCH   2   3
ENDBRANCH   1   2
BRANCH   1  33
ATOM     33  C   UNL A   1      47.164  22.247  34.717  1.00  0.00     0.023 C 
BRANCH  33  34
ATOM     34  C   UNL A   1      46.718  22.828  36.075  1.00  0.00     0.116 C 
BRANCH  34  35
ATOM     35  N   UNL A   1      45.268  22.871  36.160  1.00  0.00    -0.352 N 
ATOM     36  C   UNL A   1      44.338  23.737  35.651  1.00  0.00     0.251 C 
ATOM     37  H   UNL A   1      44.879  22.136  36.689  1.00  0.00     0.163 HD
ATOM     38  O   UNL A   1      43.220  23.717  36.170  1.00  0.00    -0.269 OA
BRANCH  36  39
ATOM     39  C   UNL A   1      44.587  24.676  34.526  1.00  0.00     0.039 A 
ATOM     40  C   UNL A   1      44.262  24.220  33.239  1.00  0.00     0.014 A 
ATOM     41  C   UNL A   1      45.270  25.887  34.661  1.00  0.00     0.014 A 
ATOM     42  C   UNL A   1      44.598  24.963  32.103  1.00  0.00     0.010 A 
ATOM     43  C   UNL A   1      45.605  26.636  33.516  1.00  0.00     0.010 A 
ATOM     44  C   UNL A   1      45.265  26.186  32.230  1.00  0.00    -0.014 A 
BRANCH  44  45
ATOM     45  C   UNL A   1      45.424  27.014  31.007  1.00  0.00     0.031 A 
ATOM     46  C   UNL A   1      45.554  26.227  29.738  1.00  0.00     0.074 A 
ATOM     47  C   UNL A   1      45.045  28.312  30.933  1.00  0.00     0.049 A 
ATOM     48  N   UNL A   1      44.527  25.772  29.084  1.00  0.00    -0.248 NA
ATOM     49  C   UNL A   1      46.830  25.675  29.283  1.00  0.00     0.031 C 
ATOM     50  C   UNL A   1      43.838  28.830  31.591  1.00  0.00     0.029 A 
ATOM     51  N   UNL A   1      45.438  29.340  30.096  1.00  0.00    -0.354 N 
ATOM     52  C   UNL A   1      44.990  24.836  28.173  1.00  0.00     0.074 A 
ATOM     53  C   UNL A   1      46.430  24.819  28.326  1.00  0.00     0.031 C 
ATOM     54  C   UNL A   1      43.494  29.999  31.008  1.00  0.00     0.029 A 
ATOM     55  C   UNL A   1      44.523  30.398  30.043  1.00  0.00     0.049 A 
ATOM     56  H   UNL A   1      46.280  29.330  29.586  1.00  0.00     0.167 HD
ATOM     57  C   UNL A   1      44.161  24.133  27.352  1.00  0.00     0.034 A 
ATOM     58  C   UNL A   1      44.279  31.165  28.939  1.00  0.00     0.034 A 
ATOM     59  C   UNL A   1      42.767  24.458  27.473  1.00  0.00     0.049 A 
ATOM     60  C   UNL A   1      43.566  30.178  28.053  1.00  0.00     0.074 A 
ATOM     61  C   UNL A   1      41.647  23.933  28.081  1.00  0.00     0.029 A 
ATOM     62  N   UNL A   1      42.326  25.630  26.905  1.00  0.00    -0.354 N 
ATOM     63  N   UNL A   1      42.324  29.796  28.181  1.00  0.00    -0.248 NA
ATOM     64  C   UNL A   1      44.399  29.299  27.235  1.00  0.00     0.031 C 
ATOM     65  C   UNL A   1      40.749  25.039  28.248  1.00  0.00     0.029 A 
ATOM     66  C   UNL A   1      41.392  26.172  27.754  1.00  0.00     0.049 A 
ATOM     67  H   UNL A   1      42.624  26.009  26.048  1.00  0.00     0.167 HD
ATOM     68  C   UNL A   1      42.296  28.477  27.720  1.00  0.00     0.074 A 
ATOM     69  C   UNL A   1      43.603  28.243  27.136  1.00  0.00     0.031 C 
ATOM     70  C   UNL A   1      41.285  27.596  27.987  1.00  0.00     0.034 A 
BRANCH  57  71
ATOM     71  C   UNL A   1      44.596  23.236  26.252  1.00  0.00     0.023 A 
ATOM     72  C   UNL A   1      45.183  23.867  25.135  1.00  0.00     0.012 A 
ATOM     73  C   UNL A   1      44.258  21.873  26.173  1.00  0.00     0.148 A 
ATOM     74  C   UNL A   1      45.379  23.180  23.941  1.00  0.00     0.002 A 
ATOM     75  C   UNL A   1      44.467  21.187  24.976  1.00  0.00     0.091 A 
ATOM     76  F   UNL A   1      43.696  21.287  27.241  1.00  0.00    -0.205 F 
ATOM     77  C   UNL A   1      45.013  21.844  23.858  1.00  0.00     0.022 A 
BRANCH  75  78
ATOM     78  S   UNL A   1      44.033  19.458  24.733  1.00  0.00     0.127 S 
ATOM     79  O   UNL A   1      44.349  19.260  23.319  1.00  0.00    -0.237 OA
ATOM     80  O   UNL A   1      44.944  18.786  25.661  1.00  0.00    -0.237 OA
ATOM     81  O   UNL A   1      42.623  19.347  25.079  1.00  0.00    -0.744 OA
ENDBRANCH  75  78
ENDBRANCH  57  71
BRANCH  58  82
ATOM     82  C   UNL A   1      45.390  32.053  28.448  1.00  0.00     0.023 A 
ATOM     83  C   UNL A   1      46.661  31.881  29.047  1.00  0.00     0.012 A 
ATOM     84  C   UNL A   1      45.276  33.059  27.465  1.00  0.00     0.148 A 
ATOM     85  C   UNL A   1      47.786  32.589  28.614  1.00  0.00     0.002 A 
ATOM     86  C   UNL A   1      46.413  33.711  26.983  1.00  0.00     0.091 A 
ATOM     87  F   UNL A   1      44.064  33.391  27.009  1.00  0.00    -0.205 F 
ATOM     88  C   UNL A   1      47.669  33.476  27.554  1.00  0.00     0.022 A 
BRANCH  86  89
ATOM     89  S   UNL A   1      46.374  34.804  25.554  1.00  0.00     0.127 S 
ATOM     90  O   UNL A   1      45.990  36.080  26.156  1.00  0.00    -0.237 OA
ATOM     91  O   UNL A   1      47.760  34.731  25.094  1.00  0.00    -0.237 OA
ATOM     92  O   UNL A   1      45.394  34.230  24.641  1.00  0.00    -0.744 OA
ENDBRANCH  86  89
ENDBRANCH  58  82
BRANCH  70  93
ATOM     93  C   UNL A   1      40.105  28.149  28.735  1.00  0.00     0.023 A 
ATOM     94  C   UNL A   1      39.003  28.633  28.003  1.00  0.00     0.012 A 
ATOM     95  C   UNL A   1      40.043  28.160  30.145  1.00  0.00     0.148 A 
ATOM     96  C   UNL A   1      37.861  29.102  28.651  1.00  0.00     0.002 A 
ATOM     97  C   UNL A   1      38.885  28.588  30.786  1.00  0.00     0.091 A 
ATOM     98  F   UNL A   1      41.113  27.751  30.844  1.00  0.00    -0.205 F 
ATOM     99  C   UNL A   1      37.795  29.065  30.040  1.00  0.00     0.022 A 
BRANCH  97 100
ATOM    100  S   UNL A   1      38.665  28.516  32.569  1.00  0.00     0.127 S 
ATOM    101  O   UNL A   1      38.297  27.114  32.776  1.00  0.00    -0.237 OA
ATOM    102  O   UNL A   1      40.002  28.869  33.050  1.00  0.00    -0.237 OA
ATOM    103  O   UNL A   1      37.625  29.479  32.897  1.00  0.00    -0.744 OA
ENDBRANCH  97 100
ENDBRANCH  70  93
ENDBRANCH  44  45
ENDBRANCH  36  39
ENDBRANCH  34  35
ENDBRANCH  33  34
ENDBRANCH   1  33
TORSDOF 17
ENDMDL
MODEL 3
REMARK VINA RESULT:     -11.5      2.893      3.880
REMARK SMILES COc1ccc(N2C[C@@H](C)Cn3c2nc2c3c(=O)n(CC(=O)NCCCCNC(=O)c3ccc(-c4c5nc(c(-c6cccc(S(=O)(=O)[O-])c6F)c6ccc([nH]6)c(-c6cccc(S(=O)(=O)[O-])c6F)c6nc(c(-c7cccc(S(=O)(=O)[O-])c7F)c7ccc4[nH]7)C=C6)C=C5)cc3)c(=O)n2C)cc1
REMARK SMILES IDX 25 1 24 2 23 3 21 4 22 5 20 7 19 8 7 9 8 10 13 11 9 12 12 13
REMARK SMILES IDX 14 14 11 15 10 16 16 17 15 18 17 19 96 20 18 21 94 22 97 23
REMARK SMILES IDX 95 24 6 25 3 26 4 27 99 28 5 29 98 30 2 31 1 32 26 33 27 34
REMARK SMILES IDX 28 35 29 36 30 38 31 39 32 40 93 41 33 42 92 43 34 44 35 45
REMARK SMILES IDX 36 46 86 47 37 48 91 49 85 50 87 51 38 52 90 53 84 54 83 55
REMARK SMILES IDX 39 57 71 58 51 59 70 60 52 61 55 62 69 63 88 64 53 65 54 66
REMARK SMILES IDX 68 68 89 69 56 70 40 71 41 72 49 73 42 74 44 75 50 76 43 77
REMARK SMILES IDX 45 78 46 79 47 80 48 81 72 82 73 83 81 84 74 85 76 86 82 87
REMARK SMILES IDX 75 88 77 89 78 90 79 91 80 92 57 93 58 94 66 95 59 96 61 97
REMARK SMILES IDX 67 98 60 99 62 100 63 101 64 102 65 103
REMARK H PARENT 23 6 28 37 87 56 55 67
REMARK Flexibility Score: inf
ROOT
ATOM      1  C   UNL A   1      43.023  39.901  29.305  1.00  0.00     0.023 C 
ENDROOT
BRANCH   1   2
ATOM      2  C   UNL A   1      43.775  41.144  29.781  1.00  0.00     0.116 C 
BRANCH   2   3
ATOM      3  N   UNL A   1      45.199  41.051  29.521  1.00  0.00    -0.355 N 
ATOM      4  C   UNL A   1      46.114  42.024  29.251  1.00  0.00     0.240 C 
ATOM      5  O   UNL A   1      47.308  41.710  29.283  1.00  0.00    -0.273 OA
ATOM      6  H   UNL A   1      45.563  40.136  29.543  1.00  0.00     0.163 HD
BRANCH   4   7
ATOM      7  C   UNL A   1      45.703  43.480  29.007  1.00  0.00     0.230 C 
BRANCH   7   8
ATOM      8  N   UNL A   1      45.957  43.923  27.641  1.00  0.00    -0.249 N 
ATOM      9  N   UNL A   1      44.840  44.623  21.979  1.00  0.00    -0.312 N 
ATOM     10  C   UNL A   1      43.804  43.647  21.609  1.00  0.00     0.131 C 
ATOM     11  C   UNL A   1      45.354  44.573  23.241  1.00  0.00     0.212 A 
ATOM     12  C   UNL A   1      42.719  43.641  22.687  1.00  0.00     0.026 C 
ATOM     13  N   UNL A   1      44.641  43.898  24.217  1.00  0.00    -0.304 N 
ATOM     14  N   UNL A   1      46.433  45.125  23.772  1.00  0.00    -0.194 NA
ATOM     15  C   UNL A   1      43.363  43.245  24.017  1.00  0.00     0.131 C 
ATOM     16  C   UNL A   1      41.572  42.702  22.331  1.00  0.00     0.011 C 
ATOM     17  C   UNL A   1      45.330  43.993  25.384  1.00  0.00     0.154 A 
ATOM     18  C   UNL A   1      46.409  44.763  25.091  1.00  0.00     0.170 A 
ATOM     19  C   UNL A   1      45.064  43.458  26.672  1.00  0.00     0.283 A 
ATOM     20  N   UNL A   1      47.337  45.077  26.058  1.00  0.00    -0.279 N 
ATOM     21  O   UNL A   1      44.164  42.662  26.880  1.00  0.00    -0.267 OA
ATOM     22  C   UNL A   1      47.148  44.616  27.365  1.00  0.00     0.332 A 
ATOM     23  C   UNL A   1      48.506  45.868  25.723  1.00  0.00     0.157 C 
ATOM     24  O   UNL A   1      48.000  44.796  28.240  1.00  0.00    -0.247 OA
BRANCH   9  25
ATOM     25  C   UNL A   1      45.248  45.511  20.968  1.00  0.00     0.044 A 
ATOM     26  C   UNL A   1      45.979  47.375  18.970  1.00  0.00     0.119 A 
ATOM     27  C   UNL A   1      45.985  47.749  20.309  1.00  0.00     0.048 A 
ATOM     28  C   UNL A   1      45.661  46.062  18.625  1.00  0.00     0.048 A 
ATOM     29  C   UNL A   1      45.613  46.830  21.292  1.00  0.00     0.030 A 
ATOM     30  C   UNL A   1      45.309  45.136  19.621  1.00  0.00     0.030 A 
BRANCH  26  31
ATOM     31  O   UNL A   1      46.373  48.335  18.080  1.00  0.00    -0.497 OA
ATOM     32  C   UNL A   1      46.303  49.661  18.593  1.00  0.00     0.278 C 
ENDBRANCH  26  31
ENDBRANCH   9  25
ENDBRANCH   7   8
ENDBRANCH   4   7
ENDBRANCH   2   3
ENDBRANCH   1   2
BRANCH   1  33
ATOM     33  C   UNL A   1      43.342  39.457  27.861  1.00  0.00     0.023 C 
BRANCH  33  34
ATOM     34  C   UNL A   1      44.229  38.203  27.715  1.00  0.00     0.116 C 
BRANCH  34  35
ATOM     35  N   UNL A   1      43.784  37.391  26.595  1.00  0.00    -0.352 N 
ATOM     36  C   UNL A   1      43.556  36.048  26.461  1.00  0.00     0.251 C 
ATOM     37  H   UNL A   1      43.615  37.907  25.773  1.00  0.00     0.163 HD
ATOM     38  O   UNL A   1      43.517  35.605  25.310  1.00  0.00    -0.269 OA
BRANCH  36  39
ATOM     39  C   UNL A   1      43.350  35.110  27.595  1.00  0.00     0.039 A 
ATOM     40  C   UNL A   1      42.102  35.162  28.238  1.00  0.00     0.014 A 
ATOM     41  C   UNL A   1      44.363  34.326  28.150  1.00  0.00     0.014 A 
ATOM     42  C   UNL A   1      41.862  34.433  29.406  1.00  0.00     0.010 A 
ATOM     43  C   UNL A   1      44.118  33.589  29.326  1.00  0.00     0.010 A 
ATOM     44  C   UNL A   1      42.865  33.630  29.959  1.00  0.00    -0.014 A 
BRANCH  44  45
ATOM     45  C   UNL A   1      42.491  32.738  31.086  1.00  0.00     0.031 A 
ATOM     46  C   UNL A   1      41.121  32.983  31.643  1.00  0.00     0.074 A 
ATOM     47  C   UNL A   1      43.083  31.542  31.317  1.00  0.00     0.049 A 
ATOM     48  N   UNL A   1      40.046  32.477  31.116  1.00  0.00    -0.248 NA
ATOM     49  C   UNL A   1      40.853  34.019  32.640  1.00  0.00     0.031 C 
ATOM     50  C   UNL A   1      43.504  30.638  30.238  1.00  0.00     0.029 A 
ATOM     51  N   UNL A   1      43.188  30.772  32.461  1.00  0.00    -0.354 N 
ATOM     52  C   UNL A   1      38.959  33.149  31.652  1.00  0.00     0.074 A 
ATOM     53  C   UNL A   1      39.511  34.090  32.604  1.00  0.00     0.031 C 
ATOM     54  C   UNL A   1      43.652  29.396  30.747  1.00  0.00     0.029 A 
ATOM     55  C   UNL A   1      43.488  29.429  32.203  1.00  0.00     0.049 A 
ATOM     56  H   UNL A   1      43.063  31.132  33.368  1.00  0.00     0.167 HD
ATOM     57  C   UNL A   1      37.675  32.890  31.279  1.00  0.00     0.034 A 
ATOM     58  C   UNL A   1      43.042  28.373  32.946  1.00  0.00     0.034 A 
ATOM     59  C   UNL A   1      37.524  31.840  30.309  1.00  0.00     0.049 A 
ATOM     60  C   UNL A   1      41.577  28.370  32.593  1.00  0.00     0.074 A 
ATOM     61  C   UNL A   1      37.320  31.729  28.951  1.00  0.00     0.029 A 
ATOM     62  N   UNL A   1      37.654  30.541  30.739  1.00  0.00    -0.354 N 
ATOM     63  N   UNL A   1      41.061  27.928  31.478  1.00  0.00    -0.248 NA
ATOM     64  C   UNL A   1      40.708  29.256  33.365  1.00  0.00     0.031 C 
ATOM     65  C   UNL A   1      37.818  30.432  28.594  1.00  0.00     0.029 A 
ATOM     66  C   UNL A   1      38.317  29.847  29.756  1.00  0.00     0.049 A 
ATOM     67  H   UNL A   1      37.332  30.175  31.594  1.00  0.00     0.167 HD
ATOM     68  C   UNL A   1      39.932  28.719  31.257  1.00  0.00     0.074 A 
ATOM     69  C   UNL A   1      39.765  29.502  32.467  1.00  0.00     0.031 C 
ATOM     70  C   UNL A   1      39.298  28.824  30.051  1.00  0.00     0.034 A 
BRANCH  57  71
ATOM     71  C   UNL A   1      36.461  33.456  31.919  1.00  0.00     0.023 A 
ATOM     72  C   UNL A   1      36.158  32.969  33.208  1.00  0.00     0.012 A 
ATOM     73  C   UNL A   1      35.514  34.244  31.242  1.00  0.00     0.148 A 
ATOM     74  C   UNL A   1      34.920  33.209  33.795  1.00  0.00     0.002 A 
ATOM     75  C   UNL A   1      34.278  34.490  31.840  1.00  0.00     0.091 A 
ATOM     76  F   UNL A   1      35.813  34.696  30.015  1.00  0.00    -0.205 F 
ATOM     77  C   UNL A   1      33.976  33.960  33.108  1.00  0.00     0.022 A 
BRANCH  75  78
ATOM     78  S   UNL A   1      32.967  35.442  31.058  1.00  0.00     0.127 S 
ATOM     79  O   UNL A   1      32.744  34.696  29.821  1.00  0.00    -0.237 OA
ATOM     80  O   UNL A   1      31.887  35.329  32.040  1.00  0.00    -0.237 OA
ATOM     81  O   UNL A   1      33.496  36.788  30.890  1.00  0.00    -0.744 OA
ENDBRANCH  75  78
ENDBRANCH  57  71
BRANCH  58  82
ATOM     82  C   UNL A   1      43.544  28.253  34.359  1.00  0.00     0.023 A 
ATOM     83  C   UNL A   1      44.361  29.304  34.841  1.00  0.00     0.012 A 
ATOM     84  C   UNL A   1      43.299  27.177  35.239  1.00  0.00     0.148 A 
ATOM     85  C   UNL A   1      44.815  29.343  36.163  1.00  0.00     0.002 A 
ATOM     86  C   UNL A   1      43.690  27.253  36.578  1.00  0.00     0.091 A 
ATOM     87  F   UNL A   1      42.698  26.077  34.773  1.00  0.00    -0.205 F 
ATOM     88  C   UNL A   1      44.446  28.335  37.042  1.00  0.00     0.022 A 
BRANCH  86  89
ATOM     89  S   UNL A   1      43.178  26.045  37.809  1.00  0.00     0.127 S 
ATOM     90  O   UNL A   1      43.763  26.590  39.034  1.00  0.00    -0.237 OA
ATOM     91  O   UNL A   1      41.721  26.144  37.725  1.00  0.00    -0.237 OA
ATOM     92  O   UNL A   1      43.732  24.771  37.371  1.00  0.00    -0.744 OA
ENDBRANCH  86  89
ENDBRANCH  58  82
BRANCH  70  93
ATOM     93  C   UNL A   1      39.814  27.940  28.951  1.00  0.00     0.023 A 
ATOM     94  C   UNL A   1      39.257  26.656  28.793  1.00  0.00     0.012 A 
ATOM     95  C   UNL A   1      40.808  28.367  28.044  1.00  0.00     0.148 A 
ATOM     96  C   UNL A   1      39.662  25.820  27.753  1.00  0.00     0.002 A 
ATOM     97  C   UNL A   1      41.176  27.547  26.982  1.00  0.00     0.091 A 
ATOM     98  F   UNL A   1      41.379  29.567  28.225  1.00  0.00    -0.205 F 
ATOM     99  C   UNL A   1      40.608  26.271  26.839  1.00  0.00     0.022 A 
BRANCH  97 100
ATOM    100  S   UNL A   1      42.335  28.057  25.704  1.00  0.00     0.127 S 
ATOM    101  O   UNL A   1      43.587  28.172  26.454  1.00  0.00    -0.237 OA
ATOM    102  O   UNL A   1      42.283  26.922  24.781  1.00  0.00    -0.237 OA
ATOM    103  O   UNL A   1      41.827  29.308  25.162  1.00  0.00    -0.744 OA
ENDBRANCH  97 100
ENDBRANCH  70  93
ENDBRANCH  44  45
ENDBRANCH  36  39
ENDBRANCH  34  35
ENDBRANCH  33  34
ENDBRANCH   1  33
TORSDOF 17
ENDMDL
