MODEL 1
REMARK VINA RESULT:     -12.8      0.000      0.000
REMARK SMILES O=C(NCCCCNC(=O)[C@H]1Cc2ccc(Cl)cc2C[N@@H+]1Cc1ccc(Cl)cc1)c1ccc(-c2c3nc(c(-c4cccc(S(=O)(=O)[O-])c4F)c4ccc([nH]4)c(-c4cccc(S(=O)(=O)[O-])c4F)c4nc(c(-c5cccc(S(=O)(=O)[O-])c5F)c5ccc2[nH]5)C=C4)C=C3)cc1
REMARK SMILES IDX 5 1 4 2 3 3 1 4 2 5 30 7 31 8 92 9 32 10 91 11 33 12 34 13
REMARK SMILES IDX 35 14 85 15 36 16 90 17 84 18 86 19 37 20 89 21 83 22 82 23
REMARK SMILES IDX 38 25 70 26 50 27 69 28 51 29 54 30 68 31 87 32 52 33 53 34
REMARK SMILES IDX 67 36 88 37 55 38 39 39 40 40 48 41 41 42 43 43 49 44 42 45
REMARK SMILES IDX 44 46 45 47 46 48 47 49 71 50 72 51 80 52 73 53 75 54 81 55
REMARK SMILES IDX 74 56 76 57 77 58 78 59 79 60 56 61 57 62 65 63 58 64 60 65
REMARK SMILES IDX 66 66 59 67 61 68 62 69 63 70 64 71 6 72 7 73 8 74 9 75
REMARK SMILES IDX 10 77 11 78 12 79 21 80 13 81 20 82 14 84 19 85 15 86 18 87
REMARK SMILES IDX 16 88 17 89 22 90 23 91 24 92 29 93 25 94 28 95 26 96 27 97
REMARK H PARENT 3 6 86 24 54 35 8 76 21 83
REMARK Flexibility Score: inf
ROOT
ATOM      1  C   UNL A   1      36.531  21.195  25.289  1.00  0.00     0.023 C 
ENDROOT
BRANCH   1   2
ATOM      2  C   UNL A   1      38.007  21.343  24.971  1.00  0.00     0.116 C 
BRANCH   2   3
ATOM      3  N   UNL A   1      38.831  20.453  25.778  1.00  0.00    -0.352 N 
ATOM      4  O   UNL A   1      40.632  19.806  26.960  1.00  0.00    -0.269 OA
ATOM      5  C   UNL A   1      39.930  20.729  26.552  1.00  0.00     0.251 C 
ATOM      6  H   UNL A   1      38.558  19.507  25.765  1.00  0.00     0.163 HD
BRANCH   5   7
ATOM      7  C   UNL A   1      40.263  22.126  26.902  1.00  0.00     0.039 A 
ATOM      8  C   UNL A   1      39.570  23.175  26.289  1.00  0.00     0.014 A 
ATOM      9  C   UNL A   1      41.298  22.401  27.796  1.00  0.00     0.014 A 
ATOM     10  C   UNL A   1      39.904  24.497  26.596  1.00  0.00     0.010 A 
ATOM     11  C   UNL A   1      41.546  23.704  28.192  1.00  0.00     0.010 A 
ATOM     12  C   UNL A   1      40.891  24.766  27.556  1.00  0.00    -0.014 A 
BRANCH  12  13
ATOM     13  C   UNL A   1      41.380  26.135  27.834  1.00  0.00     0.031 A 
ATOM     14  C   UNL A   1      42.779  26.496  27.410  1.00  0.00     0.074 A 
ATOM     15  C   UNL A   1      40.631  27.005  28.533  1.00  0.00     0.049 A 
ATOM     16  N   UNL A   1      43.498  27.538  27.732  1.00  0.00    -0.248 NA
ATOM     17  C   UNL A   1      43.479  25.528  26.544  1.00  0.00     0.031 C 
ATOM     18  C   UNL A   1      39.276  26.757  29.025  1.00  0.00     0.029 A 
ATOM     19  N   UNL A   1      40.922  28.271  28.970  1.00  0.00    -0.354 N 
ATOM     20  C   UNL A   1      44.745  27.322  27.158  1.00  0.00     0.074 A 
ATOM     21  C   UNL A   1      44.701  26.034  26.505  1.00  0.00     0.031 C 
ATOM     22  C   UNL A   1      38.846  27.845  29.684  1.00  0.00     0.029 A 
ATOM     23  C   UNL A   1      39.908  28.847  29.695  1.00  0.00     0.049 A 
ATOM     24  H   UNL A   1      41.776  28.724  28.782  1.00  0.00     0.167 HD
ATOM     25  C   UNL A   1      45.821  28.142  27.136  1.00  0.00     0.034 A 
ATOM     26  C   UNL A   1      39.849  30.046  30.305  1.00  0.00     0.034 A 
ATOM     27  C   UNL A   1      45.830  29.457  27.711  1.00  0.00     0.049 A 
ATOM     28  C   UNL A   1      41.036  30.963  30.235  1.00  0.00     0.074 A 
ATOM     29  C   UNL A   1      46.847  30.393  27.700  1.00  0.00     0.029 A 
ATOM     30  N   UNL A   1      44.758  30.030  28.377  1.00  0.00    -0.354 N 
ATOM     31  N   UNL A   1      42.195  30.764  29.652  1.00  0.00    -0.248 NA
ATOM     32  C   UNL A   1      40.906  32.273  30.886  1.00  0.00     0.031 C 
ATOM     33  C   UNL A   1      46.383  31.541  28.352  1.00  0.00     0.029 A 
ATOM     34  C   UNL A   1      45.079  31.317  28.766  1.00  0.00     0.049 A 
ATOM     35  H   UNL A   1      43.895  29.587  28.547  1.00  0.00     0.167 HD
ATOM     36  C   UNL A   1      42.928  31.926  29.852  1.00  0.00     0.074 A 
ATOM     37  C   UNL A   1      42.075  32.833  30.596  1.00  0.00     0.031 C 
ATOM     38  C   UNL A   1      44.198  32.212  29.472  1.00  0.00     0.034 A 
BRANCH  25  39
ATOM     39  C   UNL A   1      47.036  27.666  26.391  1.00  0.00     0.023 A 
ATOM     40  C   UNL A   1      48.046  26.979  27.096  1.00  0.00     0.012 A 
ATOM     41  C   UNL A   1      47.176  27.874  25.006  1.00  0.00     0.148 A 
ATOM     42  C   UNL A   1      49.191  26.531  26.441  1.00  0.00     0.002 A 
ATOM     43  C   UNL A   1      48.306  27.393  24.352  1.00  0.00     0.091 A 
ATOM     44  F   UNL A   1      46.216  28.551  24.361  1.00  0.00    -0.205 F 
ATOM     45  C   UNL A   1      49.316  26.730  25.069  1.00  0.00     0.022 A 
BRANCH  43  46
ATOM     46  S   UNL A   1      48.546  27.551  22.579  1.00  0.00     0.127 S 
ATOM     47  O   UNL A   1      49.823  28.264  22.518  1.00  0.00    -0.237 OA
ATOM     48  O   UNL A   1      48.607  26.154  22.153  1.00  0.00    -0.237 OA
ATOM     49  O   UNL A   1      47.397  28.293  22.081  1.00  0.00    -0.744 OA
ENDBRANCH  43  46
ENDBRANCH  25  39
BRANCH  26  50
ATOM     50  C   UNL A   1      38.575  30.460  30.952  1.00  0.00     0.023 A 
ATOM     51  C   UNL A   1      38.428  30.268  32.338  1.00  0.00     0.012 A 
ATOM     52  C   UNL A   1      37.572  31.142  30.236  1.00  0.00     0.148 A 
ATOM     53  C   UNL A   1      37.302  30.751  33.005  1.00  0.00     0.002 A 
ATOM     54  C   UNL A   1      36.470  31.652  30.913  1.00  0.00     0.091 A 
ATOM     55  F   UNL A   1      37.745  31.318  28.919  1.00  0.00    -0.205 F 
ATOM     56  C   UNL A   1      36.330  31.450  32.296  1.00  0.00     0.022 A 
BRANCH  54  57
ATOM     57  S   UNL A   1      35.216  32.657  30.111  1.00  0.00     0.127 S 
ATOM     58  O   UNL A   1      34.738  31.758  29.060  1.00  0.00    -0.237 OA
ATOM     59  O   UNL A   1      34.271  32.877  31.208  1.00  0.00    -0.237 OA
ATOM     60  O   UNL A   1      35.900  33.850  29.642  1.00  0.00    -0.744 OA
ENDBRANCH  54  57
ENDBRANCH  26  50
BRANCH  38  61
ATOM     61  C   UNL A   1      44.754  33.557  29.845  1.00  0.00     0.023 A 
ATOM     62  C   UNL A   1      45.453  33.698  31.059  1.00  0.00     0.012 A 
ATOM     63  C   UNL A   1      44.683  34.641  28.949  1.00  0.00     0.148 A 
ATOM     64  C   UNL A   1      46.066  34.907  31.384  1.00  0.00     0.002 A 
ATOM     65  C   UNL A   1      45.326  35.831  29.264  1.00  0.00     0.091 A 
ATOM     66  F   UNL A   1      44.003  34.482  27.806  1.00  0.00    -0.205 F 
ATOM     67  C   UNL A   1      46.013  35.969  30.482  1.00  0.00     0.022 A 
BRANCH  65  68
ATOM     68  S   UNL A   1      45.376  37.228  28.136  1.00  0.00     0.127 S 
ATOM     69  O   UNL A   1      46.582  37.926  28.581  1.00  0.00    -0.237 OA
ATOM     70  O   UNL A   1      45.495  36.572  26.834  1.00  0.00    -0.237 OA
ATOM     71  O   UNL A   1      44.129  37.953  28.337  1.00  0.00    -0.744 OA
ENDBRANCH  65  68
ENDBRANCH  38  61
ENDBRANCH  12  13
ENDBRANCH   5   7
ENDBRANCH   2   3
ENDBRANCH   1   2
BRANCH   1  72
ATOM     72  C   UNL A   1      35.985  22.292  26.188  1.00  0.00     0.023 C 
BRANCH  72  73
ATOM     73  C   UNL A   1      35.848  23.672  25.555  1.00  0.00     0.116 C 
BRANCH  73  74
ATOM     74  N   UNL A   1      35.604  23.538  24.134  1.00  0.00    -0.351 N 
ATOM     75  C   UNL A   1      34.462  23.735  23.415  1.00  0.00     0.278 C 
ATOM     76  H   UNL A   1      36.385  23.260  23.603  1.00  0.00     0.163 HD
ATOM     77  O   UNL A   1      34.453  23.307  22.257  1.00  0.00    -0.268 OA
BRANCH  75  78
ATOM     78  C   UNL A   1      33.283  24.540  24.005  1.00  0.00     0.279 C 
ATOM     79  C   UNL A   1      32.928  25.553  22.875  1.00  0.00     0.111 C 
ATOM     80  N   UNL A   1      32.132  23.667  24.350  1.00  0.00    -0.317 N 
ATOM     81  C   UNL A   1      31.589  26.224  23.031  1.00  0.00    -0.033 A 
ATOM     82  C   UNL A   1      30.937  24.435  24.687  1.00  0.00     0.300 C 
ATOM     83  H   UNL A   1      31.958  23.161  23.482  1.00  0.00     0.349 HD
ATOM     84  C   UNL A   1      31.295  27.421  22.365  1.00  0.00     0.006 A 
ATOM     85  C   UNL A   1      30.607  25.612  23.814  1.00  0.00     0.011 A 
ATOM     86  C   UNL A   1      30.044  28.026  22.517  1.00  0.00     0.021 A 
ATOM     87  C   UNL A   1      29.348  26.220  23.955  1.00  0.00     0.030 A 
ATOM     88  C   UNL A   1      29.076  27.422  23.313  1.00  0.00     0.041 A 
ATOM     89  Cl  UNL A   1      27.548  28.179  23.543  1.00  0.00    -0.084 Cl
BRANCH  80  90
ATOM     90  C   UNL A   1      32.393  22.582  25.329  1.00  0.00     0.299 C 
BRANCH  90  91
ATOM     91  C   UNL A   1      32.500  21.134  24.848  1.00  0.00     0.006 A 
ATOM     92  C   UNL A   1      32.818  20.046  25.673  1.00  0.00     0.011 A 
ATOM     93  C   UNL A   1      32.184  20.825  23.519  1.00  0.00     0.011 A 
ATOM     94  C   UNL A   1      33.078  18.775  25.149  1.00  0.00     0.021 A 
ATOM     95  C   UNL A   1      32.417  19.551  22.982  1.00  0.00     0.021 A 
ATOM     96  C   UNL A   1      32.919  18.544  23.792  1.00  0.00     0.041 A 
ATOM     97  Cl  UNL A   1      33.315  17.008  23.132  1.00  0.00    -0.084 Cl
ENDBRANCH  90  91
ENDBRANCH  80  90
ENDBRANCH  75  78
ENDBRANCH  73  74
ENDBRANCH  72  73
ENDBRANCH   1  72
TORSDOF 16
ENDMDL
MODEL 2
REMARK VINA RESULT:     -12.8      1.444      7.586
REMARK SMILES O=C(NCCCCNC(=O)[C@H]1Cc2ccc(Cl)cc2C[N@@H+]1Cc1ccc(Cl)cc1)c1ccc(-c2c3nc(c(-c4cccc(S(=O)(=O)[O-])c4F)c4ccc([nH]4)c(-c4cccc(S(=O)(=O)[O-])c4F)c4nc(c(-c5cccc(S(=O)(=O)[O-])c5F)c5ccc2[nH]5)C=C4)C=C3)cc1
REMARK SMILES IDX 5 1 4 2 3 3 1 4 2 5 30 7 31 8 92 9 32 10 91 11 33 12 34 13
REMARK SMILES IDX 35 14 85 15 36 16 90 17 84 18 86 19 37 20 89 21 83 22 82 23
REMARK SMILES IDX 38 25 70 26 50 27 69 28 51 29 54 30 68 31 87 32 52 33 53 34
REMARK SMILES IDX 67 36 88 37 55 38 39 39 40 40 48 41 41 42 43 43 49 44 42 45
REMARK SMILES IDX 44 46 45 47 46 48 47 49 71 50 72 51 80 52 73 53 75 54 81 55
REMARK SMILES IDX 74 56 76 57 77 58 78 59 79 60 56 61 57 62 65 63 58 64 60 65
REMARK SMILES IDX 66 66 59 67 61 68 62 69 63 70 64 71 6 72 7 73 8 74 9 75
REMARK SMILES IDX 10 77 11 78 12 79 21 80 13 81 20 82 14 84 19 85 15 86 18 87
REMARK SMILES IDX 16 88 17 89 22 90 23 91 24 92 29 93 25 94 28 95 26 96 27 97
REMARK H PARENT 3 6 86 24 54 35 8 76 21 83
REMARK Flexibility Score: inf
ROOT
ATOM      1  C   UNL A   1      35.702  22.038  24.989  1.00  0.00     0.023 C 
ENDROOT
BRANCH   1   2
ATOM      2  C   UNL A   1      37.185  21.994  24.673  1.00  0.00     0.116 C 
BRANCH   2   3
ATOM      3  N   UNL A   1      37.857  20.897  25.357  1.00  0.00    -0.352 N 
ATOM      4  O   UNL A   1      39.549  19.823  26.378  1.00  0.00    -0.269 OA
ATOM      5  C   UNL A   1      39.019  20.893  26.087  1.00  0.00     0.251 C 
ATOM      6  H   UNL A   1      37.409  20.023  25.283  1.00  0.00     0.163 HD
BRANCH   5   7
ATOM      7  C   UNL A   1      39.625  22.166  26.529  1.00  0.00     0.039 A 
ATOM      8  C   UNL A   1      39.066  23.379  26.111  1.00  0.00     0.014 A 
ATOM      9  C   UNL A   1      40.780  22.163  27.312  1.00  0.00     0.014 A 
ATOM     10  C   UNL A   1      39.657  24.583  26.504  1.00  0.00     0.010 A 
ATOM     11  C   UNL A   1      41.291  23.352  27.801  1.00  0.00     0.010 A 
ATOM     12  C   UNL A   1      40.769  24.575  27.357  1.00  0.00    -0.014 A 
BRANCH  12  13
ATOM     13  C   UNL A   1      41.517  25.803  27.707  1.00  0.00     0.031 A 
ATOM     14  C   UNL A   1      40.814  26.867  28.507  1.00  0.00     0.074 A 
ATOM     15  C   UNL A   1      42.761  26.007  27.242  1.00  0.00     0.049 A 
ATOM     16  N   UNL A   1      41.176  28.099  28.743  1.00  0.00    -0.248 NA
ATOM     17  C   UNL A   1      39.502  26.507  29.079  1.00  0.00     0.031 C 
ATOM     18  C   UNL A   1      43.531  25.064  26.430  1.00  0.00     0.029 A 
ATOM     19  N   UNL A   1      43.587  27.094  27.369  1.00  0.00    -0.354 N 
ATOM     20  C   UNL A   1      40.117  28.672  29.438  1.00  0.00     0.074 A 
ATOM     21  C   UNL A   1      39.082  27.671  29.547  1.00  0.00     0.031 C 
ATOM     22  C   UNL A   1      44.725  25.609  26.145  1.00  0.00     0.029 A 
ATOM     23  C   UNL A   1      44.786  26.951  26.717  1.00  0.00     0.049 A 
ATOM     24  H   UNL A   1      43.341  27.900  27.879  1.00  0.00     0.167 HD
ATOM     25  C   UNL A   1      40.030  29.911  29.976  1.00  0.00     0.034 A 
ATOM     26  C   UNL A   1      45.815  27.810  26.594  1.00  0.00     0.034 A 
ATOM     27  C   UNL A   1      41.095  30.871  29.940  1.00  0.00     0.049 A 
ATOM     28  C   UNL A   1      45.720  29.165  27.234  1.00  0.00     0.074 A 
ATOM     29  C   UNL A   1      41.133  32.135  30.500  1.00  0.00     0.029 A 
ATOM     30  N   UNL A   1      42.322  30.661  29.330  1.00  0.00    -0.354 N 
ATOM     31  N   UNL A   1      44.729  29.679  27.924  1.00  0.00    -0.248 NA
ATOM     32  C   UNL A   1      46.884  30.050  27.099  1.00  0.00     0.031 C 
ATOM     33  C   UNL A   1      42.393  32.685  30.236  1.00  0.00     0.029 A 
ATOM     34  C   UNL A   1      43.135  31.763  29.515  1.00  0.00     0.049 A 
ATOM     35  H   UNL A   1      42.576  29.846  28.837  1.00  0.00     0.167 HD
ATOM     36  C   UNL A   1      45.153  30.942  28.318  1.00  0.00     0.074 A 
ATOM     37  C   UNL A   1      46.499  31.108  27.804  1.00  0.00     0.031 C 
ATOM     38  C   UNL A   1      44.484  31.886  29.025  1.00  0.00     0.034 A 
BRANCH  25  39
ATOM     39  C   UNL A   1      38.770  30.250  30.723  1.00  0.00     0.023 A 
ATOM     40  C   UNL A   1      38.597  29.755  32.033  1.00  0.00     0.012 A 
ATOM     41  C   UNL A   1      37.775  31.064  30.152  1.00  0.00     0.148 A 
ATOM     42  C   UNL A   1      37.439  30.041  32.753  1.00  0.00     0.002 A 
ATOM     43  C   UNL A   1      36.637  31.375  30.890  1.00  0.00     0.091 A 
ATOM     44  F   UNL A   1      37.949  31.503  28.898  1.00  0.00    -0.205 F 
ATOM     45  C   UNL A   1      36.464  30.857  32.185  1.00  0.00     0.022 A 
BRANCH  43  46
ATOM     46  S   UNL A   1      35.342  32.457  30.275  1.00  0.00     0.127 S 
ATOM     47  O   UNL A   1      36.084  33.695  30.035  1.00  0.00    -0.237 OA
ATOM     48  O   UNL A   1      34.911  31.761  29.064  1.00  0.00    -0.237 OA
ATOM     49  O   UNL A   1      34.341  32.527  31.329  1.00  0.00    -0.744 OA
ENDBRANCH  43  46
ENDBRANCH  25  39
BRANCH  26  50
ATOM     50  C   UNL A   1      47.051  27.355  25.901  1.00  0.00     0.023 A 
ATOM     51  C   UNL A   1      47.195  27.629  24.528  1.00  0.00     0.012 A 
ATOM     52  C   UNL A   1      48.119  26.769  26.607  1.00  0.00     0.148 A 
ATOM     53  C   UNL A   1      48.387  27.329  23.867  1.00  0.00     0.002 A 
ATOM     54  C   UNL A   1      49.316  26.507  25.951  1.00  0.00     0.091 A 
ATOM     55  F   UNL A   1      47.956  26.530  27.916  1.00  0.00    -0.205 F 
ATOM     56  C   UNL A   1      49.448  26.778  24.579  1.00  0.00     0.022 A 
BRANCH  54  57
ATOM     57  S   UNL A   1      50.777  25.897  26.800  1.00  0.00     0.127 S 
ATOM     58  O   UNL A   1      51.725  25.748  25.695  1.00  0.00    -0.237 OA
ATOM     59  O   UNL A   1      51.068  27.004  27.713  1.00  0.00    -0.237 OA
ATOM     60  O   UNL A   1      50.377  24.658  27.444  1.00  0.00    -0.744 OA
ENDBRANCH  54  57
ENDBRANCH  26  50
BRANCH  38  61
ATOM     61  C   UNL A   1      45.187  33.187  29.293  1.00  0.00     0.023 A 
ATOM     62  C   UNL A   1      45.968  33.318  30.457  1.00  0.00     0.012 A 
ATOM     63  C   UNL A   1      45.166  34.227  28.344  1.00  0.00     0.148 A 
ATOM     64  C   UNL A   1      46.711  34.476  30.681  1.00  0.00     0.002 A 
ATOM     65  C   UNL A   1      45.937  35.363  28.557  1.00  0.00     0.091 A 
ATOM     66  F   UNL A   1      44.407  34.079  27.250  1.00  0.00    -0.205 F 
ATOM     67  C   UNL A   1      46.706  35.492  29.727  1.00  0.00     0.022 A 
BRANCH  65  68
ATOM     68  S   UNL A   1      46.052  36.691  27.354  1.00  0.00     0.127 S 
ATOM     69  O   UNL A   1      46.528  35.978  26.169  1.00  0.00    -0.237 OA
ATOM     70  O   UNL A   1      44.668  37.157  27.272  1.00  0.00    -0.237 OA
ATOM     71  O   UNL A   1      46.985  37.660  27.913  1.00  0.00    -0.744 OA
ENDBRANCH  65  68
ENDBRANCH  38  61
ENDBRANCH  12  13
ENDBRANCH   5   7
ENDBRANCH   2   3
ENDBRANCH   1   2
BRANCH   1  72
ATOM     72  C   UNL A   1      35.344  22.994  26.115  1.00  0.00     0.023 C 
BRANCH  72  73
ATOM     73  C   UNL A   1      34.870  24.380  25.692  1.00  0.00     0.116 C 
BRANCH  73  74
ATOM     74  N   UNL A   1      34.892  24.486  24.247  1.00  0.00    -0.351 N 
ATOM     75  C   UNL A   1      33.916  24.876  23.379  1.00  0.00     0.278 C 
ATOM     76  H   UNL A   1      35.746  24.238  23.826  1.00  0.00     0.163 HD
ATOM     77  O   UNL A   1      34.107  24.635  22.183  1.00  0.00    -0.268 OA
BRANCH  75  78
ATOM     78  C   UNL A   1      32.683  25.664  23.875  1.00  0.00     0.279 C 
ATOM     79  C   UNL A   1      32.569  26.843  22.860  1.00  0.00     0.111 C 
ATOM     80  N   UNL A   1      31.457  24.825  23.891  1.00  0.00    -0.317 N 
ATOM     81  C   UNL A   1      31.250  27.567  22.886  1.00  0.00    -0.033 A 
ATOM     82  C   UNL A   1      30.252  25.612  24.131  1.00  0.00     0.300 C 
ATOM     83  H   UNL A   1      31.419  24.454  22.941  1.00  0.00     0.349 HD
ATOM     84  C   UNL A   1      31.121  28.860  22.362  1.00  0.00     0.006 A 
ATOM     85  C   UNL A   1      30.123  26.916  23.396  1.00  0.00     0.011 A 
ATOM     86  C   UNL A   1      29.886  29.515  22.389  1.00  0.00     0.021 A 
ATOM     87  C   UNL A   1      28.883  27.575  23.411  1.00  0.00     0.030 A 
ATOM     88  C   UNL A   1      28.772  28.869  22.915  1.00  0.00     0.041 A 
ATOM     89  Cl  UNL A   1      27.257  29.680  22.993  1.00  0.00    -0.084 Cl
BRANCH  80  90
ATOM     90  C   UNL A   1      31.503  23.602  24.731  1.00  0.00     0.299 C 
BRANCH  90  91
ATOM     91  C   UNL A   1      31.852  22.255  24.095  1.00  0.00     0.006 A 
ATOM     92  C   UNL A   1      31.892  22.018  22.714  1.00  0.00     0.011 A 
ATOM     93  C   UNL A   1      32.247  21.190  24.914  1.00  0.00     0.011 A 
ATOM     94  C   UNL A   1      32.041  20.728  22.192  1.00  0.00     0.021 A 
ATOM     95  C   UNL A   1      32.422  19.894  24.405  1.00  0.00     0.021 A 
ATOM     96  C   UNL A   1      32.262  19.661  23.048  1.00  0.00     0.041 A 
ATOM     97  Cl  UNL A   1      32.364  18.065  22.419  1.00  0.00    -0.084 Cl
ENDBRANCH  90  91
ENDBRANCH  80  90
ENDBRANCH  75  78
ENDBRANCH  73  74
ENDBRANCH  72  73
ENDBRANCH   1  72
TORSDOF 16
ENDMDL
MODEL 3
REMARK VINA RESULT:     -12.8      5.146      7.432
REMARK SMILES O=C(NCCCCNC(=O)[C@H]1Cc2ccc(Cl)cc2C[N@@H+]1Cc1ccc(Cl)cc1)c1ccc(-c2c3nc(c(-c4cccc(S(=O)(=O)[O-])c4F)c4ccc([nH]4)c(-c4cccc(S(=O)(=O)[O-])c4F)c4nc(c(-c5cccc(S(=O)(=O)[O-])c5F)c5ccc2[nH]5)C=C4)C=C3)cc1
REMARK SMILES IDX 5 1 4 2 3 3 1 4 2 5 30 7 31 8 92 9 32 10 91 11 33 12 34 13
REMARK SMILES IDX 35 14 85 15 36 16 90 17 84 18 86 19 37 20 89 21 83 22 82 23
REMARK SMILES IDX 38 25 70 26 50 27 69 28 51 29 54 30 68 31 87 32 52 33 53 34
REMARK SMILES IDX 67 36 88 37 55 38 39 39 40 40 48 41 41 42 43 43 49 44 42 45
REMARK SMILES IDX 44 46 45 47 46 48 47 49 71 50 72 51 80 52 73 53 75 54 81 55
REMARK SMILES IDX 74 56 76 57 77 58 78 59 79 60 56 61 57 62 65 63 58 64 60 65
REMARK SMILES IDX 66 66 59 67 61 68 62 69 63 70 64 71 6 72 7 73 8 74 9 75
REMARK SMILES IDX 10 77 11 78 12 79 21 80 13 81 20 82 14 84 19 85 15 86 18 87
REMARK SMILES IDX 16 88 17 89 22 90 23 91 24 92 29 93 25 94 28 95 26 96 27 97
REMARK H PARENT 3 6 86 24 54 35 8 76 21 83
REMARK Flexibility Score: inf
ROOT
ATOM      1  C   UNL A   1      32.983  28.129  24.440  1.00  0.00     0.023 C 
ENDROOT
BRANCH   1   2
ATOM      2  C   UNL A   1      33.927  28.917  25.329  1.00  0.00     0.116 C 
BRANCH   2   3
ATOM      3  N   UNL A   1      33.321  30.152  25.810  1.00  0.00    -0.352 N 
ATOM      4  O   UNL A   1      32.818  31.769  27.290  1.00  0.00    -0.269 OA
ATOM      5  C   UNL A   1      33.603  30.893  26.930  1.00  0.00     0.251 C 
ATOM      6  H   UNL A   1      32.596  30.508  25.246  1.00  0.00     0.163 HD
BRANCH   5   7
ATOM      7  C   UNL A   1      34.844  30.649  27.692  1.00  0.00     0.039 A 
ATOM      8  C   UNL A   1      35.074  29.388  28.252  1.00  0.00     0.014 A 
ATOM      9  C   UNL A   1      35.759  31.682  27.901  1.00  0.00     0.014 A 
ATOM     10  C   UNL A   1      36.234  29.163  28.998  1.00  0.00     0.010 A 
ATOM     11  C   UNL A   1      36.963  31.427  28.534  1.00  0.00     0.010 A 
ATOM     12  C   UNL A   1      37.188  30.182  29.137  1.00  0.00    -0.014 A 
BRANCH  12  13
ATOM     13  C   UNL A   1      38.371  30.053  30.016  1.00  0.00     0.031 A 
ATOM     14  C   UNL A   1      39.484  29.133  29.590  1.00  0.00     0.074 A 
ATOM     15  C   UNL A   1      38.412  30.669  31.210  1.00  0.00     0.049 A 
ATOM     16  N   UNL A   1      40.502  28.691  30.279  1.00  0.00    -0.248 NA
ATOM     17  C   UNL A   1      39.413  28.600  28.216  1.00  0.00     0.031 C 
ATOM     18  C   UNL A   1      37.380  31.557  31.745  1.00  0.00     0.029 A 
ATOM     19  N   UNL A   1      39.356  30.615  32.202  1.00  0.00    -0.354 N 
ATOM     20  C   UNL A   1      41.155  27.792  29.445  1.00  0.00     0.074 A 
ATOM     21  C   UNL A   1      40.397  27.716  28.217  1.00  0.00     0.031 C 
ATOM     22  C   UNL A   1      37.756  31.979  32.963  1.00  0.00     0.029 A 
ATOM     23  C   UNL A   1      39.032  31.359  33.309  1.00  0.00     0.049 A 
ATOM     24  H   UNL A   1      40.188  30.093  32.127  1.00  0.00     0.167 HD
ATOM     25  C   UNL A   1      42.309  27.120  29.663  1.00  0.00     0.034 A 
ATOM     26  C   UNL A   1      39.690  31.516  34.474  1.00  0.00     0.034 A 
ATOM     27  C   UNL A   1      43.103  27.266  30.848  1.00  0.00     0.049 A 
ATOM     28  C   UNL A   1      40.991  30.796  34.683  1.00  0.00     0.074 A 
ATOM     29  C   UNL A   1      44.315  26.674  31.150  1.00  0.00     0.029 A 
ATOM     30  N   UNL A   1      42.773  28.084  31.918  1.00  0.00    -0.354 N 
ATOM     31  N   UNL A   1      41.619  29.981  33.868  1.00  0.00    -0.248 NA
ATOM     32  C   UNL A   1      41.685  31.029  35.956  1.00  0.00     0.031 C 
ATOM     33  C   UNL A   1      44.725  27.146  32.402  1.00  0.00     0.029 A 
ATOM     34  C   UNL A   1      43.768  28.030  32.876  1.00  0.00     0.049 A 
ATOM     35  H   UNL A   1      41.952  28.623  31.986  1.00  0.00     0.167 HD
ATOM     36  C   UNL A   1      42.788  29.613  34.522  1.00  0.00     0.074 A 
ATOM     37  C   UNL A   1      42.789  30.310  35.794  1.00  0.00     0.031 C 
ATOM     38  C   UNL A   1      43.763  28.764  34.116  1.00  0.00     0.034 A 
BRANCH  25  39
ATOM     39  C   UNL A   1      42.814  26.240  28.553  1.00  0.00     0.023 A 
ATOM     40  C   UNL A   1      42.240  24.964  28.376  1.00  0.00     0.012 A 
ATOM     41  C   UNL A   1      43.829  26.671  27.680  1.00  0.00     0.148 A 
ATOM     42  C   UNL A   1      42.689  24.117  27.365  1.00  0.00     0.002 A 
ATOM     43  C   UNL A   1      44.248  25.835  26.650  1.00  0.00     0.091 A 
ATOM     44  F   UNL A   1      44.377  27.878  27.881  1.00  0.00    -0.205 F 
ATOM     45  C   UNL A   1      43.685  24.556  26.498  1.00  0.00     0.022 A 
BRANCH  43  46
ATOM     46  S   UNL A   1      45.490  26.318  25.446  1.00  0.00     0.127 S 
ATOM     47  O   UNL A   1      45.522  25.145  24.571  1.00  0.00    -0.237 OA
ATOM     48  O   UNL A   1      44.888  27.508  24.847  1.00  0.00    -0.237 OA
ATOM     49  O   UNL A   1      46.710  26.563  26.201  1.00  0.00    -0.744 OA
ENDBRANCH  43  46
ENDBRANCH  25  39
BRANCH  26  50
ATOM     50  C   UNL A   1      39.149  32.467  35.481  1.00  0.00     0.023 A 
ATOM     51  C   UNL A   1      38.138  32.024  36.354  1.00  0.00     0.012 A 
ATOM     52  C   UNL A   1      39.704  33.749  35.656  1.00  0.00     0.148 A 
ATOM     53  C   UNL A   1      37.688  32.843  37.391  1.00  0.00     0.002 A 
ATOM     54  C   UNL A   1      39.276  34.545  36.713  1.00  0.00     0.091 A 
ATOM     55  F   UNL A   1      40.672  34.139  34.815  1.00  0.00    -0.205 F 
ATOM     56  C   UNL A   1      38.263  34.097  37.576  1.00  0.00     0.022 A 
BRANCH  54  57
ATOM     57  S   UNL A   1      40.026  36.131  37.101  1.00  0.00     0.127 S 
ATOM     58  O   UNL A   1      41.407  35.746  37.393  1.00  0.00    -0.237 OA
ATOM     59  O   UNL A   1      39.844  36.857  35.843  1.00  0.00    -0.237 OA
ATOM     60  O   UNL A   1      39.280  36.661  38.229  1.00  0.00    -0.744 OA
ENDBRANCH  54  57
ENDBRANCH  26  50
BRANCH  38  61
ATOM     61  C   UNL A   1      44.920  28.532  35.046  1.00  0.00     0.023 A 
ATOM     62  C   UNL A   1      46.086  29.308  34.899  1.00  0.00     0.012 A 
ATOM     63  C   UNL A   1      44.809  27.636  36.127  1.00  0.00     0.148 A 
ATOM     64  C   UNL A   1      47.134  29.186  35.808  1.00  0.00     0.002 A 
ATOM     65  C   UNL A   1      45.844  27.545  37.049  1.00  0.00     0.091 A 
ATOM     66  F   UNL A   1      43.693  26.903  36.238  1.00  0.00    -0.205 F 
ATOM     67  C   UNL A   1      47.009  28.314  36.889  1.00  0.00     0.022 A 
BRANCH  65  68
ATOM     68  S   UNL A   1      45.745  26.508  38.512  1.00  0.00     0.127 S 
ATOM     69  O   UNL A   1      46.982  26.856  39.209  1.00  0.00    -0.237 OA
ATOM     70  O   UNL A   1      44.523  26.994  39.155  1.00  0.00    -0.237 OA
ATOM     71  O   UNL A   1      45.669  25.136  38.028  1.00  0.00    -0.744 OA
ENDBRANCH  65  68
ENDBRANCH  38  61
ENDBRANCH  12  13
ENDBRANCH   5   7
ENDBRANCH   2   3
ENDBRANCH   1   2
BRANCH   1  72
ATOM     72  C   UNL A   1      33.689  27.277  23.398  1.00  0.00     0.023 C 
BRANCH  72  73
ATOM     73  C   UNL A   1      33.091  25.899  23.143  1.00  0.00     0.116 C 
BRANCH  73  74
ATOM     74  N   UNL A   1      32.632  25.324  24.391  1.00  0.00    -0.351 N 
ATOM     75  C   UNL A   1      33.038  24.198  25.043  1.00  0.00     0.278 C 
ATOM     76  H   UNL A   1      31.913  25.826  24.839  1.00  0.00     0.163 HD
ATOM     77  O   UNL A   1      32.313  23.792  25.956  1.00  0.00    -0.268 OA
BRANCH  75  78
ATOM     78  C   UNL A   1      34.390  23.530  24.704  1.00  0.00     0.279 C 
ATOM     79  C   UNL A   1      35.387  24.197  25.699  1.00  0.00     0.111 C 
ATOM     80  N   UNL A   1      34.338  22.055  24.875  1.00  0.00    -0.317 N 
ATOM     81  C   UNL A   1      36.705  23.483  25.839  1.00  0.00    -0.033 A 
ATOM     82  C   UNL A   1      35.660  21.442  24.785  1.00  0.00     0.300 C 
ATOM     83  H   UNL A   1      33.993  21.945  25.828  1.00  0.00     0.349 HD
ATOM     84  C   UNL A   1      37.834  24.138  26.348  1.00  0.00     0.006 A 
ATOM     85  C   UNL A   1      36.787  22.129  25.503  1.00  0.00     0.011 A 
ATOM     86  C   UNL A   1      39.049  23.456  26.477  1.00  0.00     0.021 A 
ATOM     87  C   UNL A   1      38.007  21.448  25.645  1.00  0.00     0.030 A 
ATOM     88  C   UNL A   1      39.129  22.114  26.123  1.00  0.00     0.041 A 
ATOM     89  Cl  UNL A   1      40.628  21.276  26.236  1.00  0.00    -0.084 Cl
BRANCH  80  90
ATOM     90  C   UNL A   1      33.329  21.329  24.063  1.00  0.00     0.299 C 
BRANCH  90  91
ATOM     91  C   UNL A   1      33.057  19.848  24.336  1.00  0.00     0.006 A 
ATOM     92  C   UNL A   1      32.767  19.317  25.600  1.00  0.00     0.011 A 
ATOM     93  C   UNL A   1      33.000  18.950  23.264  1.00  0.00     0.011 A 
ATOM     94  C   UNL A   1      32.704  17.936  25.822  1.00  0.00     0.021 A 
ATOM     95  C   UNL A   1      32.915  17.564  23.465  1.00  0.00     0.021 A 
ATOM     96  C   UNL A   1      32.824  17.061  24.754  1.00  0.00     0.041 A 
ATOM     97  Cl  UNL A   1      32.829  15.366  25.032  1.00  0.00    -0.084 Cl
ENDBRANCH  90  91
ENDBRANCH  80  90
ENDBRANCH  75  78
ENDBRANCH  73  74
ENDBRANCH  72  73
ENDBRANCH   1  72
TORSDOF 16
ENDMDL
