MODEL 1
REMARK VINA RESULT:     -12.8      0.000      0.000
REMARK SMILES COC(=O)c1sc(SCC(=O)NCCCCNC(=O)c2ccc(-c3c4nc(c(-c5cccc(S(=O)(=O)[O-])c5F)c5ccc([nH]5)c(-c5cccc(S(=O)(=O)[O-])c5F)c5nc(c(-c6cccc(S(=O)(=O)[O-])c6F)c6ccc3[nH]6)C=C5)C=C4)cc2)c(NC(=O)c2ccccc2)c1O
REMARK SMILES IDX 14 1 13 2 12 3 10 4 11 5 9 7 8 8 7 9 5 10 6 11 93 12 83 13
REMARK SMILES IDX 3 14 4 15 2 16 1 17 94 18 84 20 85 21 86 23 87 24 88 25
REMARK SMILES IDX 92 26 89 27 91 28 90 29 15 30 16 31 17 32 18 33 19 35 20 36
REMARK SMILES IDX 21 37 82 38 22 39 81 40 23 41 24 42 25 43 75 44 26 45 80 46
REMARK SMILES IDX 74 47 76 48 27 49 79 50 73 51 72 52 28 54 60 55 40 56 59 57
REMARK SMILES IDX 41 58 44 59 58 60 77 61 42 62 43 63 57 65 78 66 45 67 29 68
REMARK SMILES IDX 30 69 38 70 31 71 33 72 39 73 32 74 34 75 35 76 36 77 37 78
REMARK SMILES IDX 61 79 62 80 70 81 63 82 65 83 71 84 64 85 66 86 67 87 68 88
REMARK SMILES IDX 69 89 46 90 47 91 55 92 48 93 50 94 56 95 49 96 51 97 52 98
REMARK SMILES IDX 53 99 54 100
REMARK H PARENT 12 6 94 19 84 22 17 34 76 53 44 64
REMARK Flexibility Score: inf
ROOT
ATOM      1  C   UNL A   1      32.698  28.007  26.900  1.00  0.00     0.023 C 
ENDROOT
BRANCH   1   2
ATOM      2  C   UNL A   1      32.204  26.840  26.037  1.00  0.00     0.116 C 
BRANCH   2   3
ATOM      3  N   UNL A   1      31.469  25.844  26.775  1.00  0.00    -0.355 N 
ATOM      4  C   UNL A   1      30.690  24.797  26.352  1.00  0.00     0.230 C 
ATOM      5  O   UNL A   1      30.244  24.078  27.251  1.00  0.00    -0.274 OA
ATOM      6  H   UNL A   1      31.537  25.930  27.753  1.00  0.00     0.163 HD
BRANCH   4   7
ATOM      7  C   UNL A   1      30.408  24.493  24.638  1.00  0.00     0.175 C 
BRANCH   7   8
ATOM      8  S   UNL A   1      31.534  22.746  23.104  1.00  0.00    -0.103 SA
BRANCH   8   9
ATOM      9  C   UNL A   1      32.154  21.144  23.896  1.00  0.00     0.089 A 
ATOM     10  C   UNL A   1      32.913  18.769  24.184  1.00  0.00     0.157 A 
ATOM     11  S   UNL A   1      32.583  19.818  22.861  1.00  0.00    -0.116 S 
ATOM     12  C   UNL A   1      32.747  19.435  25.378  1.00  0.00     0.166 A 
ATOM     13  C   UNL A   1      32.349  20.791  25.235  1.00  0.00     0.109 A 
BRANCH  10  14
ATOM     14  C   UNL A   1      33.324  17.397  23.956  1.00  0.00     0.352 C 
ATOM     15  O   UNL A   1      32.995  16.670  23.026  1.00  0.00    -0.245 OA
BRANCH  14  16
ATOM     16  O   UNL A   1      34.190  17.021  24.952  1.00  0.00    -0.465 OA
ATOM     17  C   UNL A   1      34.106  15.659  25.376  1.00  0.00     0.282 C 
ENDBRANCH  14  16
ENDBRANCH  10  14
BRANCH  12  18
ATOM     18  O   UNL A   1      32.913  18.871  26.597  1.00  0.00    -0.504 OA
ATOM     19  H   UNL A   1      33.551  19.216  27.189  1.00  0.00     0.293 HD
ENDBRANCH  12  18
BRANCH  13  20
ATOM     20  N   UNL A   1      32.156  21.555  26.379  1.00  0.00    -0.317 N 
ATOM     21  C   UNL A   1      33.106  22.294  27.008  1.00  0.00     0.255 C 
ATOM     22  H   UNL A   1      31.251  21.560  26.768  1.00  0.00     0.170 HD
ATOM     23  O   UNL A   1      33.047  22.604  28.187  1.00  0.00    -0.269 OA
BRANCH  21  24
ATOM     24  C   UNL A   1      34.262  22.602  26.173  1.00  0.00     0.040 A 
ATOM     25  C   UNL A   1      35.534  21.350  26.093  1.00  0.00     0.014 A 
ATOM     26  C   UNL A   1      34.185  23.929  24.891  1.00  0.00     0.014 A 
ATOM     27  C   UNL A   1      36.734  21.407  24.768  1.00  0.00     0.001 A 
ATOM     28  C   UNL A   1      35.395  23.921  23.552  1.00  0.00     0.001 A 
ATOM     29  C   UNL A   1      36.656  22.652  23.500  1.00  0.00     0.000 A 
ENDBRANCH  21  24
ENDBRANCH  13  20
ENDBRANCH   8   9
ENDBRANCH   7   8
ENDBRANCH   4   7
ENDBRANCH   2   3
ENDBRANCH   1   2
BRANCH   1  30
ATOM     30  C   UNL A   1      33.841  28.867  26.364  1.00  0.00     0.023 C 
BRANCH  30  31
ATOM     31  C   UNL A   1      34.877  29.247  27.400  1.00  0.00     0.116 C 
BRANCH  31  32
ATOM     32  N   UNL A   1      34.818  30.667  27.770  1.00  0.00    -0.352 N 
ATOM     33  C   UNL A   1      35.417  31.277  28.860  1.00  0.00     0.251 C 
ATOM     34  H   UNL A   1      34.293  31.252  27.177  1.00  0.00     0.163 HD
ATOM     35  O   UNL A   1      35.044  32.364  29.281  1.00  0.00    -0.269 OA
BRANCH  33  36
ATOM     36  C   UNL A   1      36.575  30.591  29.448  1.00  0.00     0.039 A 
ATOM     37  C   UNL A   1      36.495  29.405  30.174  1.00  0.00     0.014 A 
ATOM     38  C   UNL A   1      37.801  31.148  29.108  1.00  0.00     0.014 A 
ATOM     39  C   UNL A   1      37.687  28.770  30.511  1.00  0.00     0.010 A 
ATOM     40  C   UNL A   1      38.917  30.378  29.169  1.00  0.00     0.010 A 
ATOM     41  C   UNL A   1      38.895  29.271  29.990  1.00  0.00    -0.014 A 
BRANCH  41  42
ATOM     42  C   UNL A   1      40.172  28.607  30.166  1.00  0.00     0.031 A 
ATOM     43  C   UNL A   1      40.633  28.649  31.576  1.00  0.00     0.074 A 
ATOM     44  C   UNL A   1      40.715  27.839  29.191  1.00  0.00     0.049 A 
ATOM     45  N   UNL A   1      41.529  29.432  32.076  1.00  0.00    -0.248 NA
ATOM     46  C   UNL A   1      39.840  27.936  32.595  1.00  0.00     0.031 C 
ATOM     47  C   UNL A   1      40.137  27.442  27.894  1.00  0.00     0.029 A 
ATOM     48  N   UNL A   1      41.875  27.139  29.198  1.00  0.00    -0.354 N 
ATOM     49  C   UNL A   1      41.625  29.065  33.415  1.00  0.00     0.074 A 
ATOM     50  C   UNL A   1      40.398  28.383  33.723  1.00  0.00     0.031 C 
ATOM     51  C   UNL A   1      40.824  26.391  27.387  1.00  0.00     0.029 A 
ATOM     52  C   UNL A   1      41.987  26.154  28.219  1.00  0.00     0.049 A 
ATOM     53  H   UNL A   1      42.591  27.315  29.851  1.00  0.00     0.167 HD
ATOM     54  C   UNL A   1      42.836  29.055  34.039  1.00  0.00     0.034 A 
ATOM     55  C   UNL A   1      42.951  25.197  28.133  1.00  0.00     0.034 A 
ATOM     56  C   UNL A   1      43.818  29.757  33.242  1.00  0.00     0.049 A 
ATOM     57  C   UNL A   1      44.082  25.661  28.970  1.00  0.00     0.074 A 
ATOM     58  C   UNL A   1      43.945  31.038  32.746  1.00  0.00     0.029 A 
ATOM     59  N   UNL A   1      44.640  28.967  32.472  1.00  0.00    -0.354 N 
ATOM     60  N   UNL A   1      44.766  26.739  28.705  1.00  0.00    -0.248 NA
ATOM     61  C   UNL A   1      44.100  25.225  30.357  1.00  0.00     0.031 C 
ATOM     62  C   UNL A   1      44.455  30.870  31.424  1.00  0.00     0.029 A 
ATOM     63  C   UNL A   1      44.712  29.512  31.218  1.00  0.00     0.049 A 
ATOM     64  H   UNL A   1      45.097  28.149  32.772  1.00  0.00     0.167 HD
ATOM     65  C   UNL A   1      44.892  27.372  29.936  1.00  0.00     0.074 A 
ATOM     66  C   UNL A   1      44.530  26.354  30.926  1.00  0.00     0.031 C 
ATOM     67  C   UNL A   1      44.958  28.735  30.022  1.00  0.00     0.034 A 
BRANCH  54  68
ATOM     68  C   UNL A   1      43.268  28.068  35.107  1.00  0.00     0.023 A 
ATOM     69  C   UNL A   1      43.841  28.617  36.278  1.00  0.00     0.012 A 
ATOM     70  C   UNL A   1      43.410  26.672  34.928  1.00  0.00     0.148 A 
ATOM     71  C   UNL A   1      44.579  27.840  37.175  1.00  0.00     0.002 A 
ATOM     72  C   UNL A   1      44.087  25.889  35.857  1.00  0.00     0.091 A 
ATOM     73  F   UNL A   1      42.999  26.088  33.803  1.00  0.00    -0.205 F 
ATOM     74  C   UNL A   1      44.704  26.473  36.965  1.00  0.00     0.022 A 
BRANCH  72  75
ATOM     75  S   UNL A   1      44.255  24.109  35.657  1.00  0.00     0.127 S 
ATOM     76  O   UNL A   1      42.863  23.703  35.491  1.00  0.00    -0.237 OA
ATOM     77  O   UNL A   1      45.075  24.025  34.449  1.00  0.00    -0.237 OA
ATOM     78  O   UNL A   1      44.919  23.636  36.865  1.00  0.00    -0.744 OA
ENDBRANCH  72  75
ENDBRANCH  54  68
BRANCH  55  79
ATOM     79  C   UNL A   1      42.841  23.777  27.704  1.00  0.00     0.023 A 
ATOM     80  C   UNL A   1      41.686  23.024  28.009  1.00  0.00     0.012 A 
ATOM     81  C   UNL A   1      43.727  23.259  26.735  1.00  0.00     0.148 A 
ATOM     82  C   UNL A   1      41.415  21.810  27.355  1.00  0.00     0.002 A 
ATOM     83  C   UNL A   1      43.456  22.054  26.091  1.00  0.00     0.091 A 
ATOM     84  F   UNL A   1      44.785  23.999  26.380  1.00  0.00    -0.205 F 
ATOM     85  C   UNL A   1      42.296  21.330  26.390  1.00  0.00     0.022 A 
BRANCH  83  86
ATOM     86  S   UNL A   1      44.531  21.389  24.813  1.00  0.00     0.127 S 
ATOM     87  O   UNL A   1      45.831  21.403  25.485  1.00  0.00    -0.237 OA
ATOM     88  O   UNL A   1      43.961  20.060  24.605  1.00  0.00    -0.237 OA
ATOM     89  O   UNL A   1      44.418  22.312  23.693  1.00  0.00    -0.744 OA
ENDBRANCH  83  86
ENDBRANCH  55  79
BRANCH  67  90
ATOM     90  C   UNL A   1      45.128  29.519  28.743  1.00  0.00     0.023 A 
ATOM     91  C   UNL A   1      44.051  29.920  27.920  1.00  0.00     0.012 A 
ATOM     92  C   UNL A   1      46.410  30.014  28.466  1.00  0.00     0.148 A 
ATOM     93  C   UNL A   1      44.260  30.787  26.841  1.00  0.00     0.002 A 
ATOM     94  C   UNL A   1      46.607  30.909  27.424  1.00  0.00     0.091 A 
ATOM     95  F   UNL A   1      47.418  29.626  29.263  1.00  0.00    -0.205 F 
ATOM     96  C   UNL A   1      45.536  31.292  26.600  1.00  0.00     0.022 A 
BRANCH  94  97
ATOM     97  S   UNL A   1      48.200  31.682  27.150  1.00  0.00     0.127 S 
ATOM     98  O   UNL A   1      48.522  32.192  28.481  1.00  0.00    -0.237 OA
ATOM     99  O   UNL A   1      49.022  30.554  26.709  1.00  0.00    -0.237 OA
ATOM    100  O   UNL A   1      47.985  32.698  26.127  1.00  0.00    -0.744 OA
ENDBRANCH  94  97
ENDBRANCH  67  90
ENDBRANCH  41  42
ENDBRANCH  33  36
ENDBRANCH  31  32
ENDBRANCH  30  31
ENDBRANCH   1  30
TORSDOF 21
ENDMDL
MODEL 2
REMARK VINA RESULT:     -12.2      3.973      9.580
REMARK SMILES COC(=O)c1sc(SCC(=O)NCCCCNC(=O)c2ccc(-c3c4nc(c(-c5cccc(S(=O)(=O)[O-])c5F)c5ccc([nH]5)c(-c5cccc(S(=O)(=O)[O-])c5F)c5nc(c(-c6cccc(S(=O)(=O)[O-])c6F)c6ccc3[nH]6)C=C5)C=C4)cc2)c(NC(=O)c2ccccc2)c1O
REMARK SMILES IDX 14 1 13 2 12 3 10 4 11 5 9 7 8 8 7 9 5 10 6 11 93 12 83 13
REMARK SMILES IDX 3 14 4 15 2 16 1 17 94 18 84 20 85 21 86 23 87 24 88 25
REMARK SMILES IDX 92 26 89 27 91 28 90 29 15 30 16 31 17 32 18 33 19 35 20 36
REMARK SMILES IDX 21 37 82 38 22 39 81 40 23 41 24 42 25 43 75 44 26 45 80 46
REMARK SMILES IDX 74 47 76 48 27 49 79 50 73 51 72 52 28 54 60 55 40 56 59 57
REMARK SMILES IDX 41 58 44 59 58 60 77 61 42 62 43 63 57 65 78 66 45 67 29 68
REMARK SMILES IDX 30 69 38 70 31 71 33 72 39 73 32 74 34 75 35 76 36 77 37 78
REMARK SMILES IDX 61 79 62 80 70 81 63 82 65 83 71 84 64 85 66 86 67 87 68 88
REMARK SMILES IDX 69 89 46 90 47 91 55 92 48 93 50 94 56 95 49 96 51 97 52 98
REMARK SMILES IDX 53 99 54 100
REMARK H PARENT 12 6 94 19 84 22 17 34 76 53 44 64
REMARK Flexibility Score: inf
ROOT
ATOM      1  C   UNL A   1      36.952  23.635  26.099  1.00  0.00     0.023 C 
ENDROOT
BRANCH   1   2
ATOM      2  C   UNL A   1      35.543  23.301  25.593  1.00  0.00     0.116 C 
BRANCH   2   3
ATOM      3  N   UNL A   1      35.279  23.773  24.258  1.00  0.00    -0.355 N 
ATOM      4  C   UNL A   1      34.170  24.368  23.711  1.00  0.00     0.230 C 
ATOM      5  O   UNL A   1      34.288  24.718  22.534  1.00  0.00    -0.274 OA
ATOM      6  H   UNL A   1      36.025  23.648  23.627  1.00  0.00     0.163 HD
BRANCH   4   7
ATOM      7  C   UNL A   1      32.712  24.647  24.663  1.00  0.00     0.175 C 
BRANCH   7   8
ATOM      8  S   UNL A   1      30.326  25.192  23.837  1.00  0.00    -0.103 SA
BRANCH   8   9
ATOM      9  C   UNL A   1      29.987  26.943  23.210  1.00  0.00     0.089 A 
ATOM     10  C   UNL A   1      28.792  29.064  22.601  1.00  0.00     0.157 A 
ATOM     11  S   UNL A   1      28.414  27.629  23.469  1.00  0.00    -0.116 S 
ATOM     12  C   UNL A   1      30.100  29.036  22.172  1.00  0.00     0.166 A 
ATOM     13  C   UNL A   1      30.804  27.857  22.536  1.00  0.00     0.109 A 
BRANCH  10  14
ATOM     14  C   UNL A   1      27.798  30.106  22.424  1.00  0.00     0.352 C 
ATOM     15  O   UNL A   1      27.052  30.571  23.278  1.00  0.00    -0.245 OA
BRANCH  14  16
ATOM     16  O   UNL A   1      27.831  30.536  21.121  1.00  0.00    -0.465 OA
ATOM     17  C   UNL A   1      27.994  31.942  20.928  1.00  0.00     0.282 C 
ENDBRANCH  14  16
ENDBRANCH  10  14
BRANCH  12  18
ATOM     18  O   UNL A   1      30.687  30.015  21.444  1.00  0.00    -0.504 OA
ATOM     19  H   UNL A   1      30.184  30.501  20.822  1.00  0.00     0.293 HD
ENDBRANCH  12  18
BRANCH  13  20
ATOM     20  N   UNL A   1      32.133  27.728  22.154  1.00  0.00    -0.317 N 
ATOM     21  C   UNL A   1      33.203  28.224  22.829  1.00  0.00     0.255 C 
ATOM     22  H   UNL A   1      32.316  27.235  21.322  1.00  0.00     0.170 HD
ATOM     23  O   UNL A   1      34.277  28.468  22.302  1.00  0.00    -0.269 OA
BRANCH  21  24
ATOM     24  C   UNL A   1      32.924  28.539  24.226  1.00  0.00     0.040 A 
ATOM     25  C   UNL A   1      34.025  27.816  25.433  1.00  0.00     0.014 A 
ATOM     26  C   UNL A   1      31.860  29.977  24.684  1.00  0.00     0.014 A 
ATOM     27  C   UNL A   1      34.072  28.493  27.088  1.00  0.00     0.001 A 
ATOM     28  C   UNL A   1      31.973  30.649  26.355  1.00  0.00     0.001 A 
ATOM     29  C   UNL A   1      33.087  29.903  27.541  1.00  0.00     0.000 A 
ENDBRANCH  21  24
ENDBRANCH  13  20
ENDBRANCH   8   9
ENDBRANCH   7   8
ENDBRANCH   4   7
ENDBRANCH   2   3
ENDBRANCH   1   2
BRANCH   1  30
ATOM     30  C   UNL A   1      38.133  22.887  25.485  1.00  0.00     0.023 C 
BRANCH  30  31
ATOM     31  C   UNL A   1      39.023  22.189  26.491  1.00  0.00     0.116 C 
BRANCH  31  32
ATOM     32  N   UNL A   1      40.372  21.925  25.973  1.00  0.00    -0.352 N 
ATOM     33  C   UNL A   1      41.447  22.799  25.943  1.00  0.00     0.251 C 
ATOM     34  H   UNL A   1      40.530  21.025  25.605  1.00  0.00     0.163 HD
ATOM     35  O   UNL A   1      42.403  22.623  25.201  1.00  0.00    -0.269 OA
BRANCH  33  36
ATOM     36  C   UNL A   1      41.421  23.911  26.901  1.00  0.00     0.039 A 
ATOM     37  C   UNL A   1      42.155  23.939  28.086  1.00  0.00     0.014 A 
ATOM     38  C   UNL A   1      40.701  25.018  26.472  1.00  0.00     0.014 A 
ATOM     39  C   UNL A   1      42.179  25.132  28.803  1.00  0.00     0.010 A 
ATOM     40  C   UNL A   1      40.980  26.236  27.003  1.00  0.00     0.010 A 
ATOM     41  C   UNL A   1      41.588  26.277  28.239  1.00  0.00    -0.014 A 
BRANCH  41  42
ATOM     42  C   UNL A   1      41.677  27.595  28.838  1.00  0.00     0.031 A 
ATOM     43  C   UNL A   1      42.817  28.377  28.298  1.00  0.00     0.074 A 
ATOM     44  C   UNL A   1      40.677  28.101  29.600  1.00  0.00     0.049 A 
ATOM     45  N   UNL A   1      43.957  28.582  28.869  1.00  0.00    -0.248 NA
ATOM     46  C   UNL A   1      42.798  28.752  26.872  1.00  0.00     0.031 C 
ATOM     47  C   UNL A   1      39.344  27.533  29.875  1.00  0.00     0.029 A 
ATOM     48  N   UNL A   1      40.590  29.308  30.208  1.00  0.00    -0.354 N 
ATOM     49  C   UNL A   1      44.664  29.391  27.985  1.00  0.00     0.074 A 
ATOM     50  C   UNL A   1      44.042  29.210  26.704  1.00  0.00     0.031 C 
ATOM     51  C   UNL A   1      38.525  28.495  30.358  1.00  0.00     0.029 A 
ATOM     52  C   UNL A   1      39.307  29.692  30.596  1.00  0.00     0.049 A 
ATOM     53  H   UNL A   1      41.379  29.875  30.366  1.00  0.00     0.167 HD
ATOM     54  C   UNL A   1      45.469  30.384  28.459  1.00  0.00     0.034 A 
ATOM     55  C   UNL A   1      38.926  30.920  31.042  1.00  0.00     0.034 A 
ATOM     56  C   UNL A   1      45.693  30.216  29.877  1.00  0.00     0.049 A 
ATOM     57  C   UNL A   1      40.162  31.616  31.472  1.00  0.00     0.074 A 
ATOM     58  C   UNL A   1      46.233  29.229  30.675  1.00  0.00     0.029 A 
ATOM     59  N   UNL A   1      44.907  30.986  30.703  1.00  0.00    -0.354 N 
ATOM     60  N   UNL A   1      40.903  31.201  32.461  1.00  0.00    -0.248 NA
ATOM     61  C   UNL A   1      40.832  32.441  30.481  1.00  0.00     0.031 C 
ATOM     62  C   UNL A   1      45.377  29.171  31.816  1.00  0.00     0.029 A 
ATOM     63  C   UNL A   1      44.427  30.190  31.708  1.00  0.00     0.049 A 
ATOM     64  H   UNL A   1      44.721  31.946  30.589  1.00  0.00     0.167 HD
ATOM     65  C   UNL A   1      42.202  31.300  31.977  1.00  0.00     0.074 A 
ATOM     66  C   UNL A   1      42.099  32.143  30.783  1.00  0.00     0.031 C 
ATOM     67  C   UNL A   1      43.175  30.435  32.393  1.00  0.00     0.034 A 
BRANCH  54  68
ATOM     68  C   UNL A   1      45.691  31.729  27.793  1.00  0.00     0.023 A 
ATOM     69  C   UNL A   1      47.035  32.142  27.640  1.00  0.00     0.012 A 
ATOM     70  C   UNL A   1      44.698  32.712  27.574  1.00  0.00     0.148 A 
ATOM     71  C   UNL A   1      47.374  33.470  27.366  1.00  0.00     0.002 A 
ATOM     72  C   UNL A   1      45.036  34.017  27.235  1.00  0.00     0.091 A 
ATOM     73  F   UNL A   1      43.414  32.440  27.803  1.00  0.00    -0.205 F 
ATOM     74  C   UNL A   1      46.374  34.411  27.163  1.00  0.00     0.022 A 
BRANCH  72  75
ATOM     75  S   UNL A   1      43.785  35.274  26.928  1.00  0.00     0.127 S 
ATOM     76  O   UNL A   1      44.605  36.472  26.787  1.00  0.00    -0.237 OA
ATOM     77  O   UNL A   1      43.178  34.787  25.689  1.00  0.00    -0.237 OA
ATOM     78  O   UNL A   1      42.897  35.239  28.083  1.00  0.00    -0.744 OA
ENDBRANCH  72  75
ENDBRANCH  54  68
BRANCH  55  79
ATOM     79  C   UNL A   1      37.667  31.670  30.792  1.00  0.00     0.023 A 
ATOM     80  C   UNL A   1      36.848  31.349  29.687  1.00  0.00     0.012 A 
ATOM     81  C   UNL A   1      37.114  32.484  31.804  1.00  0.00     0.148 A 
ATOM     82  C   UNL A   1      35.523  31.806  29.606  1.00  0.00     0.002 A 
ATOM     83  C   UNL A   1      35.799  32.937  31.718  1.00  0.00     0.091 A 
ATOM     84  F   UNL A   1      37.851  32.733  32.895  1.00  0.00    -0.205 F 
ATOM     85  C   UNL A   1      34.996  32.592  30.625  1.00  0.00     0.022 A 
BRANCH  83  86
ATOM     86  S   UNL A   1      35.042  33.930  33.012  1.00  0.00     0.127 S 
ATOM     87  O   UNL A   1      35.162  33.045  34.171  1.00  0.00    -0.237 OA
ATOM     88  O   UNL A   1      35.916  35.100  33.040  1.00  0.00    -0.237 OA
ATOM     89  O   UNL A   1      33.676  34.167  32.569  1.00  0.00    -0.744 OA
ENDBRANCH  83  86
ENDBRANCH  55  79
BRANCH  67  90
ATOM     90  C   UNL A   1      42.866  29.526  33.558  1.00  0.00     0.023 A 
ATOM     91  C   UNL A   1      42.084  28.354  33.452  1.00  0.00     0.012 A 
ATOM     92  C   UNL A   1      43.542  29.780  34.760  1.00  0.00     0.148 A 
ATOM     93  C   UNL A   1      41.974  27.467  34.530  1.00  0.00     0.002 A 
ATOM     94  C   UNL A   1      43.468  28.877  35.810  1.00  0.00     0.091 A 
ATOM     95  F   UNL A   1      44.284  30.895  34.838  1.00  0.00    -0.205 F 
ATOM     96  C   UNL A   1      42.678  27.722  35.706  1.00  0.00     0.022 A 
BRANCH  94  97
ATOM     97  S   UNL A   1      44.450  29.095  37.294  1.00  0.00     0.127 S 
ATOM     98  O   UNL A   1      45.799  29.230  36.748  1.00  0.00    -0.237 OA
ATOM     99  O   UNL A   1      43.890  30.323  37.860  1.00  0.00    -0.237 OA
ATOM    100  O   UNL A   1      44.221  27.907  38.107  1.00  0.00    -0.744 OA
ENDBRANCH  94  97
ENDBRANCH  67  90
ENDBRANCH  41  42
ENDBRANCH  33  36
ENDBRANCH  31  32
ENDBRANCH  30  31
ENDBRANCH   1  30
TORSDOF 21
ENDMDL
MODEL 3
REMARK VINA RESULT:     -12.1      1.454      1.884
REMARK SMILES COC(=O)c1sc(SCC(=O)NCCCCNC(=O)c2ccc(-c3c4nc(c(-c5cccc(S(=O)(=O)[O-])c5F)c5ccc([nH]5)c(-c5cccc(S(=O)(=O)[O-])c5F)c5nc(c(-c6cccc(S(=O)(=O)[O-])c6F)c6ccc3[nH]6)C=C5)C=C4)cc2)c(NC(=O)c2ccccc2)c1O
REMARK SMILES IDX 14 1 13 2 12 3 10 4 11 5 9 7 8 8 7 9 5 10 6 11 93 12 83 13
REMARK SMILES IDX 3 14 4 15 2 16 1 17 94 18 84 20 85 21 86 23 87 24 88 25
REMARK SMILES IDX 92 26 89 27 91 28 90 29 15 30 16 31 17 32 18 33 19 35 20 36
REMARK SMILES IDX 21 37 82 38 22 39 81 40 23 41 24 42 25 43 75 44 26 45 80 46
REMARK SMILES IDX 74 47 76 48 27 49 79 50 73 51 72 52 28 54 60 55 40 56 59 57
REMARK SMILES IDX 41 58 44 59 58 60 77 61 42 62 43 63 57 65 78 66 45 67 29 68
REMARK SMILES IDX 30 69 38 70 31 71 33 72 39 73 32 74 34 75 35 76 36 77 37 78
REMARK SMILES IDX 61 79 62 80 70 81 63 82 65 83 71 84 64 85 66 86 67 87 68 88
REMARK SMILES IDX 69 89 46 90 47 91 55 92 48 93 50 94 56 95 49 96 51 97 52 98
REMARK SMILES IDX 53 99 54 100
REMARK H PARENT 12 6 94 19 84 22 17 34 76 53 44 64
REMARK Flexibility Score: inf
ROOT
ATOM      1  C   UNL A   1      33.248  27.263  26.254  1.00  0.00     0.023 C 
ENDROOT
BRANCH   1   2
ATOM      2  C   UNL A   1      31.775  26.941  26.531  1.00  0.00     0.116 C 
BRANCH   2   3
ATOM      3  N   UNL A   1      30.913  27.148  25.395  1.00  0.00    -0.355 N 
ATOM      4  C   UNL A   1      30.256  26.257  24.583  1.00  0.00     0.230 C 
ATOM      5  O   UNL A   1      29.532  26.766  23.723  1.00  0.00    -0.274 OA
ATOM      6  H   UNL A   1      30.770  28.093  25.159  1.00  0.00     0.163 HD
BRANCH   4   7
ATOM      7  C   UNL A   1      30.413  24.516  24.812  1.00  0.00     0.175 C 
BRANCH   7   8
ATOM      8  S   UNL A   1      31.423  22.763  23.207  1.00  0.00    -0.103 SA
BRANCH   8   9
ATOM      9  C   UNL A   1      32.070  21.150  23.953  1.00  0.00     0.089 A 
ATOM     10  C   UNL A   1      32.844  18.774  24.180  1.00  0.00     0.157 A 
ATOM     11  S   UNL A   1      32.471  19.842  22.885  1.00  0.00    -0.116 S 
ATOM     12  C   UNL A   1      32.713  19.419  25.389  1.00  0.00     0.166 A 
ATOM     13  C   UNL A   1      32.308  20.777  25.280  1.00  0.00     0.109 A 
BRANCH  10  14
ATOM     14  C   UNL A   1      33.251  17.406  23.918  1.00  0.00     0.352 C 
ATOM     15  O   UNL A   1      33.476  16.896  22.827  1.00  0.00    -0.245 OA
BRANCH  14  16
ATOM     16  O   UNL A   1      33.383  16.744  25.113  1.00  0.00    -0.465 OA
ATOM     17  C   UNL A   1      34.533  15.907  25.244  1.00  0.00     0.282 C 
ENDBRANCH  14  16
ENDBRANCH  10  14
BRANCH  12  18
ATOM     18  O   UNL A   1      32.918  18.837  26.593  1.00  0.00    -0.504 OA
ATOM     19  H   UNL A   1      32.776  19.324  27.380  1.00  0.00     0.293 HD
ENDBRANCH  12  18
BRANCH  13  20
ATOM     20  N   UNL A   1      32.147  21.522  26.442  1.00  0.00    -0.317 N 
ATOM     21  C   UNL A   1      33.113  22.261  27.048  1.00  0.00     0.255 C 
ATOM     22  H   UNL A   1      31.257  21.513  26.862  1.00  0.00     0.170 HD
ATOM     23  O   UNL A   1      33.092  22.552  28.233  1.00  0.00    -0.269 OA
BRANCH  21  24
ATOM     24  C   UNL A   1      34.236  22.591  26.178  1.00  0.00     0.040 A 
ATOM     25  C   UNL A   1      35.509  21.346  26.026  1.00  0.00     0.014 A 
ATOM     26  C   UNL A   1      34.108  23.944  24.930  1.00  0.00     0.014 A 
ATOM     27  C   UNL A   1      36.660  21.437  24.660  1.00  0.00     0.001 A 
ATOM     28  C   UNL A   1      35.269  23.970  23.548  1.00  0.00     0.001 A 
ATOM     29  C   UNL A   1      36.532  22.709  23.423  1.00  0.00     0.000 A 
ENDBRANCH  21  24
ENDBRANCH  13  20
ENDBRANCH   8   9
ENDBRANCH   7   8
ENDBRANCH   4   7
ENDBRANCH   2   3
ENDBRANCH   1   2
BRANCH   1  30
ATOM     30  C   UNL A   1      33.692  28.723  26.319  1.00  0.00     0.023 C 
BRANCH  30  31
ATOM     31  C   UNL A   1      34.355  29.118  27.621  1.00  0.00     0.116 C 
BRANCH  31  32
ATOM     32  N   UNL A   1      34.108  30.520  27.984  1.00  0.00    -0.352 N 
ATOM     33  C   UNL A   1      34.966  31.379  28.652  1.00  0.00     0.251 C 
ATOM     34  H   UNL A   1      33.234  30.891  27.723  1.00  0.00     0.163 HD
ATOM     35  O   UNL A   1      34.564  32.392  29.208  1.00  0.00    -0.269 OA
BRANCH  33  36
ATOM     36  C   UNL A   1      36.397  31.056  28.599  1.00  0.00     0.039 A 
ATOM     37  C   UNL A   1      37.404  31.891  29.080  1.00  0.00     0.014 A 
ATOM     38  C   UNL A   1      36.677  29.774  28.148  1.00  0.00     0.014 A 
ATOM     39  C   UNL A   1      38.698  31.379  29.135  1.00  0.00     0.010 A 
ATOM     40  C   UNL A   1      37.856  29.194  28.490  1.00  0.00     0.010 A 
ATOM     41  C   UNL A   1      38.904  30.019  28.841  1.00  0.00    -0.014 A 
BRANCH  41  42
ATOM     42  C   UNL A   1      40.184  29.355  29.001  1.00  0.00     0.031 A 
ATOM     43  C   UNL A   1      40.514  29.119  30.428  1.00  0.00     0.074 A 
ATOM     44  C   UNL A   1      40.839  28.810  27.948  1.00  0.00     0.049 A 
ATOM     45  N   UNL A   1      41.333  29.799  31.157  1.00  0.00    -0.248 NA
ATOM     46  C   UNL A   1      39.659  28.201  31.204  1.00  0.00     0.031 C 
ATOM     47  C   UNL A   1      40.395  28.674  26.549  1.00  0.00     0.029 A 
ATOM     48  N   UNL A   1      42.018  28.143  27.925  1.00  0.00    -0.354 N 
ATOM     49  C   UNL A   1      41.321  29.170  32.399  1.00  0.00     0.074 A 
ATOM     50  C   UNL A   1      40.097  28.420  32.446  1.00  0.00     0.031 C 
ATOM     51  C   UNL A   1      41.161  27.760  25.910  1.00  0.00     0.029 A 
ATOM     52  C   UNL A   1      42.253  27.379  26.784  1.00  0.00     0.049 A 
ATOM     53  H   UNL A   1      42.666  28.195  28.665  1.00  0.00     0.167 HD
ATOM     54  C   UNL A   1      42.471  29.055  33.121  1.00  0.00     0.034 A 
ATOM     55  C   UNL A   1      43.254  26.475  26.601  1.00  0.00     0.034 A 
ATOM     56  C   UNL A   1      43.495  29.921  32.577  1.00  0.00     0.049 A 
ATOM     57  C   UNL A   1      44.289  26.780  27.618  1.00  0.00     0.074 A 
ATOM     58  C   UNL A   1      43.619  31.278  32.362  1.00  0.00     0.029 A 
ATOM     59  N   UNL A   1      44.410  29.318  31.746  1.00  0.00    -0.354 N 
ATOM     60  N   UNL A   1      44.954  27.901  27.640  1.00  0.00    -0.248 NA
ATOM     61  C   UNL A   1      44.197  26.072  28.884  1.00  0.00     0.031 C 
ATOM     62  C   UNL A   1      44.252  31.389  31.087  1.00  0.00     0.029 A 
ATOM     63  C   UNL A   1      44.575  30.106  30.640  1.00  0.00     0.049 A 
ATOM     64  H   UNL A   1      44.868  28.463  31.919  1.00  0.00     0.167 HD
ATOM     65  C   UNL A   1      44.946  28.274  28.978  1.00  0.00     0.074 A 
ATOM     66  C   UNL A   1      44.534  27.070  29.706  1.00  0.00     0.031 C 
ATOM     67  C   UNL A   1      44.956  29.591  29.341  1.00  0.00     0.034 A 
BRANCH  54  68
ATOM     68  C   UNL A   1      42.841  27.880  34.006  1.00  0.00     0.023 A 
ATOM     69  C   UNL A   1      42.937  28.142  35.393  1.00  0.00     0.012 A 
ATOM     70  C   UNL A   1      43.363  26.645  33.558  1.00  0.00     0.148 A 
ATOM     71  C   UNL A   1      43.586  27.265  36.268  1.00  0.00     0.002 A 
ATOM     72  C   UNL A   1      43.947  25.743  34.441  1.00  0.00     0.091 A 
ATOM     73  F   UNL A   1      43.414  26.363  32.256  1.00  0.00    -0.205 F 
ATOM     74  C   UNL A   1      44.093  26.063  35.792  1.00  0.00     0.022 A 
BRANCH  72  75
ATOM     75  S   UNL A   1      44.594  24.157  33.891  1.00  0.00     0.127 S 
ATOM     76  O   UNL A   1      45.633  23.907  34.884  1.00  0.00    -0.237 OA
ATOM     77  O   UNL A   1      43.410  23.304  34.001  1.00  0.00    -0.237 OA
ATOM     78  O   UNL A   1      45.053  24.369  32.524  1.00  0.00    -0.744 OA
ENDBRANCH  72  75
ENDBRANCH  54  68
BRANCH  55  79
ATOM     79  C   UNL A   1      43.234  25.170  25.888  1.00  0.00     0.023 A 
ATOM     80  C   UNL A   1      44.257  24.837  24.974  1.00  0.00     0.012 A 
ATOM     81  C   UNL A   1      42.388  24.133  26.334  1.00  0.00     0.148 A 
ATOM     82  C   UNL A   1      44.442  23.515  24.538  1.00  0.00     0.002 A 
ATOM     83  C   UNL A   1      42.573  22.823  25.897  1.00  0.00     0.091 A 
ATOM     84  F   UNL A   1      41.463  24.418  27.260  1.00  0.00    -0.205 F 
ATOM     85  C   UNL A   1      43.605  22.506  25.007  1.00  0.00     0.022 A 
BRANCH  83  86
ATOM     86  S   UNL A   1      41.551  21.464  26.484  1.00  0.00     0.127 S 
ATOM     87  O   UNL A   1      40.215  21.904  26.079  1.00  0.00    -0.237 OA
ATOM     88  O   UNL A   1      42.085  20.338  25.722  1.00  0.00    -0.237 OA
ATOM     89  O   UNL A   1      41.761  21.416  27.923  1.00  0.00    -0.744 OA
ENDBRANCH  83  86
ENDBRANCH  55  79
BRANCH  67  90
ATOM     90  C   UNL A   1      45.211  30.621  28.267  1.00  0.00     0.023 A 
ATOM     91  C   UNL A   1      44.185  31.301  27.572  1.00  0.00     0.012 A 
ATOM     92  C   UNL A   1      46.538  31.036  28.087  1.00  0.00     0.148 A 
ATOM     93  C   UNL A   1      44.487  32.363  26.710  1.00  0.00     0.002 A 
ATOM     94  C   UNL A   1      46.830  32.117  27.267  1.00  0.00     0.091 A 
ATOM     95  F   UNL A   1      47.497  30.382  28.760  1.00  0.00    -0.205 F 
ATOM     96  C   UNL A   1      45.809  32.780  26.567  1.00  0.00     0.022 A 
BRANCH  94  97
ATOM     97  S   UNL A   1      48.495  32.770  27.147  1.00  0.00     0.127 S 
ATOM     98  O   UNL A   1      49.210  31.662  26.519  1.00  0.00    -0.237 OA
ATOM     99  O   UNL A   1      48.308  33.944  26.293  1.00  0.00    -0.237 OA
ATOM    100  O   UNL A   1      48.904  33.084  28.511  1.00  0.00    -0.744 OA
ENDBRANCH  94  97
ENDBRANCH  67  90
ENDBRANCH  41  42
ENDBRANCH  33  36
ENDBRANCH  31  32
ENDBRANCH  30  31
ENDBRANCH   1  30
TORSDOF 21
ENDMDL
