MODEL 1
REMARK VINA RESULT:     -11.0      0.000      0.000
REMARK SMILES C[NH2+]C[C@H]1CCCC[N@H+]1[C@H](C)[C@@H](C)C(=O)NCCCCNC(=O)c1ccc(-c2c3nc(c(-c4cccc(S(=O)(=O)[O-])c4F)c4ccc([nH]4)c(-c4cccc(S(=O)(=O)[O-])c4F)c4nc(c(-c5cccc(S(=O)(=O)[O-])c5F)c5ccc2[nH]5)C=C4)C=C3)cc1
REMARK SMILES IDX 18 1 17 2 16 3 14 4 15 5 12 7 13 8 10 9 11 10 9 11 4 12 5 13
REMARK SMILES IDX 6 14 8 15 7 17 3 18 2 19 1 20 19 23 20 24 21 25 22 26 23 28
REMARK SMILES IDX 24 29 25 30 86 31 26 32 85 33 27 34 28 35 29 36 79 37 30 38
REMARK SMILES IDX 84 39 78 40 80 41 31 42 83 43 77 44 76 45 32 47 64 48 44 49
REMARK SMILES IDX 63 50 45 51 48 52 62 53 81 54 46 55 47 56 61 58 82 59 49 60
REMARK SMILES IDX 33 61 34 62 42 63 35 64 37 65 43 66 36 67 38 68 39 69 40 70
REMARK SMILES IDX 41 71 65 72 66 73 74 74 67 75 69 76 75 77 68 78 70 79 71 80
REMARK SMILES IDX 72 81 73 82 50 83 51 84 59 85 52 86 54 87 60 88 53 89 55 90
REMARK SMILES IDX 56 91 57 92 58 93
REMARK H PARENT 16 6 9 16 2 21 2 22 21 27 80 46 48 57
REMARK Flexibility Score: inf
ROOT
ATOM      1  C   UNL A   1      35.392  23.051  25.835  1.00  0.00     0.023 C 
ENDROOT
BRANCH   1   2
ATOM      2  C   UNL A   1      34.003  23.383  25.289  1.00  0.00     0.116 C 
BRANCH   2   3
ATOM      3  N   UNL A   1      32.965  23.444  26.298  1.00  0.00    -0.356 N 
ATOM      4  C   UNL A   1      31.685  23.899  26.267  1.00  0.00     0.228 C 
ATOM      5  O   UNL A   1      30.990  23.686  27.270  1.00  0.00    -0.275 OA
ATOM      6  H   UNL A   1      33.241  23.089  27.175  1.00  0.00     0.163 HD
BRANCH   4   7
ATOM      7  C   UNL A   1      31.050  24.578  25.059  1.00  0.00     0.133 C 
ATOM      8  C   UNL A   1      30.943  23.469  23.993  1.00  0.00     0.024 C 
BRANCH   7   9
ATOM      9  C   UNL A   1      31.686  25.928  24.574  1.00  0.00     0.193 C 
ATOM     10  C   UNL A   1      30.627  26.711  23.759  1.00  0.00     0.076 C 
BRANCH   9  11
ATOM     11  N   UNL A   1      32.262  26.910  25.537  1.00  0.00    -0.325 N 
ATOM     12  C   UNL A   1      33.430  27.739  25.192  1.00  0.00     0.239 C 
ATOM     13  C   UNL A   1      34.066  28.268  26.505  1.00  0.00     0.071 C 
ATOM     14  C   UNL A   1      33.100  29.023  27.413  1.00  0.00     0.012 C 
ATOM     15  C   UNL A   1      31.249  27.638  26.314  1.00  0.00     0.262 C 
ATOM     16  H   UNL A   1      32.741  26.234  26.130  1.00  0.00     0.348 HD
ATOM     17  C   UNL A   1      31.803  28.251  27.604  1.00  0.00     0.062 C 
BRANCH  12  18
ATOM     18  C   UNL A   1      33.317  28.897  24.144  1.00  0.00     0.326 C 
BRANCH  18  19
ATOM     19  N   UNL A   1      34.203  28.967  22.982  1.00  0.00    -0.344 N 
ATOM     20  C   UNL A   1      33.882  27.929  22.010  1.00  0.00     0.331 C 
ATOM     21  H   UNL A   1      34.101  29.880  22.540  1.00  0.00     0.346 HD
ATOM     22  H   UNL A   1      35.162  28.826  23.299  1.00  0.00     0.346 HD
ENDBRANCH  18  19
ENDBRANCH  12  18
ENDBRANCH   9  11
ENDBRANCH   7   9
ENDBRANCH   4   7
ENDBRANCH   2   3
ENDBRANCH   1   2
BRANCH   1  23
ATOM     23  C   UNL A   1      35.930  21.658  25.535  1.00  0.00     0.023 C 
BRANCH  23  24
ATOM     24  C   UNL A   1      37.256  21.616  24.802  1.00  0.00     0.116 C 
BRANCH  24  25
ATOM     25  N   UNL A   1      38.143  20.565  25.277  1.00  0.00    -0.352 N 
ATOM     26  C   UNL A   1      39.306  20.669  26.004  1.00  0.00     0.251 C 
ATOM     27  H   UNL A   1      37.871  19.647  25.045  1.00  0.00     0.163 HD
ATOM     28  O   UNL A   1      39.978  19.673  26.228  1.00  0.00    -0.269 OA
BRANCH  26  29
ATOM     29  C   UNL A   1      39.753  21.999  26.476  1.00  0.00     0.039 A 
ATOM     30  C   UNL A   1      40.766  22.064  27.435  1.00  0.00     0.014 A 
ATOM     31  C   UNL A   1      39.204  23.171  25.952  1.00  0.00     0.014 A 
ATOM     32  C   UNL A   1      41.275  23.306  27.816  1.00  0.00     0.010 A 
ATOM     33  C   UNL A   1      39.777  24.399  26.261  1.00  0.00     0.010 A 
ATOM     34  C   UNL A   1      40.812  24.482  27.204  1.00  0.00    -0.014 A 
BRANCH  34  35
ATOM     35  C   UNL A   1      41.396  25.807  27.532  1.00  0.00     0.031 A 
ATOM     36  C   UNL A   1      42.817  26.120  27.149  1.00  0.00     0.074 A 
ATOM     37  C   UNL A   1      40.677  26.693  28.249  1.00  0.00     0.049 A 
ATOM     38  N   UNL A   1      43.518  27.197  27.394  1.00  0.00    -0.248 NA
ATOM     39  C   UNL A   1      43.560  25.078  26.420  1.00  0.00     0.031 C 
ATOM     40  C   UNL A   1      39.319  26.474  28.752  1.00  0.00     0.029 A 
ATOM     41  N   UNL A   1      40.997  27.949  28.701  1.00  0.00    -0.354 N 
ATOM     42  C   UNL A   1      44.787  26.948  26.884  1.00  0.00     0.074 A 
ATOM     43  C   UNL A   1      44.773  25.604  26.352  1.00  0.00     0.031 C 
ATOM     44  C   UNL A   1      38.920  27.559  29.434  1.00  0.00     0.029 A 
ATOM     45  C   UNL A   1      40.002  28.538  29.447  1.00  0.00     0.049 A 
ATOM     46  H   UNL A   1      41.858  28.387  28.510  1.00  0.00     0.167 HD
ATOM     47  C   UNL A   1      45.858  27.775  26.833  1.00  0.00     0.034 A 
ATOM     48  C   UNL A   1      39.969  29.728  30.077  1.00  0.00     0.034 A 
ATOM     49  C   UNL A   1      45.854  29.125  27.326  1.00  0.00     0.049 A 
ATOM     50  C   UNL A   1      41.162  30.641  29.977  1.00  0.00     0.074 A 
ATOM     51  C   UNL A   1      46.857  30.073  27.242  1.00  0.00     0.029 A 
ATOM     52  N   UNL A   1      44.800  29.717  28.005  1.00  0.00    -0.354 N 
ATOM     53  N   UNL A   1      42.296  30.450  29.347  1.00  0.00    -0.248 NA
ATOM     54  C   UNL A   1      41.057  31.947  30.642  1.00  0.00     0.031 C 
ATOM     55  C   UNL A   1      46.420  31.230  27.895  1.00  0.00     0.029 A 
ATOM     56  C   UNL A   1      45.132  31.013  28.356  1.00  0.00     0.049 A 
ATOM     57  H   UNL A   1      43.941  29.278  28.206  1.00  0.00     0.167 HD
ATOM     58  C   UNL A   1      43.025  31.622  29.511  1.00  0.00     0.074 A 
ATOM     59  C   UNL A   1      42.193  32.526  30.278  1.00  0.00     0.031 C 
ATOM     60  C   UNL A   1      44.275  31.920  29.077  1.00  0.00     0.034 A 
BRANCH  47  61
ATOM     61  C   UNL A   1      47.111  27.258  26.175  1.00  0.00     0.023 A 
ATOM     62  C   UNL A   1      47.338  27.518  24.808  1.00  0.00     0.012 A 
ATOM     63  C   UNL A   1      48.088  26.567  26.917  1.00  0.00     0.148 A 
ATOM     64  C   UNL A   1      48.499  27.068  24.181  1.00  0.00     0.002 A 
ATOM     65  C   UNL A   1      49.265  26.162  26.297  1.00  0.00     0.091 A 
ATOM     66  F   UNL A   1      47.846  26.309  28.211  1.00  0.00    -0.205 F 
ATOM     67  C   UNL A   1      49.466  26.400  24.927  1.00  0.00     0.022 A 
BRANCH  65  68
ATOM     68  S   UNL A   1      50.608  25.369  27.186  1.00  0.00     0.127 S 
ATOM     69  O   UNL A   1      51.019  26.427  28.107  1.00  0.00    -0.237 OA
ATOM     70  O   UNL A   1      49.930  24.238  27.820  1.00  0.00    -0.237 OA
ATOM     71  O   UNL A   1      51.595  25.000  26.180  1.00  0.00    -0.744 OA
ENDBRANCH  65  68
ENDBRANCH  47  61
BRANCH  48  72
ATOM     72  C   UNL A   1      38.742  30.153  30.810  1.00  0.00     0.023 A 
ATOM     73  C   UNL A   1      38.597  29.816  32.170  1.00  0.00     0.012 A 
ATOM     74  C   UNL A   1      37.729  30.900  30.178  1.00  0.00     0.148 A 
ATOM     75  C   UNL A   1      37.450  30.181  32.877  1.00  0.00     0.002 A 
ATOM     76  C   UNL A   1      36.617  31.310  30.902  1.00  0.00     0.091 A 
ATOM     77  F   UNL A   1      37.880  31.203  28.881  1.00  0.00    -0.205 F 
ATOM     78  C   UNL A   1      36.465  30.936  32.246  1.00  0.00     0.022 A 
BRANCH  76  79
ATOM     79  S   UNL A   1      35.362  32.393  30.208  1.00  0.00     0.127 S 
ATOM     80  O   UNL A   1      36.131  33.604  29.932  1.00  0.00    -0.237 OA
ATOM     81  O   UNL A   1      34.941  31.646  29.022  1.00  0.00    -0.237 OA
ATOM     82  O   UNL A   1      34.336  32.515  31.234  1.00  0.00    -0.744 OA
ENDBRANCH  76  79
ENDBRANCH  48  72
BRANCH  60  83
ATOM     83  C   UNL A   1      44.815  33.291  29.386  1.00  0.00     0.023 A 
ATOM     84  C   UNL A   1      45.505  33.519  30.592  1.00  0.00     0.012 A 
ATOM     85  C   UNL A   1      44.701  34.334  28.446  1.00  0.00     0.148 A 
ATOM     86  C   UNL A   1      46.045  34.774  30.874  1.00  0.00     0.002 A 
ATOM     87  C   UNL A   1      45.287  35.565  28.709  1.00  0.00     0.091 A 
ATOM     88  F   UNL A   1      44.026  34.102  27.310  1.00  0.00    -0.205 F 
ATOM     89  C   UNL A   1      45.947  35.792  29.929  1.00  0.00     0.022 A 
BRANCH  87  90
ATOM     90  S   UNL A   1      45.299  36.904  27.512  1.00  0.00     0.127 S 
ATOM     91  O   UNL A   1      46.093  36.329  26.427  1.00  0.00    -0.237 OA
ATOM     92  O   UNL A   1      43.875  37.060  27.208  1.00  0.00    -0.237 OA
ATOM     93  O   UNL A   1      45.901  38.045  28.188  1.00  0.00    -0.744 OA
ENDBRANCH  87  90
ENDBRANCH  60  83
ENDBRANCH  34  35
ENDBRANCH  26  29
ENDBRANCH  24  25
ENDBRANCH  23  24
ENDBRANCH   1  23
TORSDOF 18
ENDMDL
MODEL 2
REMARK VINA RESULT:     -10.9      4.845     10.180
REMARK SMILES C[NH2+]C[C@H]1CCCC[N@H+]1[C@H](C)[C@@H](C)C(=O)NCCCCNC(=O)c1ccc(-c2c3nc(c(-c4cccc(S(=O)(=O)[O-])c4F)c4ccc([nH]4)c(-c4cccc(S(=O)(=O)[O-])c4F)c4nc(c(-c5cccc(S(=O)(=O)[O-])c5F)c5ccc2[nH]5)C=C4)C=C3)cc1
REMARK SMILES IDX 18 1 17 2 16 3 14 4 15 5 12 7 13 8 10 9 11 10 9 11 4 12 5 13
REMARK SMILES IDX 6 14 8 15 7 17 3 18 2 19 1 20 19 23 20 24 21 25 22 26 23 28
REMARK SMILES IDX 24 29 25 30 86 31 26 32 85 33 27 34 28 35 29 36 79 37 30 38
REMARK SMILES IDX 84 39 78 40 80 41 31 42 83 43 77 44 76 45 32 47 64 48 44 49
REMARK SMILES IDX 63 50 45 51 48 52 62 53 81 54 46 55 47 56 61 58 82 59 49 60
REMARK SMILES IDX 33 61 34 62 42 63 35 64 37 65 43 66 36 67 38 68 39 69 40 70
REMARK SMILES IDX 41 71 65 72 66 73 74 74 67 75 69 76 75 77 68 78 70 79 71 80
REMARK SMILES IDX 72 81 73 82 50 83 51 84 59 85 52 86 54 87 60 88 53 89 55 90
REMARK SMILES IDX 56 91 57 92 58 93
REMARK H PARENT 16 6 9 16 2 21 2 22 21 27 80 46 48 57
REMARK Flexibility Score: inf
ROOT
ATOM      1  C   UNL A   1      33.532  28.089  25.377  1.00  0.00     0.023 C 
ENDROOT
BRANCH   1   2
ATOM      2  C   UNL A   1      32.728  27.041  24.607  1.00  0.00     0.116 C 
BRANCH   2   3
ATOM      3  N   UNL A   1      33.198  26.806  23.257  1.00  0.00    -0.356 N 
ATOM      4  C   UNL A   1      32.892  25.855  22.334  1.00  0.00     0.228 C 
ATOM      5  O   UNL A   1      33.366  26.003  21.199  1.00  0.00    -0.275 OA
ATOM      6  H   UNL A   1      33.868  27.460  22.949  1.00  0.00     0.163 HD
BRANCH   4   7
ATOM      7  C   UNL A   1      31.957  24.681  22.599  1.00  0.00     0.133 C 
ATOM      8  C   UNL A   1      30.672  25.319  23.167  1.00  0.00     0.024 C 
BRANCH   7   9
ATOM      9  C   UNL A   1      32.531  23.470  23.413  1.00  0.00     0.193 C 
ATOM     10  C   UNL A   1      32.529  22.215  22.505  1.00  0.00     0.076 C 
BRANCH   9  11
ATOM     11  N   UNL A   1      33.887  23.519  24.033  1.00  0.00    -0.325 N 
ATOM     12  C   UNL A   1      34.069  23.680  25.486  1.00  0.00     0.239 C 
ATOM     13  C   UNL A   1      35.516  24.172  25.751  1.00  0.00     0.071 C 
ATOM     14  C   UNL A   1      36.603  23.286  25.152  1.00  0.00     0.012 C 
ATOM     15  C   UNL A   1      34.843  22.578  23.432  1.00  0.00     0.262 C 
ATOM     16  H   UNL A   1      34.113  24.473  23.758  1.00  0.00     0.348 HD
ATOM     17  C   UNL A   1      36.305  22.953  23.697  1.00  0.00     0.062 C 
BRANCH  12  18
ATOM     18  C   UNL A   1      33.703  22.524  26.478  1.00  0.00     0.326 C 
BRANCH  18  19
ATOM     19  N   UNL A   1      32.314  22.218  26.818  1.00  0.00    -0.344 N 
ATOM     20  C   UNL A   1      31.505  23.429  26.874  1.00  0.00     0.331 C 
ATOM     21  H   UNL A   1      31.928  21.592  26.111  1.00  0.00     0.346 HD
ATOM     22  H   UNL A   1      32.297  21.776  27.737  1.00  0.00     0.346 HD
ENDBRANCH  18  19
ENDBRANCH  12  18
ENDBRANCH   9  11
ENDBRANCH   7   9
ENDBRANCH   4   7
ENDBRANCH   2   3
ENDBRANCH   1   2
BRANCH   1  23
ATOM     23  C   UNL A   1      33.008  29.519  25.337  1.00  0.00     0.023 C 
BRANCH  23  24
ATOM     24  C   UNL A   1      32.265  29.976  26.575  1.00  0.00     0.116 C 
BRANCH  24  25
ATOM     25  N   UNL A   1      32.241  31.423  26.732  1.00  0.00    -0.352 N 
ATOM     26  C   UNL A   1      33.147  32.245  27.361  1.00  0.00     0.251 C 
ATOM     27  H   UNL A   1      31.467  31.878  26.329  1.00  0.00     0.163 HD
ATOM     28  O   UNL A   1      32.909  33.438  27.481  1.00  0.00    -0.269 OA
BRANCH  26  29
ATOM     29  C   UNL A   1      34.388  31.667  27.922  1.00  0.00     0.039 A 
ATOM     30  C   UNL A   1      35.514  32.485  28.041  1.00  0.00     0.014 A 
ATOM     31  C   UNL A   1      34.432  30.342  28.359  1.00  0.00     0.014 A 
ATOM     32  C   UNL A   1      36.662  31.991  28.663  1.00  0.00     0.010 A 
ATOM     33  C   UNL A   1      35.540  29.884  29.063  1.00  0.00     0.010 A 
ATOM     34  C   UNL A   1      36.671  30.699  29.214  1.00  0.00    -0.014 A 
BRANCH  34  35
ATOM     35  C   UNL A   1      37.850  30.183  29.954  1.00  0.00     0.031 A 
ATOM     36  C   UNL A   1      38.130  30.658  31.355  1.00  0.00     0.074 A 
ATOM     37  C   UNL A   1      38.714  29.354  29.336  1.00  0.00     0.049 A 
ATOM     38  N   UNL A   1      39.134  30.364  32.139  1.00  0.00    -0.248 NA
ATOM     39  C   UNL A   1      37.173  31.612  31.942  1.00  0.00     0.031 C 
ATOM     40  C   UNL A   1      38.598  28.887  27.952  1.00  0.00     0.029 A 
ATOM     41  N   UNL A   1      39.875  28.773  29.783  1.00  0.00    -0.354 N 
ATOM     42  C   UNL A   1      38.950  31.119  33.291  1.00  0.00     0.074 A 
ATOM     43  C   UNL A   1      37.761  31.916  33.089  1.00  0.00     0.031 C 
ATOM     44  C   UNL A   1      39.638  28.088  27.667  1.00  0.00     0.029 A 
ATOM     45  C   UNL A   1      40.513  28.010  28.832  1.00  0.00     0.049 A 
ATOM     46  H   UNL A   1      40.220  28.894  30.697  1.00  0.00     0.167 HD
ATOM     47  C   UNL A   1      39.684  31.125  34.428  1.00  0.00     0.034 A 
ATOM     48  C   UNL A   1      41.676  27.332  28.890  1.00  0.00     0.034 A 
ATOM     49  C   UNL A   1      40.842  30.300  34.640  1.00  0.00     0.049 A 
ATOM     50  C   UNL A   1      42.456  27.330  30.178  1.00  0.00     0.074 A 
ATOM     51  C   UNL A   1      41.602  30.165  35.788  1.00  0.00     0.029 A 
ATOM     52  N   UNL A   1      41.413  29.476  33.683  1.00  0.00    -0.354 N 
ATOM     53  N   UNL A   1      42.175  27.922  31.313  1.00  0.00    -0.248 NA
ATOM     54  C   UNL A   1      43.692  26.537  30.204  1.00  0.00     0.031 C 
ATOM     55  C   UNL A   1      42.651  29.282  35.514  1.00  0.00     0.029 A 
ATOM     56  C   UNL A   1      42.524  28.840  34.207  1.00  0.00     0.049 A 
ATOM     57  H   UNL A   1      41.077  29.362  32.764  1.00  0.00     0.167 HD
ATOM     58  C   UNL A   1      43.180  27.547  32.198  1.00  0.00     0.074 A 
ATOM     59  C   UNL A   1      44.061  26.655  31.473  1.00  0.00     0.031 C 
ATOM     60  C   UNL A   1      43.364  27.916  33.489  1.00  0.00     0.034 A 
BRANCH  47  61
ATOM     61  C   UNL A   1      39.227  32.018  35.553  1.00  0.00     0.023 A 
ATOM     62  C   UNL A   1      38.322  31.519  36.513  1.00  0.00     0.012 A 
ATOM     63  C   UNL A   1      39.732  33.324  35.694  1.00  0.00     0.148 A 
ATOM     64  C   UNL A   1      37.898  32.318  37.574  1.00  0.00     0.002 A 
ATOM     65  C   UNL A   1      39.343  34.099  36.781  1.00  0.00     0.091 A 
ATOM     66  F   UNL A   1      40.575  33.789  34.760  1.00  0.00    -0.205 F 
ATOM     67  C   UNL A   1      38.417  33.603  37.714  1.00  0.00     0.022 A 
BRANCH  65  68
ATOM     68  S   UNL A   1      40.014  35.734  37.098  1.00  0.00     0.127 S 
ATOM     69  O   UNL A   1      41.440  35.446  37.237  1.00  0.00    -0.237 OA
ATOM     70  O   UNL A   1      39.654  36.455  35.876  1.00  0.00    -0.237 OA
ATOM     71  O   UNL A   1      39.354  36.214  38.304  1.00  0.00    -0.744 OA
ENDBRANCH  65  68
ENDBRANCH  47  61
BRANCH  48  72
ATOM     72  C   UNL A   1      42.145  26.548  27.711  1.00  0.00     0.023 A 
ATOM     73  C   UNL A   1      42.941  27.178  26.735  1.00  0.00     0.012 A 
ATOM     74  C   UNL A   1      41.824  25.186  27.560  1.00  0.00     0.148 A 
ATOM     75  C   UNL A   1      43.377  26.476  25.610  1.00  0.00     0.002 A 
ATOM     76  C   UNL A   1      42.309  24.477  26.468  1.00  0.00     0.091 A 
ATOM     77  F   UNL A   1      41.057  24.606  28.495  1.00  0.00    -0.205 F 
ATOM     78  C   UNL A   1      43.069  25.124  25.481  1.00  0.00     0.022 A 
BRANCH  76  79
ATOM     79  S   UNL A   1      42.072  22.705  26.287  1.00  0.00     0.127 S 
ATOM     80  O   UNL A   1      40.615  22.598  26.272  1.00  0.00    -0.237 OA
ATOM     81  O   UNL A   1      42.722  22.444  25.001  1.00  0.00    -0.237 OA
ATOM     82  O   UNL A   1      42.741  22.099  27.429  1.00  0.00    -0.744 OA
ENDBRANCH  76  79
ENDBRANCH  48  72
BRANCH  60  83
ATOM     83  C   UNL A   1      44.544  27.332  34.222  1.00  0.00     0.023 A 
ATOM     84  C   UNL A   1      45.798  27.967  34.151  1.00  0.00     0.012 A 
ATOM     85  C   UNL A   1      44.387  26.196  35.041  1.00  0.00     0.148 A 
ATOM     86  C   UNL A   1      46.890  27.460  34.857  1.00  0.00     0.002 A 
ATOM     87  C   UNL A   1      45.464  25.729  35.783  1.00  0.00     0.091 A 
ATOM     88  F   UNL A   1      43.188  25.597  35.082  1.00  0.00    -0.205 F 
ATOM     89  C   UNL A   1      46.720  26.350  35.681  1.00  0.00     0.022 A 
BRANCH  87  90
ATOM     90  S   UNL A   1      45.316  24.367  36.945  1.00  0.00     0.127 S 
ATOM     91  O   UNL A   1      44.901  23.271  36.070  1.00  0.00    -0.237 OA
ATOM     92  O   UNL A   1      46.680  24.251  37.462  1.00  0.00    -0.237 OA
ATOM     93  O   UNL A   1      44.329  24.786  37.931  1.00  0.00    -0.744 OA
ENDBRANCH  87  90
ENDBRANCH  60  83
ENDBRANCH  34  35
ENDBRANCH  26  29
ENDBRANCH  24  25
ENDBRANCH  23  24
ENDBRANCH   1  23
TORSDOF 18
ENDMDL
MODEL 3
REMARK VINA RESULT:     -10.9      1.784      2.156
REMARK SMILES C[NH2+]C[C@H]1CCCC[N@H+]1[C@H](C)[C@@H](C)C(=O)NCCCCNC(=O)c1ccc(-c2c3nc(c(-c4cccc(S(=O)(=O)[O-])c4F)c4ccc([nH]4)c(-c4cccc(S(=O)(=O)[O-])c4F)c4nc(c(-c5cccc(S(=O)(=O)[O-])c5F)c5ccc2[nH]5)C=C4)C=C3)cc1
REMARK SMILES IDX 18 1 17 2 16 3 14 4 15 5 12 7 13 8 10 9 11 10 9 11 4 12 5 13
REMARK SMILES IDX 6 14 8 15 7 17 3 18 2 19 1 20 19 23 20 24 21 25 22 26 23 28
REMARK SMILES IDX 24 29 25 30 86 31 26 32 85 33 27 34 28 35 29 36 79 37 30 38
REMARK SMILES IDX 84 39 78 40 80 41 31 42 83 43 77 44 76 45 32 47 64 48 44 49
REMARK SMILES IDX 63 50 45 51 48 52 62 53 81 54 46 55 47 56 61 58 82 59 49 60
REMARK SMILES IDX 33 61 34 62 42 63 35 64 37 65 43 66 36 67 38 68 39 69 40 70
REMARK SMILES IDX 41 71 65 72 66 73 74 74 67 75 69 76 75 77 68 78 70 79 71 80
REMARK SMILES IDX 72 81 73 82 50 83 51 84 59 85 52 86 54 87 60 88 53 89 55 90
REMARK SMILES IDX 56 91 57 92 58 93
REMARK H PARENT 16 6 9 16 2 21 2 22 21 27 80 46 48 57
REMARK Flexibility Score: inf
ROOT
ATOM      1  C   UNL A   1      34.602  22.306  24.130  1.00  0.00     0.023 C 
ENDROOT
BRANCH   1   2
ATOM      2  C   UNL A   1      33.974  23.401  23.268  1.00  0.00     0.116 C 
BRANCH   2   3
ATOM      3  N   UNL A   1      32.532  23.492  23.380  1.00  0.00    -0.356 N 
ATOM      4  C   UNL A   1      31.650  24.475  23.059  1.00  0.00     0.228 C 
ATOM      5  O   UNL A   1      30.446  24.198  23.145  1.00  0.00    -0.275 OA
ATOM      6  H   UNL A   1      32.111  22.687  23.762  1.00  0.00     0.163 HD
BRANCH   4   7
ATOM      7  C   UNL A   1      32.057  25.849  22.540  1.00  0.00     0.133 C 
ATOM      8  C   UNL A   1      32.368  25.631  21.045  1.00  0.00     0.024 C 
BRANCH   7   9
ATOM      9  C   UNL A   1      33.145  26.634  23.352  1.00  0.00     0.193 C 
ATOM     10  C   UNL A   1      33.971  27.500  22.369  1.00  0.00     0.076 C 
BRANCH   9  11
ATOM     11  N   UNL A   1      32.777  27.541  24.477  1.00  0.00    -0.325 N 
ATOM     12  C   UNL A   1      32.396  28.946  24.248  1.00  0.00     0.239 C 
ATOM     13  C   UNL A   1      32.549  29.724  25.582  1.00  0.00     0.071 C 
ATOM     14  C   UNL A   1      31.777  29.125  26.752  1.00  0.00     0.012 C 
ATOM     15  C   UNL A   1      31.973  26.889  25.521  1.00  0.00     0.262 C 
ATOM     16  H   UNL A   1      33.724  27.707  24.815  1.00  0.00     0.348 HD
ATOM     17  C   UNL A   1      32.015  27.627  26.863  1.00  0.00     0.062 C 
BRANCH  12  18
ATOM     18  C   UNL A   1      31.035  29.311  23.564  1.00  0.00     0.326 C 
BRANCH  18  19
ATOM     19  N   UNL A   1      30.941  29.548  22.124  1.00  0.00    -0.344 N 
ATOM     20  C   UNL A   1      29.635  30.081  21.760  1.00  0.00     0.331 C 
ATOM     21  H   UNL A   1      31.662  30.216  21.849  1.00  0.00     0.346 HD
ATOM     22  H   UNL A   1      31.073  28.659  21.642  1.00  0.00     0.346 HD
ENDBRANCH  18  19
ENDBRANCH  12  18
ENDBRANCH   9  11
ENDBRANCH   7   9
ENDBRANCH   4   7
ENDBRANCH   2   3
ENDBRANCH   1   2
BRANCH   1  23
ATOM     23  C   UNL A   1      36.121  22.304  24.235  1.00  0.00     0.023 C 
BRANCH  23  24
ATOM     24  C   UNL A   1      36.678  22.166  25.637  1.00  0.00     0.116 C 
BRANCH  24  25
ATOM     25  N   UNL A   1      37.756  21.193  25.736  1.00  0.00    -0.352 N 
ATOM     26  C   UNL A   1      39.061  21.377  26.131  1.00  0.00     0.251 C 
ATOM     27  H   UNL A   1      37.517  20.272  25.485  1.00  0.00     0.163 HD
ATOM     28  O   UNL A   1      39.858  20.453  26.055  1.00  0.00    -0.269 OA
BRANCH  26  29
ATOM     29  C   UNL A   1      39.496  22.707  26.611  1.00  0.00     0.039 A 
ATOM     30  C   UNL A   1      40.451  22.773  27.628  1.00  0.00     0.014 A 
ATOM     31  C   UNL A   1      38.996  23.878  26.039  1.00  0.00     0.014 A 
ATOM     32  C   UNL A   1      40.953  24.015  28.022  1.00  0.00     0.010 A 
ATOM     33  C   UNL A   1      39.565  25.104  26.365  1.00  0.00     0.010 A 
ATOM     34  C   UNL A   1      40.543  25.187  27.367  1.00  0.00    -0.014 A 
BRANCH  34  35
ATOM     35  C   UNL A   1      41.124  26.509  27.712  1.00  0.00     0.031 A 
ATOM     36  C   UNL A   1      42.561  26.810  27.381  1.00  0.00     0.074 A 
ATOM     37  C   UNL A   1      40.385  27.404  28.397  1.00  0.00     0.049 A 
ATOM     38  N   UNL A   1      43.260  27.883  27.648  1.00  0.00    -0.248 NA
ATOM     39  C   UNL A   1      43.323  25.760  26.684  1.00  0.00     0.031 C 
ATOM     40  C   UNL A   1      39.007  27.196  28.849  1.00  0.00     0.029 A 
ATOM     41  N   UNL A   1      40.697  28.660  28.855  1.00  0.00    -0.354 N 
ATOM     42  C   UNL A   1      44.546  27.623  27.187  1.00  0.00     0.074 A 
ATOM     43  C   UNL A   1      44.542  26.277  26.660  1.00  0.00     0.031 C 
ATOM     44  C   UNL A   1      38.591  28.288  29.511  1.00  0.00     0.029 A 
ATOM     45  C   UNL A   1      39.679  29.259  29.562  1.00  0.00     0.049 A 
ATOM     46  H   UNL A   1      41.568  29.090  28.695  1.00  0.00     0.167 HD
ATOM     47  C   UNL A   1      45.624  28.441  27.173  1.00  0.00     0.034 A 
ATOM     48  C   UNL A   1      39.631  30.452  30.185  1.00  0.00     0.034 A 
ATOM     49  C   UNL A   1      45.611  29.794  27.660  1.00  0.00     0.049 A 
ATOM     50  C   UNL A   1      40.834  31.355  30.126  1.00  0.00     0.074 A 
ATOM     51  C   UNL A   1      46.624  30.735  27.610  1.00  0.00     0.029 A 
ATOM     52  N   UNL A   1      44.537  30.396  28.296  1.00  0.00    -0.354 N 
ATOM     53  N   UNL A   1      41.989  31.154  29.540  1.00  0.00    -0.248 NA
ATOM     54  C   UNL A   1      40.714  32.665  30.781  1.00  0.00     0.031 C 
ATOM     55  C   UNL A   1      46.171  31.897  28.241  1.00  0.00     0.029 A 
ATOM     56  C   UNL A   1      44.864  31.691  28.654  1.00  0.00     0.049 A 
ATOM     57  H   UNL A   1      43.668  29.965  28.466  1.00  0.00     0.167 HD
ATOM     58  C   UNL A   1      42.720  32.321  29.726  1.00  0.00     0.074 A 
ATOM     59  C   UNL A   1      41.867  33.235  30.457  1.00  0.00     0.031 C 
ATOM     60  C   UNL A   1      43.988  32.608  29.338  1.00  0.00     0.034 A 
BRANCH  47  61
ATOM     61  C   UNL A   1      46.897  27.912  26.565  1.00  0.00     0.023 A 
ATOM     62  C   UNL A   1      47.860  27.296  27.391  1.00  0.00     0.012 A 
ATOM     63  C   UNL A   1      47.116  27.972  25.175  1.00  0.00     0.148 A 
ATOM     64  C   UNL A   1      49.037  26.781  26.850  1.00  0.00     0.002 A 
ATOM     65  C   UNL A   1      48.270  27.414  24.637  1.00  0.00     0.091 A 
ATOM     66  F   UNL A   1      46.200  28.581  24.408  1.00  0.00    -0.205 F 
ATOM     67  C   UNL A   1      49.236  26.831  25.473  1.00  0.00     0.022 A 
BRANCH  65  68
ATOM     68  S   UNL A   1      48.585  27.352  22.870  1.00  0.00     0.127 S 
ATOM     69  O   UNL A   1      49.981  27.781  22.803  1.00  0.00    -0.237 OA
ATOM     70  O   UNL A   1      48.368  25.936  22.569  1.00  0.00    -0.237 OA
ATOM     71  O   UNL A   1      47.624  28.258  22.257  1.00  0.00    -0.744 OA
ENDBRANCH  65  68
ENDBRANCH  47  61
BRANCH  48  72
ATOM     72  C   UNL A   1      38.381  30.889  30.870  1.00  0.00     0.023 A 
ATOM     73  C   UNL A   1      38.234  30.662  32.252  1.00  0.00     0.012 A 
ATOM     74  C   UNL A   1      37.348  31.540  30.168  1.00  0.00     0.148 A 
ATOM     75  C   UNL A   1      37.066  31.040  32.916  1.00  0.00     0.002 A 
ATOM     76  C   UNL A   1      36.212  31.966  30.846  1.00  0.00     0.091 A 
ATOM     77  F   UNL A   1      37.502  31.738  28.851  1.00  0.00    -0.205 F 
ATOM     78  C   UNL A   1      36.059  31.700  32.215  1.00  0.00     0.022 A 
BRANCH  76  79
ATOM     79  S   UNL A   1      34.925  32.937  30.053  1.00  0.00     0.127 S 
ATOM     80  O   UNL A   1      34.400  31.992  29.070  1.00  0.00    -0.237 OA
ATOM     81  O   UNL A   1      34.028  33.222  31.175  1.00  0.00    -0.237 OA
ATOM     82  O   UNL A   1      35.594  34.110  29.509  1.00  0.00    -0.744 OA
ENDBRANCH  76  79
ENDBRANCH  48  72
BRANCH  60  83
ATOM     83  C   UNL A   1      44.526  33.977  29.662  1.00  0.00     0.023 A 
ATOM     84  C   UNL A   1      45.206  34.195  30.875  1.00  0.00     0.012 A 
ATOM     85  C   UNL A   1      44.421  35.027  28.728  1.00  0.00     0.148 A 
ATOM     86  C   UNL A   1      45.744  35.448  31.171  1.00  0.00     0.002 A 
ATOM     87  C   UNL A   1      45.005  36.256  29.005  1.00  0.00     0.091 A 
ATOM     88  F   UNL A   1      43.755  34.803  27.586  1.00  0.00    -0.205 F 
ATOM     89  C   UNL A   1      45.655  36.473  30.232  1.00  0.00     0.022 A 
BRANCH  87  90
ATOM     90  S   UNL A   1      45.027  37.603  27.818  1.00  0.00     0.127 S 
ATOM     91  O   UNL A   1      45.731  38.646  28.562  1.00  0.00    -0.237 OA
ATOM     92  O   UNL A   1      45.789  37.026  26.709  1.00  0.00    -0.237 OA
ATOM     93  O   UNL A   1      43.632  37.890  27.509  1.00  0.00    -0.744 OA
ENDBRANCH  87  90
ENDBRANCH  60  83
ENDBRANCH  34  35
ENDBRANCH  26  29
ENDBRANCH  24  25
ENDBRANCH  23  24
ENDBRANCH   1  23
TORSDOF 18
ENDMDL
