MODEL 1
REMARK VINA RESULT:     -11.6      0.000      0.000
REMARK SMILES CCC[NH2+]CC(=O)N1[C@@H](C(=O)NCCCCNC(=O)c2ccc(-c3c4nc(c(-c5cccc(S(=O)(=O)[O-])c5F)c5ccc([nH]5)c(-c5cccc(S(=O)(=O)[O-])c5F)c5nc(c(-c6cccc(S(=O)(=O)[O-])c6F)c6ccc3[nH]6)C=C5)C=C4)cc2)CC[C@@H]2CCCC[C@@H]21
REMARK SMILES IDX 13 1 12 2 10 3 11 4 9 6 8 7 90 8 83 9 85 10 89 11 84 12
REMARK SMILES IDX 86 13 88 14 87 15 6 16 7 17 5 18 4 19 3 22 2 23 1 24 14 25
REMARK SMILES IDX 15 26 16 27 17 28 18 29 19 31 20 32 21 33 82 34 22 35 81 36
REMARK SMILES IDX 23 37 24 38 25 39 75 40 26 41 80 42 74 43 76 44 27 45 79 46
REMARK SMILES IDX 73 47 72 48 28 50 60 51 40 52 59 53 41 54 44 55 58 56 77 57
REMARK SMILES IDX 42 58 43 59 57 61 78 62 45 63 29 64 30 65 38 66 31 67 33 68
REMARK SMILES IDX 39 69 32 70 34 71 35 72 36 73 37 74 61 75 62 76 70 77 63 78
REMARK SMILES IDX 65 79 71 80 64 81 66 82 67 83 68 84 69 85 46 86 47 87 55 88
REMARK SMILES IDX 48 89 50 90 56 91 49 92 51 93 52 94 53 95 54 96
REMARK H PARENT 12 5 4 20 4 21 17 30 76 49 44 60
REMARK Flexibility Score: inf
ROOT
ATOM      1  C   UNL A   1      31.990  26.147  26.214  1.00  0.00     0.116 C 
ENDROOT
BRANCH   1   2
ATOM      2  N   UNL A   1      31.417  24.959  26.817  1.00  0.00    -0.354 N 
ATOM      3  C   UNL A   1      31.626  23.670  26.435  1.00  0.00     0.242 C 
ATOM      4  O   UNL A   1      30.667  22.895  26.424  1.00  0.00    -0.273 OA
ATOM      5  H   UNL A   1      30.815  25.099  27.582  1.00  0.00     0.163 HD
BRANCH   3   6
ATOM      6  C   UNL A   1      32.988  23.203  25.915  1.00  0.00     0.175 C 
ATOM      7  N   UNL A   1      33.052  22.558  24.585  1.00  0.00    -0.323 N 
ATOM      8  C   UNL A   1      34.306  21.844  24.263  1.00  0.00     0.089 C 
ATOM      9  C   UNL A   1      33.465  22.251  27.036  1.00  0.00     0.036 C 
ATOM     10  C   UNL A   1      34.716  20.875  25.372  1.00  0.00     0.012 C 
ATOM     11  C   UNL A   1      35.420  22.845  23.872  1.00  0.00     0.025 C 
ATOM     12  C   UNL A   1      34.783  21.577  26.730  1.00  0.00     0.008 C 
ATOM     13  C   UNL A   1      36.041  20.215  25.001  1.00  0.00     0.006 C 
ATOM     14  C   UNL A   1      36.871  22.530  24.261  1.00  0.00     0.002 C 
ATOM     15  C   UNL A   1      37.184  21.214  24.969  1.00  0.00     0.000 C 
BRANCH   7  16
ATOM     16  C   UNL A   1      32.259  22.882  23.481  1.00  0.00     0.278 C 
ATOM     17  O   UNL A   1      31.787  21.966  22.795  1.00  0.00    -0.268 OA
BRANCH  16  18
ATOM     18  C   UNL A   1      32.170  24.333  22.968  1.00  0.00     0.362 C 
BRANCH  18  19
ATOM     19  N   UNL A   1      33.445  25.036  22.769  1.00  0.00    -0.338 N 
ATOM     20  H   UNL A   1      33.937  25.083  23.662  1.00  0.00     0.346 HD
ATOM     21  H   UNL A   1      33.986  24.520  22.076  1.00  0.00     0.346 HD
BRANCH  19  22
ATOM     22  C   UNL A   1      33.248  26.393  22.269  1.00  0.00     0.260 C 
BRANCH  22  23
ATOM     23  C   UNL A   1      33.653  27.541  23.208  1.00  0.00     0.058 C 
ATOM     24  C   UNL A   1      33.568  28.968  22.688  1.00  0.00     0.010 C 
ENDBRANCH  22  23
ENDBRANCH  19  22
ENDBRANCH  18  19
ENDBRANCH  16  18
ENDBRANCH   7  16
ENDBRANCH   3   6
ENDBRANCH   1   2
BRANCH   1  25
ATOM     25  C   UNL A   1      31.067  27.331  26.507  1.00  0.00     0.023 C 
BRANCH  25  26
ATOM     26  C   UNL A   1      31.769  28.497  27.216  1.00  0.00     0.023 C 
BRANCH  26  27
ATOM     27  C   UNL A   1      32.775  29.241  26.347  1.00  0.00     0.116 C 
BRANCH  27  28
ATOM     28  N   UNL A   1      32.639  30.683  26.491  1.00  0.00    -0.352 N 
ATOM     29  C   UNL A   1      33.383  31.538  27.260  1.00  0.00     0.251 C 
ATOM     30  H   UNL A   1      31.916  31.099  25.967  1.00  0.00     0.163 HD
ATOM     31  O   UNL A   1      32.994  32.686  27.464  1.00  0.00    -0.269 OA
BRANCH  29  32
ATOM     32  C   UNL A   1      34.647  31.060  27.849  1.00  0.00     0.039 A 
ATOM     33  C   UNL A   1      35.707  31.954  28.001  1.00  0.00     0.014 A 
ATOM     34  C   UNL A   1      34.770  29.731  28.268  1.00  0.00     0.014 A 
ATOM     35  C   UNL A   1      36.882  31.525  28.617  1.00  0.00     0.010 A 
ATOM     36  C   UNL A   1      35.911  29.329  28.952  1.00  0.00     0.010 A 
ATOM     37  C   UNL A   1      36.982  30.218  29.122  1.00  0.00    -0.014 A 
BRANCH  37  38
ATOM     38  C   UNL A   1      38.202  29.765  29.835  1.00  0.00     0.031 A 
ATOM     39  C   UNL A   1      38.526  30.308  31.201  1.00  0.00     0.074 A 
ATOM     40  C   UNL A   1      39.054  28.922  29.220  1.00  0.00     0.049 A 
ATOM     41  N   UNL A   1      39.562  30.060  31.959  1.00  0.00    -0.248 NA
ATOM     42  C   UNL A   1      37.579  31.276  31.778  1.00  0.00     0.031 C 
ATOM     43  C   UNL A   1      38.890  28.392  27.865  1.00  0.00     0.029 A 
ATOM     44  N   UNL A   1      40.244  28.385  29.643  1.00  0.00    -0.354 N 
ATOM     45  C   UNL A   1      39.410  30.863  33.083  1.00  0.00     0.074 A 
ATOM     46  C   UNL A   1      38.202  31.634  32.891  1.00  0.00     0.031 C 
ATOM     47  C   UNL A   1      39.933  27.601  27.571  1.00  0.00     0.029 A 
ATOM     48  C   UNL A   1      40.857  27.592  28.701  1.00  0.00     0.049 A 
ATOM     49  H   UNL A   1      40.622  28.551  30.537  1.00  0.00     0.167 HD
ATOM     50  C   UNL A   1      40.190  30.933  34.188  1.00  0.00     0.034 A 
ATOM     51  C   UNL A   1      42.035  26.941  28.739  1.00  0.00     0.034 A 
ATOM     52  C   UNL A   1      41.370  30.136  34.388  1.00  0.00     0.049 A 
ATOM     53  C   UNL A   1      42.865  27.007  29.993  1.00  0.00     0.074 A 
ATOM     54  C   UNL A   1      42.179  30.065  35.508  1.00  0.00     0.029 A 
ATOM     55  N   UNL A   1      41.919  29.283  33.444  1.00  0.00    -0.354 N 
ATOM     56  N   UNL A   1      42.620  27.646  31.111  1.00  0.00    -0.248 NA
ATOM     57  C   UNL A   1      44.114  26.233  30.005  1.00  0.00     0.031 C 
ATOM     58  C   UNL A   1      43.236  29.193  35.228  1.00  0.00     0.029 A 
ATOM     59  C   UNL A   1      43.064  28.690  33.948  1.00  0.00     0.049 A 
ATOM     60  H   UNL A   1      41.549  29.121  32.545  1.00  0.00     0.167 HD
ATOM     61  C   UNL A   1      43.664  27.322  31.971  1.00  0.00     0.074 A 
ATOM     62  C   UNL A   1      44.530  26.412  31.250  1.00  0.00     0.031 C 
ATOM     63  C   UNL A   1      43.891  27.749  33.238  1.00  0.00     0.034 A 
BRANCH  50  64
ATOM     64  C   UNL A   1      39.767  31.872  35.287  1.00  0.00     0.023 A 
ATOM     65  C   UNL A   1      40.151  33.229  35.233  1.00  0.00     0.012 A 
ATOM     66  C   UNL A   1      38.940  31.430  36.339  1.00  0.00     0.148 A 
ATOM     67  C   UNL A   1      39.752  34.120  36.227  1.00  0.00     0.002 A 
ATOM     68  C   UNL A   1      38.507  32.336  37.299  1.00  0.00     0.091 A 
ATOM     69  F   UNL A   1      38.602  30.134  36.385  1.00  0.00    -0.205 F 
ATOM     70  C   UNL A   1      38.922  33.677  37.254  1.00  0.00     0.022 A 
BRANCH  68  71
ATOM     71  S   UNL A   1      37.368  31.886  38.614  1.00  0.00     0.127 S 
ATOM     72  O   UNL A   1      36.288  32.850  38.410  1.00  0.00    -0.237 OA
ATOM     73  O   UNL A   1      37.027  30.507  38.266  1.00  0.00    -0.237 OA
ATOM     74  O   UNL A   1      38.110  32.034  39.858  1.00  0.00    -0.744 OA
ENDBRANCH  68  71
ENDBRANCH  50  64
BRANCH  51  75
ATOM     75  C   UNL A   1      42.471  26.121  27.574  1.00  0.00     0.023 A 
ATOM     76  C   UNL A   1      43.290  26.700  26.585  1.00  0.00     0.012 A 
ATOM     77  C   UNL A   1      42.100  24.768  27.451  1.00  0.00     0.148 A 
ATOM     78  C   UNL A   1      43.700  25.959  25.476  1.00  0.00     0.002 A 
ATOM     79  C   UNL A   1      42.559  24.019  26.375  1.00  0.00     0.091 A 
ATOM     80  F   UNL A   1      41.313  24.238  28.399  1.00  0.00    -0.205 F 
ATOM     81  C   UNL A   1      43.343  24.616  25.376  1.00  0.00     0.022 A 
BRANCH  79  82
ATOM     82  S   UNL A   1      42.259  22.253  26.231  1.00  0.00     0.127 S 
ATOM     83  O   UNL A   1      40.804  22.206  26.121  1.00  0.00    -0.237 OA
ATOM     84  O   UNL A   1      42.982  21.925  25.002  1.00  0.00    -0.237 OA
ATOM     85  O   UNL A   1      42.822  21.660  27.436  1.00  0.00    -0.744 OA
ENDBRANCH  79  82
ENDBRANCH  51  75
BRANCH  63  86
ATOM     86  C   UNL A   1      45.102  27.208  33.951  1.00  0.00     0.023 A 
ATOM     87  C   UNL A   1      46.326  27.902  33.890  1.00  0.00     0.012 A 
ATOM     88  C   UNL A   1      45.005  26.044  34.742  1.00  0.00     0.148 A 
ATOM     89  C   UNL A   1      47.444  27.429  34.575  1.00  0.00     0.002 A 
ATOM     90  C   UNL A   1      46.109  25.608  35.464  1.00  0.00     0.091 A 
ATOM     91  F   UNL A   1      43.837  25.388  34.772  1.00  0.00    -0.205 F 
ATOM     92  C   UNL A   1      47.333  26.290  35.371  1.00  0.00     0.022 A 
BRANCH  90  93
ATOM     93  S   UNL A   1      46.032  24.213  36.591  1.00  0.00     0.127 S 
ATOM     94  O   UNL A   1      46.042  23.081  35.665  1.00  0.00    -0.237 OA
ATOM     95  O   UNL A   1      47.260  24.375  37.369  1.00  0.00    -0.237 OA
ATOM     96  O   UNL A   1      44.805  24.380  37.358  1.00  0.00    -0.744 OA
ENDBRANCH  90  93
ENDBRANCH  63  86
ENDBRANCH  37  38
ENDBRANCH  29  32
ENDBRANCH  27  28
ENDBRANCH  26  27
ENDBRANCH  25  26
ENDBRANCH   1  25
TORSDOF 19
ENDMDL
MODEL 2
REMARK VINA RESULT:     -11.5      2.773      3.216
REMARK SMILES CCC[NH2+]CC(=O)N1[C@@H](C(=O)NCCCCNC(=O)c2ccc(-c3c4nc(c(-c5cccc(S(=O)(=O)[O-])c5F)c5ccc([nH]5)c(-c5cccc(S(=O)(=O)[O-])c5F)c5nc(c(-c6cccc(S(=O)(=O)[O-])c6F)c6ccc3[nH]6)C=C5)C=C4)cc2)CC[C@@H]2CCCC[C@@H]21
REMARK SMILES IDX 13 1 12 2 10 3 11 4 9 6 8 7 90 8 83 9 85 10 89 11 84 12
REMARK SMILES IDX 86 13 88 14 87 15 6 16 7 17 5 18 4 19 3 22 2 23 1 24 14 25
REMARK SMILES IDX 15 26 16 27 17 28 18 29 19 31 20 32 21 33 82 34 22 35 81 36
REMARK SMILES IDX 23 37 24 38 25 39 75 40 26 41 80 42 74 43 76 44 27 45 79 46
REMARK SMILES IDX 73 47 72 48 28 50 60 51 40 52 59 53 41 54 44 55 58 56 77 57
REMARK SMILES IDX 42 58 43 59 57 61 78 62 45 63 29 64 30 65 38 66 31 67 33 68
REMARK SMILES IDX 39 69 32 70 34 71 35 72 36 73 37 74 61 75 62 76 70 77 63 78
REMARK SMILES IDX 65 79 71 80 64 81 66 82 67 83 68 84 69 85 46 86 47 87 55 88
REMARK SMILES IDX 48 89 50 90 56 91 49 92 51 93 52 94 53 95 54 96
REMARK H PARENT 12 5 4 20 4 21 17 30 76 49 44 60
REMARK Flexibility Score: inf
ROOT
ATOM      1  C   UNL A   1      31.568  26.678  25.656  1.00  0.00     0.116 C 
ENDROOT
BRANCH   1   2
ATOM      2  N   UNL A   1      31.117  25.519  26.403  1.00  0.00    -0.354 N 
ATOM      3  C   UNL A   1      31.403  24.216  26.136  1.00  0.00     0.242 C 
ATOM      4  O   UNL A   1      30.505  23.379  26.256  1.00  0.00    -0.273 OA
ATOM      5  H   UNL A   1      30.546  25.694  27.185  1.00  0.00     0.163 HD
BRANCH   3   6
ATOM      6  C   UNL A   1      32.768  23.795  25.585  1.00  0.00     0.175 C 
ATOM      7  N   UNL A   1      32.808  22.900  24.408  1.00  0.00    -0.323 N 
ATOM      8  C   UNL A   1      34.110  22.268  24.109  1.00  0.00     0.089 C 
ATOM      9  C   UNL A   1      33.441  23.148  26.818  1.00  0.00     0.036 C 
ATOM     10  C   UNL A   1      34.718  21.596  25.340  1.00  0.00     0.012 C 
ATOM     11  C   UNL A   1      35.062  23.278  23.422  1.00  0.00     0.025 C 
ATOM     12  C   UNL A   1      34.803  22.565  26.521  1.00  0.00     0.008 C 
ATOM     13  C   UNL A   1      36.081  21.014  24.975  1.00  0.00     0.006 C 
ATOM     14  C   UNL A   1      36.566  23.201  23.719  1.00  0.00     0.002 C 
ATOM     15  C   UNL A   1      37.089  22.098  24.637  1.00  0.00     0.000 C 
BRANCH   7  16
ATOM     16  C   UNL A   1      31.900  22.908  23.346  1.00  0.00     0.278 C 
ATOM     17  O   UNL A   1      31.650  21.842  22.766  1.00  0.00    -0.268 OA
BRANCH  16  18
ATOM     18  C   UNL A   1      31.405  24.233  22.735  1.00  0.00     0.362 C 
BRANCH  18  19
ATOM     19  N   UNL A   1      32.295  24.879  21.761  1.00  0.00    -0.338 N 
ATOM     20  H   UNL A   1      33.239  24.510  21.883  1.00  0.00     0.346 HD
ATOM     21  H   UNL A   1      31.939  24.678  20.827  1.00  0.00     0.346 HD
BRANCH  19  22
ATOM     22  C   UNL A   1      32.331  26.328  21.929  1.00  0.00     0.260 C 
BRANCH  22  23
ATOM     23  C   UNL A   1      33.625  26.924  22.507  1.00  0.00     0.058 C 
ATOM     24  C   UNL A   1      33.824  28.430  22.435  1.00  0.00     0.010 C 
ENDBRANCH  22  23
ENDBRANCH  19  22
ENDBRANCH  18  19
ENDBRANCH  16  18
ENDBRANCH   7  16
ENDBRANCH   3   6
ENDBRANCH   1   2
BRANCH   1  25
ATOM     25  C   UNL A   1      32.119  27.706  26.645  1.00  0.00     0.023 C 
BRANCH  25  26
ATOM     26  C   UNL A   1      33.647  27.681  26.771  1.00  0.00     0.023 C 
BRANCH  26  27
ATOM     27  C   UNL A   1      34.356  28.788  26.000  1.00  0.00     0.116 C 
BRANCH  27  28
ATOM     28  N   UNL A   1      33.978  30.105  26.491  1.00  0.00    -0.352 N 
ATOM     29  C   UNL A   1      34.501  30.806  27.545  1.00  0.00     0.251 C 
ATOM     30  H   UNL A   1      33.250  30.551  26.001  1.00  0.00     0.163 HD
ATOM     31  O   UNL A   1      33.917  31.794  27.984  1.00  0.00    -0.269 OA
BRANCH  29  32
ATOM     32  C   UNL A   1      35.766  30.353  28.152  1.00  0.00     0.039 A 
ATOM     33  C   UNL A   1      35.728  29.639  29.350  1.00  0.00     0.014 A 
ATOM     34  C   UNL A   1      36.985  30.621  27.521  1.00  0.00     0.014 A 
ATOM     35  C   UNL A   1      36.915  29.152  29.896  1.00  0.00     0.010 A 
ATOM     36  C   UNL A   1      38.157  30.067  28.024  1.00  0.00     0.010 A 
ATOM     37  C   UNL A   1      38.135  29.338  29.222  1.00  0.00    -0.014 A 
BRANCH  37  38
ATOM     38  C   UNL A   1      39.397  28.773  29.758  1.00  0.00     0.031 A 
ATOM     39  C   UNL A   1      40.053  29.391  30.963  1.00  0.00     0.074 A 
ATOM     40  C   UNL A   1      39.992  27.750  29.113  1.00  0.00     0.049 A 
ATOM     41  N   UNL A   1      41.174  29.061  31.550  1.00  0.00    -0.248 NA
ATOM     42  C   UNL A   1      39.376  30.548  31.572  1.00  0.00     0.031 C 
ATOM     43  C   UNL A   1      39.495  27.120  27.887  1.00  0.00     0.029 A 
ATOM     44  N   UNL A   1      41.157  27.078  29.381  1.00  0.00    -0.354 N 
ATOM     45  C   UNL A   1      41.354  29.986  32.571  1.00  0.00     0.074 A 
ATOM     46  C   UNL A   1      40.247  30.914  32.501  1.00  0.00     0.031 C 
ATOM     47  C   UNL A   1      40.344  26.150  27.515  1.00  0.00     0.029 A 
ATOM     48  C   UNL A   1      41.462  26.109  28.453  1.00  0.00     0.049 A 
ATOM     49  H   UNL A   1      41.722  27.271  30.164  1.00  0.00     0.167 HD
ATOM     50  C   UNL A   1      42.338  30.042  33.500  1.00  0.00     0.034 A 
ATOM     51  C   UNL A   1      42.525  25.288  28.363  1.00  0.00     0.034 A 
ATOM     52  C   UNL A   1      43.415  29.094  33.586  1.00  0.00     0.049 A 
ATOM     53  C   UNL A   1      43.585  25.349  29.429  1.00  0.00     0.074 A 
ATOM     54  C   UNL A   1      44.411  29.010  34.543  1.00  0.00     0.029 A 
ATOM     55  N   UNL A   1      43.649  28.076  32.676  1.00  0.00    -0.354 N 
ATOM     56  N   UNL A   1      43.653  26.126  30.482  1.00  0.00    -0.248 NA
ATOM     57  C   UNL A   1      44.697  24.394  29.316  1.00  0.00     0.031 C 
ATOM     58  C   UNL A   1      45.265  27.960  34.192  1.00  0.00     0.029 A 
ATOM     59  C   UNL A   1      44.779  27.365  33.038  1.00  0.00     0.049 A 
ATOM     60  H   UNL A   1      43.092  27.886  31.886  1.00  0.00     0.167 HD
ATOM     61  C   UNL A   1      44.791  25.730  31.176  1.00  0.00     0.074 A 
ATOM     62  C   UNL A   1      45.369  24.628  30.434  1.00  0.00     0.031 C 
ATOM     63  C   UNL A   1      45.317  26.240  32.318  1.00  0.00     0.034 A 
BRANCH  50  64
ATOM     64  C   UNL A   1      42.268  31.141  34.528  1.00  0.00     0.023 A 
ATOM     65  C   UNL A   1      41.642  30.898  35.769  1.00  0.00     0.012 A 
ATOM     66  C   UNL A   1      42.872  32.392  34.294  1.00  0.00     0.148 A 
ATOM     67  C   UNL A   1      41.585  31.893  36.744  1.00  0.00     0.002 A 
ATOM     68  C   UNL A   1      42.852  33.362  35.289  1.00  0.00     0.091 A 
ATOM     69  F   UNL A   1      43.444  32.612  33.102  1.00  0.00    -0.205 F 
ATOM     70  C   UNL A   1      42.199  33.120  36.508  1.00  0.00     0.022 A 
BRANCH  68  71
ATOM     71  S   UNL A   1      43.687  34.943  35.118  1.00  0.00     0.127 S 
ATOM     72  O   UNL A   1      45.017  34.528  34.674  1.00  0.00    -0.237 OA
ATOM     73  O   UNL A   1      42.882  35.607  34.092  1.00  0.00    -0.237 OA
ATOM     74  O   UNL A   1      43.636  35.570  36.431  1.00  0.00    -0.744 OA
ENDBRANCH  68  71
ENDBRANCH  50  64
BRANCH  51  75
ATOM     75  C   UNL A   1      42.611  24.298  27.253  1.00  0.00     0.023 A 
ATOM     76  C   UNL A   1      43.306  24.635  26.074  1.00  0.00     0.012 A 
ATOM     77  C   UNL A   1      42.028  23.021  27.365  1.00  0.00     0.148 A 
ATOM     78  C   UNL A   1      43.387  23.731  25.014  1.00  0.00     0.002 A 
ATOM     79  C   UNL A   1      42.163  22.105  26.328  1.00  0.00     0.091 A 
ATOM     80  F   UNL A   1      41.365  22.724  28.491  1.00  0.00    -0.205 F 
ATOM     81  C   UNL A   1      42.825  22.464  25.145  1.00  0.00     0.022 A 
BRANCH  79  82
ATOM     82  S   UNL A   1      41.586  20.409  26.460  1.00  0.00     0.127 S 
ATOM     83  O   UNL A   1      42.078  20.028  27.780  1.00  0.00    -0.237 OA
ATOM     84  O   UNL A   1      40.135  20.577  26.367  1.00  0.00    -0.237 OA
ATOM     85  O   UNL A   1      42.182  19.703  25.334  1.00  0.00    -0.744 OA
ENDBRANCH  79  82
ENDBRANCH  51  75
BRANCH  63  86
ATOM     86  C   UNL A   1      46.560  25.589  32.866  1.00  0.00     0.023 A 
ATOM     87  C   UNL A   1      46.460  24.631  33.894  1.00  0.00     0.012 A 
ATOM     88  C   UNL A   1      47.822  25.878  32.309  1.00  0.00     0.148 A 
ATOM     89  C   UNL A   1      47.601  23.996  34.384  1.00  0.00     0.002 A 
ATOM     90  C   UNL A   1      48.947  25.204  32.766  1.00  0.00     0.091 A 
ATOM     91  F   UNL A   1      47.898  26.806  31.345  1.00  0.00    -0.205 F 
ATOM     92  C   UNL A   1      48.841  24.273  33.813  1.00  0.00     0.022 A 
BRANCH  90  93
ATOM     93  S   UNL A   1      50.568  25.421  32.023  1.00  0.00     0.127 S 
ATOM     94  O   UNL A   1      51.385  24.506  32.820  1.00  0.00    -0.237 OA
ATOM     95  O   UNL A   1      50.337  24.989  30.644  1.00  0.00    -0.237 OA
ATOM     96  O   UNL A   1      50.892  26.834  32.167  1.00  0.00    -0.744 OA
ENDBRANCH  90  93
ENDBRANCH  63  86
ENDBRANCH  37  38
ENDBRANCH  29  32
ENDBRANCH  27  28
ENDBRANCH  26  27
ENDBRANCH  25  26
ENDBRANCH   1  25
TORSDOF 19
ENDMDL
MODEL 3
REMARK VINA RESULT:     -10.2      3.240      8.082
REMARK SMILES CCC[NH2+]CC(=O)N1[C@@H](C(=O)NCCCCNC(=O)c2ccc(-c3c4nc(c(-c5cccc(S(=O)(=O)[O-])c5F)c5ccc([nH]5)c(-c5cccc(S(=O)(=O)[O-])c5F)c5nc(c(-c6cccc(S(=O)(=O)[O-])c6F)c6ccc3[nH]6)C=C5)C=C4)cc2)CC[C@@H]2CCCC[C@@H]21
REMARK SMILES IDX 13 1 12 2 10 3 11 4 9 6 8 7 90 8 83 9 85 10 89 11 84 12
REMARK SMILES IDX 86 13 88 14 87 15 6 16 7 17 5 18 4 19 3 22 2 23 1 24 14 25
REMARK SMILES IDX 15 26 16 27 17 28 18 29 19 31 20 32 21 33 82 34 22 35 81 36
REMARK SMILES IDX 23 37 24 38 25 39 75 40 26 41 80 42 74 43 76 44 27 45 79 46
REMARK SMILES IDX 73 47 72 48 28 50 60 51 40 52 59 53 41 54 44 55 58 56 77 57
REMARK SMILES IDX 42 58 43 59 57 61 78 62 45 63 29 64 30 65 38 66 31 67 33 68
REMARK SMILES IDX 39 69 32 70 34 71 35 72 36 73 37 74 61 75 62 76 70 77 63 78
REMARK SMILES IDX 65 79 71 80 64 81 66 82 67 83 68 84 69 85 46 86 47 87 55 88
REMARK SMILES IDX 48 89 50 90 56 91 49 92 51 93 52 94 53 95 54 96
REMARK H PARENT 12 5 4 20 4 21 17 30 76 49 44 60
REMARK Flexibility Score: inf
ROOT
ATOM      1  C   UNL A   1      33.224  26.641  26.118  1.00  0.00     0.116 C 
ENDROOT
BRANCH   1   2
ATOM      2  N   UNL A   1      31.855  26.162  26.139  1.00  0.00    -0.354 N 
ATOM      3  C   UNL A   1      31.359  25.087  25.469  1.00  0.00     0.242 C 
ATOM      4  O   UNL A   1      30.248  25.182  24.942  1.00  0.00    -0.273 OA
ATOM      5  H   UNL A   1      31.220  26.666  26.695  1.00  0.00     0.163 HD
BRANCH   3   6
ATOM      6  C   UNL A   1      32.193  23.820  25.263  1.00  0.00     0.175 C 
ATOM      7  N   UNL A   1      32.828  23.600  23.946  1.00  0.00    -0.323 N 
ATOM      8  C   UNL A   1      33.346  22.240  23.686  1.00  0.00     0.089 C 
ATOM      9  C   UNL A   1      31.187  22.697  25.608  1.00  0.00     0.036 C 
ATOM     10  C   UNL A   1      32.304  21.162  23.990  1.00  0.00     0.012 C 
ATOM     11  C   UNL A   1      34.694  22.021  24.415  1.00  0.00     0.025 C 
ATOM     12  C   UNL A   1      31.746  21.308  25.407  1.00  0.00     0.008 C 
ATOM     13  C   UNL A   1      32.921  19.785  23.755  1.00  0.00     0.006 C 
ATOM     14  C   UNL A   1      35.019  20.628  24.972  1.00  0.00     0.002 C 
ATOM     15  C   UNL A   1      34.033  19.485  24.743  1.00  0.00     0.000 C 
BRANCH   7  16
ATOM     16  C   UNL A   1      33.345  24.595  23.112  1.00  0.00     0.278 C 
ATOM     17  O   UNL A   1      34.366  25.200  23.467  1.00  0.00    -0.268 OA
BRANCH  16  18
ATOM     18  C   UNL A   1      32.541  25.114  21.904  1.00  0.00     0.362 C 
BRANCH  18  19
ATOM     19  N   UNL A   1      31.281  25.807  22.204  1.00  0.00    -0.338 N 
ATOM     20  H   UNL A   1      30.625  25.644  21.440  1.00  0.00     0.346 HD
ATOM     21  H   UNL A   1      30.920  25.439  23.084  1.00  0.00     0.346 HD
BRANCH  19  22
ATOM     22  C   UNL A   1      31.472  27.245  22.361  1.00  0.00     0.260 C 
BRANCH  22  23
ATOM     23  C   UNL A   1      30.309  28.032  22.987  1.00  0.00     0.058 C 
ATOM     24  C   UNL A   1      29.914  29.361  22.361  1.00  0.00     0.010 C 
ENDBRANCH  22  23
ENDBRANCH  19  22
ENDBRANCH  18  19
ENDBRANCH  16  18
ENDBRANCH   7  16
ENDBRANCH   3   6
ENDBRANCH   1   2
BRANCH   1  25
ATOM     25  C   UNL A   1      33.201  28.163  25.966  1.00  0.00     0.023 C 
BRANCH  25  26
ATOM     26  C   UNL A   1      33.607  28.914  27.240  1.00  0.00     0.023 C 
BRANCH  26  27
ATOM     27  C   UNL A   1      34.496  30.127  26.994  1.00  0.00     0.116 C 
BRANCH  27  28
ATOM     28  N   UNL A   1      34.197  31.205  27.924  1.00  0.00    -0.352 N 
ATOM     29  C   UNL A   1      34.861  31.554  29.069  1.00  0.00     0.251 C 
ATOM     30  H   UNL A   1      33.411  31.756  27.701  1.00  0.00     0.163 HD
ATOM     31  O   UNL A   1      34.347  32.330  29.873  1.00  0.00    -0.269 OA
BRANCH  29  32
ATOM     32  C   UNL A   1      36.193  30.980  29.331  1.00  0.00     0.039 A 
ATOM     33  C   UNL A   1      37.324  31.633  28.842  1.00  0.00     0.014 A 
ATOM     34  C   UNL A   1      36.318  29.804  30.079  1.00  0.00     0.014 A 
ATOM     35  C   UNL A   1      38.589  31.130  29.141  1.00  0.00     0.010 A 
ATOM     36  C   UNL A   1      37.580  29.350  30.442  1.00  0.00     0.010 A 
ATOM     37  C   UNL A   1      38.728  30.002  29.967  1.00  0.00    -0.014 A 
BRANCH  37  38
ATOM     38  C   UNL A   1      40.068  29.491  30.346  1.00  0.00     0.031 A 
ATOM     39  C   UNL A   1      40.716  28.396  29.542  1.00  0.00     0.074 A 
ATOM     40  C   UNL A   1      40.667  29.961  31.458  1.00  0.00     0.049 A 
ATOM     41  N   UNL A   1      41.862  27.797  29.741  1.00  0.00    -0.248 NA
ATOM     42  C   UNL A   1      39.969  27.888  28.379  1.00  0.00     0.031 C 
ATOM     43  C   UNL A   1      40.100  30.963  32.364  1.00  0.00     0.029 A 
ATOM     44  N   UNL A   1      41.871  29.639  32.031  1.00  0.00    -0.354 N 
ATOM     45  C   UNL A   1      41.957  26.824  28.755  1.00  0.00     0.074 A 
ATOM     46  C   UNL A   1      40.737  26.885  27.980  1.00  0.00     0.031 C 
ATOM     47  C   UNL A   1      40.958  31.179  33.373  1.00  0.00     0.029 A 
ATOM     48  C   UNL A   1      42.119  30.310  33.206  1.00  0.00     0.049 A 
ATOM     49  H   UNL A   1      42.498  28.989  31.638  1.00  0.00     0.167 HD
ATOM     50  C   UNL A   1      42.980  25.973  28.499  1.00  0.00     0.034 A 
ATOM     51  C   UNL A   1      43.159  30.226  34.058  1.00  0.00     0.034 A 
ATOM     52  C   UNL A   1      44.205  25.943  29.250  1.00  0.00     0.049 A 
ATOM     53  C   UNL A   1      44.297  29.298  33.730  1.00  0.00     0.074 A 
ATOM     54  C   UNL A   1      45.337  25.182  29.016  1.00  0.00     0.029 A 
ATOM     55  N   UNL A   1      44.455  26.693  30.388  1.00  0.00    -0.354 N 
ATOM     56  N   UNL A   1      44.441  28.501  32.700  1.00  0.00    -0.248 NA
ATOM     57  C   UNL A   1      45.433  29.285  34.662  1.00  0.00     0.031 C 
ATOM     58  C   UNL A   1      46.259  25.450  30.033  1.00  0.00     0.029 A 
ATOM     59  C   UNL A   1      45.718  26.406  30.877  1.00  0.00     0.049 A 
ATOM     60  H   UNL A   1      43.827  27.337  30.789  1.00  0.00     0.167 HD
ATOM     61  C   UNL A   1      45.697  27.921  32.839  1.00  0.00     0.074 A 
ATOM     62  C   UNL A   1      46.281  28.476  34.042  1.00  0.00     0.031 C 
ATOM     63  C   UNL A   1      46.306  27.002  32.048  1.00  0.00     0.034 A 
BRANCH  50  64
ATOM     64  C   UNL A   1      42.834  25.036  27.328  1.00  0.00     0.023 A 
ATOM     65  C   UNL A   1      43.392  25.384  26.080  1.00  0.00     0.012 A 
ATOM     66  C   UNL A   1      42.201  23.786  27.476  1.00  0.00     0.148 A 
ATOM     67  C   UNL A   1      43.289  24.522  24.990  1.00  0.00     0.002 A 
ATOM     68  C   UNL A   1      42.144  22.912  26.397  1.00  0.00     0.091 A 
ATOM     69  F   UNL A   1      41.659  23.480  28.663  1.00  0.00    -0.205 F 
ATOM     70  C   UNL A   1      42.675  23.283  25.151  1.00  0.00     0.022 A 
BRANCH  68  71
ATOM     71  S   UNL A   1      41.452  21.259  26.523  1.00  0.00     0.127 S 
ATOM     72  O   UNL A   1      40.083  21.477  26.057  1.00  0.00    -0.237 OA
ATOM     73  O   UNL A   1      42.296  20.501  25.599  1.00  0.00    -0.237 OA
ATOM     74  O   UNL A   1      41.581  20.874  27.921  1.00  0.00    -0.744 OA
ENDBRANCH  68  71
ENDBRANCH  50  64
BRANCH  51  75
ATOM     75  C   UNL A   1      43.199  31.088  35.273  1.00  0.00     0.023 A 
ATOM     76  C   UNL A   1      42.693  30.595  36.491  1.00  0.00     0.012 A 
ATOM     77  C   UNL A   1      43.753  32.382  35.233  1.00  0.00     0.148 A 
ATOM     78  C   UNL A   1      42.704  31.387  37.639  1.00  0.00     0.002 A 
ATOM     79  C   UNL A   1      43.814  33.145  36.394  1.00  0.00     0.091 A 
ATOM     80  F   UNL A   1      44.222  32.836  34.063  1.00  0.00    -0.205 F 
ATOM     81  C   UNL A   1      43.273  32.658  37.593  1.00  0.00     0.022 A 
BRANCH  79  82
ATOM     82  S   UNL A   1      44.646  34.736  36.459  1.00  0.00     0.127 S 
ATOM     83  O   UNL A   1      44.550  35.064  37.878  1.00  0.00    -0.237 OA
ATOM     84  O   UNL A   1      45.989  34.392  35.994  1.00  0.00    -0.237 OA
ATOM     85  O   UNL A   1      43.902  35.605  35.557  1.00  0.00    -0.744 OA
ENDBRANCH  79  82
ENDBRANCH  51  75
BRANCH  63  86
ATOM     86  C   UNL A   1      47.696  26.565  32.430  1.00  0.00     0.023 A 
ATOM     87  C   UNL A   1      47.878  25.500  33.335  1.00  0.00     0.012 A 
ATOM     88  C   UNL A   1      48.823  27.166  31.835  1.00  0.00     0.148 A 
ATOM     89  C   UNL A   1      49.159  25.063  33.668  1.00  0.00     0.002 A 
ATOM     90  C   UNL A   1      50.095  26.692  32.130  1.00  0.00     0.091 A 
ATOM     91  F   UNL A   1      48.630  28.189  30.991  1.00  0.00    -0.205 F 
ATOM     92  C   UNL A   1      50.266  25.650  33.058  1.00  0.00     0.022 A 
BRANCH  90  93
ATOM     93  S   UNL A   1      51.570  27.317  31.319  1.00  0.00     0.127 S 
ATOM     94  O   UNL A   1      52.617  26.504  31.936  1.00  0.00    -0.237 OA
ATOM     95  O   UNL A   1      51.305  27.007  29.914  1.00  0.00    -0.237 OA
ATOM     96  O   UNL A   1      51.625  28.740  31.623  1.00  0.00    -0.744 OA
ENDBRANCH  90  93
ENDBRANCH  63  86
ENDBRANCH  37  38
ENDBRANCH  29  32
ENDBRANCH  27  28
ENDBRANCH  26  27
ENDBRANCH  25  26
ENDBRANCH   1  25
TORSDOF 19
ENDMDL
