MODEL 1
REMARK VINA RESULT:     -10.8      0.000      0.000
REMARK SMILES CSc1ncccc1C(=O)NCCCC(=O)NCCCCNC(=O)c1ccc(-c2c3nc(c(-c4cccc(S(=O)(=O)[O-])c4F)c4ccc([nH]4)c(-c4cccc(S(=O)(=O)[O-])c4F)c4nc(c(-c5cccc(S(=O)(=O)[O-])c5F)c5ccc2[nH]5)C=C4)C=C3)cc1
REMARK SMILES IDX 18 1 17 2 15 3 16 4 14 6 13 7 12 8 11 9 9 10 10 11 8 13 3 14
REMARK SMILES IDX 4 15 5 16 7 17 6 18 2 19 1 20 19 21 20 22 21 23 22 24 23 25
REMARK SMILES IDX 24 27 25 28 26 29 87 30 27 31 86 32 28 33 29 34 30 35 80 36
REMARK SMILES IDX 31 37 85 38 79 39 81 40 32 41 84 42 78 43 77 44 33 46 65 47
REMARK SMILES IDX 45 48 64 49 46 50 49 51 63 52 82 53 47 54 48 55 62 57 83 58
REMARK SMILES IDX 50 59 34 60 35 61 43 62 36 63 38 64 44 65 37 66 39 67 40 68
REMARK SMILES IDX 41 69 42 70 66 71 67 72 75 73 68 74 70 75 76 76 69 77 71 78
REMARK SMILES IDX 72 79 73 80 74 81 51 82 52 83 60 84 53 85 55 86 61 87 54 88
REMARK SMILES IDX 56 89 57 90 58 91 59 92
REMARK H PARENT 17 5 11 12 22 26 81 45 49 56
REMARK Flexibility Score: inf
ROOT
ATOM      1  C   UNL A   1      33.630  27.605  23.506  1.00  0.00     0.116 C 
ENDROOT
BRANCH   1   2
ATOM      2  N   UNL A   1      33.622  26.973  22.200  1.00  0.00    -0.356 N 
ATOM      3  C   UNL A   1      32.731  26.103  21.649  1.00  0.00     0.220 C 
ATOM      4  O   UNL A   1      33.006  25.576  20.572  1.00  0.00    -0.275 OA
ATOM      5  H   UNL A   1      34.382  27.210  21.620  1.00  0.00     0.163 HD
BRANCH   3   6
ATOM      6  C   UNL A   1      31.415  25.805  22.336  1.00  0.00     0.102 C 
BRANCH   6   7
ATOM      7  C   UNL A   1      31.310  24.386  22.907  1.00  0.00     0.031 C 
BRANCH   7   8
ATOM      8  C   UNL A   1      32.525  23.874  23.684  1.00  0.00     0.116 C 
BRANCH   8   9
ATOM      9  N   UNL A   1      32.208  23.460  25.040  1.00  0.00    -0.352 N 
ATOM     10  C   UNL A   1      32.924  22.785  25.999  1.00  0.00     0.254 C 
ATOM     11  O   UNL A   1      32.500  22.865  27.149  1.00  0.00    -0.269 OA
ATOM     12  H   UNL A   1      31.302  23.716  25.330  1.00  0.00     0.163 HD
BRANCH  10  13
ATOM     13  C   UNL A   1      34.117  21.966  25.681  1.00  0.00     0.072 A 
ATOM     14  C   UNL A   1      34.005  20.699  25.085  1.00  0.00     0.108 A 
ATOM     15  N   UNL A   1      35.100  19.960  24.751  1.00  0.00    -0.249 NA
ATOM     16  C   UNL A   1      36.320  20.438  25.062  1.00  0.00     0.112 A 
ATOM     17  C   UNL A   1      35.403  22.408  26.024  1.00  0.00     0.018 A 
ATOM     18  C   UNL A   1      36.520  21.641  25.706  1.00  0.00     0.021 A 
BRANCH  14  19
ATOM     19  S   UNL A   1      32.494  19.806  24.750  1.00  0.00    -0.109 SA
ATOM     20  C   UNL A   1      32.855  18.221  25.532  1.00  0.00     0.092 C 
ENDBRANCH  14  19
ENDBRANCH  10  13
ENDBRANCH   8   9
ENDBRANCH   7   8
ENDBRANCH   6   7
ENDBRANCH   3   6
ENDBRANCH   1   2
BRANCH   1  21
ATOM     21  C   UNL A   1      32.964  28.981  23.441  1.00  0.00     0.023 C 
BRANCH  21  22
ATOM     22  C   UNL A   1      32.088  29.315  24.644  1.00  0.00     0.023 C 
BRANCH  22  23
ATOM     23  C   UNL A   1      32.864  29.726  25.888  1.00  0.00     0.116 C 
BRANCH  23  24
ATOM     24  N   UNL A   1      32.554  31.072  26.352  1.00  0.00    -0.352 N 
ATOM     25  C   UNL A   1      33.276  31.852  27.229  1.00  0.00     0.251 C 
ATOM     26  H   UNL A   1      31.728  31.474  25.995  1.00  0.00     0.163 HD
ATOM     27  O   UNL A   1      32.846  32.930  27.614  1.00  0.00    -0.269 OA
BRANCH  25  28
ATOM     28  C   UNL A   1      34.566  31.336  27.734  1.00  0.00     0.039 A 
ATOM     29  C   UNL A   1      35.603  32.236  27.986  1.00  0.00     0.014 A 
ATOM     30  C   UNL A   1      34.713  29.981  28.031  1.00  0.00     0.014 A 
ATOM     31  C   UNL A   1      36.763  31.785  28.617  1.00  0.00     0.010 A 
ATOM     32  C   UNL A   1      35.831  29.550  28.733  1.00  0.00     0.010 A 
ATOM     33  C   UNL A   1      36.867  30.448  29.034  1.00  0.00    -0.014 A 
BRANCH  33  34
ATOM     34  C   UNL A   1      38.043  29.959  29.796  1.00  0.00     0.031 A 
ATOM     35  C   UNL A   1      38.304  30.479  31.184  1.00  0.00     0.074 A 
ATOM     36  C   UNL A   1      38.933  29.142  29.200  1.00  0.00     0.049 A 
ATOM     37  N   UNL A   1      39.324  30.254  31.969  1.00  0.00    -0.248 NA
ATOM     38  C   UNL A   1      37.306  31.404  31.747  1.00  0.00     0.031 C 
ATOM     39  C   UNL A   1      38.841  28.646  27.824  1.00  0.00     0.029 A 
ATOM     40  N   UNL A   1      40.111  28.609  29.663  1.00  0.00    -0.354 N 
ATOM     41  C   UNL A   1      39.112  31.038  33.097  1.00  0.00     0.074 A 
ATOM     42  C   UNL A   1      37.888  31.776  32.877  1.00  0.00     0.031 C 
ATOM     43  C   UNL A   1      39.912  27.882  27.558  1.00  0.00     0.029 A 
ATOM     44  C   UNL A   1      40.779  27.851  28.731  1.00  0.00     0.049 A 
ATOM     45  H   UNL A   1      40.445  28.757  30.578  1.00  0.00     0.167 HD
ATOM     46  C   UNL A   1      39.849  31.111  34.231  1.00  0.00     0.034 A 
ATOM     47  C   UNL A   1      41.959  27.205  28.813  1.00  0.00     0.034 A 
ATOM     48  C   UNL A   1      41.028  30.325  34.472  1.00  0.00     0.049 A 
ATOM     49  C   UNL A   1      42.720  27.241  30.112  1.00  0.00     0.074 A 
ATOM     50  C   UNL A   1      41.792  30.251  35.622  1.00  0.00     0.029 A 
ATOM     51  N   UNL A   1      41.609  29.473  33.547  1.00  0.00    -0.354 N 
ATOM     52  N   UNL A   1      42.417  27.858  31.228  1.00  0.00    -0.248 NA
ATOM     53  C   UNL A   1      43.965  26.460  30.177  1.00  0.00     0.031 C 
ATOM     54  C   UNL A   1      42.840  29.354  35.391  1.00  0.00     0.029 A 
ATOM     55  C   UNL A   1      42.722  28.863  34.101  1.00  0.00     0.049 A 
ATOM     56  H   UNL A   1      41.280  29.321  32.632  1.00  0.00     0.167 HD
ATOM     57  C   UNL A   1      43.411  27.516  32.137  1.00  0.00     0.074 A 
ATOM     58  C   UNL A   1      44.315  26.618  31.447  1.00  0.00     0.031 C 
ATOM     59  C   UNL A   1      43.572  27.922  33.420  1.00  0.00     0.034 A 
BRANCH  46  60
ATOM     60  C   UNL A   1      39.353  32.017  35.326  1.00  0.00     0.023 A 
ATOM     61  C   UNL A   1      38.398  31.530  36.242  1.00  0.00     0.012 A 
ATOM     62  C   UNL A   1      39.856  33.323  35.481  1.00  0.00     0.148 A 
ATOM     63  C   UNL A   1      37.923  32.340  37.272  1.00  0.00     0.002 A 
ATOM     64  C   UNL A   1      39.410  34.110  36.536  1.00  0.00     0.091 A 
ATOM     65  F   UNL A   1      40.745  33.777  34.586  1.00  0.00    -0.205 F 
ATOM     66  C   UNL A   1      38.437  33.624  37.425  1.00  0.00     0.022 A 
BRANCH  64  67
ATOM     67  S   UNL A   1      40.065  35.750  36.863  1.00  0.00     0.127 S 
ATOM     68  O   UNL A   1      39.644  36.480  35.667  1.00  0.00    -0.237 OA
ATOM     69  O   UNL A   1      39.358  36.129  38.087  1.00  0.00    -0.237 OA
ATOM     70  O   UNL A   1      41.502  35.582  37.021  1.00  0.00    -0.744 OA
ENDBRANCH  64  67
ENDBRANCH  46  60
BRANCH  47  71
ATOM     71  C   UNL A   1      42.449  26.398  27.660  1.00  0.00     0.023 A 
ATOM     72  C   UNL A   1      43.338  26.987  26.739  1.00  0.00     0.012 A 
ATOM     73  C   UNL A   1      42.072  25.052  27.485  1.00  0.00     0.148 A 
ATOM     74  C   UNL A   1      43.819  26.260  25.648  1.00  0.00     0.002 A 
ATOM     75  C   UNL A   1      42.596  24.319  26.426  1.00  0.00     0.091 A 
ATOM     76  F   UNL A   1      41.214  24.513  28.362  1.00  0.00    -0.205 F 
ATOM     77  C   UNL A   1      43.457  24.925  25.498  1.00  0.00     0.022 A 
BRANCH  75  78
ATOM     78  S   UNL A   1      42.288  22.558  26.237  1.00  0.00     0.127 S 
ATOM     79  O   UNL A   1      42.846  22.021  27.474  1.00  0.00    -0.237 OA
ATOM     80  O   UNL A   1      40.828  22.511  26.147  1.00  0.00    -0.237 OA
ATOM     81  O   UNL A   1      42.973  22.176  25.008  1.00  0.00    -0.744 OA
ENDBRANCH  75  78
ENDBRANCH  47  71
BRANCH  59  82
ATOM     82  C   UNL A   1      44.752  27.380  34.182  1.00  0.00     0.023 A 
ATOM     83  C   UNL A   1      45.943  28.129  34.245  1.00  0.00     0.012 A 
ATOM     84  C   UNL A   1      44.650  26.176  34.907  1.00  0.00     0.148 A 
ATOM     85  C   UNL A   1      47.024  27.675  34.998  1.00  0.00     0.002 A 
ATOM     86  C   UNL A   1      45.717  25.753  35.691  1.00  0.00     0.091 A 
ATOM     87  F   UNL A   1      43.514  25.469  34.816  1.00  0.00    -0.205 F 
ATOM     88  C   UNL A   1      46.907  26.496  35.731  1.00  0.00     0.022 A 
BRANCH  86  89
ATOM     89  S   UNL A   1      45.618  24.297  36.738  1.00  0.00     0.127 S 
ATOM     90  O   UNL A   1      45.433  23.233  35.753  1.00  0.00    -0.237 OA
ATOM     91  O   UNL A   1      46.924  24.297  37.398  1.00  0.00    -0.237 OA
ATOM     92  O   UNL A   1      44.491  24.525  37.635  1.00  0.00    -0.744 OA
ENDBRANCH  86  89
ENDBRANCH  59  82
ENDBRANCH  33  34
ENDBRANCH  25  28
ENDBRANCH  23  24
ENDBRANCH  22  23
ENDBRANCH  21  22
ENDBRANCH   1  21
TORSDOF 19
ENDMDL
MODEL 2
REMARK VINA RESULT:     -10.7      2.653      3.396
REMARK SMILES CSc1ncccc1C(=O)NCCCC(=O)NCCCCNC(=O)c1ccc(-c2c3nc(c(-c4cccc(S(=O)(=O)[O-])c4F)c4ccc([nH]4)c(-c4cccc(S(=O)(=O)[O-])c4F)c4nc(c(-c5cccc(S(=O)(=O)[O-])c5F)c5ccc2[nH]5)C=C4)C=C3)cc1
REMARK SMILES IDX 18 1 17 2 15 3 16 4 14 6 13 7 12 8 11 9 9 10 10 11 8 13 3 14
REMARK SMILES IDX 4 15 5 16 7 17 6 18 2 19 1 20 19 21 20 22 21 23 22 24 23 25
REMARK SMILES IDX 24 27 25 28 26 29 87 30 27 31 86 32 28 33 29 34 30 35 80 36
REMARK SMILES IDX 31 37 85 38 79 39 81 40 32 41 84 42 78 43 77 44 33 46 65 47
REMARK SMILES IDX 45 48 64 49 46 50 49 51 63 52 82 53 47 54 48 55 62 57 83 58
REMARK SMILES IDX 50 59 34 60 35 61 43 62 36 63 38 64 44 65 37 66 39 67 40 68
REMARK SMILES IDX 41 69 42 70 66 71 67 72 75 73 68 74 70 75 76 76 69 77 71 78
REMARK SMILES IDX 72 79 73 80 74 81 51 82 52 83 60 84 53 85 55 86 61 87 54 88
REMARK SMILES IDX 56 89 57 90 58 91 59 92
REMARK H PARENT 17 5 11 12 22 26 81 45 49 56
REMARK Flexibility Score: inf
ROOT
ATOM      1  C   UNL A   1      33.865  27.303  23.594  1.00  0.00     0.116 C 
ENDROOT
BRANCH   1   2
ATOM      2  N   UNL A   1      33.711  26.895  22.210  1.00  0.00    -0.356 N 
ATOM      3  C   UNL A   1      32.822  26.037  21.641  1.00  0.00     0.220 C 
ATOM      4  O   UNL A   1      32.972  25.724  20.459  1.00  0.00    -0.275 OA
ATOM      5  H   UNL A   1      34.351  27.305  21.584  1.00  0.00     0.163 HD
BRANCH   3   6
ATOM      6  C   UNL A   1      31.654  25.491  22.436  1.00  0.00     0.102 C 
BRANCH   6   7
ATOM      7  C   UNL A   1      31.873  24.077  22.986  1.00  0.00     0.031 C 
BRANCH   7   8
ATOM      8  C   UNL A   1      33.046  23.897  23.952  1.00  0.00     0.116 C 
BRANCH   8   9
ATOM      9  N   UNL A   1      32.632  23.526  25.295  1.00  0.00    -0.352 N 
ATOM     10  C   UNL A   1      32.832  22.397  26.053  1.00  0.00     0.254 C 
ATOM     11  O   UNL A   1      32.629  22.510  27.259  1.00  0.00    -0.269 OA
ATOM     12  H   UNL A   1      32.108  24.222  25.754  1.00  0.00     0.163 HD
BRANCH  10  13
ATOM     13  C   UNL A   1      33.225  21.095  25.464  1.00  0.00     0.072 A 
ATOM     14  C   UNL A   1      34.572  20.721  25.335  1.00  0.00     0.108 A 
ATOM     15  N   UNL A   1      34.939  19.507  24.835  1.00  0.00    -0.249 NA
ATOM     16  C   UNL A   1      33.976  18.674  24.395  1.00  0.00     0.112 A 
ATOM     17  C   UNL A   1      32.258  20.215  24.958  1.00  0.00     0.018 A 
ATOM     18  C   UNL A   1      32.634  18.986  24.423  1.00  0.00     0.021 A 
BRANCH  14  19
ATOM     19  S   UNL A   1      36.002  21.734  25.688  1.00  0.00    -0.109 SA
ATOM     20  C   UNL A   1      36.521  22.185  24.021  1.00  0.00     0.092 C 
ENDBRANCH  14  19
ENDBRANCH  10  13
ENDBRANCH   8   9
ENDBRANCH   7   8
ENDBRANCH   6   7
ENDBRANCH   3   6
ENDBRANCH   1   2
BRANCH   1  21
ATOM     21  C   UNL A   1      33.426  28.758  23.778  1.00  0.00     0.023 C 
BRANCH  21  22
ATOM     22  C   UNL A   1      32.828  29.067  25.146  1.00  0.00     0.023 C 
BRANCH  22  23
ATOM     23  C   UNL A   1      33.858  29.276  26.247  1.00  0.00     0.116 C 
BRANCH  23  24
ATOM     24  N   UNL A   1      33.796  30.595  26.864  1.00  0.00    -0.352 N 
ATOM     25  C   UNL A   1      34.676  31.148  27.767  1.00  0.00     0.251 C 
ATOM     26  H   UNL A   1      33.031  31.158  26.603  1.00  0.00     0.163 HD
ATOM     27  O   UNL A   1      34.447  32.232  28.287  1.00  0.00    -0.269 OA
BRANCH  25  28
ATOM     28  C   UNL A   1      35.886  30.382  28.134  1.00  0.00     0.039 A 
ATOM     29  C   UNL A   1      37.007  30.448  27.304  1.00  0.00     0.014 A 
ATOM     30  C   UNL A   1      35.932  29.673  29.335  1.00  0.00     0.014 A 
ATOM     31  C   UNL A   1      38.204  29.867  27.722  1.00  0.00     0.010 A 
ATOM     32  C   UNL A   1      37.144  29.168  29.787  1.00  0.00     0.010 A 
ATOM     33  C   UNL A   1      38.292  29.260  28.986  1.00  0.00    -0.014 A 
BRANCH  33  34
ATOM     34  C   UNL A   1      39.575  28.722  29.503  1.00  0.00     0.031 A 
ATOM     35  C   UNL A   1      40.281  29.424  30.631  1.00  0.00     0.074 A 
ATOM     36  C   UNL A   1      40.158  27.676  28.885  1.00  0.00     0.049 A 
ATOM     37  N   UNL A   1      41.451  29.172  31.155  1.00  0.00    -0.248 NA
ATOM     38  C   UNL A   1      39.597  30.587  31.223  1.00  0.00     0.031 C 
ATOM     39  C   UNL A   1      39.619  26.970  27.720  1.00  0.00     0.029 A 
ATOM     40  N   UNL A   1      41.351  27.042  29.131  1.00  0.00    -0.354 N 
ATOM     41  C   UNL A   1      41.662  30.165  32.104  1.00  0.00     0.074 A 
ATOM     42  C   UNL A   1      40.518  31.047  32.057  1.00  0.00     0.031 C 
ATOM     43  C   UNL A   1      40.475  26.003  27.355  1.00  0.00     0.029 A 
ATOM     44  C   UNL A   1      41.634  26.032  28.242  1.00  0.00     0.049 A 
ATOM     45  H   UNL A   1      41.949  27.289  29.874  1.00  0.00     0.167 HD
ATOM     46  C   UNL A   1      42.697  30.309  32.965  1.00  0.00     0.034 A 
ATOM     47  C   UNL A   1      42.707  25.222  28.151  1.00  0.00     0.034 A 
ATOM     48  C   UNL A   1      43.799  29.391  33.055  1.00  0.00     0.049 A 
ATOM     49  C   UNL A   1      43.808  25.356  29.169  1.00  0.00     0.074 A 
ATOM     50  C   UNL A   1      44.848  29.392  33.956  1.00  0.00     0.029 A 
ATOM     51  N   UNL A   1      43.990  28.305  32.215  1.00  0.00    -0.354 N 
ATOM     52  N   UNL A   1      43.910  26.200  30.166  1.00  0.00    -0.248 NA
ATOM     53  C   UNL A   1      44.923  24.401  29.075  1.00  0.00     0.031 C 
ATOM     54  C   UNL A   1      45.678  28.305  33.658  1.00  0.00     0.029 A 
ATOM     55  C   UNL A   1      45.139  27.624  32.579  1.00  0.00     0.049 A 
ATOM     56  H   UNL A   1      43.397  28.054  31.471  1.00  0.00     0.167 HD
ATOM     57  C   UNL A   1      45.078  25.859  30.838  1.00  0.00     0.074 A 
ATOM     58  C   UNL A   1      45.638  24.716  30.146  1.00  0.00     0.031 C 
ATOM     59  C   UNL A   1      45.646  26.450  31.918  1.00  0.00     0.034 A 
BRANCH  46  60
ATOM     60  C   UNL A   1      42.642  31.462  33.932  1.00  0.00     0.023 A 
ATOM     61  C   UNL A   1      43.248  32.685  33.579  1.00  0.00     0.012 A 
ATOM     62  C   UNL A   1      41.961  31.357  35.160  1.00  0.00     0.148 A 
ATOM     63  C   UNL A   1      43.210  33.775  34.448  1.00  0.00     0.002 A 
ATOM     64  C   UNL A   1      41.889  32.460  36.002  1.00  0.00     0.091 A 
ATOM     65  F   UNL A   1      41.412  30.178  35.489  1.00  0.00    -0.205 F 
ATOM     66  C   UNL A   1      42.522  33.665  35.653  1.00  0.00     0.022 A 
BRANCH  64  67
ATOM     67  S   UNL A   1      40.964  32.443  37.542  1.00  0.00     0.127 S 
ATOM     68  O   UNL A   1      41.852  31.672  38.411  1.00  0.00    -0.237 OA
ATOM     69  O   UNL A   1      40.877  33.866  37.868  1.00  0.00    -0.237 OA
ATOM     70  O   UNL A   1      39.688  31.814  37.233  1.00  0.00    -0.744 OA
ENDBRANCH  64  67
ENDBRANCH  46  60
BRANCH  47  71
ATOM     71  C   UNL A   1      42.750  24.156  27.110  1.00  0.00     0.023 A 
ATOM     72  C   UNL A   1      43.479  24.382  25.926  1.00  0.00     0.012 A 
ATOM     73  C   UNL A   1      42.109  22.916  27.294  1.00  0.00     0.148 A 
ATOM     74  C   UNL A   1      43.543  23.406  24.931  1.00  0.00     0.002 A 
ATOM     75  C   UNL A   1      42.221  21.927  26.322  1.00  0.00     0.091 A 
ATOM     76  F   UNL A   1      41.408  22.723  28.420  1.00  0.00    -0.205 F 
ATOM     77  C   UNL A   1      42.924  22.176  25.133  1.00  0.00     0.022 A 
BRANCH  75  78
ATOM     78  S   UNL A   1      41.568  20.270  26.562  1.00  0.00     0.127 S 
ATOM     79  O   UNL A   1      40.129  20.503  26.499  1.00  0.00    -0.237 OA
ATOM     80  O   UNL A   1      42.127  19.551  25.417  1.00  0.00    -0.237 OA
ATOM     81  O   UNL A   1      42.090  19.833  27.851  1.00  0.00    -0.744 OA
ENDBRANCH  75  78
ENDBRANCH  47  71
BRANCH  59  82
ATOM     82  C   UNL A   1      46.926  25.858  32.446  1.00  0.00     0.023 A 
ATOM     83  C   UNL A   1      46.886  24.985  33.549  1.00  0.00     0.012 A 
ATOM     84  C   UNL A   1      48.152  26.097  31.793  1.00  0.00     0.148 A 
ATOM     85  C   UNL A   1      48.051  24.376  34.012  1.00  0.00     0.002 A 
ATOM     86  C   UNL A   1      49.301  25.451  32.234  1.00  0.00     0.091 A 
ATOM     87  F   UNL A   1      48.171  26.948  30.757  1.00  0.00    -0.205 F 
ATOM     88  C   UNL A   1      49.255  24.598  33.348  1.00  0.00     0.022 A 
BRANCH  86  89
ATOM     89  S   UNL A   1      50.875  25.608  31.380  1.00  0.00     0.127 S 
ATOM     90  O   UNL A   1      51.140  27.040  31.503  1.00  0.00    -0.237 OA
ATOM     91  O   UNL A   1      51.752  24.754  32.183  1.00  0.00    -0.237 OA
ATOM     92  O   UNL A   1      50.643  25.126  30.024  1.00  0.00    -0.744 OA
ENDBRANCH  86  89
ENDBRANCH  59  82
ENDBRANCH  33  34
ENDBRANCH  25  28
ENDBRANCH  23  24
ENDBRANCH  22  23
ENDBRANCH  21  22
ENDBRANCH   1  21
TORSDOF 19
ENDMDL
MODEL 3
REMARK VINA RESULT:     -10.6      2.490      3.278
REMARK SMILES CSc1ncccc1C(=O)NCCCC(=O)NCCCCNC(=O)c1ccc(-c2c3nc(c(-c4cccc(S(=O)(=O)[O-])c4F)c4ccc([nH]4)c(-c4cccc(S(=O)(=O)[O-])c4F)c4nc(c(-c5cccc(S(=O)(=O)[O-])c5F)c5ccc2[nH]5)C=C4)C=C3)cc1
REMARK SMILES IDX 18 1 17 2 15 3 16 4 14 6 13 7 12 8 11 9 9 10 10 11 8 13 3 14
REMARK SMILES IDX 4 15 5 16 7 17 6 18 2 19 1 20 19 21 20 22 21 23 22 24 23 25
REMARK SMILES IDX 24 27 25 28 26 29 87 30 27 31 86 32 28 33 29 34 30 35 80 36
REMARK SMILES IDX 31 37 85 38 79 39 81 40 32 41 84 42 78 43 77 44 33 46 65 47
REMARK SMILES IDX 45 48 64 49 46 50 49 51 63 52 82 53 47 54 48 55 62 57 83 58
REMARK SMILES IDX 50 59 34 60 35 61 43 62 36 63 38 64 44 65 37 66 39 67 40 68
REMARK SMILES IDX 41 69 42 70 66 71 67 72 75 73 68 74 70 75 76 76 69 77 71 78
REMARK SMILES IDX 72 79 73 80 74 81 51 82 52 83 60 84 53 85 55 86 61 87 54 88
REMARK SMILES IDX 56 89 57 90 58 91 59 92
REMARK H PARENT 17 5 11 12 22 26 81 45 49 56
REMARK Flexibility Score: inf
ROOT
ATOM      1  C   UNL A   1      31.130  29.634  24.540  1.00  0.00     0.116 C 
ENDROOT
BRANCH   1   2
ATOM      2  N   UNL A   1      32.271  29.355  23.688  1.00  0.00    -0.356 N 
ATOM      3  C   UNL A   1      32.460  28.374  22.764  1.00  0.00     0.220 C 
ATOM      4  O   UNL A   1      33.575  28.239  22.261  1.00  0.00    -0.275 OA
ATOM      5  H   UNL A   1      33.029  29.975  23.796  1.00  0.00     0.163 HD
BRANCH   3   6
ATOM      6  C   UNL A   1      31.315  27.476  22.344  1.00  0.00     0.102 C 
BRANCH   6   7
ATOM      7  C   UNL A   1      31.448  26.024  22.815  1.00  0.00     0.031 C 
BRANCH   7   8
ATOM      8  C   UNL A   1      32.533  25.185  22.135  1.00  0.00     0.116 C 
BRANCH   8   9
ATOM      9  N   UNL A   1      32.366  23.756  22.337  1.00  0.00    -0.352 N 
ATOM     10  C   UNL A   1      32.988  22.853  23.165  1.00  0.00     0.254 C 
ATOM     11  O   UNL A   1      32.411  21.781  23.330  1.00  0.00    -0.269 OA
ATOM     12  H   UNL A   1      31.669  23.356  21.769  1.00  0.00     0.163 HD
BRANCH  10  13
ATOM     13  C   UNL A   1      34.301  23.118  23.799  1.00  0.00     0.072 A 
ATOM     14  C   UNL A   1      34.401  23.683  25.080  1.00  0.00     0.108 A 
ATOM     15  N   UNL A   1      35.605  23.889  25.686  1.00  0.00    -0.249 NA
ATOM     16  C   UNL A   1      36.729  23.597  25.002  1.00  0.00     0.112 A 
ATOM     17  C   UNL A   1      35.495  22.867  23.108  1.00  0.00     0.018 A 
ATOM     18  C   UNL A   1      36.725  23.102  23.716  1.00  0.00     0.021 A 
BRANCH  14  19
ATOM     19  S   UNL A   1      33.058  24.301  26.084  1.00  0.00    -0.109 SA
ATOM     20  C   UNL A   1      32.839  22.934  27.240  1.00  0.00     0.092 C 
ENDBRANCH  14  19
ENDBRANCH  10  13
ENDBRANCH   8   9
ENDBRANCH   7   8
ENDBRANCH   6   7
ENDBRANCH   3   6
ENDBRANCH   1   2
BRANCH   1  21
ATOM     21  C   UNL A   1      31.538  29.596  26.014  1.00  0.00     0.023 C 
BRANCH  21  22
ATOM     22  C   UNL A   1      32.535  28.497  26.364  1.00  0.00     0.023 C 
BRANCH  22  23
ATOM     23  C   UNL A   1      33.903  29.007  26.794  1.00  0.00     0.116 C 
BRANCH  23  24
ATOM     24  N   UNL A   1      33.877  30.354  27.348  1.00  0.00    -0.352 N 
ATOM     25  C   UNL A   1      34.829  30.962  28.138  1.00  0.00     0.251 C 
ATOM     26  H   UNL A   1      33.084  30.896  27.131  1.00  0.00     0.163 HD
ATOM     27  O   UNL A   1      34.632  32.068  28.622  1.00  0.00    -0.269 OA
BRANCH  25  28
ATOM     28  C   UNL A   1      36.079  30.229  28.428  1.00  0.00     0.039 A 
ATOM     29  C   UNL A   1      37.160  30.361  27.555  1.00  0.00     0.014 A 
ATOM     30  C   UNL A   1      36.200  29.483  29.602  1.00  0.00     0.014 A 
ATOM     31  C   UNL A   1      38.394  29.809  27.904  1.00  0.00     0.010 A 
ATOM     32  C   UNL A   1      37.447  29.008  29.986  1.00  0.00     0.010 A 
ATOM     33  C   UNL A   1      38.556  29.167  29.142  1.00  0.00    -0.014 A 
BRANCH  33  34
ATOM     34  C   UNL A   1      39.877  28.658  29.587  1.00  0.00     0.031 A 
ATOM     35  C   UNL A   1      40.626  29.374  30.678  1.00  0.00     0.074 A 
ATOM     36  C   UNL A   1      40.451  27.628  28.935  1.00  0.00     0.049 A 
ATOM     37  N   UNL A   1      41.828  29.149  31.137  1.00  0.00    -0.248 NA
ATOM     38  C   UNL A   1      39.947  30.519  31.310  1.00  0.00     0.031 C 
ATOM     39  C   UNL A   1      39.867  26.912  27.798  1.00  0.00     0.029 A 
ATOM     40  N   UNL A   1      41.671  27.023  29.114  1.00  0.00    -0.354 N 
ATOM     41  C   UNL A   1      42.066  30.144  32.077  1.00  0.00     0.074 A 
ATOM     42  C   UNL A   1      40.901  30.999  32.096  1.00  0.00     0.031 C 
ATOM     43  C   UNL A   1      40.725  25.967  27.384  1.00  0.00     0.029 A 
ATOM     44  C   UNL A   1      41.929  26.022  28.207  1.00  0.00     0.049 A 
ATOM     45  H   UNL A   1      42.301  27.282  29.824  1.00  0.00     0.167 HD
ATOM     46  C   UNL A   1      43.142  30.312  32.882  1.00  0.00     0.034 A 
ATOM     47  C   UNL A   1      43.015  25.238  28.056  1.00  0.00     0.034 A 
ATOM     48  C   UNL A   1      44.269  29.420  32.909  1.00  0.00     0.049 A 
ATOM     49  C   UNL A   1      44.165  25.396  29.013  1.00  0.00     0.074 A 
ATOM     50  C   UNL A   1      45.365  29.444  33.752  1.00  0.00     0.029 A 
ATOM     51  N   UNL A   1      44.441  28.342  32.056  1.00  0.00    -0.354 N 
ATOM     52  N   UNL A   1      44.301  26.240  30.007  1.00  0.00    -0.248 NA
ATOM     53  C   UNL A   1      45.296  24.468  28.856  1.00  0.00     0.031 C 
ATOM     54  C   UNL A   1      46.203  28.379  33.406  1.00  0.00     0.029 A 
ATOM     55  C   UNL A   1      45.624  27.688  32.355  1.00  0.00     0.049 A 
ATOM     56  H   UNL A   1      43.815  28.078  31.344  1.00  0.00     0.167 HD
ATOM     57  C   UNL A   1      45.512  25.926  30.614  1.00  0.00     0.074 A 
ATOM     58  C   UNL A   1      46.061  24.798  29.888  1.00  0.00     0.031 C 
ATOM     59  C   UNL A   1      46.122  26.527  31.664  1.00  0.00     0.034 A 
BRANCH  46  60
ATOM     60  C   UNL A   1      43.112  31.461  33.855  1.00  0.00     0.023 A 
ATOM     61  C   UNL A   1      43.634  32.710  33.461  1.00  0.00     0.012 A 
ATOM     62  C   UNL A   1      42.534  31.325  35.131  1.00  0.00     0.148 A 
ATOM     63  C   UNL A   1      43.615  33.796  34.335  1.00  0.00     0.002 A 
ATOM     64  C   UNL A   1      42.479  32.423  35.981  1.00  0.00     0.091 A 
ATOM     65  F   UNL A   1      42.065  30.123  35.498  1.00  0.00    -0.205 F 
ATOM     66  C   UNL A   1      43.029  33.655  35.589  1.00  0.00     0.022 A 
BRANCH  64  67
ATOM     67  S   UNL A   1      41.678  32.364  37.588  1.00  0.00     0.127 S 
ATOM     68  O   UNL A   1      41.855  33.738  38.057  1.00  0.00    -0.237 OA
ATOM     69  O   UNL A   1      40.302  32.013  37.236  1.00  0.00    -0.237 OA
ATOM     70  O   UNL A   1      42.387  31.345  38.349  1.00  0.00    -0.744 OA
ENDBRANCH  64  67
ENDBRANCH  46  60
BRANCH  47  71
ATOM     71  C   UNL A   1      43.027  24.176  27.010  1.00  0.00     0.023 A 
ATOM     72  C   UNL A   1      43.761  24.387  25.826  1.00  0.00     0.012 A 
ATOM     73  C   UNL A   1      42.352  22.953  27.189  1.00  0.00     0.148 A 
ATOM     74  C   UNL A   1      43.797  23.414  24.826  1.00  0.00     0.002 A 
ATOM     75  C   UNL A   1      42.436  21.966  26.212  1.00  0.00     0.091 A 
ATOM     76  F   UNL A   1      41.648  22.774  28.315  1.00  0.00    -0.205 F 
ATOM     77  C   UNL A   1      43.144  22.201  25.024  1.00  0.00     0.022 A 
BRANCH  75  78
ATOM     78  S   UNL A   1      41.738  20.327  26.446  1.00  0.00     0.127 S 
ATOM     79  O   UNL A   1      42.311  19.937  27.731  1.00  0.00    -0.237 OA
ATOM     80  O   UNL A   1      40.302  20.606  26.472  1.00  0.00    -0.237 OA
ATOM     81  O   UNL A   1      42.173  19.553  25.290  1.00  0.00    -0.744 OA
ENDBRANCH  75  78
ENDBRANCH  47  71
BRANCH  59  82
ATOM     82  C   UNL A   1      47.443  25.966  32.119  1.00  0.00     0.023 A 
ATOM     83  C   UNL A   1      48.636  26.437  31.538  1.00  0.00     0.012 A 
ATOM     84  C   UNL A   1      47.505  25.042  33.181  1.00  0.00     0.148 A 
ATOM     85  C   UNL A   1      49.872  25.977  31.991  1.00  0.00     0.002 A 
ATOM     86  C   UNL A   1      48.742  24.623  33.656  1.00  0.00     0.091 A 
ATOM     87  F   UNL A   1      46.356  24.592  33.706  1.00  0.00    -0.205 F 
ATOM     88  C   UNL A   1      49.926  25.082  33.057  1.00  0.00     0.022 A 
BRANCH  86  89
ATOM     89  S   UNL A   1      48.905  23.545  35.084  1.00  0.00     0.127 S 
ATOM     90  O   UNL A   1      48.236  24.323  36.124  1.00  0.00    -0.237 OA
ATOM     91  O   UNL A   1      48.179  22.348  34.655  1.00  0.00    -0.237 OA
ATOM     92  O   UNL A   1      50.336  23.345  35.272  1.00  0.00    -0.744 OA
ENDBRANCH  86  89
ENDBRANCH  59  82
ENDBRANCH  33  34
ENDBRANCH  25  28
ENDBRANCH  23  24
ENDBRANCH  22  23
ENDBRANCH  21  22
ENDBRANCH   1  21
TORSDOF 19
ENDMDL
