MODEL 1
REMARK VINA RESULT:     -11.5      0.000      0.000
REMARK SMILES Cc1noc(C)c1C[NH2+][C@H](C)[C@H](C)C(=O)NCCCCNC(=O)c1ccc(-c2c3nc(c(-c4cccc(S(=O)(=O)[O-])c4F)c4ccc([nH]4)c(-c4cccc(S(=O)(=O)[O-])c4F)c4nc(c(-c5cccc(S(=O)(=O)[O-])c5F)c5ccc2[nH]5)C=C4)C=C3)cc1
REMARK SMILES IDX 18 1 17 2 16 3 14 4 15 5 12 7 13 8 10 9 11 10 9 11 8 14 7 15
REMARK SMILES IDX 1 16 2 17 3 18 4 19 5 20 6 21 19 22 20 23 21 24 22 25 23 27
REMARK SMILES IDX 24 28 25 29 86 30 26 31 85 32 27 33 28 34 29 35 79 36 30 37
REMARK SMILES IDX 84 38 78 39 80 40 31 41 83 42 77 43 76 44 32 46 64 47 44 48
REMARK SMILES IDX 63 49 45 50 48 51 62 52 81 53 46 54 47 55 61 57 82 58 49 59
REMARK SMILES IDX 33 60 34 61 42 62 35 63 37 64 43 65 36 66 38 67 39 68 40 69
REMARK SMILES IDX 41 70 65 71 66 72 74 73 67 74 69 75 75 76 68 77 70 78 71 79
REMARK SMILES IDX 72 80 73 81 50 82 51 83 59 84 52 85 54 86 60 87 53 88 55 89
REMARK SMILES IDX 56 90 57 91 58 92
REMARK H PARENT 16 6 9 12 9 13 21 26 80 45 48 56
REMARK Flexibility Score: inf
ROOT
ATOM      1  C   UNL A   1      36.458  23.031  23.940  1.00  0.00     0.023 C 
ENDROOT
BRANCH   1   2
ATOM      2  C   UNL A   1      35.071  22.847  23.337  1.00  0.00     0.116 C 
BRANCH   2   3
ATOM      3  N   UNL A   1      34.023  23.366  24.194  1.00  0.00    -0.356 N 
ATOM      4  C   UNL A   1      33.402  22.824  25.275  1.00  0.00     0.228 C 
ATOM      5  O   UNL A   1      32.553  23.507  25.853  1.00  0.00    -0.275 OA
ATOM      6  H   UNL A   1      33.707  24.267  23.951  1.00  0.00     0.163 HD
BRANCH   4   7
ATOM      7  C   UNL A   1      33.739  21.427  25.789  1.00  0.00     0.133 C 
ATOM      8  C   UNL A   1      34.146  21.470  27.266  1.00  0.00     0.024 C 
BRANCH   7   9
ATOM      9  C   UNL A   1      32.627  20.409  25.438  1.00  0.00     0.191 C 
ATOM     10  C   UNL A   1      32.486  20.245  23.918  1.00  0.00     0.076 C 
BRANCH   9  11
ATOM     11  N   UNL A   1      32.883  19.065  25.986  1.00  0.00    -0.339 N 
ATOM     12  H   UNL A   1      33.885  18.961  26.147  1.00  0.00     0.346 HD
ATOM     13  H   UNL A   1      32.359  18.971  26.855  1.00  0.00     0.346 HD
BRANCH  11  14
ATOM     14  C   UNL A   1      32.441  18.014  25.075  1.00  0.00     0.303 C 
BRANCH  14  15
ATOM     15  C   UNL A   1      33.412  16.894  25.143  1.00  0.00     0.071 A 
ATOM     16  C   UNL A   1      35.643  18.113  24.554  1.00  0.00     0.071 C 
ATOM     17  C   UNL A   1      34.814  16.935  24.903  1.00  0.00     0.090 A 
ATOM     18  N   UNL A   1      35.370  15.724  25.026  1.00  0.00    -0.085 NA
ATOM     19  O   UNL A   1      34.335  14.868  25.350  1.00  0.00    -0.361 OA
ATOM     20  C   UNL A   1      33.171  15.564  25.415  1.00  0.00     0.142 A 
ATOM     21  C   UNL A   1      31.959  14.787  25.735  1.00  0.00     0.091 C 
ENDBRANCH  14  15
ENDBRANCH  11  14
ENDBRANCH   9  11
ENDBRANCH   7   9
ENDBRANCH   4   7
ENDBRANCH   2   3
ENDBRANCH   1   2
BRANCH   1  22
ATOM     22  C   UNL A   1      37.212  21.733  24.228  1.00  0.00     0.023 C 
BRANCH  22  23
ATOM     23  C   UNL A   1      37.526  21.470  25.697  1.00  0.00     0.116 C 
BRANCH  23  24
ATOM     24  N   UNL A   1      38.670  20.587  25.888  1.00  0.00    -0.352 N 
ATOM     25  C   UNL A   1      39.927  20.895  26.352  1.00  0.00     0.251 C 
ATOM     26  H   UNL A   1      38.523  19.643  25.651  1.00  0.00     0.163 HD
ATOM     27  O   UNL A   1      40.815  20.045  26.340  1.00  0.00    -0.269 OA
BRANCH  25  28
ATOM     28  C   UNL A   1      40.208  22.263  26.830  1.00  0.00     0.039 A 
ATOM     29  C   UNL A   1      41.087  22.439  27.902  1.00  0.00     0.014 A 
ATOM     30  C   UNL A   1      39.651  23.368  26.181  1.00  0.00     0.014 A 
ATOM     31  C   UNL A   1      41.477  23.730  28.266  1.00  0.00     0.010 A 
ATOM     32  C   UNL A   1      40.092  24.647  26.501  1.00  0.00     0.010 A 
ATOM     33  C   UNL A   1      41.016  24.841  27.539  1.00  0.00    -0.014 A 
BRANCH  33  34
ATOM     34  C   UNL A   1      41.519  26.210  27.819  1.00  0.00     0.031 A 
ATOM     35  C   UNL A   1      42.912  26.603  27.415  1.00  0.00     0.074 A 
ATOM     36  C   UNL A   1      40.759  27.062  28.535  1.00  0.00     0.049 A 
ATOM     37  N   UNL A   1      43.548  27.724  27.637  1.00  0.00    -0.248 NA
ATOM     38  C   UNL A   1      43.707  25.596  26.693  1.00  0.00     0.031 C 
ATOM     39  C   UNL A   1      39.426  26.766  29.067  1.00  0.00     0.029 A 
ATOM     40  N   UNL A   1      41.011  28.340  28.969  1.00  0.00    -0.354 N 
ATOM     41  C   UNL A   1      44.825  27.545  27.120  1.00  0.00     0.074 A 
ATOM     42  C   UNL A   1      44.885  26.196  26.599  1.00  0.00     0.031 C 
ATOM     43  C   UNL A   1      38.979  27.830  29.752  1.00  0.00     0.029 A 
ATOM     44  C   UNL A   1      39.997  28.875  29.732  1.00  0.00     0.049 A 
ATOM     45  H   UNL A   1      41.839  28.827  28.757  1.00  0.00     0.167 HD
ATOM     46  C   UNL A   1      45.845  28.432  27.052  1.00  0.00     0.034 A 
ATOM     47  C   UNL A   1      39.899  30.071  30.344  1.00  0.00     0.034 A 
ATOM     48  C   UNL A   1      45.763  29.791  27.514  1.00  0.00     0.049 A 
ATOM     49  C   UNL A   1      41.026  31.059  30.203  1.00  0.00     0.074 A 
ATOM     50  C   UNL A   1      46.700  30.801  27.387  1.00  0.00     0.029 A 
ATOM     51  N   UNL A   1      44.682  30.332  28.192  1.00  0.00    -0.354 N 
ATOM     52  N   UNL A   1      42.155  30.934  29.550  1.00  0.00    -0.248 NA
ATOM     53  C   UNL A   1      40.850  32.366  30.854  1.00  0.00     0.031 C 
ATOM     54  C   UNL A   1      46.189  31.950  27.998  1.00  0.00     0.029 A 
ATOM     55  C   UNL A   1      44.931  31.657  28.499  1.00  0.00     0.049 A 
ATOM     56  H   UNL A   1      43.858  29.844  28.423  1.00  0.00     0.167 HD
ATOM     57  C   UNL A   1      42.811  32.151  29.686  1.00  0.00     0.074 A 
ATOM     58  C   UNL A   1      41.942  33.010  30.465  1.00  0.00     0.031 C 
ATOM     59  C   UNL A   1      44.033  32.518  29.226  1.00  0.00     0.034 A 
BRANCH  46  60
ATOM     60  C   UNL A   1      47.117  27.982  26.385  1.00  0.00     0.023 A 
ATOM     61  C   UNL A   1      48.161  27.463  27.177  1.00  0.00     0.012 A 
ATOM     62  C   UNL A   1      47.263  28.020  24.985  1.00  0.00     0.148 A 
ATOM     63  C   UNL A   1      49.343  27.016  26.591  1.00  0.00     0.002 A 
ATOM     64  C   UNL A   1      48.430  27.537  24.404  1.00  0.00     0.091 A 
ATOM     65  F   UNL A   1      46.269  28.542  24.251  1.00  0.00    -0.205 F 
ATOM     66  C   UNL A   1      49.473  27.044  25.205  1.00  0.00     0.022 A 
BRANCH  64  67
ATOM     67  S   UNL A   1      48.664  27.467  22.624  1.00  0.00     0.127 S 
ATOM     68  O   UNL A   1      49.982  28.080  22.476  1.00  0.00    -0.237 OA
ATOM     69  O   UNL A   1      48.628  26.028  22.362  1.00  0.00    -0.237 OA
ATOM     70  O   UNL A   1      47.554  28.213  22.049  1.00  0.00    -0.744 OA
ENDBRANCH  64  67
ENDBRANCH  46  60
BRANCH  47  71
ATOM     71  C   UNL A   1      38.653  30.430  31.077  1.00  0.00     0.023 A 
ATOM     72  C   UNL A   1      38.532  30.076  32.436  1.00  0.00     0.012 A 
ATOM     73  C   UNL A   1      37.612  31.147  30.459  1.00  0.00     0.148 A 
ATOM     74  C   UNL A   1      37.385  30.408  33.158  1.00  0.00     0.002 A 
ATOM     75  C   UNL A   1      36.494  31.520  31.199  1.00  0.00     0.091 A 
ATOM     76  F   UNL A   1      37.737  31.462  29.161  1.00  0.00    -0.205 F 
ATOM     77  C   UNL A   1      36.372  31.138  32.543  1.00  0.00     0.022 A 
BRANCH  75  78
ATOM     78  S   UNL A   1      35.208  32.575  30.520  1.00  0.00     0.127 S 
ATOM     79  O   UNL A   1      34.285  32.685  31.646  1.00  0.00    -0.237 OA
ATOM     80  O   UNL A   1      35.947  33.799  30.207  1.00  0.00    -0.237 OA
ATOM     81  O   UNL A   1      34.706  31.869  29.349  1.00  0.00    -0.744 OA
ENDBRANCH  75  78
ENDBRANCH  47  71
BRANCH  59  82
ATOM     82  C   UNL A   1      44.507  33.914  29.534  1.00  0.00     0.023 A 
ATOM     83  C   UNL A   1      45.289  34.139  30.684  1.00  0.00     0.012 A 
ATOM     84  C   UNL A   1      44.254  34.978  28.648  1.00  0.00     0.148 A 
ATOM     85  C   UNL A   1      45.794  35.410  30.957  1.00  0.00     0.002 A 
ATOM     86  C   UNL A   1      44.797  36.231  28.904  1.00  0.00     0.091 A 
ATOM     87  F   UNL A   1      43.489  34.745  27.570  1.00  0.00    -0.205 F 
ATOM     88  C   UNL A   1      45.560  36.451  30.063  1.00  0.00     0.022 A 
BRANCH  86  89
ATOM     89  S   UNL A   1      44.620  37.607  27.762  1.00  0.00     0.127 S 
ATOM     90  O   UNL A   1      45.035  38.737  28.590  1.00  0.00    -0.237 OA
ATOM     91  O   UNL A   1      45.559  37.252  26.697  1.00  0.00    -0.237 OA
ATOM     92  O   UNL A   1      43.221  37.608  27.353  1.00  0.00    -0.744 OA
ENDBRANCH  86  89
ENDBRANCH  59  82
ENDBRANCH  33  34
ENDBRANCH  25  28
ENDBRANCH  23  24
ENDBRANCH  22  23
ENDBRANCH   1  22
TORSDOF 18
ENDMDL
MODEL 2
REMARK VINA RESULT:     -11.5      6.414     11.571
REMARK SMILES Cc1noc(C)c1C[NH2+][C@H](C)[C@H](C)C(=O)NCCCCNC(=O)c1ccc(-c2c3nc(c(-c4cccc(S(=O)(=O)[O-])c4F)c4ccc([nH]4)c(-c4cccc(S(=O)(=O)[O-])c4F)c4nc(c(-c5cccc(S(=O)(=O)[O-])c5F)c5ccc2[nH]5)C=C4)C=C3)cc1
REMARK SMILES IDX 18 1 17 2 16 3 14 4 15 5 12 7 13 8 10 9 11 10 9 11 8 14 7 15
REMARK SMILES IDX 1 16 2 17 3 18 4 19 5 20 6 21 19 22 20 23 21 24 22 25 23 27
REMARK SMILES IDX 24 28 25 29 86 30 26 31 85 32 27 33 28 34 29 35 79 36 30 37
REMARK SMILES IDX 84 38 78 39 80 40 31 41 83 42 77 43 76 44 32 46 64 47 44 48
REMARK SMILES IDX 63 49 45 50 48 51 62 52 81 53 46 54 47 55 61 57 82 58 49 59
REMARK SMILES IDX 33 60 34 61 42 62 35 63 37 64 43 65 36 66 38 67 39 68 40 69
REMARK SMILES IDX 41 70 65 71 66 72 74 73 67 74 69 75 75 76 68 77 70 78 71 79
REMARK SMILES IDX 72 80 73 81 50 82 51 83 59 84 52 85 54 86 60 87 53 88 55 89
REMARK SMILES IDX 56 90 57 91 58 92
REMARK H PARENT 16 6 9 12 9 13 21 26 80 45 48 56
REMARK Flexibility Score: inf
ROOT
ATOM      1  C   UNL A   1      32.145  27.813  26.926  1.00  0.00     0.023 C 
ENDROOT
BRANCH   1   2
ATOM      2  C   UNL A   1      31.155  26.929  26.176  1.00  0.00     0.116 C 
BRANCH   2   3
ATOM      3  N   UNL A   1      31.750  26.294  25.017  1.00  0.00    -0.356 N 
ATOM      4  C   UNL A   1      32.041  26.780  23.782  1.00  0.00     0.228 C 
ATOM      5  O   UNL A   1      32.588  26.022  22.978  1.00  0.00    -0.275 OA
ATOM      6  H   UNL A   1      31.984  25.345  25.147  1.00  0.00     0.163 HD
BRANCH   4   7
ATOM      7  C   UNL A   1      31.732  28.221  23.384  1.00  0.00     0.133 C 
ATOM      8  C   UNL A   1      32.999  28.944  22.914  1.00  0.00     0.024 C 
BRANCH   7   9
ATOM      9  C   UNL A   1      30.528  28.296  22.413  1.00  0.00     0.191 C 
ATOM     10  C   UNL A   1      29.224  27.893  23.116  1.00  0.00     0.076 C 
BRANCH   9  11
ATOM     11  N   UNL A   1      30.313  29.648  21.866  1.00  0.00    -0.339 N 
ATOM     12  H   UNL A   1      30.675  30.333  22.530  1.00  0.00     0.346 HD
ATOM     13  H   UNL A   1      30.799  29.710  20.973  1.00  0.00     0.346 HD
BRANCH  11  14
ATOM     14  C   UNL A   1      28.898  29.920  21.634  1.00  0.00     0.303 C 
BRANCH  14  15
ATOM     15  C   UNL A   1      28.648  31.359  21.892  1.00  0.00     0.071 A 
ATOM     16  C   UNL A   1      29.409  31.574  24.379  1.00  0.00     0.071 C 
ATOM     17  C   UNL A   1      28.861  32.082  23.099  1.00  0.00     0.090 A 
ATOM     18  N   UNL A   1      28.494  33.364  22.977  1.00  0.00    -0.085 NA
ATOM     19  O   UNL A   1      28.034  33.499  21.681  1.00  0.00    -0.361 OA
ATOM     20  C   UNL A   1      28.122  32.306  21.038  1.00  0.00     0.142 A 
ATOM     21  C   UNL A   1      27.650  32.277  19.641  1.00  0.00     0.091 C 
ENDBRANCH  14  15
ENDBRANCH  11  14
ENDBRANCH   9  11
ENDBRANCH   7   9
ENDBRANCH   4   7
ENDBRANCH   2   3
ENDBRANCH   1   2
BRANCH   1  22
ATOM     22  C   UNL A   1      31.767  29.293  26.986  1.00  0.00     0.023 C 
BRANCH  22  23
ATOM     23  C   UNL A   1      32.709  30.240  26.251  1.00  0.00     0.116 C 
BRANCH  23  24
ATOM     24  N   UNL A   1      32.581  31.626  26.685  1.00  0.00    -0.352 N 
ATOM     25  C   UNL A   1      33.405  32.348  27.516  1.00  0.00     0.251 C 
ATOM     26  H   UNL A   1      31.798  32.110  26.336  1.00  0.00     0.163 HD
ATOM     27  O   UNL A   1      33.083  33.478  27.873  1.00  0.00    -0.269 OA
BRANCH  25  28
ATOM     28  C   UNL A   1      34.658  31.738  28.002  1.00  0.00     0.039 A 
ATOM     29  C   UNL A   1      35.784  32.548  28.174  1.00  0.00     0.014 A 
ATOM     30  C   UNL A   1      34.701  30.383  28.342  1.00  0.00     0.014 A 
ATOM     31  C   UNL A   1      36.928  32.016  28.772  1.00  0.00     0.010 A 
ATOM     32  C   UNL A   1      35.816  29.875  28.999  1.00  0.00     0.010 A 
ATOM     33  C   UNL A   1      36.937  30.687  29.230  1.00  0.00    -0.014 A 
BRANCH  33  34
ATOM     34  C   UNL A   1      38.089  30.138  29.989  1.00  0.00     0.031 A 
ATOM     35  C   UNL A   1      38.378  30.621  31.383  1.00  0.00     0.074 A 
ATOM     36  C   UNL A   1      38.939  29.287  29.380  1.00  0.00     0.049 A 
ATOM     37  N   UNL A   1      39.375  30.313  32.170  1.00  0.00    -0.248 NA
ATOM     38  C   UNL A   1      37.441  31.602  31.957  1.00  0.00     0.031 C 
ATOM     39  C   UNL A   1      38.821  28.816  27.998  1.00  0.00     0.029 A 
ATOM     40  N   UNL A   1      40.090  28.692  29.835  1.00  0.00    -0.354 N 
ATOM     41  C   UNL A   1      39.210  31.086  33.313  1.00  0.00     0.074 A 
ATOM     42  C   UNL A   1      38.033  31.901  33.104  1.00  0.00     0.031 C 
ATOM     43  C   UNL A   1      39.854  28.005  27.719  1.00  0.00     0.029 A 
ATOM     44  C   UNL A   1      40.721  27.916  28.890  1.00  0.00     0.049 A 
ATOM     45  H   UNL A   1      40.432  28.810  30.750  1.00  0.00     0.167 HD
ATOM     46  C   UNL A   1      39.949  31.093  34.447  1.00  0.00     0.034 A 
ATOM     47  C   UNL A   1      41.868  27.212  28.958  1.00  0.00     0.034 A 
ATOM     48  C   UNL A   1      41.081  30.237  34.675  1.00  0.00     0.049 A 
ATOM     49  C   UNL A   1      42.638  27.192  30.250  1.00  0.00     0.074 A 
ATOM     50  C   UNL A   1      41.825  30.086  35.832  1.00  0.00     0.029 A 
ATOM     51  N   UNL A   1      41.633  29.387  33.731  1.00  0.00    -0.354 N 
ATOM     52  N   UNL A   1      42.362  27.790  31.383  1.00  0.00    -0.248 NA
ATOM     53  C   UNL A   1      43.859  26.374  30.285  1.00  0.00     0.031 C 
ATOM     54  C   UNL A   1      42.835  29.151  35.583  1.00  0.00     0.029 A 
ATOM     55  C   UNL A   1      42.715  28.715  34.273  1.00  0.00     0.049 A 
ATOM     56  H   UNL A   1      41.306  29.278  32.809  1.00  0.00     0.167 HD
ATOM     57  C   UNL A   1      43.356  27.399  32.273  1.00  0.00     0.074 A 
ATOM     58  C   UNL A   1      44.229  26.494  31.553  1.00  0.00     0.031 C 
ATOM     59  C   UNL A   1      43.541  27.773  33.563  1.00  0.00     0.034 A 
BRANCH  46  60
ATOM     60  C   UNL A   1      39.509  32.004  35.560  1.00  0.00     0.023 A 
ATOM     61  C   UNL A   1      38.695  31.489  36.590  1.00  0.00     0.012 A 
ATOM     62  C   UNL A   1      39.937  33.344  35.621  1.00  0.00     0.148 A 
ATOM     63  C   UNL A   1      38.289  32.300  37.647  1.00  0.00     0.002 A 
ATOM     64  C   UNL A   1      39.559  34.137  36.700  1.00  0.00     0.091 A 
ATOM     65  F   UNL A   1      40.689  33.823  34.620  1.00  0.00    -0.205 F 
ATOM     66  C   UNL A   1      38.729  33.619  37.707  1.00  0.00     0.022 A 
BRANCH  64  67
ATOM     67  S   UNL A   1      40.131  35.828  36.901  1.00  0.00     0.127 S 
ATOM     68  O   UNL A   1      39.641  36.453  35.675  1.00  0.00    -0.237 OA
ATOM     69  O   UNL A   1      39.436  36.247  38.120  1.00  0.00    -0.237 OA
ATOM     70  O   UNL A   1      41.578  35.745  37.031  1.00  0.00    -0.744 OA
ENDBRANCH  64  67
ENDBRANCH  46  60
BRANCH  47  71
ATOM     71  C   UNL A   1      42.312  26.402  27.789  1.00  0.00     0.023 A 
ATOM     72  C   UNL A   1      43.197  26.976  26.854  1.00  0.00     0.012 A 
ATOM     73  C   UNL A   1      41.903  25.066  27.617  1.00  0.00     0.148 A 
ATOM     74  C   UNL A   1      43.646  26.242  25.755  1.00  0.00     0.002 A 
ATOM     75  C   UNL A   1      42.395  24.324  26.547  1.00  0.00     0.091 A 
ATOM     76  F   UNL A   1      41.048  24.541  28.507  1.00  0.00    -0.205 F 
ATOM     77  C   UNL A   1      43.253  24.915  25.607  1.00  0.00     0.022 A 
BRANCH  75  78
ATOM     78  S   UNL A   1      42.046  22.572  26.359  1.00  0.00     0.127 S 
ATOM     79  O   UNL A   1      42.674  22.011  27.552  1.00  0.00    -0.237 OA
ATOM     80  O   UNL A   1      40.582  22.548  26.364  1.00  0.00    -0.237 OA
ATOM     81  O   UNL A   1      42.640  22.193  25.085  1.00  0.00    -0.744 OA
ENDBRANCH  75  78
ENDBRANCH  47  71
BRANCH  59  82
ATOM     82  C   UNL A   1      44.723  27.197  34.295  1.00  0.00     0.023 A 
ATOM     83  C   UNL A   1      45.948  27.894  34.289  1.00  0.00     0.012 A 
ATOM     84  C   UNL A   1      44.600  26.018  35.056  1.00  0.00     0.148 A 
ATOM     85  C   UNL A   1      47.038  27.415  35.014  1.00  0.00     0.002 A 
ATOM     86  C   UNL A   1      45.679  25.570  35.810  1.00  0.00     0.091 A 
ATOM     87  F   UNL A   1      43.432  25.359  35.031  1.00  0.00    -0.205 F 
ATOM     88  C   UNL A   1      46.901  26.262  35.782  1.00  0.00     0.022 A 
BRANCH  86  89
ATOM     89  S   UNL A   1      45.565  24.145  36.898  1.00  0.00     0.127 S 
ATOM     90  O   UNL A   1      46.924  24.063  37.426  1.00  0.00    -0.237 OA
ATOM     91  O   UNL A   1      44.557  24.573  37.869  1.00  0.00    -0.237 OA
ATOM     92  O   UNL A   1      45.150  23.031  36.054  1.00  0.00    -0.744 OA
ENDBRANCH  86  89
ENDBRANCH  59  82
ENDBRANCH  33  34
ENDBRANCH  25  28
ENDBRANCH  23  24
ENDBRANCH  22  23
ENDBRANCH   1  22
TORSDOF 18
ENDMDL
MODEL 3
REMARK VINA RESULT:     -11.1      6.402      9.509
REMARK SMILES Cc1noc(C)c1C[NH2+][C@H](C)[C@H](C)C(=O)NCCCCNC(=O)c1ccc(-c2c3nc(c(-c4cccc(S(=O)(=O)[O-])c4F)c4ccc([nH]4)c(-c4cccc(S(=O)(=O)[O-])c4F)c4nc(c(-c5cccc(S(=O)(=O)[O-])c5F)c5ccc2[nH]5)C=C4)C=C3)cc1
REMARK SMILES IDX 18 1 17 2 16 3 14 4 15 5 12 7 13 8 10 9 11 10 9 11 8 14 7 15
REMARK SMILES IDX 1 16 2 17 3 18 4 19 5 20 6 21 19 22 20 23 21 24 22 25 23 27
REMARK SMILES IDX 24 28 25 29 86 30 26 31 85 32 27 33 28 34 29 35 79 36 30 37
REMARK SMILES IDX 84 38 78 39 80 40 31 41 83 42 77 43 76 44 32 46 64 47 44 48
REMARK SMILES IDX 63 49 45 50 48 51 62 52 81 53 46 54 47 55 61 57 82 58 49 59
REMARK SMILES IDX 33 60 34 61 42 62 35 63 37 64 43 65 36 66 38 67 39 68 40 69
REMARK SMILES IDX 41 70 65 71 66 72 74 73 67 74 69 75 75 76 68 77 70 78 71 79
REMARK SMILES IDX 72 80 73 81 50 82 51 83 59 84 52 85 54 86 60 87 53 88 55 89
REMARK SMILES IDX 56 90 57 91 58 92
REMARK H PARENT 16 6 9 12 9 13 21 26 80 45 48 56
REMARK Flexibility Score: inf
ROOT
ATOM      1  C   UNL A   1      31.982  27.831  27.072  1.00  0.00     0.023 C 
ENDROOT
BRANCH   1   2
ATOM      2  C   UNL A   1      31.073  26.998  26.175  1.00  0.00     0.116 C 
BRANCH   2   3
ATOM      3  N   UNL A   1      31.800  26.357  25.097  1.00  0.00    -0.356 N 
ATOM      4  C   UNL A   1      32.244  26.839  23.906  1.00  0.00     0.228 C 
ATOM      5  O   UNL A   1      32.877  26.074  23.176  1.00  0.00    -0.275 OA
ATOM      6  H   UNL A   1      32.007  25.406  25.255  1.00  0.00     0.163 HD
BRANCH   4   7
ATOM      7  C   UNL A   1      31.998  28.282  23.474  1.00  0.00     0.133 C 
ATOM      8  C   UNL A   1      33.313  28.972  23.094  1.00  0.00     0.024 C 
BRANCH   7   9
ATOM      9  C   UNL A   1      30.872  28.373  22.414  1.00  0.00     0.191 C 
ATOM     10  C   UNL A   1      29.547  27.828  22.967  1.00  0.00     0.076 C 
BRANCH   9  11
ATOM     11  N   UNL A   1      30.609  29.754  21.972  1.00  0.00    -0.339 N 
ATOM     12  H   UNL A   1      30.861  30.395  22.725  1.00  0.00     0.346 HD
ATOM     13  H   UNL A   1      31.166  29.931  21.137  1.00  0.00     0.346 HD
BRANCH  11  14
ATOM     14  C   UNL A   1      29.204  29.957  21.632  1.00  0.00     0.303 C 
BRANCH  14  15
ATOM     15  C   UNL A   1      28.818  31.333  22.028  1.00  0.00     0.071 A 
ATOM     16  C   UNL A   1      27.797  32.240  19.805  1.00  0.00     0.071 C 
ATOM     17  C   UNL A   1      28.211  32.338  21.225  1.00  0.00     0.090 A 
ATOM     18  N   UNL A   1      28.033  33.474  21.909  1.00  0.00    -0.085 NA
ATOM     19  O   UNL A   1      28.522  33.228  23.177  1.00  0.00    -0.361 OA
ATOM     20  C   UNL A   1      28.992  31.956  23.246  1.00  0.00     0.142 A 
ATOM     21  C   UNL A   1      29.570  31.539  24.537  1.00  0.00     0.091 C 
ENDBRANCH  14  15
ENDBRANCH  11  14
ENDBRANCH   9  11
ENDBRANCH   7   9
ENDBRANCH   4   7
ENDBRANCH   2   3
ENDBRANCH   1   2
BRANCH   1  22
ATOM     22  C   UNL A   1      31.698  29.333  27.057  1.00  0.00     0.023 C 
BRANCH  22  23
ATOM     23  C   UNL A   1      32.809  30.205  26.481  1.00  0.00     0.116 C 
BRANCH  23  24
ATOM     24  N   UNL A   1      32.650  31.619  26.799  1.00  0.00    -0.352 N 
ATOM     25  C   UNL A   1      33.494  32.443  27.505  1.00  0.00     0.251 C 
ATOM     26  H   UNL A   1      31.825  32.040  26.464  1.00  0.00     0.163 HD
ATOM     27  O   UNL A   1      33.148  33.589  27.782  1.00  0.00    -0.269 OA
BRANCH  25  28
ATOM     28  C   UNL A   1      34.801  31.927  27.955  1.00  0.00     0.039 A 
ATOM     29  C   UNL A   1      35.891  32.799  28.010  1.00  0.00     0.014 A 
ATOM     30  C   UNL A   1      34.931  30.601  28.378  1.00  0.00     0.014 A 
ATOM     31  C   UNL A   1      37.092  32.363  28.574  1.00  0.00     0.010 A 
ATOM     32  C   UNL A   1      36.105  30.191  29.000  1.00  0.00     0.010 A 
ATOM     33  C   UNL A   1      37.194  31.069  29.113  1.00  0.00    -0.014 A 
BRANCH  33  34
ATOM     34  C   UNL A   1      38.413  30.627  29.838  1.00  0.00     0.031 A 
ATOM     35  C   UNL A   1      39.329  29.604  29.228  1.00  0.00     0.074 A 
ATOM     36  C   UNL A   1      38.633  31.067  31.093  1.00  0.00     0.049 A 
ATOM     37  N   UNL A   1      40.395  29.045  29.739  1.00  0.00    -0.248 NA
ATOM     38  C   UNL A   1      38.986  29.120  27.880  1.00  0.00     0.031 C 
ATOM     39  C   UNL A   1      37.767  31.989  31.832  1.00  0.00     0.029 A 
ATOM     40  N   UNL A   1      39.635  30.771  31.983  1.00  0.00    -0.354 N 
ATOM     41  C   UNL A   1      40.828  28.121  28.796  1.00  0.00     0.074 A 
ATOM     42  C   UNL A   1      39.892  28.171  27.695  1.00  0.00     0.031 C 
ATOM     43  C   UNL A   1      38.276  32.184  33.059  1.00  0.00     0.029 A 
ATOM     44  C   UNL A   1      39.489  31.385  33.206  1.00  0.00     0.049 A 
ATOM     45  H   UNL A   1      40.388  30.174  31.768  1.00  0.00     0.167 HD
ATOM     46  C   UNL A   1      41.924  27.327  28.828  1.00  0.00     0.034 A 
ATOM     47  C   UNL A   1      40.244  31.314  34.319  1.00  0.00     0.034 A 
ATOM     48  C   UNL A   1      42.886  27.325  29.896  1.00  0.00     0.049 A 
ATOM     49  C   UNL A   1      41.489  30.468  34.305  1.00  0.00     0.074 A 
ATOM     50  C   UNL A   1      44.088  26.642  29.969  1.00  0.00     0.029 A 
ATOM     51  N   UNL A   1      42.758  28.037  31.077  1.00  0.00    -0.354 N 
ATOM     52  N   UNL A   1      41.980  29.741  33.332  1.00  0.00    -0.248 NA
ATOM     53  C   UNL A   1      42.302  30.460  35.530  1.00  0.00     0.031 C 
ATOM     54  C   UNL A   1      44.682  26.935  31.201  1.00  0.00     0.029 A 
ATOM     55  C   UNL A   1      43.853  27.805  31.891  1.00  0.00     0.049 A 
ATOM     56  H   UNL A   1      41.999  28.622  31.305  1.00  0.00     0.167 HD
ATOM     57  C   UNL A   1      43.171  29.212  33.815  1.00  0.00     0.074 A 
ATOM     58  C   UNL A   1      43.339  29.721  35.160  1.00  0.00     0.031 C 
ATOM     59  C   UNL A   1      44.036  28.364  33.207  1.00  0.00     0.034 A 
BRANCH  46  60
ATOM     60  C   UNL A   1      42.182  26.448  27.634  1.00  0.00     0.023 A 
ATOM     61  C   UNL A   1      42.928  26.959  26.552  1.00  0.00     0.012 A 
ATOM     62  C   UNL A   1      41.741  25.111  27.601  1.00  0.00     0.148 A 
ATOM     63  C   UNL A   1      43.205  26.164  25.442  1.00  0.00     0.002 A 
ATOM     64  C   UNL A   1      42.054  24.312  26.506  1.00  0.00     0.091 A 
ATOM     65  F   UNL A   1      41.011  24.651  28.627  1.00  0.00    -0.205 F 
ATOM     66  C   UNL A   1      42.777  24.840  25.424  1.00  0.00     0.022 A 
BRANCH  64  67
ATOM     67  S   UNL A   1      41.607  22.575  26.421  1.00  0.00     0.127 S 
ATOM     68  O   UNL A   1      40.156  22.651  26.265  1.00  0.00    -0.237 OA
ATOM     69  O   UNL A   1      42.325  22.128  25.226  1.00  0.00    -0.237 OA
ATOM     70  O   UNL A   1      42.077  21.982  27.664  1.00  0.00    -0.744 OA
ENDBRANCH  64  67
ENDBRANCH  46  60
BRANCH  47  71
ATOM     71  C   UNL A   1      39.888  32.132  35.512  1.00  0.00     0.023 A 
ATOM     72  C   UNL A   1      40.393  33.444  35.619  1.00  0.00     0.012 A 
ATOM     73  C   UNL A   1      39.030  31.644  36.515  1.00  0.00     0.148 A 
ATOM     74  C   UNL A   1      40.069  34.244  36.715  1.00  0.00     0.002 A 
ATOM     75  C   UNL A   1      38.670  32.465  37.579  1.00  0.00     0.091 A 
ATOM     76  F   UNL A   1      38.572  30.388  36.405  1.00  0.00    -0.205 F 
ATOM     77  C   UNL A   1      39.201  33.759  37.689  1.00  0.00     0.022 A 
BRANCH  75  78
ATOM     78  S   UNL A   1      37.453  31.965  38.802  1.00  0.00     0.127 S 
ATOM     79  O   UNL A   1      36.527  33.093  38.783  1.00  0.00    -0.237 OA
ATOM     80  O   UNL A   1      36.928  30.726  38.225  1.00  0.00    -0.237 OA
ATOM     81  O   UNL A   1      38.202  31.773  40.037  1.00  0.00    -0.744 OA
ENDBRANCH  75  78
ENDBRANCH  47  71
BRANCH  59  82
ATOM     82  C   UNL A   1      45.257  27.938  33.977  1.00  0.00     0.023 A 
ATOM     83  C   UNL A   1      46.457  28.661  33.826  1.00  0.00     0.012 A 
ATOM     84  C   UNL A   1      45.195  26.884  34.909  1.00  0.00     0.148 A 
ATOM     85  C   UNL A   1      47.583  28.327  34.577  1.00  0.00     0.002 A 
ATOM     86  C   UNL A   1      46.309  26.585  35.685  1.00  0.00     0.091 A 
ATOM     87  F   UNL A   1      44.049  26.195  35.022  1.00  0.00    -0.205 F 
ATOM     88  C   UNL A   1      47.506  27.300  35.513  1.00  0.00     0.022 A 
BRANCH  86  89
ATOM     89  S   UNL A   1      46.273  25.336  36.977  1.00  0.00     0.127 S 
ATOM     90  O   UNL A   1      47.535  25.587  37.669  1.00  0.00    -0.237 OA
ATOM     91  O   UNL A   1      45.076  25.705  37.734  1.00  0.00    -0.237 OA
ATOM     92  O   UNL A   1      46.178  24.054  36.290  1.00  0.00    -0.744 OA
ENDBRANCH  86  89
ENDBRANCH  59  82
ENDBRANCH  33  34
ENDBRANCH  25  28
ENDBRANCH  23  24
ENDBRANCH  22  23
ENDBRANCH   1  22
TORSDOF 18
ENDMDL
