MODEL 1
REMARK VINA RESULT:     -12.7      0.000      0.000
REMARK SMILES Cc1ccc(C(=O)N2CCCC[C@@H]2C(=O)NCCCCNC(=O)c2ccc(-c3c4nc(c(-c5cccc(S(=O)(=O)[O-])c5F)c5ccc([nH]5)c(-c5cccc(S(=O)(=O)[O-])c5F)c5nc(c(-c6cccc(S(=O)(=O)[O-])c6F)c6ccc3[nH]6)C=C5)C=C4)cc2)cc1S(=O)(=O)N1CCCCC1
REMARK SMILES IDX 18 1 17 2 16 3 14 4 15 5 13 7 8 8 9 9 10 10 12 11 11 12 6 13
REMARK SMILES IDX 7 14 5 15 1 16 2 17 3 18 88 19 4 20 87 21 89 22 90 23 91 24
REMARK SMILES IDX 92 25 93 26 97 27 94 28 96 29 95 30 19 31 20 32 21 33 22 34
REMARK SMILES IDX 23 36 24 37 25 38 86 39 26 40 85 41 27 42 28 43 29 44 79 45
REMARK SMILES IDX 30 46 84 47 78 48 80 49 31 50 83 51 77 52 76 53 32 55 64 56
REMARK SMILES IDX 44 57 63 58 45 59 48 60 62 61 81 62 46 63 47 64 61 66 82 67
REMARK SMILES IDX 49 68 33 69 34 70 42 71 35 72 37 73 43 74 36 75 38 76 39 77
REMARK SMILES IDX 40 78 41 79 65 80 66 81 74 82 67 83 69 84 75 85 68 86 70 87
REMARK SMILES IDX 71 88 72 89 73 90 50 91 51 92 59 93 52 94 54 95 60 96 53 97
REMARK SMILES IDX 55 98 56 99 57 100 58 101
REMARK H PARENT 16 6 21 35 80 54 48 65
REMARK Flexibility Score: inf
ROOT
ATOM      1  C   UNL A   1      37.767  21.232  24.980  1.00  0.00     0.023 C 
ENDROOT
BRANCH   1   2
ATOM      2  C   UNL A   1      36.647  22.247  25.254  1.00  0.00     0.116 C 
BRANCH   2   3
ATOM      3  N   UNL A   1      35.730  21.773  26.279  1.00  0.00    -0.354 N 
ATOM      4  C   UNL A   1      34.600  21.019  26.173  1.00  0.00     0.242 C 
ATOM      5  O   UNL A   1      33.839  20.996  27.146  1.00  0.00    -0.273 OA
ATOM      6  H   UNL A   1      35.965  22.038  27.197  1.00  0.00     0.163 HD
BRANCH   4   7
ATOM      7  C   UNL A   1      34.207  20.313  24.853  1.00  0.00     0.174 C 
ATOM      8  N   UNL A   1      32.758  20.387  24.540  1.00  0.00    -0.327 N 
ATOM      9  C   UNL A   1      32.245  19.449  23.551  1.00  0.00     0.120 C 
ATOM     10  C   UNL A   1      32.644  18.019  23.838  1.00  0.00     0.022 C 
ATOM     11  C   UNL A   1      34.718  18.857  24.954  1.00  0.00     0.035 C 
ATOM     12  C   UNL A   1      34.159  17.910  23.903  1.00  0.00     0.004 C 
BRANCH   8  13
ATOM     13  C   UNL A   1      31.921  21.485  24.776  1.00  0.00     0.254 C 
ATOM     14  O   UNL A   1      30.929  21.392  25.499  1.00  0.00    -0.269 OA
BRANCH  13  15
ATOM     15  C   UNL A   1      32.149  22.790  24.114  1.00  0.00     0.041 A 
ATOM     16  C   UNL A   1      33.466  26.426  22.216  1.00  0.00     0.046 C 
ATOM     17  C   UNL A   1      32.913  25.266  22.977  1.00  0.00    -0.031 A 
ATOM     18  C   UNL A   1      33.126  24.032  22.310  1.00  0.00     0.005 A 
ATOM     19  C   UNL A   1      32.274  25.244  24.229  1.00  0.00     0.086 A 
ATOM     20  C   UNL A   1      32.753  22.812  22.864  1.00  0.00     0.014 A 
ATOM     21  C   UNL A   1      31.935  23.991  24.792  1.00  0.00     0.035 A 
BRANCH  19  22
ATOM     22  S   UNL A   1      31.796  26.584  25.334  1.00  0.00     0.243 S 
ATOM     23  O   UNL A   1      31.132  25.945  26.460  1.00  0.00    -0.207 OA
ATOM     24  O   UNL A   1      33.003  27.350  25.554  1.00  0.00    -0.207 OA
BRANCH  22  25
ATOM     25  N   UNL A   1      30.670  27.640  24.640  1.00  0.00    -0.198 NA
ATOM     26  C   UNL A   1      31.127  29.029  24.438  1.00  0.00     0.102 C 
ATOM     27  C   UNL A   1      29.612  27.024  23.810  1.00  0.00     0.102 C 
ATOM     28  C   UNL A   1      30.103  29.934  23.772  1.00  0.00     0.017 C 
ATOM     29  C   UNL A   1      28.676  28.018  23.139  1.00  0.00     0.017 C 
ATOM     30  C   UNL A   1      29.377  29.262  22.623  1.00  0.00     0.003 C 
ENDBRANCH  22  25
ENDBRANCH  19  22
ENDBRANCH  13  15
ENDBRANCH   8  13
ENDBRANCH   4   7
ENDBRANCH   2   3
ENDBRANCH   1   2
BRANCH   1  31
ATOM     31  C   UNL A   1      39.059  21.476  25.753  1.00  0.00     0.023 C 
BRANCH  31  32
ATOM     32  C   UNL A   1      39.126  22.841  26.405  1.00  0.00     0.116 C 
BRANCH  32  33
ATOM     33  N   UNL A   1      40.141  22.930  27.431  1.00  0.00    -0.352 N 
ATOM     34  C   UNL A   1      40.753  24.052  27.959  1.00  0.00     0.251 C 
ATOM     35  H   UNL A   1      40.440  22.071  27.806  1.00  0.00     0.163 HD
ATOM     36  O   UNL A   1      41.809  23.903  28.565  1.00  0.00    -0.269 OA
BRANCH  34  37
ATOM     37  C   UNL A   1      40.037  25.358  27.965  1.00  0.00     0.039 A 
ATOM     38  C   UNL A   1      40.442  26.272  26.985  1.00  0.00     0.014 A 
ATOM     39  C   UNL A   1      39.351  25.811  29.087  1.00  0.00     0.014 A 
ATOM     40  C   UNL A   1      40.504  27.621  27.301  1.00  0.00     0.010 A 
ATOM     41  C   UNL A   1      39.502  27.122  29.450  1.00  0.00     0.010 A 
ATOM     42  C   UNL A   1      40.181  27.990  28.596  1.00  0.00    -0.014 A 
BRANCH  42  43
ATOM     43  C   UNL A   1      40.438  29.283  29.181  1.00  0.00     0.031 A 
ATOM     44  C   UNL A   1      39.389  30.299  29.067  1.00  0.00     0.074 A 
ATOM     45  C   UNL A   1      41.483  29.374  30.029  1.00  0.00     0.049 A 
ATOM     46  N   UNL A   1      39.520  31.519  29.440  1.00  0.00    -0.248 NA
ATOM     47  C   UNL A   1      38.088  30.002  28.477  1.00  0.00     0.031 C 
ATOM     48  C   UNL A   1      41.672  30.292  31.143  1.00  0.00     0.029 A 
ATOM     49  N   UNL A   1      42.665  28.657  30.028  1.00  0.00    -0.354 N 
ATOM     50  C   UNL A   1      38.259  32.077  29.437  1.00  0.00     0.074 A 
ATOM     51  C   UNL A   1      37.444  31.151  28.695  1.00  0.00     0.031 C 
ATOM     52  C   UNL A   1      42.960  30.242  31.541  1.00  0.00     0.029 A 
ATOM     53  C   UNL A   1      43.680  29.454  30.553  1.00  0.00     0.049 A 
ATOM     54  H   UNL A   1      42.773  27.733  29.707  1.00  0.00     0.167 HD
ATOM     55  C   UNL A   1      38.048  33.164  30.227  1.00  0.00     0.034 A 
ATOM     56  C   UNL A   1      44.661  29.966  29.738  1.00  0.00     0.034 A 
ATOM     57  C   UNL A   1      39.340  33.646  30.759  1.00  0.00     0.049 A 
ATOM     58  C   UNL A   1      44.582  31.482  29.582  1.00  0.00     0.074 A 
ATOM     59  C   UNL A   1      39.990  33.458  31.968  1.00  0.00     0.029 A 
ATOM     60  N   UNL A   1      40.307  34.111  29.868  1.00  0.00    -0.354 N 
ATOM     61  N   UNL A   1      43.576  32.218  29.972  1.00  0.00    -0.248 NA
ATOM     62  C   UNL A   1      45.641  32.286  28.977  1.00  0.00     0.031 C 
ATOM     63  C   UNL A   1      41.380  33.698  31.759  1.00  0.00     0.029 A 
ATOM     64  C   UNL A   1      41.573  34.078  30.441  1.00  0.00     0.049 A 
ATOM     65  H   UNL A   1      40.118  34.422  28.954  1.00  0.00     0.167 HD
ATOM     66  C   UNL A   1      43.751  33.514  29.569  1.00  0.00     0.074 A 
ATOM     67  C   UNL A   1      45.104  33.519  29.034  1.00  0.00     0.031 C 
ATOM     68  C   UNL A   1      42.753  34.453  29.655  1.00  0.00     0.034 A 
BRANCH  55  69
ATOM     69  C   UNL A   1      36.698  33.630  30.764  1.00  0.00     0.023 A 
ATOM     70  C   UNL A   1      36.404  33.300  32.107  1.00  0.00     0.012 A 
ATOM     71  C   UNL A   1      35.655  34.283  30.057  1.00  0.00     0.148 A 
ATOM     72  C   UNL A   1      35.155  33.544  32.691  1.00  0.00     0.002 A 
ATOM     73  C   UNL A   1      34.404  34.524  30.636  1.00  0.00     0.091 A 
ATOM     74  F   UNL A   1      35.842  34.701  28.809  1.00  0.00    -0.205 F 
ATOM     75  C   UNL A   1      34.148  34.146  31.954  1.00  0.00     0.022 A 
BRANCH  73  76
ATOM     76  S   UNL A   1      33.040  35.296  29.737  1.00  0.00     0.127 S 
ATOM     77  O   UNL A   1      33.622  36.583  29.348  1.00  0.00    -0.237 OA
ATOM     78  O   UNL A   1      32.831  34.365  28.629  1.00  0.00    -0.237 OA
ATOM     79  O   UNL A   1      31.927  35.399  30.672  1.00  0.00    -0.744 OA
ENDBRANCH  73  76
ENDBRANCH  55  69
BRANCH  56  80
ATOM     80  C   UNL A   1      45.039  29.012  28.640  1.00  0.00     0.023 A 
ATOM     81  C   UNL A   1      44.663  29.381  27.324  1.00  0.00     0.012 A 
ATOM     82  C   UNL A   1      46.089  28.092  28.810  1.00  0.00     0.148 A 
ATOM     83  C   UNL A   1      45.458  29.025  26.231  1.00  0.00     0.002 A 
ATOM     84  C   UNL A   1      46.865  27.727  27.711  1.00  0.00     0.091 A 
ATOM     85  F   UNL A   1      46.353  27.631  30.039  1.00  0.00    -0.205 F 
ATOM     86  C   UNL A   1      46.590  28.244  26.434  1.00  0.00     0.022 A 
BRANCH  84  87
ATOM     87  S   UNL A   1      48.312  26.678  27.915  1.00  0.00     0.127 S 
ATOM     88  O   UNL A   1      47.762  25.557  28.669  1.00  0.00    -0.237 OA
ATOM     89  O   UNL A   1      48.684  26.360  26.537  1.00  0.00    -0.237 OA
ATOM     90  O   UNL A   1      49.280  27.513  28.613  1.00  0.00    -0.744 OA
ENDBRANCH  84  87
ENDBRANCH  56  80
BRANCH  68  91
ATOM     91  C   UNL A   1      42.794  35.825  28.995  1.00  0.00     0.023 A 
ATOM     92  C   UNL A   1      42.054  36.130  27.835  1.00  0.00     0.012 A 
ATOM     93  C   UNL A   1      43.486  36.909  29.597  1.00  0.00     0.148 A 
ATOM     94  C   UNL A   1      42.077  37.398  27.246  1.00  0.00     0.002 A 
ATOM     95  C   UNL A   1      43.392  38.201  29.086  1.00  0.00     0.091 A 
ATOM     96  F   UNL A   1      44.268  36.697  30.666  1.00  0.00    -0.205 F 
ATOM     97  C   UNL A   1      42.729  38.442  27.883  1.00  0.00     0.022 A 
BRANCH  95  98
ATOM     98  S   UNL A   1      43.971  39.623  30.023  1.00  0.00     0.127 S 
ATOM     99  O   UNL A   1      45.422  39.469  29.941  1.00  0.00    -0.237 OA
ATOM    100  O   UNL A   1      43.432  40.745  29.250  1.00  0.00    -0.237 OA
ATOM    101  O   UNL A   1      43.383  39.477  31.347  1.00  0.00    -0.744 OA
ENDBRANCH  95  98
ENDBRANCH  68  91
ENDBRANCH  42  43
ENDBRANCH  34  37
ENDBRANCH  32  33
ENDBRANCH  31  32
ENDBRANCH   1  31
TORSDOF 18
ENDMDL
MODEL 2
REMARK VINA RESULT:     -12.7      2.235      3.318
REMARK SMILES Cc1ccc(C(=O)N2CCCC[C@@H]2C(=O)NCCCCNC(=O)c2ccc(-c3c4nc(c(-c5cccc(S(=O)(=O)[O-])c5F)c5ccc([nH]5)c(-c5cccc(S(=O)(=O)[O-])c5F)c5nc(c(-c6cccc(S(=O)(=O)[O-])c6F)c6ccc3[nH]6)C=C5)C=C4)cc2)cc1S(=O)(=O)N1CCCCC1
REMARK SMILES IDX 18 1 17 2 16 3 14 4 15 5 13 7 8 8 9 9 10 10 12 11 11 12 6 13
REMARK SMILES IDX 7 14 5 15 1 16 2 17 3 18 88 19 4 20 87 21 89 22 90 23 91 24
REMARK SMILES IDX 92 25 93 26 97 27 94 28 96 29 95 30 19 31 20 32 21 33 22 34
REMARK SMILES IDX 23 36 24 37 25 38 86 39 26 40 85 41 27 42 28 43 29 44 79 45
REMARK SMILES IDX 30 46 84 47 78 48 80 49 31 50 83 51 77 52 76 53 32 55 64 56
REMARK SMILES IDX 44 57 63 58 45 59 48 60 62 61 81 62 46 63 47 64 61 66 82 67
REMARK SMILES IDX 49 68 33 69 34 70 42 71 35 72 37 73 43 74 36 75 38 76 39 77
REMARK SMILES IDX 40 78 41 79 65 80 66 81 74 82 67 83 69 84 75 85 68 86 70 87
REMARK SMILES IDX 71 88 72 89 73 90 50 91 51 92 59 93 52 94 54 95 60 96 53 97
REMARK SMILES IDX 55 98 56 99 57 100 58 101
REMARK H PARENT 16 6 21 35 80 54 48 65
REMARK Flexibility Score: inf
ROOT
ATOM      1  C   UNL A   1      37.606  23.652  25.392  1.00  0.00     0.023 C 
ENDROOT
BRANCH   1   2
ATOM      2  C   UNL A   1      36.805  22.397  25.013  1.00  0.00     0.116 C 
BRANCH   2   3
ATOM      3  N   UNL A   1      35.968  21.942  26.111  1.00  0.00    -0.354 N 
ATOM      4  C   UNL A   1      34.861  21.147  26.109  1.00  0.00     0.242 C 
ATOM      5  O   UNL A   1      34.160  21.147  27.126  1.00  0.00    -0.273 OA
ATOM      6  H   UNL A   1      36.245  22.260  27.000  1.00  0.00     0.163 HD
BRANCH   4   7
ATOM      7  C   UNL A   1      34.418  20.366  24.849  1.00  0.00     0.174 C 
ATOM      8  N   UNL A   1      32.951  20.378  24.619  1.00  0.00    -0.327 N 
ATOM      9  C   UNL A   1      32.414  19.377  23.708  1.00  0.00     0.120 C 
ATOM     10  C   UNL A   1      32.879  17.976  24.038  1.00  0.00     0.022 C 
ATOM     11  C   UNL A   1      34.984  18.934  24.988  1.00  0.00     0.035 C 
ATOM     12  C   UNL A   1      34.398  17.919  24.018  1.00  0.00     0.004 C 
BRANCH   8  13
ATOM     13  C   UNL A   1      32.091  21.459  24.853  1.00  0.00     0.254 C 
ATOM     14  O   UNL A   1      31.128  21.360  25.613  1.00  0.00    -0.269 OA
BRANCH  13  15
ATOM     15  C   UNL A   1      32.258  22.748  24.145  1.00  0.00     0.041 A 
ATOM     16  C   UNL A   1      33.402  26.355  22.085  1.00  0.00     0.046 C 
ATOM     17  C   UNL A   1      32.912  25.206  22.904  1.00  0.00    -0.031 A 
ATOM     18  C   UNL A   1      33.115  23.959  22.260  1.00  0.00     0.005 A 
ATOM     19  C   UNL A   1      32.340  25.207  24.189  1.00  0.00     0.086 A 
ATOM     20  C   UNL A   1      32.796  22.748  22.865  1.00  0.00     0.014 A 
ATOM     21  C   UNL A   1      32.055  23.964  24.801  1.00  0.00     0.035 A 
BRANCH  19  22
ATOM     22  S   UNL A   1      31.892  26.568  25.281  1.00  0.00     0.243 S 
ATOM     23  O   UNL A   1      31.327  25.947  26.469  1.00  0.00    -0.207 OA
ATOM     24  O   UNL A   1      33.085  27.378  25.394  1.00  0.00    -0.207 OA
BRANCH  22  25
ATOM     25  N   UNL A   1      30.687  27.565  24.632  1.00  0.00    -0.198 NA
ATOM     26  C   UNL A   1      31.090  28.953  24.334  1.00  0.00     0.102 C 
ATOM     27  C   UNL A   1      29.586  26.887  23.916  1.00  0.00     0.102 C 
ATOM     28  C   UNL A   1      29.994  29.802  23.711  1.00  0.00     0.017 C 
ATOM     29  C   UNL A   1      28.574  27.827  23.277  1.00  0.00     0.017 C 
ATOM     30  C   UNL A   1      29.199  29.062  22.654  1.00  0.00     0.003 C 
ENDBRANCH  22  25
ENDBRANCH  19  22
ENDBRANCH  13  15
ENDBRANCH   8  13
ENDBRANCH   4   7
ENDBRANCH   2   3
ENDBRANCH   1   2
BRANCH   1  31
ATOM     31  C   UNL A   1      38.506  23.497  26.613  1.00  0.00     0.023 C 
BRANCH  31  32
ATOM     32  C   UNL A   1      39.979  23.426  26.274  1.00  0.00     0.116 C 
BRANCH  32  33
ATOM     33  N   UNL A   1      40.510  22.082  26.330  1.00  0.00    -0.352 N 
ATOM     34  C   UNL A   1      41.824  21.667  26.452  1.00  0.00     0.251 C 
ATOM     35  H   UNL A   1      39.844  21.361  26.273  1.00  0.00     0.163 HD
ATOM     36  O   UNL A   1      42.095  20.510  26.144  1.00  0.00    -0.269 OA
BRANCH  34  37
ATOM     37  C   UNL A   1      42.822  22.539  27.132  1.00  0.00     0.039 A 
ATOM     38  C   UNL A   1      42.652  22.687  28.513  1.00  0.00     0.014 A 
ATOM     39  C   UNL A   1      43.581  23.468  26.428  1.00  0.00     0.014 A 
ATOM     40  C   UNL A   1      42.900  23.920  29.098  1.00  0.00     0.010 A 
ATOM     41  C   UNL A   1      43.733  24.717  26.967  1.00  0.00     0.010 A 
ATOM     42  C   UNL A   1      43.284  24.957  28.264  1.00  0.00    -0.014 A 
BRANCH  42  43
ATOM     43  C   UNL A   1      43.326  26.350  28.635  1.00  0.00     0.031 A 
ATOM     44  C   UNL A   1      42.082  27.116  28.534  1.00  0.00     0.074 A 
ATOM     45  C   UNL A   1      44.414  26.770  29.315  1.00  0.00     0.049 A 
ATOM     46  N   UNL A   1      41.994  28.381  28.723  1.00  0.00    -0.248 NA
ATOM     47  C   UNL A   1      40.816  26.488  28.170  1.00  0.00     0.031 C 
ATOM     48  C   UNL A   1      44.524  27.869  30.263  1.00  0.00     0.029 A 
ATOM     49  N   UNL A   1      45.712  26.301  29.247  1.00  0.00    -0.354 N 
ATOM     50  C   UNL A   1      40.651  28.680  28.819  1.00  0.00     0.074 A 
ATOM     51  C   UNL A   1      39.973  27.512  28.322  1.00  0.00     0.031 C 
ATOM     52  C   UNL A   1      45.828  28.128  30.486  1.00  0.00     0.029 A 
ATOM     53  C   UNL A   1      46.588  27.350  29.521  1.00  0.00     0.049 A 
ATOM     54  H   UNL A   1      45.976  25.376  29.037  1.00  0.00     0.167 HD
ATOM     55  C   UNL A   1      40.303  29.816  29.483  1.00  0.00     0.034 A 
ATOM     56  C   UNL A   1      47.348  27.907  28.521  1.00  0.00     0.034 A 
ATOM     57  C   UNL A   1      41.515  30.613  29.766  1.00  0.00     0.049 A 
ATOM     58  C   UNL A   1      46.937  29.337  28.181  1.00  0.00     0.074 A 
ATOM     59  C   UNL A   1      42.315  30.743  30.891  1.00  0.00     0.029 A 
ATOM     60  N   UNL A   1      42.263  31.111  28.700  1.00  0.00    -0.354 N 
ATOM     61  N   UNL A   1      45.847  29.918  28.605  1.00  0.00    -0.248 NA
ATOM     62  C   UNL A   1      47.734  30.225  27.338  1.00  0.00     0.031 C 
ATOM     63  C   UNL A   1      43.593  31.209  30.465  1.00  0.00     0.029 A 
ATOM     64  C   UNL A   1      43.561  31.410  29.095  1.00  0.00     0.049 A 
ATOM     65  H   UNL A   1      41.917  31.234  27.787  1.00  0.00     0.167 HD
ATOM     66  C   UNL A   1      45.703  31.145  28.016  1.00  0.00     0.074 A 
ATOM     67  C   UNL A   1      46.961  31.326  27.306  1.00  0.00     0.031 C 
ATOM     68  C   UNL A   1      44.546  31.877  28.114  1.00  0.00     0.034 A 
BRANCH  55  69
ATOM     69  C   UNL A   1      38.951  30.092  30.132  1.00  0.00     0.023 A 
ATOM     70  C   UNL A   1      38.490  29.133  31.063  1.00  0.00     0.012 A 
ATOM     71  C   UNL A   1      38.049  31.153  29.856  1.00  0.00     0.148 A 
ATOM     72  C   UNL A   1      37.213  29.185  31.635  1.00  0.00     0.002 A 
ATOM     73  C   UNL A   1      36.769  31.205  30.423  1.00  0.00     0.091 A 
ATOM     74  F   UNL A   1      38.401  32.148  29.048  1.00  0.00    -0.205 F 
ATOM     75  C   UNL A   1      36.345  30.215  31.308  1.00  0.00     0.022 A 
BRANCH  73  76
ATOM     76  S   UNL A   1      35.581  32.510  30.038  1.00  0.00     0.127 S 
ATOM     77  O   UNL A   1      35.280  32.242  28.630  1.00  0.00    -0.237 OA
ATOM     78  O   UNL A   1      34.485  32.214  30.960  1.00  0.00    -0.237 OA
ATOM     79  O   UNL A   1      36.259  33.778  30.276  1.00  0.00    -0.744 OA
ENDBRANCH  73  76
ENDBRANCH  55  69
BRANCH  56  80
ATOM     80  C   UNL A   1      47.797  26.885  27.515  1.00  0.00     0.023 A 
ATOM     81  C   UNL A   1      46.922  26.638  26.428  1.00  0.00     0.012 A 
ATOM     82  C   UNL A   1      49.158  26.557  27.374  1.00  0.00     0.148 A 
ATOM     83  C   UNL A   1      47.427  26.298  25.170  1.00  0.00     0.002 A 
ATOM     84  C   UNL A   1      49.650  26.200  26.120  1.00  0.00     0.091 A 
ATOM     85  F   UNL A   1      49.960  26.653  28.442  1.00  0.00    -0.205 F 
ATOM     86  C   UNL A   1      48.798  26.134  25.005  1.00  0.00     0.022 A 
BRANCH  84  87
ATOM     87  S   UNL A   1      51.411  25.929  25.867  1.00  0.00     0.127 S 
ATOM     88  O   UNL A   1      51.520  26.023  24.415  1.00  0.00    -0.237 OA
ATOM     89  O   UNL A   1      52.023  27.039  26.596  1.00  0.00    -0.237 OA
ATOM     90  O   UNL A   1      51.672  24.620  26.449  1.00  0.00    -0.744 OA
ENDBRANCH  84  87
ENDBRANCH  56  80
BRANCH  68  91
ATOM     91  C   UNL A   1      44.229  33.113  27.281  1.00  0.00     0.023 A 
ATOM     92  C   UNL A   1      44.122  33.072  25.877  1.00  0.00     0.012 A 
ATOM     93  C   UNL A   1      43.895  34.348  27.897  1.00  0.00     0.148 A 
ATOM     94  C   UNL A   1      43.807  34.203  25.118  1.00  0.00     0.002 A 
ATOM     95  C   UNL A   1      43.447  35.432  27.147  1.00  0.00     0.091 A 
ATOM     96  F   UNL A   1      44.032  34.496  29.223  1.00  0.00    -0.205 F 
ATOM     97  C   UNL A   1      43.447  35.381  25.754  1.00  0.00     0.022 A 
BRANCH  95  98
ATOM     98  S   UNL A   1      42.701  36.869  27.932  1.00  0.00     0.127 S 
ATOM     99  O   UNL A   1      42.159  37.593  26.785  1.00  0.00    -0.237 OA
ATOM    100  O   UNL A   1      41.691  36.259  28.801  1.00  0.00    -0.237 OA
ATOM    101  O   UNL A   1      43.786  37.522  28.651  1.00  0.00    -0.744 OA
ENDBRANCH  95  98
ENDBRANCH  68  91
ENDBRANCH  42  43
ENDBRANCH  34  37
ENDBRANCH  32  33
ENDBRANCH  31  32
ENDBRANCH   1  31
TORSDOF 18
ENDMDL
MODEL 3
REMARK VINA RESULT:     -12.3      4.666      7.439
REMARK SMILES Cc1ccc(C(=O)N2CCCC[C@@H]2C(=O)NCCCCNC(=O)c2ccc(-c3c4nc(c(-c5cccc(S(=O)(=O)[O-])c5F)c5ccc([nH]5)c(-c5cccc(S(=O)(=O)[O-])c5F)c5nc(c(-c6cccc(S(=O)(=O)[O-])c6F)c6ccc3[nH]6)C=C5)C=C4)cc2)cc1S(=O)(=O)N1CCCCC1
REMARK SMILES IDX 18 1 17 2 16 3 14 4 15 5 13 7 8 8 9 9 10 10 12 11 11 12 6 13
REMARK SMILES IDX 7 14 5 15 1 16 2 17 3 18 88 19 4 20 87 21 89 22 90 23 91 24
REMARK SMILES IDX 92 25 93 26 97 27 94 28 96 29 95 30 19 31 20 32 21 33 22 34
REMARK SMILES IDX 23 36 24 37 25 38 86 39 26 40 85 41 27 42 28 43 29 44 79 45
REMARK SMILES IDX 30 46 84 47 78 48 80 49 31 50 83 51 77 52 76 53 32 55 64 56
REMARK SMILES IDX 44 57 63 58 45 59 48 60 62 61 81 62 46 63 47 64 61 66 82 67
REMARK SMILES IDX 49 68 33 69 34 70 42 71 35 72 37 73 43 74 36 75 38 76 39 77
REMARK SMILES IDX 40 78 41 79 65 80 66 81 74 82 67 83 69 84 75 85 68 86 70 87
REMARK SMILES IDX 71 88 72 89 73 90 50 91 51 92 59 93 52 94 54 95 60 96 53 97
REMARK SMILES IDX 55 98 56 99 57 100 58 101
REMARK H PARENT 16 6 21 35 80 54 48 65
REMARK Flexibility Score: inf
ROOT
ATOM      1  C   UNL A   1      34.014  29.207  26.723  1.00  0.00     0.023 C 
ENDROOT
BRANCH   1   2
ATOM      2  C   UNL A   1      33.753  27.718  26.445  1.00  0.00     0.116 C 
BRANCH   2   3
ATOM      3  N   UNL A   1      33.967  27.389  25.045  1.00  0.00    -0.354 N 
ATOM      4  C   UNL A   1      33.103  27.406  23.991  1.00  0.00     0.242 C 
ATOM      5  O   UNL A   1      33.444  26.806  22.967  1.00  0.00    -0.273 OA
ATOM      6  H   UNL A   1      34.883  27.108  24.823  1.00  0.00     0.163 HD
BRANCH   4   7
ATOM      7  C   UNL A   1      31.696  28.042  24.096  1.00  0.00     0.174 C 
ATOM      8  N   UNL A   1      30.611  27.062  24.353  1.00  0.00    -0.327 N 
ATOM      9  C   UNL A   1      29.247  27.499  24.088  1.00  0.00     0.120 C 
ATOM     10  C   UNL A   1      29.084  28.110  22.714  1.00  0.00     0.022 C 
ATOM     11  C   UNL A   1      31.471  28.849  22.797  1.00  0.00     0.035 C 
ATOM     12  C   UNL A   1      30.034  29.287  22.558  1.00  0.00     0.004 C 
BRANCH   8  13
ATOM     13  C   UNL A   1      30.701  25.932  25.176  1.00  0.00     0.254 C 
ATOM     14  O   UNL A   1      30.361  25.970  26.358  1.00  0.00    -0.269 OA
BRANCH  13  15
ATOM     15  C   UNL A   1      31.275  24.659  24.683  1.00  0.00     0.041 A 
ATOM     16  C   UNL A   1      32.310  20.737  23.231  1.00  0.00     0.046 C 
ATOM     17  C   UNL A   1      32.075  22.074  23.853  1.00  0.00    -0.031 A 
ATOM     18  C   UNL A   1      31.308  22.930  23.021  1.00  0.00     0.005 A 
ATOM     19  C   UNL A   1      32.468  22.551  25.117  1.00  0.00     0.086 A 
ATOM     20  C   UNL A   1      30.912  24.201  23.424  1.00  0.00     0.014 A 
ATOM     21  C   UNL A   1      32.024  23.833  25.522  1.00  0.00     0.035 A 
BRANCH  19  22
ATOM     22  S   UNL A   1      33.468  21.790  26.407  1.00  0.00     0.243 S 
ATOM     23  O   UNL A   1      33.209  22.565  27.611  1.00  0.00    -0.207 OA
ATOM     24  O   UNL A   1      33.131  20.384  26.374  1.00  0.00    -0.207 OA
BRANCH  22  25
ATOM     25  N   UNL A   1      35.129  21.900  26.104  1.00  0.00    -0.198 NA
ATOM     26  C   UNL A   1      35.709  20.816  25.288  1.00  0.00     0.102 C 
ATOM     27  C   UNL A   1      35.722  23.253  26.163  1.00  0.00     0.102 C 
ATOM     28  C   UNL A   1      37.193  20.974  25.000  1.00  0.00     0.017 C 
ATOM     29  C   UNL A   1      37.199  23.313  25.800  1.00  0.00     0.017 C 
ATOM     30  C   UNL A   1      37.580  22.398  24.650  1.00  0.00     0.003 C 
ENDBRANCH  22  25
ENDBRANCH  19  22
ENDBRANCH  13  15
ENDBRANCH   8  13
ENDBRANCH   4   7
ENDBRANCH   2   3
ENDBRANCH   1   2
BRANCH   1  31
ATOM     31  C   UNL A   1      35.222  29.493  27.609  1.00  0.00     0.023 C 
BRANCH  31  32
ATOM     32  C   UNL A   1      35.560  30.964  27.716  1.00  0.00     0.116 C 
BRANCH  32  33
ATOM     33  N   UNL A   1      35.063  31.573  28.930  1.00  0.00    -0.352 N 
ATOM     34  C   UNL A   1      35.726  31.816  30.119  1.00  0.00     0.251 C 
ATOM     35  H   UNL A   1      34.121  31.854  28.907  1.00  0.00     0.163 HD
ATOM     36  O   UNL A   1      35.052  32.026  31.123  1.00  0.00    -0.269 OA
BRANCH  34  37
ATOM     37  C   UNL A   1      37.201  32.020  30.124  1.00  0.00     0.039 A 
ATOM     38  C   UNL A   1      37.931  31.132  30.922  1.00  0.00     0.014 A 
ATOM     39  C   UNL A   1      37.774  33.228  29.738  1.00  0.00     0.014 A 
ATOM     40  C   UNL A   1      39.029  31.599  31.627  1.00  0.00     0.010 A 
ATOM     41  C   UNL A   1      38.791  33.732  30.503  1.00  0.00     0.010 A 
ATOM     42  C   UNL A   1      39.332  32.946  31.518  1.00  0.00    -0.014 A 
BRANCH  42  43
ATOM     43  C   UNL A   1      40.253  33.662  32.367  1.00  0.00     0.031 A 
ATOM     44  C   UNL A   1      39.697  34.388  33.511  1.00  0.00     0.074 A 
ATOM     45  C   UNL A   1      41.564  33.379  32.222  1.00  0.00     0.049 A 
ATOM     46  N   UNL A   1      40.377  35.154  34.282  1.00  0.00    -0.248 NA
ATOM     47  C   UNL A   1      38.279  34.319  33.854  1.00  0.00     0.031 C 
ATOM     48  C   UNL A   1      42.628  33.475  33.211  1.00  0.00     0.029 A 
ATOM     49  N   UNL A   1      42.244  32.977  31.088  1.00  0.00    -0.354 N 
ATOM     50  C   UNL A   1      39.587  35.421  35.380  1.00  0.00     0.074 A 
ATOM     51  C   UNL A   1      38.262  35.011  34.995  1.00  0.00     0.031 C 
ATOM     52  C   UNL A   1      43.819  33.380  32.586  1.00  0.00     0.029 A 
ATOM     53  C   UNL A   1      43.556  33.442  31.156  1.00  0.00     0.049 A 
ATOM     54  H   UNL A   1      41.863  32.449  30.350  1.00  0.00     0.167 HD
ATOM     55  C   UNL A   1      40.212  35.786  36.533  1.00  0.00     0.034 A 
ATOM     56  C   UNL A   1      43.979  34.468  30.347  1.00  0.00     0.034 A 
ATOM     57  C   UNL A   1      41.643  36.036  36.261  1.00  0.00     0.049 A 
ATOM     58  C   UNL A   1      44.282  35.753  31.114  1.00  0.00     0.074 A 
ATOM     59  C   UNL A   1      42.781  35.262  36.423  1.00  0.00     0.029 A 
ATOM     60  N   UNL A   1      41.997  37.068  35.393  1.00  0.00    -0.354 N 
ATOM     61  N   UNL A   1      43.966  35.964  32.363  1.00  0.00    -0.248 NA
ATOM     62  C   UNL A   1      44.972  36.898  30.526  1.00  0.00     0.031 C 
ATOM     63  C   UNL A   1      43.783  35.772  35.547  1.00  0.00     0.029 A 
ATOM     64  C   UNL A   1      43.278  36.881  34.888  1.00  0.00     0.049 A 
ATOM     65  H   UNL A   1      41.415  37.830  35.167  1.00  0.00     0.167 HD
ATOM     66  C   UNL A   1      44.252  37.255  32.713  1.00  0.00     0.074 A 
ATOM     67  C   UNL A   1      44.967  37.767  31.553  1.00  0.00     0.031 C 
ATOM     68  C   UNL A   1      43.827  37.809  33.895  1.00  0.00     0.034 A 
BRANCH  55  69
ATOM     69  C   UNL A   1      39.640  35.649  37.941  1.00  0.00     0.023 A 
ATOM     70  C   UNL A   1      39.670  36.808  38.750  1.00  0.00     0.012 A 
ATOM     71  C   UNL A   1      39.155  34.476  38.577  1.00  0.00     0.148 A 
ATOM     72  C   UNL A   1      39.305  36.798  40.102  1.00  0.00     0.002 A 
ATOM     73  C   UNL A   1      38.794  34.461  39.929  1.00  0.00     0.091 A 
ATOM     74  F   UNL A   1      39.019  33.344  37.895  1.00  0.00    -0.205 F 
ATOM     75  C   UNL A   1      38.876  35.622  40.698  1.00  0.00     0.022 A 
BRANCH  73  76
ATOM     76  S   UNL A   1      38.236  32.968  40.777  1.00  0.00     0.127 S 
ATOM     77  O   UNL A   1      39.410  32.099  40.669  1.00  0.00    -0.237 OA
ATOM     78  O   UNL A   1      37.965  33.458  42.128  1.00  0.00    -0.237 OA
ATOM     79  O   UNL A   1      37.065  32.487  40.053  1.00  0.00    -0.744 OA
ENDBRANCH  73  76
ENDBRANCH  55  69
BRANCH  56  80
ATOM     80  C   UNL A   1      43.342  34.414  28.987  1.00  0.00     0.023 A 
ATOM     81  C   UNL A   1      42.317  35.359  28.730  1.00  0.00     0.012 A 
ATOM     82  C   UNL A   1      44.012  33.831  27.896  1.00  0.00     0.148 A 
ATOM     83  C   UNL A   1      42.129  35.874  27.444  1.00  0.00     0.002 A 
ATOM     84  C   UNL A   1      43.805  34.339  26.614  1.00  0.00     0.091 A 
ATOM     85  F   UNL A   1      44.878  32.837  28.126  1.00  0.00    -0.205 F 
ATOM     86  C   UNL A   1      42.914  35.403  26.397  1.00  0.00     0.022 A 
BRANCH  84  87
ATOM     87  S   UNL A   1      44.761  33.727  25.218  1.00  0.00     0.127 S 
ATOM     88  O   UNL A   1      46.112  34.144  25.578  1.00  0.00    -0.237 OA
ATOM     89  O   UNL A   1      44.535  32.283  25.273  1.00  0.00    -0.237 OA
ATOM     90  O   UNL A   1      44.173  34.375  24.054  1.00  0.00    -0.744 OA
ENDBRANCH  84  87
ENDBRANCH  56  80
BRANCH  68  91
ATOM     91  C   UNL A   1      43.885  39.295  34.227  1.00  0.00     0.023 A 
ATOM     92  C   UNL A   1      44.507  39.787  35.392  1.00  0.00     0.012 A 
ATOM     93  C   UNL A   1      43.426  40.272  33.304  1.00  0.00     0.148 A 
ATOM     94  C   UNL A   1      44.580  41.153  35.680  1.00  0.00     0.002 A 
ATOM     95  C   UNL A   1      43.626  41.631  33.531  1.00  0.00     0.091 A 
ATOM     96  F   UNL A   1      42.764  39.895  32.201  1.00  0.00    -0.205 F 
ATOM     97  C   UNL A   1      44.159  42.079  34.739  1.00  0.00     0.022 A 
BRANCH  95  98
ATOM     98  S   UNL A   1      43.365  42.845  32.229  1.00  0.00     0.127 S 
ATOM     99  O   UNL A   1      43.586  44.103  32.940  1.00  0.00    -0.237 OA
ATOM    100  O   UNL A   1      44.412  42.498  31.265  1.00  0.00    -0.237 OA
ATOM    101  O   UNL A   1      42.011  42.609  31.747  1.00  0.00    -0.744 OA
ENDBRANCH  95  98
ENDBRANCH  68  91
ENDBRANCH  42  43
ENDBRANCH  34  37
ENDBRANCH  32  33
ENDBRANCH  31  32
ENDBRANCH   1  31
TORSDOF 18
ENDMDL
