MODEL 1
REMARK VINA RESULT:     -12.0      0.000      0.000
REMARK SMILES NC(=O)CC[C@@H](C(=O)NCCCCNC(=O)c1ccc(-c2c3nc(c(-c4cccc(S(=O)(=O)[O-])c4F)c4ccc([nH]4)c(-c4cccc(S(=O)(=O)[O-])c4F)c4nc(c(-c5cccc(S(=O)(=O)[O-])c5F)c5ccc2[nH]5)C=C4)C=C3)cc1)N1C(=O)/C(=C/c2ccc(C=O)cc2)SC1=S
REMARK SMILES IDX 11 1 10 2 9 3 7 4 8 5 6 7 5 8 4 9 2 10 1 11 3 14 80 15 81 16
REMARK SMILES IDX 94 17 82 18 83 19 93 20 95 21 84 22 85 23 86 24 92 25 87 26
REMARK SMILES IDX 91 27 88 28 89 29 90 30 12 31 13 32 14 33 15 34 16 36 17 37
REMARK SMILES IDX 18 38 79 39 19 40 78 41 20 42 21 43 22 44 72 45 23 46 77 47
REMARK SMILES IDX 71 48 73 49 24 50 76 51 70 52 69 53 25 55 57 56 37 57 56 58
REMARK SMILES IDX 38 59 41 60 55 61 74 62 39 63 40 64 54 66 75 67 42 68 26 69
REMARK SMILES IDX 27 70 35 71 28 72 30 73 36 74 29 75 31 76 32 77 33 78 34 79
REMARK SMILES IDX 58 80 59 81 67 82 60 83 62 84 68 85 61 86 63 87 64 88 65 89
REMARK SMILES IDX 66 90 43 91 44 92 52 93 45 94 47 95 53 96 46 97 48 98 49 99
REMARK SMILES IDX 50 100 51 101
REMARK H PARENT 9 6 1 12 1 13 14 35 73 54 41 65
REMARK Flexibility Score: inf
ROOT
ATOM      1  C   UNL A   1      31.801  29.378  27.245  1.00  0.00     0.023 C 
ENDROOT
BRANCH   1   2
ATOM      2  C   UNL A   1      31.651  28.285  26.187  1.00  0.00     0.116 C 
BRANCH   2   3
ATOM      3  N   UNL A   1      32.898  28.073  25.491  1.00  0.00    -0.354 N 
ATOM      4  C   UNL A   1      33.165  27.473  24.298  1.00  0.00     0.243 C 
ATOM      5  O   UNL A   1      34.350  27.460  23.947  1.00  0.00    -0.273 OA
ATOM      6  H   UNL A   1      33.691  28.421  25.959  1.00  0.00     0.163 HD
BRANCH   4   7
ATOM      7  C   UNL A   1      32.031  26.925  23.383  1.00  0.00     0.181 C 
BRANCH   7   8
ATOM      8  C   UNL A   1      30.568  27.115  23.838  1.00  0.00     0.045 C 
BRANCH   8   9
ATOM      9  C   UNL A   1      29.587  28.006  23.084  1.00  0.00     0.102 C 
BRANCH   9  10
ATOM     10  C   UNL A   1      29.836  29.492  22.921  1.00  0.00     0.217 C 
ATOM     11  N   UNL A   1      30.418  29.956  21.789  1.00  0.00    -0.370 N 
ATOM     12  H   UNL A   1      30.583  30.920  21.680  1.00  0.00     0.159 HD
ATOM     13  H   UNL A   1      30.677  29.329  21.075  1.00  0.00     0.159 HD
ATOM     14  O   UNL A   1      29.621  30.282  23.838  1.00  0.00    -0.275 OA
ENDBRANCH   9  10
ENDBRANCH   8   9
ENDBRANCH   7   8
BRANCH   7  15
ATOM     15  N   UNL A   1      32.339  25.468  23.235  1.00  0.00    -0.280 N 
ATOM     16  C   UNL A   1      32.484  24.683  24.371  1.00  0.00     0.266 C 
ATOM     17  C   UNL A   1      32.645  24.851  22.039  1.00  0.00     0.149 C 
ATOM     18  O   UNL A   1      32.321  25.033  25.534  1.00  0.00    -0.268 OA
ATOM     19  C   UNL A   1      32.836  23.290  24.007  1.00  0.00     0.081 C 
ATOM     20  S   UNL A   1      33.034  23.154  22.313  1.00  0.00    -0.054 SA
ATOM     21  S   UNL A   1      32.630  25.511  20.505  1.00  0.00    -0.052 S 
ATOM     22  C   UNL A   1      32.917  22.340  24.947  1.00  0.00     0.029 C 
BRANCH  22  23
ATOM     23  C   UNL A   1      33.234  20.928  24.731  1.00  0.00    -0.024 A 
ATOM     24  C   UNL A   1      34.549  20.483  24.912  1.00  0.00     0.009 A 
ATOM     25  C   UNL A   1      32.252  20.028  24.300  1.00  0.00     0.009 A 
ATOM     26  C   UNL A   1      34.875  19.143  24.689  1.00  0.00     0.012 A 
ATOM     27  C   UNL A   1      32.573  18.688  24.077  1.00  0.00     0.012 A 
ATOM     28  C   UNL A   1      33.884  18.249  24.277  1.00  0.00     0.014 A 
BRANCH  28  29
ATOM     29  C   UNL A   1      34.211  16.829  24.044  1.00  0.00     0.260 C 
ATOM     30  O   UNL A   1      34.164  16.321  22.930  1.00  0.00    -0.298 OA
ENDBRANCH  28  29
ENDBRANCH  22  23
ENDBRANCH   7  15
ENDBRANCH   4   7
ENDBRANCH   2   3
ENDBRANCH   1   2
BRANCH   1  31
ATOM     31  C   UNL A   1      31.290  30.745  26.815  1.00  0.00     0.023 C 
BRANCH  31  32
ATOM     32  C   UNL A   1      32.388  31.711  26.393  1.00  0.00     0.116 C 
BRANCH  32  33
ATOM     33  N   UNL A   1      32.296  33.023  27.027  1.00  0.00    -0.352 N 
ATOM     34  C   UNL A   1      33.170  33.586  27.928  1.00  0.00     0.251 C 
ATOM     35  H   UNL A   1      31.515  33.570  26.780  1.00  0.00     0.163 HD
ATOM     36  O   UNL A   1      32.929  34.669  28.448  1.00  0.00    -0.269 OA
BRANCH  34  37
ATOM     37  C   UNL A   1      34.383  32.827  28.288  1.00  0.00     0.039 A 
ATOM     38  C   UNL A   1      35.629  33.441  28.161  1.00  0.00     0.014 A 
ATOM     39  C   UNL A   1      34.262  31.564  28.873  1.00  0.00     0.014 A 
ATOM     40  C   UNL A   1      36.754  32.817  28.701  1.00  0.00     0.010 A 
ATOM     41  C   UNL A   1      35.364  30.997  29.497  1.00  0.00     0.010 A 
ATOM     42  C   UNL A   1      36.622  31.614  29.417  1.00  0.00    -0.014 A 
BRANCH  42  43
ATOM     43  C   UNL A   1      37.781  30.984  30.096  1.00  0.00     0.031 A 
ATOM     44  C   UNL A   1      38.133  31.387  31.503  1.00  0.00     0.074 A 
ATOM     45  C   UNL A   1      38.571  30.125  29.419  1.00  0.00     0.049 A 
ATOM     46  N   UNL A   1      39.144  31.009  32.238  1.00  0.00    -0.248 NA
ATOM     47  C   UNL A   1      37.252  32.370  32.156  1.00  0.00     0.031 C 
ATOM     48  C   UNL A   1      38.385  29.719  28.023  1.00  0.00     0.029 A 
ATOM     49  N   UNL A   1      39.704  29.455  29.809  1.00  0.00    -0.354 N 
ATOM     50  C   UNL A   1      39.045  31.734  33.419  1.00  0.00     0.074 A 
ATOM     51  C   UNL A   1      37.901  32.608  33.286  1.00  0.00     0.031 C 
ATOM     52  C   UNL A   1      39.357  28.857  27.681  1.00  0.00     0.029 A 
ATOM     53  C   UNL A   1      40.254  28.674  28.817  1.00  0.00     0.049 A 
ATOM     54  H   UNL A   1      40.087  29.526  30.712  1.00  0.00     0.167 HD
ATOM     55  C   UNL A   1      39.812  31.655  34.531  1.00  0.00     0.034 A 
ATOM     56  C   UNL A   1      41.357  27.900  28.824  1.00  0.00     0.034 A 
ATOM     57  C   UNL A   1      40.914  30.745  34.681  1.00  0.00     0.049 A 
ATOM     58  C   UNL A   1      42.167  27.798  30.089  1.00  0.00     0.074 A 
ATOM     59  C   UNL A   1      41.697  30.522  35.799  1.00  0.00     0.029 A 
ATOM     60  N   UNL A   1      41.390  29.909  33.684  1.00  0.00    -0.354 N 
ATOM     61  N   UNL A   1      41.967  28.378  31.247  1.00  0.00    -0.248 NA
ATOM     62  C   UNL A   1      43.337  26.907  30.058  1.00  0.00     0.031 C 
ATOM     63  C   UNL A   1      42.663  29.568  35.470  1.00  0.00     0.029 A 
ATOM     64  C   UNL A   1      42.462  29.173  34.157  1.00  0.00     0.049 A 
ATOM     65  H   UNL A   1      41.020  29.847  32.774  1.00  0.00     0.167 HD
ATOM     66  C   UNL A   1      42.958  27.893  32.094  1.00  0.00     0.074 A 
ATOM     67  C   UNL A   1      43.747  26.957  31.319  1.00  0.00     0.031 C 
ATOM     68  C   UNL A   1      43.201  28.204  33.390  1.00  0.00     0.034 A 
BRANCH  55  69
ATOM     69  C   UNL A   1      39.450  32.537  35.696  1.00  0.00     0.023 A 
ATOM     70  C   UNL A   1      38.678  32.011  36.753  1.00  0.00     0.012 A 
ATOM     71  C   UNL A   1      39.917  33.863  35.776  1.00  0.00     0.148 A 
ATOM     72  C   UNL A   1      38.349  32.800  37.854  1.00  0.00     0.002 A 
ATOM     73  C   UNL A   1      39.626  34.628  36.898  1.00  0.00     0.091 A 
ATOM     74  F   UNL A   1      40.630  34.351  34.751  1.00  0.00    -0.205 F 
ATOM     75  C   UNL A   1      38.832  34.103  37.931  1.00  0.00     0.022 A 
BRANCH  73  76
ATOM     76  S   UNL A   1      40.265  36.289  37.133  1.00  0.00     0.127 S 
ATOM     77  O   UNL A   1      41.688  36.029  37.355  1.00  0.00    -0.237 OA
ATOM     78  O   UNL A   1      39.954  36.921  35.850  1.00  0.00    -0.237 OA
ATOM     79  O   UNL A   1      39.548  36.840  38.273  1.00  0.00    -0.744 OA
ENDBRANCH  73  76
ENDBRANCH  55  69
BRANCH  56  80
ATOM     80  C   UNL A   1      41.719  27.099  27.620  1.00  0.00     0.023 A 
ATOM     81  C   UNL A   1      42.261  27.753  26.495  1.00  0.00     0.012 A 
ATOM     82  C   UNL A   1      41.549  25.702  27.585  1.00  0.00     0.148 A 
ATOM     83  C   UNL A   1      42.594  27.035  25.345  1.00  0.00     0.002 A 
ATOM     84  C   UNL A   1      41.934  24.986  26.457  1.00  0.00     0.091 A 
ATOM     85  F   UNL A   1      41.024  25.099  28.661  1.00  0.00    -0.205 F 
ATOM     86  C   UNL A   1      42.439  25.652  25.329  1.00  0.00     0.022 A 
BRANCH  84  87
ATOM     87  S   UNL A   1      41.890  23.191  26.392  1.00  0.00     0.127 S 
ATOM     88  O   UNL A   1      42.485  22.830  27.676  1.00  0.00    -0.237 OA
ATOM     89  O   UNL A   1      40.455  22.930  26.280  1.00  0.00    -0.237 OA
ATOM     90  O   UNL A   1      42.661  22.822  25.212  1.00  0.00    -0.744 OA
ENDBRANCH  84  87
ENDBRANCH  56  80
BRANCH  68  91
ATOM     91  C   UNL A   1      44.339  27.499  34.079  1.00  0.00     0.023 A 
ATOM     92  C   UNL A   1      45.625  28.075  34.081  1.00  0.00     0.012 A 
ATOM     93  C   UNL A   1      44.113  26.308  34.796  1.00  0.00     0.148 A 
ATOM     94  C   UNL A   1      46.675  27.459  34.759  1.00  0.00     0.002 A 
ATOM     95  C   UNL A   1      45.152  25.728  35.513  1.00  0.00     0.091 A 
ATOM     96  F   UNL A   1      42.886  25.768  34.768  1.00  0.00    -0.205 F 
ATOM     97  C   UNL A   1      46.436  26.294  35.486  1.00  0.00     0.022 A 
BRANCH  95  98
ATOM     98  S   UNL A   1      44.913  24.285  36.558  1.00  0.00     0.127 S 
ATOM     99  O   UNL A   1      46.275  24.024  37.019  1.00  0.00    -0.237 OA
ATOM    100  O   UNL A   1      44.007  24.796  37.587  1.00  0.00    -0.237 OA
ATOM    101  O   UNL A   1      44.337  23.258  35.700  1.00  0.00    -0.744 OA
ENDBRANCH  95  98
ENDBRANCH  68  91
ENDBRANCH  42  43
ENDBRANCH  34  37
ENDBRANCH  32  33
ENDBRANCH  31  32
ENDBRANCH   1  31
TORSDOF 20
ENDMDL
MODEL 2
REMARK VINA RESULT:     -12.0      1.980      2.331
REMARK SMILES NC(=O)CC[C@@H](C(=O)NCCCCNC(=O)c1ccc(-c2c3nc(c(-c4cccc(S(=O)(=O)[O-])c4F)c4ccc([nH]4)c(-c4cccc(S(=O)(=O)[O-])c4F)c4nc(c(-c5cccc(S(=O)(=O)[O-])c5F)c5ccc2[nH]5)C=C4)C=C3)cc1)N1C(=O)/C(=C/c2ccc(C=O)cc2)SC1=S
REMARK SMILES IDX 11 1 10 2 9 3 7 4 8 5 6 7 5 8 4 9 2 10 1 11 3 14 80 15 81 16
REMARK SMILES IDX 94 17 82 18 83 19 93 20 95 21 84 22 85 23 86 24 92 25 87 26
REMARK SMILES IDX 91 27 88 28 89 29 90 30 12 31 13 32 14 33 15 34 16 36 17 37
REMARK SMILES IDX 18 38 79 39 19 40 78 41 20 42 21 43 22 44 72 45 23 46 77 47
REMARK SMILES IDX 71 48 73 49 24 50 76 51 70 52 69 53 25 55 57 56 37 57 56 58
REMARK SMILES IDX 38 59 41 60 55 61 74 62 39 63 40 64 54 66 75 67 42 68 26 69
REMARK SMILES IDX 27 70 35 71 28 72 30 73 36 74 29 75 31 76 32 77 33 78 34 79
REMARK SMILES IDX 58 80 59 81 67 82 60 83 62 84 68 85 61 86 63 87 64 88 65 89
REMARK SMILES IDX 66 90 43 91 44 92 52 93 45 94 47 95 53 96 46 97 48 98 49 99
REMARK SMILES IDX 50 100 51 101
REMARK H PARENT 9 6 1 12 1 13 14 35 73 54 41 65
REMARK Flexibility Score: inf
ROOT
ATOM      1  C   UNL A   1      32.690  29.156  23.803  1.00  0.00     0.023 C 
ENDROOT
BRANCH   1   2
ATOM      2  C   UNL A   1      33.419  27.906  24.295  1.00  0.00     0.116 C 
BRANCH   2   3
ATOM      3  N   UNL A   1      33.787  27.058  23.185  1.00  0.00    -0.354 N 
ATOM      4  C   UNL A   1      33.301  25.853  22.782  1.00  0.00     0.243 C 
ATOM      5  O   UNL A   1      33.810  25.371  21.765  1.00  0.00    -0.273 OA
ATOM      6  H   UNL A   1      34.514  27.413  22.624  1.00  0.00     0.163 HD
BRANCH   4   7
ATOM      7  C   UNL A   1      32.103  25.168  23.504  1.00  0.00     0.181 C 
BRANCH   7   8
ATOM      8  C   UNL A   1      31.504  25.862  24.747  1.00  0.00     0.045 C 
BRANCH   8   9
ATOM      9  C   UNL A   1      30.002  25.952  24.989  1.00  0.00     0.102 C 
BRANCH   9  10
ATOM     10  C   UNL A   1      29.091  26.687  24.026  1.00  0.00     0.217 C 
ATOM     11  N   UNL A   1      27.784  26.342  23.939  1.00  0.00    -0.370 N 
ATOM     12  H   UNL A   1      27.190  26.817  23.314  1.00  0.00     0.159 HD
ATOM     13  H   UNL A   1      27.428  25.616  24.501  1.00  0.00     0.159 HD
ATOM     14  O   UNL A   1      29.532  27.523  23.239  1.00  0.00    -0.275 OA
ENDBRANCH   9  10
ENDBRANCH   8   9
ENDBRANCH   7   8
BRANCH   7  15
ATOM     15  N   UNL A   1      32.611  23.809  23.869  1.00  0.00    -0.280 N 
ATOM     16  C   UNL A   1      31.922  22.684  23.435  1.00  0.00     0.266 C 
ATOM     17  C   UNL A   1      33.650  23.571  24.746  1.00  0.00     0.149 C 
ATOM     18  O   UNL A   1      30.939  22.658  22.702  1.00  0.00    -0.268 OA
ATOM     19  C   UNL A   1      32.558  21.447  23.945  1.00  0.00     0.081 C 
ATOM     20  S   UNL A   1      33.870  21.837  24.973  1.00  0.00    -0.054 SA
ATOM     21  S   UNL A   1      34.641  24.687  25.496  1.00  0.00    -0.052 S 
ATOM     22  C   UNL A   1      32.117  20.243  23.557  1.00  0.00     0.029 C 
BRANCH  22  23
ATOM     23  C   UNL A   1      32.658  18.946  23.964  1.00  0.00    -0.024 A 
ATOM     24  C   UNL A   1      33.277  18.128  23.010  1.00  0.00     0.009 A 
ATOM     25  C   UNL A   1      32.522  18.491  25.281  1.00  0.00     0.009 A 
ATOM     26  C   UNL A   1      33.779  16.877  23.376  1.00  0.00     0.012 A 
ATOM     27  C   UNL A   1      33.023  17.242  25.652  1.00  0.00     0.012 A 
ATOM     28  C   UNL A   1      33.654  16.441  24.697  1.00  0.00     0.014 A 
BRANCH  28  29
ATOM     29  C   UNL A   1      34.186  15.125  25.100  1.00  0.00     0.260 C 
ATOM     30  O   UNL A   1      35.381  14.928  25.278  1.00  0.00    -0.298 OA
ENDBRANCH  28  29
ENDBRANCH  22  23
ENDBRANCH   7  15
ENDBRANCH   4   7
ENDBRANCH   2   3
ENDBRANCH   1   2
BRANCH   1  31
ATOM     31  C   UNL A   1      31.740  29.771  24.821  1.00  0.00     0.023 C 
BRANCH  31  32
ATOM     32  C   UNL A   1      32.393  30.098  26.157  1.00  0.00     0.116 C 
BRANCH  32  33
ATOM     33  N   UNL A   1      32.184  31.476  26.595  1.00  0.00    -0.352 N 
ATOM     34  C   UNL A   1      33.025  32.252  27.359  1.00  0.00     0.251 C 
ATOM     35  H   UNL A   1      31.342  31.898  26.310  1.00  0.00     0.163 HD
ATOM     36  O   UNL A   1      32.689  33.372  27.725  1.00  0.00    -0.269 OA
BRANCH  34  37
ATOM     37  C   UNL A   1      34.323  31.681  27.764  1.00  0.00     0.039 A 
ATOM     38  C   UNL A   1      35.412  32.533  27.946  1.00  0.00     0.014 A 
ATOM     39  C   UNL A   1      34.412  30.325  28.091  1.00  0.00     0.014 A 
ATOM     40  C   UNL A   1      36.574  32.037  28.537  1.00  0.00     0.010 A 
ATOM     41  C   UNL A   1      35.530  29.862  28.770  1.00  0.00     0.010 A 
ATOM     42  C   UNL A   1      36.624  30.710  28.999  1.00  0.00    -0.014 A 
BRANCH  42  43
ATOM     43  C   UNL A   1      37.805  30.186  29.730  1.00  0.00     0.031 A 
ATOM     44  C   UNL A   1      38.074  30.641  31.139  1.00  0.00     0.074 A 
ATOM     45  C   UNL A   1      38.683  29.381  29.098  1.00  0.00     0.049 A 
ATOM     46  N   UNL A   1      39.084  30.358  31.916  1.00  0.00    -0.248 NA
ATOM     47  C   UNL A   1      37.095  31.563  31.742  1.00  0.00     0.031 C 
ATOM     48  C   UNL A   1      38.579  28.937  27.705  1.00  0.00     0.029 A 
ATOM     49  N   UNL A   1      39.850  28.810  29.539  1.00  0.00    -0.354 N 
ATOM     50  C   UNL A   1      38.887  31.094  33.078  1.00  0.00     0.074 A 
ATOM     51  C   UNL A   1      37.683  31.872  32.888  1.00  0.00     0.031 C 
ATOM     52  C   UNL A   1      39.628  28.149  27.414  1.00  0.00     0.029 A 
ATOM     53  C   UNL A   1      40.495  28.058  28.583  1.00  0.00     0.049 A 
ATOM     54  H   UNL A   1      40.195  28.928  30.454  1.00  0.00     0.167 HD
ATOM     55  C   UNL A   1      39.618  31.096  34.216  1.00  0.00     0.034 A 
ATOM     56  C   UNL A   1      41.655  27.374  28.644  1.00  0.00     0.034 A 
ATOM     57  C   UNL A   1      40.782  30.279  34.422  1.00  0.00     0.049 A 
ATOM     58  C   UNL A   1      42.425  27.360  29.937  1.00  0.00     0.074 A 
ATOM     59  C   UNL A   1      41.541  30.139  35.571  1.00  0.00     0.029 A 
ATOM     60  N   UNL A   1      41.358  29.466  33.459  1.00  0.00    -0.354 N 
ATOM     61  N   UNL A   1      42.139  27.942  31.076  1.00  0.00    -0.248 NA
ATOM     62  C   UNL A   1      43.662  26.564  29.964  1.00  0.00     0.031 C 
ATOM     63  C   UNL A   1      42.589  29.259  35.294  1.00  0.00     0.029 A 
ATOM     64  C   UNL A   1      42.467  28.826  33.984  1.00  0.00     0.049 A 
ATOM     65  H   UNL A   1      41.026  29.359  32.539  1.00  0.00     0.167 HD
ATOM     66  C   UNL A   1      43.134  27.553  31.965  1.00  0.00     0.074 A 
ATOM     67  C   UNL A   1      44.021  26.669  31.237  1.00  0.00     0.031 C 
ATOM     68  C   UNL A   1      43.306  27.906  33.262  1.00  0.00     0.034 A 
BRANCH  55  69
ATOM     69  C   UNL A   1      39.146  31.967  35.351  1.00  0.00     0.023 A 
ATOM     70  C   UNL A   1      39.347  33.361  35.287  1.00  0.00     0.012 A 
ATOM     71  C   UNL A   1      38.457  31.417  36.448  1.00  0.00     0.148 A 
ATOM     72  C   UNL A   1      38.898  34.191  36.313  1.00  0.00     0.002 A 
ATOM     73  C   UNL A   1      37.970  32.255  37.444  1.00  0.00     0.091 A 
ATOM     74  F   UNL A   1      38.296  30.087  36.501  1.00  0.00    -0.205 F 
ATOM     75  C   UNL A   1      38.201  33.640  37.384  1.00  0.00     0.022 A 
BRANCH  73  76
ATOM     76  S   UNL A   1      36.991  31.657  38.825  1.00  0.00     0.127 S 
ATOM     77  O   UNL A   1      36.758  30.265  38.439  1.00  0.00    -0.237 OA
ATOM     78  O   UNL A   1      37.911  31.832  39.950  1.00  0.00    -0.237 OA
ATOM     79  O   UNL A   1      35.805  32.497  38.872  1.00  0.00    -0.744 OA
ENDBRANCH  73  76
ENDBRANCH  55  69
BRANCH  56  80
ATOM     80  C   UNL A   1      42.121  26.583  27.469  1.00  0.00     0.023 A 
ATOM     81  C   UNL A   1      42.828  27.233  26.437  1.00  0.00     0.012 A 
ATOM     82  C   UNL A   1      41.888  25.198  27.373  1.00  0.00     0.148 A 
ATOM     83  C   UNL A   1      43.263  26.526  25.316  1.00  0.00     0.002 A 
ATOM     84  C   UNL A   1      42.372  24.489  26.279  1.00  0.00     0.091 A 
ATOM     85  F   UNL A   1      41.206  24.600  28.359  1.00  0.00    -0.205 F 
ATOM     86  C   UNL A   1      43.043  25.154  25.240  1.00  0.00     0.022 A 
BRANCH  84  87
ATOM     87  S   UNL A   1      42.247  22.701  26.157  1.00  0.00     0.127 S 
ATOM     88  O   UNL A   1      42.952  22.268  27.361  1.00  0.00    -0.237 OA
ATOM     89  O   UNL A   1      40.799  22.498  26.182  1.00  0.00    -0.237 OA
ATOM     90  O   UNL A   1      42.880  22.349  24.892  1.00  0.00    -0.744 OA
ENDBRANCH  84  87
ENDBRANCH  56  80
BRANCH  68  91
ATOM     91  C   UNL A   1      44.472  27.306  34.003  1.00  0.00     0.023 A 
ATOM     92  C   UNL A   1      45.720  27.959  34.000  1.00  0.00     0.012 A 
ATOM     93  C   UNL A   1      44.304  26.137  34.773  1.00  0.00     0.148 A 
ATOM     94  C   UNL A   1      46.791  27.443  34.725  1.00  0.00     0.002 A 
ATOM     95  C   UNL A   1      45.362  25.657  35.534  1.00  0.00     0.091 A 
ATOM     96  F   UNL A   1      43.114  25.521  34.749  1.00  0.00    -0.205 F 
ATOM     97  C   UNL A   1      46.609  26.300  35.502  1.00  0.00     0.022 A 
BRANCH  95  98
ATOM     98  S   UNL A   1      45.191  24.253  36.643  1.00  0.00     0.127 S 
ATOM     99  O   UNL A   1      44.546  23.268  35.776  1.00  0.00    -0.237 OA
ATOM    100  O   UNL A   1      46.583  23.952  36.978  1.00  0.00    -0.237 OA
ATOM    101  O   UNL A   1      44.386  24.720  37.763  1.00  0.00    -0.744 OA
ENDBRANCH  95  98
ENDBRANCH  68  91
ENDBRANCH  42  43
ENDBRANCH  34  37
ENDBRANCH  32  33
ENDBRANCH  31  32
ENDBRANCH   1  31
TORSDOF 20
ENDMDL
MODEL 3
REMARK VINA RESULT:     -11.8      4.550      9.326
REMARK SMILES NC(=O)CC[C@@H](C(=O)NCCCCNC(=O)c1ccc(-c2c3nc(c(-c4cccc(S(=O)(=O)[O-])c4F)c4ccc([nH]4)c(-c4cccc(S(=O)(=O)[O-])c4F)c4nc(c(-c5cccc(S(=O)(=O)[O-])c5F)c5ccc2[nH]5)C=C4)C=C3)cc1)N1C(=O)/C(=C/c2ccc(C=O)cc2)SC1=S
REMARK SMILES IDX 11 1 10 2 9 3 7 4 8 5 6 7 5 8 4 9 2 10 1 11 3 14 80 15 81 16
REMARK SMILES IDX 94 17 82 18 83 19 93 20 95 21 84 22 85 23 86 24 92 25 87 26
REMARK SMILES IDX 91 27 88 28 89 29 90 30 12 31 13 32 14 33 15 34 16 36 17 37
REMARK SMILES IDX 18 38 79 39 19 40 78 41 20 42 21 43 22 44 72 45 23 46 77 47
REMARK SMILES IDX 71 48 73 49 24 50 76 51 70 52 69 53 25 55 57 56 37 57 56 58
REMARK SMILES IDX 38 59 41 60 55 61 74 62 39 63 40 64 54 66 75 67 42 68 26 69
REMARK SMILES IDX 27 70 35 71 28 72 30 73 36 74 29 75 31 76 32 77 33 78 34 79
REMARK SMILES IDX 58 80 59 81 67 82 60 83 62 84 68 85 61 86 63 87 64 88 65 89
REMARK SMILES IDX 66 90 43 91 44 92 52 93 45 94 47 95 53 96 46 97 48 98 49 99
REMARK SMILES IDX 50 100 51 101
REMARK H PARENT 9 6 1 12 1 13 14 35 73 54 41 65
REMARK Flexibility Score: inf
ROOT
ATOM      1  C   UNL A   1      35.332  23.413  26.186  1.00  0.00     0.023 C 
ENDROOT
BRANCH   1   2
ATOM      2  C   UNL A   1      35.274  24.447  25.061  1.00  0.00     0.116 C 
BRANCH   2   3
ATOM      3  N   UNL A   1      34.392  25.535  25.412  1.00  0.00    -0.354 N 
ATOM      4  C   UNL A   1      33.222  25.952  24.856  1.00  0.00     0.243 C 
ATOM      5  O   UNL A   1      32.674  26.919  25.397  1.00  0.00    -0.273 OA
ATOM      6  H   UNL A   1      34.688  26.067  26.186  1.00  0.00     0.163 HD
BRANCH   4   7
ATOM      7  C   UNL A   1      32.561  25.192  23.668  1.00  0.00     0.181 C 
BRANCH   7   8
ATOM      8  C   UNL A   1      31.203  25.700  23.140  1.00  0.00     0.045 C 
BRANCH   8   9
ATOM      9  C   UNL A   1      31.089  26.869  22.167  1.00  0.00     0.102 C 
BRANCH   9  10
ATOM     10  C   UNL A   1      30.623  28.236  22.629  1.00  0.00     0.217 C 
ATOM     11  N   UNL A   1      30.518  28.500  23.953  1.00  0.00    -0.370 N 
ATOM     12  H   UNL A   1      30.216  29.385  24.256  1.00  0.00     0.159 HD
ATOM     13  H   UNL A   1      30.745  27.805  24.613  1.00  0.00     0.159 HD
ATOM     14  O   UNL A   1      30.233  29.083  21.828  1.00  0.00    -0.275 OA
ENDBRANCH   9  10
ENDBRANCH   8   9
ENDBRANCH   7   8
BRANCH   7  15
ATOM     15  N   UNL A   1      32.431  23.782  24.151  1.00  0.00    -0.280 N 
ATOM     16  C   UNL A   1      33.005  22.753  23.415  1.00  0.00     0.266 C 
ATOM     17  C   UNL A   1      31.643  23.389  25.214  1.00  0.00     0.149 C 
ATOM     18  O   UNL A   1      33.692  22.863  22.407  1.00  0.00    -0.268 OA
ATOM     19  C   UNL A   1      32.716  21.438  24.035  1.00  0.00     0.081 C 
ATOM     20  S   UNL A   1      31.694  21.636  25.394  1.00  0.00    -0.054 SA
ATOM     21  S   UNL A   1      30.771  24.353  26.263  1.00  0.00    -0.052 S 
ATOM     22  C   UNL A   1      33.266  20.319  23.546  1.00  0.00     0.029 C 
BRANCH  22  23
ATOM     23  C   UNL A   1      33.086  18.963  24.065  1.00  0.00    -0.024 A 
ATOM     24  C   UNL A   1      32.763  18.780  25.415  1.00  0.00     0.009 A 
ATOM     25  C   UNL A   1      33.279  17.847  23.242  1.00  0.00     0.009 A 
ATOM     26  C   UNL A   1      32.609  17.491  25.933  1.00  0.00     0.012 A 
ATOM     27  C   UNL A   1      33.125  16.557  23.754  1.00  0.00     0.012 A 
ATOM     28  C   UNL A   1      32.786  16.385  25.099  1.00  0.00     0.014 A 
BRANCH  28  29
ATOM     29  C   UNL A   1      32.620  15.018  25.629  1.00  0.00     0.260 C 
ATOM     30  O   UNL A   1      33.454  14.139  25.447  1.00  0.00    -0.298 OA
ENDBRANCH  28  29
ENDBRANCH  22  23
ENDBRANCH   7  15
ENDBRANCH   4   7
ENDBRANCH   2   3
ENDBRANCH   1   2
BRANCH   1  31
ATOM     31  C   UNL A   1      35.827  22.040  25.753  1.00  0.00     0.023 C 
BRANCH  31  32
ATOM     32  C   UNL A   1      37.120  22.074  24.951  1.00  0.00     0.116 C 
BRANCH  32  33
ATOM     33  N   UNL A   1      38.044  20.991  25.276  1.00  0.00    -0.352 N 
ATOM     34  C   UNL A   1      39.207  21.068  26.009  1.00  0.00     0.251 C 
ATOM     35  H   UNL A   1      37.808  20.101  24.928  1.00  0.00     0.163 HD
ATOM     36  O   UNL A   1      39.937  20.092  26.138  1.00  0.00    -0.269 OA
BRANCH  34  37
ATOM     37  C   UNL A   1      39.574  22.370  26.596  1.00  0.00     0.039 A 
ATOM     38  C   UNL A   1      40.556  22.415  27.586  1.00  0.00     0.014 A 
ATOM     39  C   UNL A   1      39.039  23.546  26.064  1.00  0.00     0.014 A 
ATOM     40  C   UNL A   1      41.063  23.651  27.986  1.00  0.00     0.010 A 
ATOM     41  C   UNL A   1      39.616  24.764  26.392  1.00  0.00     0.010 A 
ATOM     42  C   UNL A   1      40.632  24.832  27.357  1.00  0.00    -0.014 A 
BRANCH  42  43
ATOM     43  C   UNL A   1      41.232  26.150  27.684  1.00  0.00     0.031 A 
ATOM     44  C   UNL A   1      42.647  26.451  27.267  1.00  0.00     0.074 A 
ATOM     45  C   UNL A   1      40.544  27.033  28.435  1.00  0.00     0.049 A 
ATOM     46  N   UNL A   1      43.371  27.509  27.519  1.00  0.00    -0.248 NA
ATOM     47  C   UNL A   1      43.351  25.414  26.494  1.00  0.00     0.031 C 
ATOM     48  C   UNL A   1      39.197  26.824  28.974  1.00  0.00     0.029 A 
ATOM     49  N   UNL A   1      40.892  28.278  28.896  1.00  0.00    -0.354 N 
ATOM     50  C   UNL A   1      44.622  27.249  26.975  1.00  0.00     0.074 A 
ATOM     51  C   UNL A   1      44.574  25.916  26.417  1.00  0.00     0.031 C 
ATOM     52  C   UNL A   1      38.827  27.910  29.673  1.00  0.00     0.029 A 
ATOM     53  C   UNL A   1      39.919  28.877  29.665  1.00  0.00     0.049 A 
ATOM     54  H   UNL A   1      41.757  28.703  28.696  1.00  0.00     0.167 HD
ATOM     55  C   UNL A   1      45.704  28.058  26.910  1.00  0.00     0.034 A 
ATOM     56  C   UNL A   1      39.910  30.070  30.291  1.00  0.00     0.034 A 
ATOM     57  C   UNL A   1      45.731  29.403  27.415  1.00  0.00     0.049 A 
ATOM     58  C   UNL A   1      41.112  30.968  30.165  1.00  0.00     0.074 A 
ATOM     59  C   UNL A   1      46.746  30.337  27.318  1.00  0.00     0.029 A 
ATOM     60  N   UNL A   1      44.696  30.005  28.114  1.00  0.00    -0.354 N 
ATOM     61  N   UNL A   1      42.231  30.763  29.514  1.00  0.00    -0.248 NA
ATOM     62  C   UNL A   1      41.036  32.277  30.831  1.00  0.00     0.031 C 
ATOM     63  C   UNL A   1      46.334  31.497  27.979  1.00  0.00     0.029 A 
ATOM     64  C   UNL A   1      45.051  31.297  28.461  1.00  0.00     0.049 A 
ATOM     65  H   UNL A   1      43.837  29.578  28.330  1.00  0.00     0.167 HD
ATOM     66  C   UNL A   1      42.975  31.930  29.657  1.00  0.00     0.074 A 
ATOM     67  C   UNL A   1      42.170  32.844  30.442  1.00  0.00     0.031 C 
ATOM     68  C   UNL A   1      44.216  32.213  29.193  1.00  0.00     0.034 A 
BRANCH  55  69
ATOM     69  C   UNL A   1      46.933  27.532  26.215  1.00  0.00     0.023 A 
ATOM     70  C   UNL A   1      47.143  27.830  24.853  1.00  0.00     0.012 A 
ATOM     71  C   UNL A   1      47.903  26.794  26.920  1.00  0.00     0.148 A 
ATOM     72  C   UNL A   1      48.283  27.374  24.194  1.00  0.00     0.002 A 
ATOM     73  C   UNL A   1      49.060  26.383  26.269  1.00  0.00     0.091 A 
ATOM     74  F   UNL A   1      47.674  26.502  28.208  1.00  0.00    -0.205 F 
ATOM     75  C   UNL A   1      49.246  26.661  24.904  1.00  0.00     0.022 A 
BRANCH  73  76
ATOM     76  S   UNL A   1      50.397  25.530  27.110  1.00  0.00     0.127 S 
ATOM     77  O   UNL A   1      51.356  25.339  26.023  1.00  0.00    -0.237 OA
ATOM     78  O   UNL A   1      50.803  26.514  28.115  1.00  0.00    -0.237 OA
ATOM     79  O   UNL A   1      49.819  24.310  27.652  1.00  0.00    -0.744 OA
ENDBRANCH  73  76
ENDBRANCH  55  69
BRANCH  56  80
ATOM     80  C   UNL A   1      38.696  30.520  31.030  1.00  0.00     0.023 A 
ATOM     81  C   UNL A   1      38.600  30.273  32.414  1.00  0.00     0.012 A 
ATOM     82  C   UNL A   1      37.649  31.203  30.382  1.00  0.00     0.148 A 
ATOM     83  C   UNL A   1      37.470  30.665  33.132  1.00  0.00     0.002 A 
ATOM     84  C   UNL A   1      36.550  31.640  31.114  1.00  0.00     0.091 A 
ATOM     85  F   UNL A   1      37.754  31.421  29.064  1.00  0.00    -0.205 F 
ATOM     86  C   UNL A   1      36.450  31.355  32.485  1.00  0.00     0.022 A 
BRANCH  84  87
ATOM     87  S   UNL A   1      35.248  32.645  30.392  1.00  0.00     0.127 S 
ATOM     88  O   UNL A   1      34.834  31.828  29.254  1.00  0.00    -0.237 OA
ATOM     89  O   UNL A   1      34.280  32.715  31.487  1.00  0.00    -0.237 OA
ATOM     90  O   UNL A   1      35.873  33.919  30.062  1.00  0.00    -0.744 OA
ENDBRANCH  84  87
ENDBRANCH  56  80
BRANCH  68  91
ATOM     91  C   UNL A   1      44.775  33.582  29.478  1.00  0.00     0.023 A 
ATOM     92  C   UNL A   1      44.532  34.642  28.583  1.00  0.00     0.012 A 
ATOM     93  C   UNL A   1      45.470  33.835  30.678  1.00  0.00     0.148 A 
ATOM     94  C   UNL A   1      44.998  35.925  28.861  1.00  0.00     0.002 A 
ATOM     95  C   UNL A   1      45.886  35.127  30.973  1.00  0.00     0.091 A 
ATOM     96  F   UNL A   1      45.706  32.809  31.508  1.00  0.00    -0.205 F 
ATOM     97  C   UNL A   1      45.662  36.171  30.061  1.00  0.00     0.022 A 
BRANCH  95  98
ATOM     98  S   UNL A   1      46.658  35.555  32.538  1.00  0.00     0.127 S 
ATOM     99  O   UNL A   1      46.785  37.007  32.419  1.00  0.00    -0.237 OA
ATOM    100  O   UNL A   1      45.659  35.108  33.509  1.00  0.00    -0.237 OA
ATOM    101  O   UNL A   1      47.916  34.821  32.581  1.00  0.00    -0.744 OA
ENDBRANCH  95  98
ENDBRANCH  68  91
ENDBRANCH  42  43
ENDBRANCH  34  37
ENDBRANCH  32  33
ENDBRANCH  31  32
ENDBRANCH   1  31
TORSDOF 20
ENDMDL
