MODEL 1
REMARK VINA RESULT:     -13.0      0.000      0.000
REMARK SMILES C[C@H]1OCC[C@@H]1C(=O)Nc1ccc(Cl)c(C(=O)NCCCCNC(=O)c2ccc(-c3c4nc(c(-c5cccc(S(=O)(=O)[O-])c5F)c5ccc([nH]5)c(-c5cccc(S(=O)(=O)[O-])c5F)c5nc(c(-c6cccc(S(=O)(=O)[O-])c6F)c6ccc3[nH]6)C=C5)C=C4)cc2)c1
REMARK SMILES IDX 21 1 20 2 19 3 18 4 16 5 17 6 15 8 10 9 11 10 89 11 12 12
REMARK SMILES IDX 13 13 14 14 9 15 7 16 8 17 6 19 1 20 2 21 3 22 4 23 5 24
REMARK SMILES IDX 22 25 23 26 24 27 25 29 26 30 27 31 88 32 28 33 87 34 29 35
REMARK SMILES IDX 30 36 31 37 81 38 32 39 86 40 80 41 82 42 33 43 85 44 79 45
REMARK SMILES IDX 78 46 34 48 66 49 46 50 65 51 47 52 50 53 64 54 83 55 48 56
REMARK SMILES IDX 49 57 63 59 84 60 51 61 35 62 36 63 44 64 37 65 39 66 45 67
REMARK SMILES IDX 38 68 40 69 41 70 42 71 43 72 67 73 68 74 76 75 69 76 71 77
REMARK SMILES IDX 77 78 70 79 72 80 73 81 74 82 75 83 52 84 53 85 61 86 54 87
REMARK SMILES IDX 56 88 62 89 55 90 57 91 58 92 59 93 60 94
REMARK H PARENT 18 7 9 18 23 28 82 47 50 58
REMARK Flexibility Score: inf
ROOT
ATOM      1  C   UNL A   1      35.864  21.041  25.075  1.00  0.00     0.023 C 
ENDROOT
BRANCH   1   2
ATOM      2  C   UNL A   1      35.077  21.567  26.269  1.00  0.00     0.023 C 
BRANCH   2   3
ATOM      3  C   UNL A   1      33.635  21.107  26.386  1.00  0.00     0.116 C 
BRANCH   3   4
ATOM      4  N   UNL A   1      32.732  21.980  27.115  1.00  0.00    -0.352 N 
ATOM      5  C   UNL A   1      32.202  23.197  26.737  1.00  0.00     0.252 C 
ATOM      6  O   UNL A   1      31.376  23.750  27.462  1.00  0.00    -0.269 OA
ATOM      7  H   UNL A   1      32.459  21.657  28.004  1.00  0.00     0.163 HD
BRANCH   5   8
ATOM      8  C   UNL A   1      32.702  23.924  25.544  1.00  0.00     0.060 A 
ATOM      9  C   UNL A   1      33.672  25.961  24.672  1.00  0.00     0.042 A 
ATOM     10  C   UNL A   1      34.028  25.286  23.515  1.00  0.00     0.028 A 
ATOM     11  C   UNL A   1      33.150  25.244  25.747  1.00  0.00     0.041 A 
ATOM     12  C   UNL A   1      33.522  24.014  23.281  1.00  0.00     0.023 A 
ATOM     13  C   UNL A   1      32.729  23.404  24.247  1.00  0.00     0.053 A 
ATOM     14  Cl  UNL A   1      31.689  22.141  23.693  1.00  0.00    -0.083 Cl
BRANCH   9  15
ATOM     15  N   UNL A   1      33.794  27.350  24.750  1.00  0.00    -0.326 N 
ATOM     16  C   UNL A   1      32.865  28.308  24.434  1.00  0.00     0.230 C 
ATOM     17  O   UNL A   1      33.255  29.484  24.401  1.00  0.00    -0.274 OA
ATOM     18  H   UNL A   1      34.661  27.686  25.075  1.00  0.00     0.169 HD
BRANCH  16  19
ATOM     19  C   UNL A   1      31.362  28.029  24.221  1.00  0.00     0.110 C 
ATOM     20  C   UNL A   1      30.151  25.913  23.490  1.00  0.00     0.039 C 
ATOM     21  C   UNL A   1      31.035  27.085  23.066  1.00  0.00     0.127 C 
ATOM     22  O   UNL A   1      30.300  27.853  22.102  1.00  0.00    -0.378 OA
ATOM     23  C   UNL A   1      29.652  28.928  22.780  1.00  0.00     0.161 C 
ATOM     24  C   UNL A   1      30.454  29.228  24.032  1.00  0.00     0.044 C 
ENDBRANCH  16  19
ENDBRANCH   9  15
ENDBRANCH   5   8
ENDBRANCH   3   4
ENDBRANCH   2   3
ENDBRANCH   1   2
BRANCH   1  25
ATOM     25  C   UNL A   1      37.316  21.493  24.949  1.00  0.00     0.116 C 
BRANCH  25  26
ATOM     26  N   UNL A   1      38.300  20.471  25.291  1.00  0.00    -0.352 N 
ATOM     27  C   UNL A   1      39.437  20.558  26.062  1.00  0.00     0.251 C 
ATOM     28  H   UNL A   1      38.123  19.581  24.910  1.00  0.00     0.163 HD
ATOM     29  O   UNL A   1      40.168  19.578  26.193  1.00  0.00    -0.269 OA
BRANCH  27  30
ATOM     30  C   UNL A   1      39.811  21.844  26.688  1.00  0.00     0.039 A 
ATOM     31  C   UNL A   1      40.800  21.851  27.674  1.00  0.00     0.014 A 
ATOM     32  C   UNL A   1      39.239  23.044  26.260  1.00  0.00     0.014 A 
ATOM     33  C   UNL A   1      41.308  23.068  28.136  1.00  0.00     0.010 A 
ATOM     34  C   UNL A   1      39.802  24.252  26.657  1.00  0.00     0.010 A 
ATOM     35  C   UNL A   1      40.861  24.277  27.580  1.00  0.00    -0.014 A 
BRANCH  35  36
ATOM     36  C   UNL A   1      41.530  25.570  27.882  1.00  0.00     0.031 A 
ATOM     37  C   UNL A   1      40.788  26.665  28.597  1.00  0.00     0.074 A 
ATOM     38  C   UNL A   1      42.765  25.806  27.390  1.00  0.00     0.049 A 
ATOM     39  N   UNL A   1      41.166  27.892  28.842  1.00  0.00    -0.248 NA
ATOM     40  C   UNL A   1      39.430  26.349  29.072  1.00  0.00     0.031 C 
ATOM     41  C   UNL A   1      43.557  24.858  26.602  1.00  0.00     0.029 A 
ATOM     42  N   UNL A   1      43.556  26.926  27.448  1.00  0.00    -0.354 N 
ATOM     43  C   UNL A   1      40.084  28.507  29.459  1.00  0.00     0.074 A 
ATOM     44  C   UNL A   1      39.023  27.526  29.527  1.00  0.00     0.031 C 
ATOM     45  C   UNL A   1      44.715  25.436  26.249  1.00  0.00     0.029 A 
ATOM     46  C   UNL A   1      44.739  26.805  26.755  1.00  0.00     0.049 A 
ATOM     47  H   UNL A   1      43.301  27.740  27.939  1.00  0.00     0.167 HD
ATOM     48  C   UNL A   1      39.991  29.765  29.952  1.00  0.00     0.034 A 
ATOM     49  C   UNL A   1      45.726  27.697  26.537  1.00  0.00     0.034 A 
ATOM     50  C   UNL A   1      41.066  30.721  29.934  1.00  0.00     0.049 A 
ATOM     51  C   UNL A   1      45.615  29.073  27.134  1.00  0.00     0.074 A 
ATOM     52  C   UNL A   1      41.106  31.979  30.509  1.00  0.00     0.029 A 
ATOM     53  N   UNL A   1      42.286  30.528  29.307  1.00  0.00    -0.354 N 
ATOM     54  N   UNL A   1      44.653  29.576  27.868  1.00  0.00    -0.248 NA
ATOM     55  C   UNL A   1      46.736  29.995  26.897  1.00  0.00     0.031 C 
ATOM     56  C   UNL A   1      42.347  32.553  30.216  1.00  0.00     0.029 A 
ATOM     57  C   UNL A   1      43.083  31.648  29.468  1.00  0.00     0.049 A 
ATOM     58  H   UNL A   1      42.548  29.714  28.819  1.00  0.00     0.167 HD
ATOM     59  C   UNL A   1      45.063  30.861  28.204  1.00  0.00     0.074 A 
ATOM     60  C   UNL A   1      46.372  31.051  27.613  1.00  0.00     0.031 C 
ATOM     61  C   UNL A   1      44.406  31.806  28.921  1.00  0.00     0.034 A 
BRANCH  48  62
ATOM     62  C   UNL A   1      38.700  30.161  30.618  1.00  0.00     0.023 A 
ATOM     63  C   UNL A   1      38.490  29.822  31.970  1.00  0.00     0.012 A 
ATOM     64  C   UNL A   1      37.726  30.913  29.934  1.00  0.00     0.148 A 
ATOM     65  C   UNL A   1      37.318  30.198  32.624  1.00  0.00     0.002 A 
ATOM     66  C   UNL A   1      36.577  31.319  30.603  1.00  0.00     0.091 A 
ATOM     67  F   UNL A   1      37.933  31.205  28.641  1.00  0.00    -0.205 F 
ATOM     68  C   UNL A   1      36.367  30.954  31.944  1.00  0.00     0.022 A 
BRANCH  66  69
ATOM     69  S   UNL A   1      35.328  32.359  29.837  1.00  0.00     0.127 S 
ATOM     70  O   UNL A   1      36.124  33.509  29.409  1.00  0.00    -0.237 OA
ATOM     71  O   UNL A   1      34.847  31.511  28.746  1.00  0.00    -0.237 OA
ATOM     72  O   UNL A   1      34.342  32.628  30.873  1.00  0.00    -0.744 OA
ENDBRANCH  66  69
ENDBRANCH  48  62
BRANCH  49  73
ATOM     73  C   UNL A   1      46.940  27.289  25.773  1.00  0.00     0.023 A 
ATOM     74  C   UNL A   1      47.889  26.452  26.390  1.00  0.00     0.012 A 
ATOM     75  C   UNL A   1      47.141  27.689  24.438  1.00  0.00     0.148 A 
ATOM     76  C   UNL A   1      49.031  26.042  25.701  1.00  0.00     0.002 A 
ATOM     77  C   UNL A   1      48.254  27.232  23.739  1.00  0.00     0.091 A 
ATOM     78  F   UNL A   1      46.235  28.498  23.871  1.00  0.00    -0.205 F 
ATOM     79  C   UNL A   1      49.208  26.421  24.373  1.00  0.00     0.022 A 
BRANCH  77  80
ATOM     80  S   UNL A   1      48.489  27.563  21.988  1.00  0.00     0.127 S 
ATOM     81  O   UNL A   1      49.570  28.543  22.011  1.00  0.00    -0.237 OA
ATOM     82  O   UNL A   1      48.864  26.243  21.476  1.00  0.00    -0.237 OA
ATOM     83  O   UNL A   1      47.201  28.043  21.507  1.00  0.00    -0.744 OA
ENDBRANCH  77  80
ENDBRANCH  49  73
BRANCH  61  84
ATOM     84  C   UNL A   1      45.091  33.131  29.128  1.00  0.00     0.023 A 
ATOM     85  C   UNL A   1      45.952  33.300  30.230  1.00  0.00     0.012 A 
ATOM     86  C   UNL A   1      44.954  34.171  28.189  1.00  0.00     0.148 A 
ATOM     87  C   UNL A   1      46.650  34.493  30.406  1.00  0.00     0.002 A 
ATOM     88  C   UNL A   1      45.686  35.342  28.347  1.00  0.00     0.091 A 
ATOM     89  F   UNL A   1      44.115  33.996  27.157  1.00  0.00    -0.205 F 
ATOM     90  C   UNL A   1      46.527  35.508  29.460  1.00  0.00     0.022 A 
BRANCH  88  91
ATOM     91  S   UNL A   1      45.662  36.666  27.134  1.00  0.00     0.127 S 
ATOM     92  O   UNL A   1      46.520  37.667  27.765  1.00  0.00    -0.237 OA
ATOM     93  O   UNL A   1      46.243  36.020  25.956  1.00  0.00    -0.237 OA
ATOM     94  O   UNL A   1      44.263  37.047  26.985  1.00  0.00    -0.744 OA
ENDBRANCH  88  91
ENDBRANCH  61  84
ENDBRANCH  35  36
ENDBRANCH  27  30
ENDBRANCH  25  26
ENDBRANCH   1  25
TORSDOF 16
ENDMDL
MODEL 2
REMARK VINA RESULT:     -12.7      1.792      2.617
REMARK SMILES C[C@H]1OCC[C@@H]1C(=O)Nc1ccc(Cl)c(C(=O)NCCCCNC(=O)c2ccc(-c3c4nc(c(-c5cccc(S(=O)(=O)[O-])c5F)c5ccc([nH]5)c(-c5cccc(S(=O)(=O)[O-])c5F)c5nc(c(-c6cccc(S(=O)(=O)[O-])c6F)c6ccc3[nH]6)C=C5)C=C4)cc2)c1
REMARK SMILES IDX 21 1 20 2 19 3 18 4 16 5 17 6 15 8 10 9 11 10 89 11 12 12
REMARK SMILES IDX 13 13 14 14 9 15 7 16 8 17 6 19 1 20 2 21 3 22 4 23 5 24
REMARK SMILES IDX 22 25 23 26 24 27 25 29 26 30 27 31 88 32 28 33 87 34 29 35
REMARK SMILES IDX 30 36 31 37 81 38 32 39 86 40 80 41 82 42 33 43 85 44 79 45
REMARK SMILES IDX 78 46 34 48 66 49 46 50 65 51 47 52 50 53 64 54 83 55 48 56
REMARK SMILES IDX 49 57 63 59 84 60 51 61 35 62 36 63 44 64 37 65 39 66 45 67
REMARK SMILES IDX 38 68 40 69 41 70 42 71 43 72 67 73 68 74 76 75 69 76 71 77
REMARK SMILES IDX 77 78 70 79 72 80 73 81 74 82 75 83 52 84 53 85 61 86 54 87
REMARK SMILES IDX 56 88 62 89 55 90 57 91 58 92 59 93 60 94
REMARK H PARENT 18 7 9 18 23 28 82 47 50 58
REMARK Flexibility Score: inf
ROOT
ATOM      1  C   UNL A   1      35.915  22.669  24.366  1.00  0.00     0.023 C 
ENDROOT
BRANCH   1   2
ATOM      2  C   UNL A   1      35.407  24.090  24.576  1.00  0.00     0.023 C 
BRANCH   2   3
ATOM      3  C   UNL A   1      34.024  24.401  24.029  1.00  0.00     0.116 C 
BRANCH   3   4
ATOM      4  N   UNL A   1      33.951  24.783  22.630  1.00  0.00    -0.352 N 
ATOM      5  C   UNL A   1      33.129  25.708  22.020  1.00  0.00     0.252 C 
ATOM      6  O   UNL A   1      33.278  25.959  20.825  1.00  0.00    -0.269 OA
ATOM      7  H   UNL A   1      34.577  24.315  22.031  1.00  0.00     0.163 HD
BRANCH   5   8
ATOM      8  C   UNL A   1      31.977  26.313  22.736  1.00  0.00     0.060 A 
ATOM      9  C   UNL A   1      30.959  28.332  23.596  1.00  0.00     0.042 A 
ATOM     10  C   UNL A   1      29.748  27.666  23.701  1.00  0.00     0.028 A 
ATOM     11  C   UNL A   1      32.032  27.701  22.969  1.00  0.00     0.041 A 
ATOM     12  C   UNL A   1      29.709  26.286  23.548  1.00  0.00     0.023 A 
ATOM     13  C   UNL A   1      30.872  25.601  23.212  1.00  0.00     0.053 A 
ATOM     14  Cl  UNL A   1      30.904  23.918  23.599  1.00  0.00    -0.083 Cl
BRANCH   9  15
ATOM     15  N   UNL A   1      31.120  29.604  24.148  1.00  0.00    -0.326 N 
ATOM     16  C   UNL A   1      31.518  29.941  25.417  1.00  0.00     0.230 C 
ATOM     17  O   UNL A   1      31.408  31.130  25.746  1.00  0.00    -0.274 OA
ATOM     18  H   UNL A   1      30.923  30.359  23.547  1.00  0.00     0.169 HD
BRANCH  16  19
ATOM     19  C   UNL A   1      32.179  28.964  26.412  1.00  0.00     0.110 C 
ATOM     20  C   UNL A   1      34.578  28.813  27.249  1.00  0.00     0.039 C 
ATOM     21  C   UNL A   1      33.619  28.578  26.083  1.00  0.00     0.127 C 
ATOM     22  O   UNL A   1      33.614  27.171  25.805  1.00  0.00    -0.378 OA
ATOM     23  C   UNL A   1      32.511  26.578  26.489  1.00  0.00     0.161 C 
ATOM     24  C   UNL A   1      31.461  27.656  26.680  1.00  0.00     0.044 C 
ENDBRANCH  16  19
ENDBRANCH   9  15
ENDBRANCH   5   8
ENDBRANCH   3   4
ENDBRANCH   2   3
ENDBRANCH   1   2
BRANCH   1  25
ATOM     25  C   UNL A   1      36.310  21.884  25.614  1.00  0.00     0.116 C 
BRANCH  25  26
ATOM     26  N   UNL A   1      37.451  20.993  25.434  1.00  0.00    -0.352 N 
ATOM     27  C   UNL A   1      38.770  21.157  25.794  1.00  0.00     0.251 C 
ATOM     28  H   UNL A   1      37.246  20.141  24.985  1.00  0.00     0.163 HD
ATOM     29  O   UNL A   1      39.598  20.294  25.508  1.00  0.00    -0.269 OA
BRANCH  27  30
ATOM     30  C   UNL A   1      39.203  22.397  26.473  1.00  0.00     0.039 A 
ATOM     31  C   UNL A   1      40.218  22.320  27.431  1.00  0.00     0.014 A 
ATOM     32  C   UNL A   1      38.661  23.635  26.124  1.00  0.00     0.014 A 
ATOM     33  C   UNL A   1      40.778  23.494  27.940  1.00  0.00     0.010 A 
ATOM     34  C   UNL A   1      39.275  24.802  26.566  1.00  0.00     0.010 A 
ATOM     35  C   UNL A   1      40.358  24.744  27.459  1.00  0.00    -0.014 A 
BRANCH  35  36
ATOM     36  C   UNL A   1      41.077  25.998  27.808  1.00  0.00     0.031 A 
ATOM     37  C   UNL A   1      40.364  27.116  28.516  1.00  0.00     0.074 A 
ATOM     38  C   UNL A   1      42.339  26.180  27.364  1.00  0.00     0.049 A 
ATOM     39  N   UNL A   1      40.793  28.319  28.797  1.00  0.00    -0.248 NA
ATOM     40  C   UNL A   1      38.976  26.859  28.937  1.00  0.00     0.031 C 
ATOM     41  C   UNL A   1      43.113  25.208  26.587  1.00  0.00     0.029 A 
ATOM     42  N   UNL A   1      43.181  27.259  27.470  1.00  0.00    -0.354 N 
ATOM     43  C   UNL A   1      39.720  28.976  29.386  1.00  0.00     0.074 A 
ATOM     44  C   UNL A   1      38.611  28.047  29.399  1.00  0.00     0.031 C 
ATOM     45  C   UNL A   1      44.309  25.734  26.286  1.00  0.00     0.029 A 
ATOM     46  C   UNL A   1      44.381  27.091  26.818  1.00  0.00     0.049 A 
ATOM     47  H   UNL A   1      42.948  28.077  27.967  1.00  0.00     0.167 HD
ATOM     48  C   UNL A   1      39.671  30.228  29.898  1.00  0.00     0.034 A 
ATOM     49  C   UNL A   1      45.418  27.937  26.651  1.00  0.00     0.034 A 
ATOM     50  C   UNL A   1      40.791  31.130  29.936  1.00  0.00     0.049 A 
ATOM     51  C   UNL A   1      45.352  29.307  27.268  1.00  0.00     0.074 A 
ATOM     52  C   UNL A   1      40.871  32.375  30.535  1.00  0.00     0.029 A 
ATOM     53  N   UNL A   1      42.022  30.889  29.349  1.00  0.00    -0.354 N 
ATOM     54  N   UNL A   1      44.390  29.845  27.977  1.00  0.00    -0.248 NA
ATOM     55  C   UNL A   1      46.524  30.176  27.088  1.00  0.00     0.031 C 
ATOM     56  C   UNL A   1      42.148  32.893  30.296  1.00  0.00     0.029 A 
ATOM     57  C   UNL A   1      42.866  31.965  29.558  1.00  0.00     0.049 A 
ATOM     58  H   UNL A   1      42.261  30.071  28.855  1.00  0.00     0.167 HD
ATOM     59  C   UNL A   1      44.849  31.103  28.351  1.00  0.00     0.074 A 
ATOM     60  C   UNL A   1      46.187  31.237  27.810  1.00  0.00     0.031 C 
ATOM     61  C   UNL A   1      44.214  32.066  29.061  1.00  0.00     0.034 A 
BRANCH  48  62
ATOM     62  C   UNL A   1      38.378  30.677  30.525  1.00  0.00     0.023 A 
ATOM     63  C   UNL A   1      38.135  30.389  31.884  1.00  0.00     0.012 A 
ATOM     64  C   UNL A   1      37.435  31.428  29.798  1.00  0.00     0.148 A 
ATOM     65  C   UNL A   1      36.959  30.814  32.502  1.00  0.00     0.002 A 
ATOM     66  C   UNL A   1      36.283  31.883  30.431  1.00  0.00     0.091 A 
ATOM     67  F   UNL A   1      37.671  31.671  28.500  1.00  0.00    -0.205 F 
ATOM     68  C   UNL A   1      36.040  31.569  31.778  1.00  0.00     0.022 A 
BRANCH  66  69
ATOM     69  S   UNL A   1      35.073  32.924  29.605  1.00  0.00     0.127 S 
ATOM     70  O   UNL A   1      35.906  34.033  29.142  1.00  0.00    -0.237 OA
ATOM     71  O   UNL A   1      34.583  32.045  28.543  1.00  0.00    -0.237 OA
ATOM     72  O   UNL A   1      34.082  33.261  30.617  1.00  0.00    -0.744 OA
ENDBRANCH  66  69
ENDBRANCH  48  62
BRANCH  49  73
ATOM     73  C   UNL A   1      46.637  27.482  25.922  1.00  0.00     0.023 A 
ATOM     74  C   UNL A   1      46.770  27.785  24.553  1.00  0.00     0.012 A 
ATOM     75  C   UNL A   1      47.674  26.791  26.577  1.00  0.00     0.148 A 
ATOM     76  C   UNL A   1      47.902  27.385  23.843  1.00  0.00     0.002 A 
ATOM     77  C   UNL A   1      48.824  26.443  25.876  1.00  0.00     0.091 A 
ATOM     78  F   UNL A   1      47.524  26.498  27.876  1.00  0.00    -0.205 F 
ATOM     79  C   UNL A   1      48.933  26.725  24.505  1.00  0.00     0.022 A 
BRANCH  77  80
ATOM     80  S   UNL A   1      50.254  25.711  26.681  1.00  0.00     0.127 S 
ATOM     81  O   UNL A   1      51.195  25.593  25.571  1.00  0.00    -0.237 OA
ATOM     82  O   UNL A   1      50.598  26.730  27.675  1.00  0.00    -0.237 OA
ATOM     83  O   UNL A   1      49.780  24.459  27.252  1.00  0.00    -0.744 OA
ENDBRANCH  77  80
ENDBRANCH  49  73
BRANCH  61  84
ATOM     84  C   UNL A   1      44.955  33.352  29.316  1.00  0.00     0.023 A 
ATOM     85  C   UNL A   1      45.775  33.464  30.456  1.00  0.00     0.012 A 
ATOM     86  C   UNL A   1      44.911  34.409  28.387  1.00  0.00     0.148 A 
ATOM     87  C   UNL A   1      46.524  34.618  30.679  1.00  0.00     0.002 A 
ATOM     88  C   UNL A   1      45.693  35.540  28.593  1.00  0.00     0.091 A 
ATOM     89  F   UNL A   1      44.108  34.290  27.319  1.00  0.00    -0.205 F 
ATOM     90  C   UNL A   1      46.492  35.649  29.743  1.00  0.00     0.022 A 
BRANCH  88  91
ATOM     91  S   UNL A   1      45.786  36.879  27.400  1.00  0.00     0.127 S 
ATOM     92  O   UNL A   1      46.728  37.791  28.046  1.00  0.00    -0.237 OA
ATOM     93  O   UNL A   1      46.310  36.201  26.213  1.00  0.00    -0.237 OA
ATOM     94  O   UNL A   1      44.427  37.383  27.256  1.00  0.00    -0.744 OA
ENDBRANCH  88  91
ENDBRANCH  61  84
ENDBRANCH  35  36
ENDBRANCH  27  30
ENDBRANCH  25  26
ENDBRANCH   1  25
TORSDOF 16
ENDMDL
MODEL 3
REMARK VINA RESULT:     -12.6      2.211      3.954
REMARK SMILES C[C@H]1OCC[C@@H]1C(=O)Nc1ccc(Cl)c(C(=O)NCCCCNC(=O)c2ccc(-c3c4nc(c(-c5cccc(S(=O)(=O)[O-])c5F)c5ccc([nH]5)c(-c5cccc(S(=O)(=O)[O-])c5F)c5nc(c(-c6cccc(S(=O)(=O)[O-])c6F)c6ccc3[nH]6)C=C5)C=C4)cc2)c1
REMARK SMILES IDX 21 1 20 2 19 3 18 4 16 5 17 6 15 8 10 9 11 10 89 11 12 12
REMARK SMILES IDX 13 13 14 14 9 15 7 16 8 17 6 19 1 20 2 21 3 22 4 23 5 24
REMARK SMILES IDX 22 25 23 26 24 27 25 29 26 30 27 31 88 32 28 33 87 34 29 35
REMARK SMILES IDX 30 36 31 37 81 38 32 39 86 40 80 41 82 42 33 43 85 44 79 45
REMARK SMILES IDX 78 46 34 48 66 49 46 50 65 51 47 52 50 53 64 54 83 55 48 56
REMARK SMILES IDX 49 57 63 59 84 60 51 61 35 62 36 63 44 64 37 65 39 66 45 67
REMARK SMILES IDX 38 68 40 69 41 70 42 71 43 72 67 73 68 74 76 75 69 76 71 77
REMARK SMILES IDX 77 78 70 79 72 80 73 81 74 82 75 83 52 84 53 85 61 86 54 87
REMARK SMILES IDX 56 88 62 89 55 90 57 91 58 92 59 93 60 94
REMARK H PARENT 18 7 9 18 23 28 82 47 50 58
REMARK Flexibility Score: inf
ROOT
ATOM      1  C   UNL A   1      38.151  19.711  24.665  1.00  0.00     0.023 C 
ENDROOT
BRANCH   1   2
ATOM      2  C   UNL A   1      36.803  20.421  24.652  1.00  0.00     0.023 C 
BRANCH   2   3
ATOM      3  C   UNL A   1      36.690  21.675  25.502  1.00  0.00     0.116 C 
BRANCH   3   4
ATOM      4  N   UNL A   1      35.745  21.628  26.604  1.00  0.00    -0.352 N 
ATOM      5  C   UNL A   1      34.367  21.574  26.569  1.00  0.00     0.252 C 
ATOM      6  O   UNL A   1      33.737  21.449  27.618  1.00  0.00    -0.269 OA
ATOM      7  H   UNL A   1      36.145  21.636  27.503  1.00  0.00     0.163 HD
BRANCH   5   8
ATOM      8  C   UNL A   1      33.613  21.799  25.309  1.00  0.00     0.060 A 
ATOM      9  C   UNL A   1      32.320  20.814  23.519  1.00  0.00     0.042 A 
ATOM     10  C   UNL A   1      31.852  22.073  23.176  1.00  0.00     0.028 A 
ATOM     11  C   UNL A   1      33.075  20.660  24.679  1.00  0.00     0.041 A 
ATOM     12  C   UNL A   1      32.437  23.198  23.740  1.00  0.00     0.023 A 
ATOM     13  C   UNL A   1      33.431  23.045  24.702  1.00  0.00     0.053 A 
ATOM     14  Cl  UNL A   1      34.489  24.391  24.927  1.00  0.00    -0.083 Cl
BRANCH   9  15
ATOM     15  N   UNL A   1      32.075  19.716  22.691  1.00  0.00    -0.326 N 
ATOM     16  C   UNL A   1      32.496  18.419  22.846  1.00  0.00     0.230 C 
ATOM     17  O   UNL A   1      32.320  17.651  21.890  1.00  0.00    -0.274 OA
ATOM     18  H   UNL A   1      31.528  19.896  21.892  1.00  0.00     0.169 HD
BRANCH  16  19
ATOM     19  C   UNL A   1      33.075  17.840  24.154  1.00  0.00     0.110 C 
ATOM     20  C   UNL A   1      35.427  17.053  24.726  1.00  0.00     0.039 C 
ATOM     21  C   UNL A   1      34.133  16.754  23.970  1.00  0.00     0.127 C 
ATOM     22  O   UNL A   1      33.583  15.547  24.516  1.00  0.00    -0.378 OA
ATOM     23  C   UNL A   1      32.615  15.898  25.505  1.00  0.00     0.161 C 
ATOM     24  C   UNL A   1      32.090  17.278  25.159  1.00  0.00     0.044 C 
ENDBRANCH  16  19
ENDBRANCH   9  15
ENDBRANCH   5   8
ENDBRANCH   3   4
ENDBRANCH   2   3
ENDBRANCH   1   2
BRANCH   1  25
ATOM     25  C   UNL A   1      38.901  19.675  25.993  1.00  0.00     0.116 C 
BRANCH  25  26
ATOM     26  N   UNL A   1      40.238  19.095  25.919  1.00  0.00    -0.352 N 
ATOM     27  C   UNL A   1      41.464  19.657  26.198  1.00  0.00     0.251 C 
ATOM     28  H   UNL A   1      40.268  18.157  25.625  1.00  0.00     0.163 HD
ATOM     29  O   UNL A   1      42.493  19.005  26.027  1.00  0.00    -0.269 OA
BRANCH  27  30
ATOM     30  C   UNL A   1      41.550  21.062  26.649  1.00  0.00     0.039 A 
ATOM     31  C   UNL A   1      41.959  21.326  27.958  1.00  0.00     0.014 A 
ATOM     32  C   UNL A   1      41.292  22.116  25.769  1.00  0.00     0.014 A 
ATOM     33  C   UNL A   1      42.236  22.639  28.345  1.00  0.00     0.010 A 
ATOM     34  C   UNL A   1      41.649  23.411  26.128  1.00  0.00     0.010 A 
ATOM     35  C   UNL A   1      42.150  23.684  27.411  1.00  0.00    -0.014 A 
BRANCH  35  36
ATOM     36  C   UNL A   1      42.648  25.051  27.720  1.00  0.00     0.031 A 
ATOM     37  C   UNL A   1      41.735  26.075  28.335  1.00  0.00     0.074 A 
ATOM     38  C   UNL A   1      43.886  25.409  27.320  1.00  0.00     0.049 A 
ATOM     39  N   UNL A   1      41.957  27.343  28.566  1.00  0.00    -0.248 NA
ATOM     40  C   UNL A   1      40.385  25.623  28.711  1.00  0.00     0.031 C 
ATOM     41  C   UNL A   1      44.839  24.534  26.630  1.00  0.00     0.029 A 
ATOM     42  N   UNL A   1      44.544  26.611  27.401  1.00  0.00    -0.354 N 
ATOM     43  C   UNL A   1      40.767  27.850  29.073  1.00  0.00     0.074 A 
ATOM     44  C   UNL A   1      39.817  26.759  29.092  1.00  0.00     0.031 C 
ATOM     45  C   UNL A   1      45.953  25.228  26.350  1.00  0.00     0.029 A 
ATOM     46  C   UNL A   1      45.787  26.604  26.809  1.00  0.00     0.049 A 
ATOM     47  H   UNL A   1      44.162  27.405  27.841  1.00  0.00     0.167 HD
ATOM     48  C   UNL A   1      40.498  29.102  29.513  1.00  0.00     0.034 A 
ATOM     49  C   UNL A   1      46.686  27.593  26.638  1.00  0.00     0.034 A 
ATOM     50  C   UNL A   1      41.461  30.170  29.547  1.00  0.00     0.049 A 
ATOM     51  C   UNL A   1      46.377  28.964  27.176  1.00  0.00     0.074 A 
ATOM     52  C   UNL A   1      41.316  31.439  30.079  1.00  0.00     0.029 A 
ATOM     53  N   UNL A   1      42.742  30.098  29.026  1.00  0.00    -0.354 N 
ATOM     54  N   UNL A   1      45.309  29.377  27.813  1.00  0.00    -0.248 NA
ATOM     55  C   UNL A   1      47.407  29.998  26.996  1.00  0.00     0.031 C 
ATOM     56  C   UNL A   1      42.508  32.140  29.865  1.00  0.00     0.029 A 
ATOM     57  C   UNL A   1      43.397  31.303  29.210  1.00  0.00     0.049 A 
ATOM     58  H   UNL A   1      43.130  29.305  28.588  1.00  0.00     0.167 HD
ATOM     59  C   UNL A   1      45.548  30.708  28.135  1.00  0.00     0.074 A 
ATOM     60  C   UNL A   1      46.873  31.025  27.644  1.00  0.00     0.031 C 
ATOM     61  C   UNL A   1      44.736  31.592  28.764  1.00  0.00     0.034 A 
BRANCH  48  62
ATOM     62  C   UNL A   1      39.121  29.370  30.060  1.00  0.00     0.023 A 
ATOM     63  C   UNL A   1      38.797  28.922  31.357  1.00  0.00     0.012 A 
ATOM     64  C   UNL A   1      38.174  30.108  29.326  1.00  0.00     0.148 A 
ATOM     65  C   UNL A   1      37.540  29.179  31.904  1.00  0.00     0.002 A 
ATOM     66  C   UNL A   1      36.937  30.395  29.892  1.00  0.00     0.091 A 
ATOM     67  F   UNL A   1      38.493  30.505  28.084  1.00  0.00    -0.205 F 
ATOM     68  C   UNL A   1      36.615  29.923  31.175  1.00  0.00     0.022 A 
BRANCH  66  69
ATOM     69  S   UNL A   1      35.706  31.409  29.064  1.00  0.00     0.127 S 
ATOM     70  O   UNL A   1      36.541  32.428  28.431  1.00  0.00    -0.237 OA
ATOM     71  O   UNL A   1      35.096  30.457  28.135  1.00  0.00    -0.237 OA
ATOM     72  O   UNL A   1      34.814  31.887  30.111  1.00  0.00    -0.744 OA
ENDBRANCH  66  69
ENDBRANCH  48  62
BRANCH  49  73
ATOM     73  C   UNL A   1      47.995  27.302  25.987  1.00  0.00     0.023 A 
ATOM     74  C   UNL A   1      49.046  26.780  26.765  1.00  0.00     0.012 A 
ATOM     75  C   UNL A   1      48.195  27.502  24.608  1.00  0.00     0.148 A 
ATOM     76  C   UNL A   1      50.282  26.486  26.187  1.00  0.00     0.002 A 
ATOM     77  C   UNL A   1      49.411  27.156  24.027  1.00  0.00     0.091 A 
ATOM     78  F   UNL A   1      47.189  28.015  23.886  1.00  0.00    -0.205 F 
ATOM     79  C   UNL A   1      50.461  26.662  24.818  1.00  0.00     0.022 A 
BRANCH  77  80
ATOM     80  S   UNL A   1      49.681  27.225  22.252  1.00  0.00     0.127 S 
ATOM     81  O   UNL A   1      49.324  28.607  21.948  1.00  0.00    -0.237 OA
ATOM     82  O   UNL A   1      51.109  26.919  22.149  1.00  0.00    -0.237 OA
ATOM     83  O   UNL A   1      48.812  26.202  21.687  1.00  0.00    -0.744 OA
ENDBRANCH  77  80
ENDBRANCH  49  73
BRANCH  61  84
ATOM     84  C   UNL A   1      45.254  32.989  28.978  1.00  0.00     0.023 A 
ATOM     85  C   UNL A   1      46.018  33.276  30.127  1.00  0.00     0.012 A 
ATOM     86  C   UNL A   1      45.063  33.989  28.005  1.00  0.00     0.148 A 
ATOM     87  C   UNL A   1      46.566  34.544  30.314  1.00  0.00     0.002 A 
ATOM     88  C   UNL A   1      45.648  35.238  28.178  1.00  0.00     0.091 A 
ATOM     89  F   UNL A   1      44.316  33.701  26.929  1.00  0.00    -0.205 F 
ATOM     90  C   UNL A   1      46.391  35.519  29.336  1.00  0.00     0.022 A 
BRANCH  88  91
ATOM     91  S   UNL A   1      45.553  36.528  26.931  1.00  0.00     0.127 S 
ATOM     92  O   UNL A   1      46.280  37.621  27.575  1.00  0.00    -0.237 OA
ATOM     93  O   UNL A   1      46.249  35.916  25.798  1.00  0.00    -0.237 OA
ATOM     94  O   UNL A   1      44.133  36.767  26.709  1.00  0.00    -0.744 OA
ENDBRANCH  88  91
ENDBRANCH  61  84
ENDBRANCH  35  36
ENDBRANCH  27  30
ENDBRANCH  25  26
ENDBRANCH   1  25
TORSDOF 16
ENDMDL
