MODEL 1
REMARK VINA RESULT:     -11.9      0.000      0.000
REMARK SMILES COc1ccc(OC)c([C@H](C(=O)NCCCCNC(=O)c2ccc(-c3c4nc(c(-c5cccc(S(=O)(=O)[O-])c5F)c5ccc([nH]5)c(-c5cccc(S(=O)(=O)[O-])c5F)c5nc(c(-c6cccc(S(=O)(=O)[O-])c6F)c6ccc3[nH]6)C=C5)C=C4)cc2)[NH+]2CC[NH+](Cc3nccn3C)CC2)c1
REMARK SMILES IDX 15 1 14 2 13 3 11 4 12 5 10 7 9 8 3 9 4 10 97 11 5 12 6 13
REMARK SMILES IDX 2 14 1 15 7 16 8 17 84 18 85 19 96 20 86 22 95 23 87 24
REMARK SMILES IDX 88 26 89 27 90 28 93 29 91 30 92 31 94 32 16 33 17 34 18 35
REMARK SMILES IDX 19 36 20 38 21 39 22 40 83 41 23 42 82 43 24 44 25 45 26 46
REMARK SMILES IDX 76 47 27 48 81 49 75 50 77 51 28 52 80 53 74 54 73 55 29 57
REMARK SMILES IDX 61 58 41 59 60 60 42 61 45 62 59 63 78 64 43 65 44 66 58 68
REMARK SMILES IDX 79 69 46 70 30 71 31 72 39 73 32 74 34 75 40 76 33 77 35 78
REMARK SMILES IDX 36 79 37 80 38 81 62 82 63 83 71 84 64 85 66 86 72 87 65 88
REMARK SMILES IDX 67 89 68 90 69 91 70 92 47 93 48 94 56 95 49 96 51 97 57 98
REMARK SMILES IDX 50 99 52 100 53 101 54 102 55 103
REMARK H PARENT 13 6 84 21 87 25 18 37 77 56 45 67
REMARK Flexibility Score: inf
ROOT
ATOM      1  C   UNL A   1      31.923  30.618  25.986  1.00  0.00     0.023 C 
ENDROOT
BRANCH   1   2
ATOM      2  C   UNL A   1      33.015  29.563  25.835  1.00  0.00     0.116 C 
BRANCH   2   3
ATOM      3  N   UNL A   1      33.376  29.339  24.450  1.00  0.00    -0.351 N 
ATOM      4  C   UNL A   1      32.654  28.764  23.445  1.00  0.00     0.283 C 
ATOM      5  O   UNL A   1      33.132  28.897  22.318  1.00  0.00    -0.268 OA
ATOM      6  H   UNL A   1      34.275  29.650  24.196  1.00  0.00     0.163 HD
BRANCH   4   7
ATOM      7  C   UNL A   1      31.347  27.982  23.758  1.00  0.00     0.309 C 
BRANCH   7   8
ATOM      8  C   UNL A   1      30.093  28.642  23.173  1.00  0.00     0.065 A 
ATOM      9  C   UNL A   1      29.054  30.676  22.279  1.00  0.00     0.119 A 
ATOM     10  C   UNL A   1      27.815  30.042  22.292  1.00  0.00     0.050 A 
ATOM     11  C   UNL A   1      30.184  29.960  22.667  1.00  0.00     0.060 A 
ATOM     12  C   UNL A   1      27.705  28.722  22.734  1.00  0.00     0.051 A 
ATOM     13  C   UNL A   1      28.833  28.021  23.172  1.00  0.00     0.128 A 
BRANCH   9  14
ATOM     14  O   UNL A   1      29.045  31.991  21.901  1.00  0.00    -0.497 OA
ATOM     15  C   UNL A   1      28.000  32.383  21.010  1.00  0.00     0.278 C 
ENDBRANCH   9  14
BRANCH  13  16
ATOM     16  O   UNL A   1      28.580  26.789  23.716  1.00  0.00    -0.496 OA
ATOM     17  C   UNL A   1      27.232  26.623  24.154  1.00  0.00     0.278 C 
ENDBRANCH  13  16
ENDBRANCH   7   8
BRANCH   7  18
ATOM     18  N   UNL A   1      31.427  26.538  23.435  1.00  0.00    -0.311 N 
ATOM     19  C   UNL A   1      31.811  26.153  22.073  1.00  0.00     0.325 C 
ATOM     20  C   UNL A   1      32.033  25.686  24.464  1.00  0.00     0.325 C 
ATOM     21  H   UNL A   1      30.430  26.326  23.450  1.00  0.00     0.349 HD
ATOM     22  C   UNL A   1      33.256  25.663  21.855  1.00  0.00     0.324 C 
ATOM     23  C   UNL A   1      33.457  25.126  24.203  1.00  0.00     0.324 C 
ATOM     24  N   UNL A   1      33.767  24.702  22.837  1.00  0.00    -0.319 N 
ATOM     25  H   UNL A   1      34.787  24.720  22.790  1.00  0.00     0.348 HD
BRANCH  24  26
ATOM     26  C   UNL A   1      33.515  23.299  22.500  1.00  0.00     0.339 C 
BRANCH  26  27
ATOM     27  C   UNL A   1      33.519  22.324  23.639  1.00  0.00     0.164 A 
ATOM     28  N   UNL A   1      32.449  21.723  24.134  1.00  0.00    -0.236 NA
ATOM     29  N   UNL A   1      34.643  21.913  24.321  1.00  0.00    -0.333 N 
ATOM     30  C   UNL A   1      32.873  21.033  25.235  1.00  0.00     0.131 A 
ATOM     31  C   UNL A   1      34.232  21.140  25.376  1.00  0.00     0.107 A 
ATOM     32  C   UNL A   1      36.024  22.218  24.043  1.00  0.00     0.151 C 
ENDBRANCH  26  27
ENDBRANCH  24  26
ENDBRANCH   7  18
ENDBRANCH   4   7
ENDBRANCH   2   3
ENDBRANCH   1   2
BRANCH   1  33
ATOM     33  C   UNL A   1      32.030  31.496  27.236  1.00  0.00     0.023 C 
BRANCH  33  34
ATOM     34  C   UNL A   1      33.185  32.493  27.236  1.00  0.00     0.116 C 
BRANCH  34  35
ATOM     35  N   UNL A   1      32.748  33.841  27.565  1.00  0.00    -0.352 N 
ATOM     36  C   UNL A   1      33.159  34.640  28.610  1.00  0.00     0.251 C 
ATOM     37  H   UNL A   1      32.073  34.232  26.965  1.00  0.00     0.163 HD
ATOM     38  O   UNL A   1      32.573  35.676  28.875  1.00  0.00    -0.269 OA
BRANCH  36  39
ATOM     39  C   UNL A   1      34.319  34.203  29.416  1.00  0.00     0.039 A 
ATOM     40  C   UNL A   1      34.110  33.397  30.538  1.00  0.00     0.014 A 
ATOM     41  C   UNL A   1      35.612  34.551  29.019  1.00  0.00     0.014 A 
ATOM     42  C   UNL A   1      35.210  32.883  31.228  1.00  0.00     0.010 A 
ATOM     43  C   UNL A   1      36.702  33.981  29.665  1.00  0.00     0.010 A 
ATOM     44  C   UNL A   1      36.514  33.144  30.778  1.00  0.00    -0.014 A 
BRANCH  44  45
ATOM     45  C   UNL A   1      37.710  32.577  31.451  1.00  0.00     0.031 A 
ATOM     46  C   UNL A   1      38.439  31.426  30.812  1.00  0.00     0.074 A 
ATOM     47  C   UNL A   1      38.064  33.005  32.679  1.00  0.00     0.049 A 
ATOM     48  N   UNL A   1      39.392  30.677  31.300  1.00  0.00    -0.248 NA
ATOM     49  C   UNL A   1      38.008  31.042  29.456  1.00  0.00     0.031 C 
ATOM     50  C   UNL A   1      37.400  34.074  33.429  1.00  0.00     0.029 A 
ATOM     51  N   UNL A   1      39.048  32.566  33.530  1.00  0.00    -0.354 N 
ATOM     52  C   UNL A   1      39.641  29.706  30.337  1.00  0.00     0.074 A 
ATOM     53  C   UNL A   1      38.718  29.943  29.248  1.00  0.00     0.031 C 
ATOM     54  C   UNL A   1      37.989  34.200  34.630  1.00  0.00     0.029 A 
ATOM     55  C   UNL A   1      39.046  33.200  34.751  1.00  0.00     0.049 A 
ATOM     56  H   UNL A   1      39.694  31.862  33.290  1.00  0.00     0.167 HD
ATOM     57  C   UNL A   1      40.569  28.722  30.345  1.00  0.00     0.034 A 
ATOM     58  C   UNL A   1      39.800  32.989  35.848  1.00  0.00     0.034 A 
ATOM     59  C   UNL A   1      41.522  28.528  31.403  1.00  0.00     0.049 A 
ATOM     60  C   UNL A   1      40.859  31.918  35.813  1.00  0.00     0.074 A 
ATOM     61  C   UNL A   1      42.555  27.611  31.472  1.00  0.00     0.029 A 
ATOM     62  N   UNL A   1      41.562  29.267  32.575  1.00  0.00    -0.354 N 
ATOM     63  N   UNL A   1      41.167  31.095  34.840  1.00  0.00    -0.248 NA
ATOM     64  C   UNL A   1      41.698  31.768  37.012  1.00  0.00     0.031 C 
ATOM     65  C   UNL A   1      43.214  27.788  32.693  1.00  0.00     0.029 A 
ATOM     66  C   UNL A   1      42.604  28.832  33.373  1.00  0.00     0.049 A 
ATOM     67  H   UNL A   1      40.940  29.995  32.805  1.00  0.00     0.167 HD
ATOM     68  C   UNL A   1      42.262  30.366  35.288  1.00  0.00     0.074 A 
ATOM     69  C   UNL A   1      42.570  30.850  36.618  1.00  0.00     0.031 C 
ATOM     70  C   UNL A   1      42.945  29.378  34.661  1.00  0.00     0.034 A 
BRANCH  57  71
ATOM     71  C   UNL A   1      40.637  27.813  29.146  1.00  0.00     0.023 A 
ATOM     72  C   UNL A   1      39.748  26.722  29.051  1.00  0.00     0.012 A 
ATOM     73  C   UNL A   1      41.537  28.065  28.093  1.00  0.00     0.148 A 
ATOM     74  C   UNL A   1      39.781  25.873  27.947  1.00  0.00     0.002 A 
ATOM     75  C   UNL A   1      41.532  27.240  26.973  1.00  0.00     0.091 A 
ATOM     76  F   UNL A   1      42.388  29.093  28.209  1.00  0.00    -0.205 F 
ATOM     77  C   UNL A   1      40.665  26.137  26.905  1.00  0.00     0.022 A 
BRANCH  75  78
ATOM     78  S   UNL A   1      42.574  27.546  25.543  1.00  0.00     0.127 S 
ATOM     79  O   UNL A   1      43.887  27.716  26.164  1.00  0.00    -0.237 OA
ATOM     80  O   UNL A   1      42.419  26.308  24.777  1.00  0.00    -0.237 OA
ATOM     81  O   UNL A   1      42.029  28.731  24.895  1.00  0.00    -0.744 OA
ENDBRANCH  75  78
ENDBRANCH  57  71
BRANCH  58  82
ATOM     82  C   UNL A   1      39.633  33.856  37.050  1.00  0.00     0.023 A 
ATOM     83  C   UNL A   1      40.134  35.172  37.022  1.00  0.00     0.012 A 
ATOM     84  C   UNL A   1      38.968  33.400  38.205  1.00  0.00     0.148 A 
ATOM     85  C   UNL A   1      40.008  36.007  38.133  1.00  0.00     0.002 A 
ATOM     86  C   UNL A   1      38.799  34.255  39.290  1.00  0.00     0.091 A 
ATOM     87  F   UNL A   1      38.507  32.141  38.218  1.00  0.00    -0.205 F 
ATOM     88  C   UNL A   1      39.333  35.552  39.263  1.00  0.00     0.022 A 
BRANCH  86  89
ATOM     89  S   UNL A   1      37.834  33.798  40.734  1.00  0.00     0.127 S 
ATOM     90  O   UNL A   1      36.675  33.147  40.128  1.00  0.00    -0.237 OA
ATOM     91  O   UNL A   1      38.748  32.896  41.437  1.00  0.00    -0.237 OA
ATOM     92  O   UNL A   1      37.565  35.044  41.437  1.00  0.00    -0.744 OA
ENDBRANCH  86  89
ENDBRANCH  58  82
BRANCH  70  93
ATOM     93  C   UNL A   1      44.139  28.787  35.361  1.00  0.00     0.023 A 
ATOM     94  C   UNL A   1      45.417  29.346  35.170  1.00  0.00     0.012 A 
ATOM     95  C   UNL A   1      43.969  27.745  36.295  1.00  0.00     0.148 A 
ATOM     96  C   UNL A   1      46.512  28.863  35.884  1.00  0.00     0.002 A 
ATOM     97  C   UNL A   1      45.056  27.301  37.037  1.00  0.00     0.091 A 
ATOM     98  F   UNL A   1      42.746  27.216  36.447  1.00  0.00    -0.205 F 
ATOM     99  C   UNL A   1      46.331  27.852  36.826  1.00  0.00     0.022 A 
BRANCH  97 100
ATOM    100  S   UNL A   1      44.896  26.076  38.342  1.00  0.00     0.127 S 
ATOM    101  O   UNL A   1      43.917  26.708  39.224  1.00  0.00    -0.237 OA
ATOM    102  O   UNL A   1      44.397  24.910  37.612  1.00  0.00    -0.237 OA
ATOM    103  O   UNL A   1      46.229  25.912  38.905  1.00  0.00    -0.744 OA
ENDBRANCH  97 100
ENDBRANCH  70  93
ENDBRANCH  44  45
ENDBRANCH  36  39
ENDBRANCH  34  35
ENDBRANCH  33  34
ENDBRANCH   1  33
TORSDOF 20
ENDMDL
MODEL 2
REMARK VINA RESULT:     -11.7      1.255      7.413
REMARK SMILES COc1ccc(OC)c([C@H](C(=O)NCCCCNC(=O)c2ccc(-c3c4nc(c(-c5cccc(S(=O)(=O)[O-])c5F)c5ccc([nH]5)c(-c5cccc(S(=O)(=O)[O-])c5F)c5nc(c(-c6cccc(S(=O)(=O)[O-])c6F)c6ccc3[nH]6)C=C5)C=C4)cc2)[NH+]2CC[NH+](Cc3nccn3C)CC2)c1
REMARK SMILES IDX 15 1 14 2 13 3 11 4 12 5 10 7 9 8 3 9 4 10 97 11 5 12 6 13
REMARK SMILES IDX 2 14 1 15 7 16 8 17 84 18 85 19 96 20 86 22 95 23 87 24
REMARK SMILES IDX 88 26 89 27 90 28 93 29 91 30 92 31 94 32 16 33 17 34 18 35
REMARK SMILES IDX 19 36 20 38 21 39 22 40 83 41 23 42 82 43 24 44 25 45 26 46
REMARK SMILES IDX 76 47 27 48 81 49 75 50 77 51 28 52 80 53 74 54 73 55 29 57
REMARK SMILES IDX 61 58 41 59 60 60 42 61 45 62 59 63 78 64 43 65 44 66 58 68
REMARK SMILES IDX 79 69 46 70 30 71 31 72 39 73 32 74 34 75 40 76 33 77 35 78
REMARK SMILES IDX 36 79 37 80 38 81 62 82 63 83 71 84 64 85 66 86 72 87 65 88
REMARK SMILES IDX 67 89 68 90 69 91 70 92 47 93 48 94 56 95 49 96 51 97 57 98
REMARK SMILES IDX 50 99 52 100 53 101 54 102 55 103
REMARK H PARENT 13 6 84 21 87 25 18 37 77 56 45 67
REMARK Flexibility Score: inf
ROOT
ATOM      1  C   UNL A   1      31.499  30.784  25.790  1.00  0.00     0.023 C 
ENDROOT
BRANCH   1   2
ATOM      2  C   UNL A   1      32.767  29.939  25.867  1.00  0.00     0.116 C 
BRANCH   2   3
ATOM      3  N   UNL A   1      33.264  29.574  24.555  1.00  0.00    -0.351 N 
ATOM      4  C   UNL A   1      32.668  28.837  23.573  1.00  0.00     0.283 C 
ATOM      5  O   UNL A   1      33.239  28.864  22.483  1.00  0.00    -0.268 OA
ATOM      6  H   UNL A   1      34.165  29.907  24.342  1.00  0.00     0.163 HD
BRANCH   4   7
ATOM      7  C   UNL A   1      31.380  28.019  23.871  1.00  0.00     0.309 C 
BRANCH   7   8
ATOM      8  C   UNL A   1      30.141  28.558  23.147  1.00  0.00     0.065 A 
ATOM      9  C   UNL A   1      29.126  30.392  21.872  1.00  0.00     0.119 A 
ATOM     10  C   UNL A   1      27.886  29.768  21.974  1.00  0.00     0.050 A 
ATOM     11  C   UNL A   1      30.246  29.761  22.410  1.00  0.00     0.060 A 
ATOM     12  C   UNL A   1      27.763  28.551  22.648  1.00  0.00     0.051 A 
ATOM     13  C   UNL A   1      28.880  27.945  23.232  1.00  0.00     0.128 A 
BRANCH   9  14
ATOM     14  O   UNL A   1      29.128  31.614  21.259  1.00  0.00    -0.497 OA
ATOM     15  C   UNL A   1      28.192  32.571  21.756  1.00  0.00     0.278 C 
ENDBRANCH   9  14
BRANCH  13  16
ATOM     16  O   UNL A   1      28.613  26.833  23.987  1.00  0.00    -0.496 OA
ATOM     17  C   UNL A   1      27.218  26.575  24.151  1.00  0.00     0.278 C 
ENDBRANCH  13  16
ENDBRANCH   7   8
BRANCH   7  18
ATOM     18  N   UNL A   1      31.549  26.558  23.688  1.00  0.00    -0.311 N 
ATOM     19  C   UNL A   1      31.695  26.044  22.322  1.00  0.00     0.325 C 
ATOM     20  C   UNL A   1      32.435  25.892  24.649  1.00  0.00     0.325 C 
ATOM     21  H   UNL A   1      30.603  26.266  23.932  1.00  0.00     0.349 HD
ATOM     22  C   UNL A   1      33.113  25.654  21.858  1.00  0.00     0.324 C 
ATOM     23  C   UNL A   1      33.831  25.427  24.155  1.00  0.00     0.324 C 
ATOM     24  N   UNL A   1      33.909  24.868  22.805  1.00  0.00    -0.319 N 
ATOM     25  H   UNL A   1      34.891  24.965  22.545  1.00  0.00     0.348 HD
BRANCH  24  26
ATOM     26  C   UNL A   1      33.748  23.417  22.674  1.00  0.00     0.339 C 
BRANCH  26  27
ATOM     27  C   UNL A   1      34.156  22.587  23.853  1.00  0.00     0.164 A 
ATOM     28  N   UNL A   1      33.325  22.016  24.710  1.00  0.00    -0.236 NA
ATOM     29  N   UNL A   1      35.456  22.296  24.200  1.00  0.00    -0.333 N 
ATOM     30  C   UNL A   1      34.102  21.476  25.696  1.00  0.00     0.131 A 
ATOM     31  C   UNL A   1      35.432  21.642  25.405  1.00  0.00     0.107 A 
ATOM     32  C   UNL A   1      36.668  22.609  23.484  1.00  0.00     0.151 C 
ENDBRANCH  26  27
ENDBRANCH  24  26
ENDBRANCH   7  18
ENDBRANCH   4   7
ENDBRANCH   2   3
ENDBRANCH   1   2
BRANCH   1  33
ATOM     33  C   UNL A   1      31.409  31.922  26.810  1.00  0.00     0.023 C 
BRANCH  33  34
ATOM     34  C   UNL A   1      32.739  32.567  27.187  1.00  0.00     0.116 C 
BRANCH  34  35
ATOM     35  N   UNL A   1      32.591  33.973  27.530  1.00  0.00    -0.352 N 
ATOM     36  C   UNL A   1      33.211  34.675  28.540  1.00  0.00     0.251 C 
ATOM     37  H   UNL A   1      31.968  34.489  26.967  1.00  0.00     0.163 HD
ATOM     38  O   UNL A   1      32.853  35.804  28.831  1.00  0.00    -0.269 OA
BRANCH  36  39
ATOM     39  C   UNL A   1      34.312  34.021  29.279  1.00  0.00     0.039 A 
ATOM     40  C   UNL A   1      34.010  33.104  30.288  1.00  0.00     0.014 A 
ATOM     41  C   UNL A   1      35.638  34.282  28.925  1.00  0.00     0.014 A 
ATOM     42  C   UNL A   1      35.045  32.394  30.903  1.00  0.00     0.010 A 
ATOM     43  C   UNL A   1      36.657  33.524  29.488  1.00  0.00     0.010 A 
ATOM     44  C   UNL A   1      36.373  32.575  30.485  1.00  0.00    -0.014 A 
BRANCH  44  45
ATOM     45  C   UNL A   1      37.498  31.806  31.074  1.00  0.00     0.031 A 
ATOM     46  C   UNL A   1      37.916  32.081  32.494  1.00  0.00     0.074 A 
ATOM     47  C   UNL A   1      38.218  30.962  30.308  1.00  0.00     0.049 A 
ATOM     48  N   UNL A   1      38.964  31.653  33.146  1.00  0.00    -0.248 NA
ATOM     49  C   UNL A   1      37.056  32.992  33.270  1.00  0.00     0.031 C 
ATOM     50  C   UNL A   1      37.950  30.656  28.901  1.00  0.00     0.029 A 
ATOM     51  N   UNL A   1      39.347  30.236  30.596  1.00  0.00    -0.354 N 
ATOM     52  C   UNL A   1      38.919  32.278  34.386  1.00  0.00     0.074 A 
ATOM     53  C   UNL A   1      37.755  33.138  34.386  1.00  0.00     0.031 C 
ATOM     54  C   UNL A   1      38.893  29.813  28.447  1.00  0.00     0.029 A 
ATOM     55  C   UNL A   1      39.851  29.547  29.516  1.00  0.00     0.049 A 
ATOM     56  H   UNL A   1      39.758  30.209  31.490  1.00  0.00     0.167 HD
ATOM     57  C   UNL A   1      39.755  32.132  35.440  1.00  0.00     0.034 A 
ATOM     58  C   UNL A   1      40.967  28.800  29.397  1.00  0.00     0.034 A 
ATOM     59  C   UNL A   1      40.875  31.232  35.456  1.00  0.00     0.049 A 
ATOM     60  C   UNL A   1      41.854  28.615  30.600  1.00  0.00     0.074 A 
ATOM     61  C   UNL A   1      41.737  30.951  36.500  1.00  0.00     0.029 A 
ATOM     62  N   UNL A   1      41.287  30.465  34.377  1.00  0.00    -0.354 N 
ATOM     63  N   UNL A   1      41.722  29.112  31.806  1.00  0.00    -0.248 NA
ATOM     64  C   UNL A   1      43.026  27.741  30.438  1.00  0.00     0.031 C 
ATOM     65  C   UNL A   1      42.678  30.020  36.049  1.00  0.00     0.029 A 
ATOM     66  C   UNL A   1      42.387  29.705  34.730  1.00  0.00     0.049 A 
ATOM     67  H   UNL A   1      40.858  30.461  33.491  1.00  0.00     0.167 HD
ATOM     68  C   UNL A   1      42.760  28.574  32.557  1.00  0.00     0.074 A 
ATOM     69  C   UNL A   1      43.510  27.706  31.673  1.00  0.00     0.031 C 
ATOM     70  C   UNL A   1      43.072  28.786  33.859  1.00  0.00     0.034 A 
BRANCH  57  71
ATOM     71  C   UNL A   1      39.456  32.923  36.686  1.00  0.00     0.023 A 
ATOM     72  C   UNL A   1      40.025  34.203  36.849  1.00  0.00     0.012 A 
ATOM     73  C   UNL A   1      38.576  32.428  37.668  1.00  0.00     0.148 A 
ATOM     74  C   UNL A   1      39.755  34.961  37.987  1.00  0.00     0.002 A 
ATOM     75  C   UNL A   1      38.274  33.209  38.778  1.00  0.00     0.091 A 
ATOM     76  F   UNL A   1      38.061  31.201  37.506  1.00  0.00    -0.205 F 
ATOM     77  C   UNL A   1      38.873  34.469  38.945  1.00  0.00     0.022 A 
BRANCH  75  78
ATOM     78  S   UNL A   1      37.087  32.701  40.025  1.00  0.00     0.127 S 
ATOM     79  O   UNL A   1      35.871  32.542  39.228  1.00  0.00    -0.237 OA
ATOM     80  O   UNL A   1      37.665  31.447  40.509  1.00  0.00    -0.237 OA
ATOM     81  O   UNL A   1      37.055  33.773  41.010  1.00  0.00    -0.744 OA
ENDBRANCH  75  78
ENDBRANCH  57  71
BRANCH  58  82
ATOM     82  C   UNL A   1      41.273  28.110  28.111  1.00  0.00     0.023 A 
ATOM     83  C   UNL A   1      41.728  28.871  27.016  1.00  0.00     0.012 A 
ATOM     84  C   UNL A   1      41.140  26.716  27.969  1.00  0.00     0.148 A 
ATOM     85  C   UNL A   1      42.010  28.261  25.793  1.00  0.00     0.002 A 
ATOM     86  C   UNL A   1      41.473  26.107  26.763  1.00  0.00     0.091 A 
ATOM     87  F   UNL A   1      40.695  26.009  29.018  1.00  0.00    -0.205 F 
ATOM     88  C   UNL A   1      41.892  26.880  25.669  1.00  0.00     0.022 A 
BRANCH  86  89
ATOM     89  S   UNL A   1      41.474  24.324  26.552  1.00  0.00     0.127 S 
ATOM     90  O   UNL A   1      42.060  23.872  27.812  1.00  0.00    -0.237 OA
ATOM     91  O   UNL A   1      40.047  24.036  26.400  1.00  0.00    -0.237 OA
ATOM     92  O   UNL A   1      42.266  24.069  25.357  1.00  0.00    -0.744 OA
ENDBRANCH  86  89
ENDBRANCH  58  82
BRANCH  70  93
ATOM     93  C   UNL A   1      44.232  28.026  34.442  1.00  0.00     0.023 A 
ATOM     94  C   UNL A   1      45.526  28.580  34.410  1.00  0.00     0.012 A 
ATOM     95  C   UNL A   1      44.015  26.810  35.121  1.00  0.00     0.148 A 
ATOM     96  C   UNL A   1      46.591  27.925  35.028  1.00  0.00     0.002 A 
ATOM     97  C   UNL A   1      45.071  26.187  35.775  1.00  0.00     0.091 A 
ATOM     98  F   UNL A   1      42.778  26.292  35.123  1.00  0.00    -0.205 F 
ATOM     99  C   UNL A   1      46.361  26.738  35.721  1.00  0.00     0.022 A 
BRANCH  97 100
ATOM    100  S   UNL A   1      44.849  24.711  36.775  1.00  0.00     0.127 S 
ATOM    101  O   UNL A   1      46.149  24.602  37.435  1.00  0.00    -0.237 OA
ATOM    102  O   UNL A   1      43.747  25.098  37.657  1.00  0.00    -0.237 OA
ATOM    103  O   UNL A   1      44.530  23.638  35.844  1.00  0.00    -0.744 OA
ENDBRANCH  97 100
ENDBRANCH  70  93
ENDBRANCH  44  45
ENDBRANCH  36  39
ENDBRANCH  34  35
ENDBRANCH  33  34
ENDBRANCH   1  33
TORSDOF 20
ENDMDL
MODEL 3
REMARK VINA RESULT:     -11.7      6.117     10.209
REMARK SMILES COc1ccc(OC)c([C@H](C(=O)NCCCCNC(=O)c2ccc(-c3c4nc(c(-c5cccc(S(=O)(=O)[O-])c5F)c5ccc([nH]5)c(-c5cccc(S(=O)(=O)[O-])c5F)c5nc(c(-c6cccc(S(=O)(=O)[O-])c6F)c6ccc3[nH]6)C=C5)C=C4)cc2)[NH+]2CC[NH+](Cc3nccn3C)CC2)c1
REMARK SMILES IDX 15 1 14 2 13 3 11 4 12 5 10 7 9 8 3 9 4 10 97 11 5 12 6 13
REMARK SMILES IDX 2 14 1 15 7 16 8 17 84 18 85 19 96 20 86 22 95 23 87 24
REMARK SMILES IDX 88 26 89 27 90 28 93 29 91 30 92 31 94 32 16 33 17 34 18 35
REMARK SMILES IDX 19 36 20 38 21 39 22 40 83 41 23 42 82 43 24 44 25 45 26 46
REMARK SMILES IDX 76 47 27 48 81 49 75 50 77 51 28 52 80 53 74 54 73 55 29 57
REMARK SMILES IDX 61 58 41 59 60 60 42 61 45 62 59 63 78 64 43 65 44 66 58 68
REMARK SMILES IDX 79 69 46 70 30 71 31 72 39 73 32 74 34 75 40 76 33 77 35 78
REMARK SMILES IDX 36 79 37 80 38 81 62 82 63 83 71 84 64 85 66 86 72 87 65 88
REMARK SMILES IDX 67 89 68 90 69 91 70 92 47 93 48 94 56 95 49 96 51 97 57 98
REMARK SMILES IDX 50 99 52 100 53 101 54 102 55 103
REMARK H PARENT 13 6 84 21 87 25 18 37 77 56 45 67
REMARK Flexibility Score: inf
ROOT
ATOM      1  C   UNL A   1      37.051  19.870  25.002  1.00  0.00     0.023 C 
ENDROOT
BRANCH   1   2
ATOM      2  C   UNL A   1      36.887  21.353  25.320  1.00  0.00     0.116 C 
BRANCH   2   3
ATOM      3  N   UNL A   1      35.926  21.584  26.380  1.00  0.00    -0.351 N 
ATOM      4  C   UNL A   1      34.562  21.578  26.335  1.00  0.00     0.283 C 
ATOM      5  O   UNL A   1      34.004  21.598  27.432  1.00  0.00    -0.268 OA
ATOM      6  H   UNL A   1      36.316  21.773  27.264  1.00  0.00     0.163 HD
BRANCH   4   7
ATOM      7  C   UNL A   1      33.817  21.574  24.970  1.00  0.00     0.309 C 
BRANCH   7   8
ATOM      8  C   UNL A   1      33.262  20.197  24.588  1.00  0.00     0.065 A 
ATOM      9  C   UNL A   1      33.240  17.783  25.025  1.00  0.00     0.119 A 
ATOM     10  C   UNL A   1      32.500  17.586  23.863  1.00  0.00     0.050 A 
ATOM     11  C   UNL A   1      33.569  19.083  25.404  1.00  0.00     0.060 A 
ATOM     12  C   UNL A   1      32.134  18.674  23.068  1.00  0.00     0.051 A 
ATOM     13  C   UNL A   1      32.509  19.974  23.423  1.00  0.00     0.128 A 
BRANCH   9  14
ATOM     14  O   UNL A   1      33.611  16.649  25.693  1.00  0.00    -0.497 OA
ATOM     15  C   UNL A   1      32.957  15.443  25.300  1.00  0.00     0.278 C 
ENDBRANCH   9  14
BRANCH  13  16
ATOM     16  O   UNL A   1      32.220  20.939  22.495  1.00  0.00    -0.496 OA
ATOM     17  C   UNL A   1      31.795  20.415  21.238  1.00  0.00     0.278 C 
ENDBRANCH  13  16
ENDBRANCH   7   8
BRANCH   7  18
ATOM     18  N   UNL A   1      32.801  22.646  24.846  1.00  0.00    -0.311 N 
ATOM     19  C   UNL A   1      31.553  22.508  25.603  1.00  0.00     0.325 C 
ATOM     20  C   UNL A   1      33.319  24.019  24.838  1.00  0.00     0.325 C 
ATOM     21  H   UNL A   1      32.500  22.456  23.891  1.00  0.00     0.349 HD
ATOM     22  C   UNL A   1      31.405  23.351  26.886  1.00  0.00     0.324 C 
ATOM     23  C   UNL A   1      33.094  24.892  26.102  1.00  0.00     0.324 C 
ATOM     24  N   UNL A   1      31.807  24.757  26.786  1.00  0.00    -0.319 N 
ATOM     25  H   UNL A   1      31.984  25.100  27.731  1.00  0.00     0.348 HD
BRANCH  24  26
ATOM     26  C   UNL A   1      30.735  25.666  26.374  1.00  0.00     0.339 C 
BRANCH  26  27
ATOM     27  C   UNL A   1      31.154  27.017  25.878  1.00  0.00     0.164 A 
ATOM     28  N   UNL A   1      31.622  27.998  26.633  1.00  0.00    -0.236 NA
ATOM     29  N   UNL A   1      31.118  27.419  24.561  1.00  0.00    -0.333 N 
ATOM     30  C   UNL A   1      31.749  29.084  25.814  1.00  0.00     0.131 A 
ATOM     31  C   UNL A   1      31.437  28.751  24.522  1.00  0.00     0.107 A 
ATOM     32  C   UNL A   1      30.795  26.639  23.392  1.00  0.00     0.151 C 
ENDBRANCH  26  27
ENDBRANCH  24  26
ENDBRANCH   7  18
ENDBRANCH   4   7
ENDBRANCH   2   3
ENDBRANCH   1   2
BRANCH   1  33
ATOM     33  C   UNL A   1      38.493  19.355  25.014  1.00  0.00     0.023 C 
BRANCH  33  34
ATOM     34  C   UNL A   1      39.428  20.054  25.997  1.00  0.00     0.116 C 
BRANCH  34  35
ATOM     35  N   UNL A   1      40.700  19.362  26.133  1.00  0.00    -0.352 N 
ATOM     36  C   UNL A   1      41.949  19.905  26.341  1.00  0.00     0.251 C 
ATOM     37  H   UNL A   1      40.663  18.380  26.069  1.00  0.00     0.163 HD
ATOM     38  O   UNL A   1      42.954  19.221  26.249  1.00  0.00    -0.269 OA
BRANCH  36  39
ATOM     39  C   UNL A   1      42.046  21.346  26.661  1.00  0.00     0.039 A 
ATOM     40  C   UNL A   1      42.245  21.741  27.986  1.00  0.00     0.014 A 
ATOM     41  C   UNL A   1      41.995  22.291  25.634  1.00  0.00     0.014 A 
ATOM     42  C   UNL A   1      42.460  23.092  28.274  1.00  0.00     0.010 A 
ATOM     43  C   UNL A   1      42.279  23.621  25.915  1.00  0.00     0.010 A 
ATOM     44  C   UNL A   1      42.511  24.037  27.237  1.00  0.00    -0.014 A 
BRANCH  44  45
ATOM     45  C   UNL A   1      42.786  25.474  27.492  1.00  0.00     0.031 A 
ATOM     46  C   UNL A   1      44.188  25.997  27.324  1.00  0.00     0.074 A 
ATOM     47  C   UNL A   1      41.820  26.272  27.990  1.00  0.00     0.049 A 
ATOM     48  N   UNL A   1      44.681  27.162  27.650  1.00  0.00    -0.248 NA
ATOM     49  C   UNL A   1      45.174  25.068  26.745  1.00  0.00     0.031 C 
ATOM     50  C   UNL A   1      40.438  25.867  28.253  1.00  0.00     0.029 A 
ATOM     51  N   UNL A   1      41.866  27.581  28.399  1.00  0.00    -0.354 N 
ATOM     52  C   UNL A   1      46.039  27.091  27.366  1.00  0.00     0.074 A 
ATOM     53  C   UNL A   1      46.299  25.758  26.867  1.00  0.00     0.031 C 
ATOM     54  C   UNL A   1      39.771  26.903  28.788  1.00  0.00     0.029 A 
ATOM     55  C   UNL A   1      40.683  28.033  28.939  1.00  0.00     0.049 A 
ATOM     56  H   UNL A   1      42.669  28.145  28.315  1.00  0.00     0.167 HD
ATOM     57  C   UNL A   1      46.982  28.054  27.485  1.00  0.00     0.034 A 
ATOM     58  C   UNL A   1      40.375  29.217  29.506  1.00  0.00     0.034 A 
ATOM     59  C   UNL A   1      46.707  29.394  27.925  1.00  0.00     0.049 A 
ATOM     60  C   UNL A   1      41.431  30.288  29.581  1.00  0.00     0.074 A 
ATOM     61  C   UNL A   1      47.576  30.467  28.006  1.00  0.00     0.029 A 
ATOM     62  N   UNL A   1      45.469  29.846  28.357  1.00  0.00    -0.354 N 
ATOM     63  N   UNL A   1      42.680  30.244  29.185  1.00  0.00    -0.248 NA
ATOM     64  C   UNL A   1      41.029  31.583  30.152  1.00  0.00     0.031 C 
ATOM     65  C   UNL A   1      46.865  31.567  28.496  1.00  0.00     0.029 A 
ATOM     66  C   UNL A   1      45.548  31.183  28.699  1.00  0.00     0.049 A 
ATOM     67  H   UNL A   1      44.655  29.295  28.410  1.00  0.00     0.167 HD
ATOM     68  C   UNL A   1      43.197  31.515  29.410  1.00  0.00     0.074 A 
ATOM     69  C   UNL A   1      42.124  32.310  29.971  1.00  0.00     0.031 C 
ATOM     70  C   UNL A   1      44.449  31.979  29.182  1.00  0.00     0.034 A 
BRANCH  57  71
ATOM     71  C   UNL A   1      48.390  27.709  27.078  1.00  0.00     0.023 A 
ATOM     72  C   UNL A   1      49.297  27.236  28.049  1.00  0.00     0.012 A 
ATOM     73  C   UNL A   1      48.802  27.803  25.735  1.00  0.00     0.148 A 
ATOM     74  C   UNL A   1      50.602  26.898  27.697  1.00  0.00     0.002 A 
ATOM     75  C   UNL A   1      50.092  27.420  25.383  1.00  0.00     0.091 A 
ATOM     76  F   UNL A   1      47.934  28.274  24.829  1.00  0.00    -0.205 F 
ATOM     77  C   UNL A   1      50.996  26.981  26.364  1.00  0.00     0.022 A 
BRANCH  75  78
ATOM     78  S   UNL A   1      50.669  27.410  23.683  1.00  0.00     0.127 S 
ATOM     79  O   UNL A   1      50.902  28.834  23.442  1.00  0.00    -0.237 OA
ATOM     80  O   UNL A   1      51.885  26.602  23.773  1.00  0.00    -0.237 OA
ATOM     81  O   UNL A   1      49.599  26.808  22.900  1.00  0.00    -0.744 OA
ENDBRANCH  75  78
ENDBRANCH  57  71
BRANCH  58  82
ATOM     82  C   UNL A   1      38.987  29.480  29.982  1.00  0.00     0.023 A 
ATOM     83  C   UNL A   1      38.620  29.080  31.282  1.00  0.00     0.012 A 
ATOM     84  C   UNL A   1      38.038  30.137  29.174  1.00  0.00     0.148 A 
ATOM     85  C   UNL A   1      37.325  29.297  31.757  1.00  0.00     0.002 A 
ATOM     86  C   UNL A   1      36.766  30.397  29.672  1.00  0.00     0.091 A 
ATOM     87  F   UNL A   1      38.402  30.500  27.936  1.00  0.00    -0.205 F 
ATOM     88  C   UNL A   1      36.402  29.963  30.955  1.00  0.00     0.022 A 
BRANCH  86  89
ATOM     89  S   UNL A   1      35.554  31.361  28.761  1.00  0.00     0.127 S 
ATOM     90  O   UNL A   1      36.403  32.295  28.027  1.00  0.00    -0.237 OA
ATOM     91  O   UNL A   1      34.910  30.337  27.936  1.00  0.00    -0.237 OA
ATOM     92  O   UNL A   1      34.684  31.951  29.768  1.00  0.00    -0.744 OA
ENDBRANCH  86  89
ENDBRANCH  58  82
BRANCH  70  93
ATOM     93  C   UNL A   1      44.730  33.429  29.471  1.00  0.00     0.023 A 
ATOM     94  C   UNL A   1      45.244  33.811  30.725  1.00  0.00     0.012 A 
ATOM     95  C   UNL A   1      44.587  34.396  28.456  1.00  0.00     0.148 A 
ATOM     96  C   UNL A   1      45.593  35.138  30.971  1.00  0.00     0.002 A 
ATOM     97  C   UNL A   1      44.981  35.707  28.692  1.00  0.00     0.091 A 
ATOM     98  F   UNL A   1      44.079  34.013  27.276  1.00  0.00    -0.205 F 
ATOM     99  C   UNL A   1      45.475  36.083  29.952  1.00  0.00     0.022 A 
BRANCH  97 100
ATOM    100  S   UNL A   1      44.959  36.966  27.410  1.00  0.00     0.127 S 
ATOM    101  O   UNL A   1      45.496  38.125  28.123  1.00  0.00    -0.237 OA
ATOM    102  O   UNL A   1      45.858  36.398  26.404  1.00  0.00    -0.237 OA
ATOM    103  O   UNL A   1      43.572  37.083  26.985  1.00  0.00    -0.744 OA
ENDBRANCH  97 100
ENDBRANCH  70  93
ENDBRANCH  44  45
ENDBRANCH  36  39
ENDBRANCH  34  35
ENDBRANCH  33  34
ENDBRANCH   1  33
TORSDOF 20
ENDMDL
