MODEL 1
REMARK VINA RESULT:     -11.1      0.000      0.000
REMARK SMILES [NH3+]CC[C@@H](C(=O)NCCCCNC(=O)c1ccc(-c2c3nc(c(-c4cccc(S(=O)(=O)[O-])c4F)c4ccc([nH]4)c(-c4cccc(S(=O)(=O)[O-])c4F)c4nc(c(-c5cccc(S(=O)(=O)[O-])c5F)c5ccc2[nH]5)C=C4)C=C3)cc1)c1ccc(F)cc1
REMARK SMILES IDX 9 1 8 2 7 3 5 4 6 5 4 7 3 8 2 9 1 10 78 14 79 15 84 16 80 17
REMARK SMILES IDX 83 18 81 19 82 20 10 21 11 22 12 23 13 24 14 26 15 27 16 28
REMARK SMILES IDX 77 29 17 30 76 31 18 32 19 33 20 34 70 35 21 36 75 37 69 38
REMARK SMILES IDX 71 39 22 40 74 41 68 42 67 43 23 45 55 46 35 47 54 48 36 49
REMARK SMILES IDX 39 50 53 51 72 52 37 53 38 54 52 56 73 57 40 58 24 59 25 60
REMARK SMILES IDX 33 61 26 62 28 63 34 64 27 65 29 66 30 67 31 68 32 69 56 70
REMARK SMILES IDX 57 71 65 72 58 73 60 74 66 75 59 76 61 77 62 78 63 79 64 80
REMARK SMILES IDX 41 81 42 82 50 83 43 84 45 85 51 86 44 87 46 88 47 89 48 90
REMARK SMILES IDX 49 91
REMARK H PARENT 7 6 1 11 1 12 1 13 12 25 71 44 39 55
REMARK Flexibility Score: inf
ROOT
ATOM      1  C   UNL A   1      34.535  22.310  24.717  1.00  0.00     0.023 C 
ENDROOT
BRANCH   1   2
ATOM      2  C   UNL A   1      35.014  23.764  24.766  1.00  0.00     0.116 C 
BRANCH   2   3
ATOM      3  N   UNL A   1      34.070  24.610  24.066  1.00  0.00    -0.356 N 
ATOM      4  C   UNL A   1      32.831  25.025  24.454  1.00  0.00     0.227 C 
ATOM      5  O   UNL A   1      32.033  25.282  23.547  1.00  0.00    -0.274 OA
ATOM      6  H   UNL A   1      34.366  24.932  23.183  1.00  0.00     0.163 HD
BRANCH   4   7
ATOM      7  C   UNL A   1      32.462  25.204  25.951  1.00  0.00     0.114 C 
BRANCH   7   8
ATOM      8  C   UNL A   1      31.010  24.677  26.151  1.00  0.00     0.079 C 
BRANCH   8   9
ATOM      9  C   UNL A   1      30.838  23.303  26.806  1.00  0.00     0.259 C 
BRANCH   9  10
ATOM     10  N   UNL A   1      31.225  22.167  25.984  1.00  0.00    -0.358 N 
ATOM     11  H   UNL A   1      32.080  22.392  25.474  1.00  0.00     0.344 HD
ATOM     12  H   UNL A   1      30.479  21.955  25.321  1.00  0.00     0.344 HD
ATOM     13  H   UNL A   1      31.389  21.356  26.581  1.00  0.00     0.344 HD
ENDBRANCH   9  10
ENDBRANCH   8   9
ENDBRANCH   7   8
BRANCH   7  14
ATOM     14  C   UNL A   1      32.614  26.689  26.394  1.00  0.00    -0.035 A 
ATOM     15  C   UNL A   1      31.579  27.380  27.056  1.00  0.00     0.007 A 
ATOM     16  C   UNL A   1      33.809  27.404  26.164  1.00  0.00     0.007 A 
ATOM     17  C   UNL A   1      31.672  28.749  27.324  1.00  0.00     0.039 A 
ATOM     18  C   UNL A   1      33.909  28.772  26.440  1.00  0.00     0.039 A 
ATOM     19  C   UNL A   1      32.827  29.438  26.992  1.00  0.00     0.123 A 
ATOM     20  F   UNL A   1      32.901  30.757  27.218  1.00  0.00    -0.207 F 
ENDBRANCH   7  14
ENDBRANCH   4   7
ENDBRANCH   2   3
ENDBRANCH   1   2
BRANCH   1  21
ATOM     21  C   UNL A   1      35.620  21.259  24.924  1.00  0.00     0.023 C 
BRANCH  21  22
ATOM     22  C   UNL A   1      36.969  21.814  25.351  1.00  0.00     0.116 C 
BRANCH  22  23
ATOM     23  N   UNL A   1      37.992  20.790  25.529  1.00  0.00    -0.352 N 
ATOM     24  C   UNL A   1      39.255  20.926  26.062  1.00  0.00     0.251 C 
ATOM     25  H   UNL A   1      37.748  19.885  25.231  1.00  0.00     0.163 HD
ATOM     26  O   UNL A   1      40.034  19.984  26.067  1.00  0.00    -0.269 OA
BRANCH  24  27
ATOM     27  C   UNL A   1      39.664  22.245  26.588  1.00  0.00     0.039 A 
ATOM     28  C   UNL A   1      40.689  22.310  27.535  1.00  0.00     0.014 A 
ATOM     29  C   UNL A   1      39.091  23.413  26.080  1.00  0.00     0.014 A 
ATOM     30  C   UNL A   1      41.197  23.555  27.911  1.00  0.00     0.010 A 
ATOM     31  C   UNL A   1      39.660  24.643  26.385  1.00  0.00     0.010 A 
ATOM     32  C   UNL A   1      40.716  24.727  27.305  1.00  0.00    -0.014 A 
BRANCH  32  33
ATOM     33  C   UNL A   1      41.301  26.058  27.609  1.00  0.00     0.031 A 
ATOM     34  C   UNL A   1      42.697  26.384  27.151  1.00  0.00     0.074 A 
ATOM     35  C   UNL A   1      40.624  26.924  28.390  1.00  0.00     0.049 A 
ATOM     36  N   UNL A   1      43.415  27.447  27.393  1.00  0.00    -0.248 NA
ATOM     37  C   UNL A   1      43.391  25.360  26.350  1.00  0.00     0.031 C 
ATOM     38  C   UNL A   1      39.303  26.684  28.977  1.00  0.00     0.029 A 
ATOM     39  N   UNL A   1      40.967  28.171  28.849  1.00  0.00    -0.354 N 
ATOM     40  C   UNL A   1      44.657  27.203  26.819  1.00  0.00     0.074 A 
ATOM     41  C   UNL A   1      44.608  25.875  26.249  1.00  0.00     0.031 C 
ATOM     42  C   UNL A   1      38.945  27.753  29.708  1.00  0.00     0.029 A 
ATOM     43  C   UNL A   1      40.016  28.742  29.664  1.00  0.00     0.049 A 
ATOM     44  H   UNL A   1      41.814  28.615  28.616  1.00  0.00     0.167 HD
ATOM     45  C   UNL A   1      45.731  28.023  26.739  1.00  0.00     0.034 A 
ATOM     46  C   UNL A   1      40.010  29.930  30.300  1.00  0.00     0.034 A 
ATOM     47  C   UNL A   1      45.748  29.371  27.237  1.00  0.00     0.049 A 
ATOM     48  C   UNL A   1      41.184  30.856  30.124  1.00  0.00     0.074 A 
ATOM     49  C   UNL A   1      46.742  30.323  27.105  1.00  0.00     0.029 A 
ATOM     50  N   UNL A   1      44.719  29.958  27.957  1.00  0.00    -0.354 N 
ATOM     51  N   UNL A   1      42.282  30.674  29.430  1.00  0.00    -0.248 NA
ATOM     52  C   UNL A   1      41.105  32.166  30.787  1.00  0.00     0.031 C 
ATOM     53  C   UNL A   1      46.316  31.487  27.753  1.00  0.00     0.029 A 
ATOM     54  C   UNL A   1      45.053  31.262  28.278  1.00  0.00     0.049 A 
ATOM     55  H   UNL A   1      43.876  29.514  28.202  1.00  0.00     0.167 HD
ATOM     56  C   UNL A   1      43.004  31.857  29.540  1.00  0.00     0.074 A 
ATOM     57  C   UNL A   1      42.211  32.756  30.352  1.00  0.00     0.031 C 
ATOM     58  C   UNL A   1      44.223  32.165  29.031  1.00  0.00     0.034 A 
BRANCH  45  59
ATOM     59  C   UNL A   1      46.950  27.510  26.020  1.00  0.00     0.023 A 
ATOM     60  C   UNL A   1      47.865  26.688  26.709  1.00  0.00     0.012 A 
ATOM     61  C   UNL A   1      47.167  27.796  24.658  1.00  0.00     0.148 A 
ATOM     62  C   UNL A   1      48.995  26.187  26.065  1.00  0.00     0.002 A 
ATOM     63  C   UNL A   1      48.274  27.259  24.012  1.00  0.00     0.091 A 
ATOM     64  F   UNL A   1      46.300  28.601  24.027  1.00  0.00    -0.205 F 
ATOM     65  C   UNL A   1      49.193  26.463  24.715  1.00  0.00     0.022 A 
BRANCH  63  66
ATOM     66  S   UNL A   1      48.577  27.493  22.257  1.00  0.00     0.127 S 
ATOM     67  O   UNL A   1      49.821  28.261  22.273  1.00  0.00    -0.237 OA
ATOM     68  O   UNL A   1      48.717  26.117  21.780  1.00  0.00    -0.237 OA
ATOM     69  O   UNL A   1      47.412  28.199  21.740  1.00  0.00    -0.744 OA
ENDBRANCH  63  66
ENDBRANCH  45  59
BRANCH  46  70
ATOM     70  C   UNL A   1      38.816  30.351  31.085  1.00  0.00     0.023 A 
ATOM     71  C   UNL A   1      38.772  30.073  32.466  1.00  0.00     0.012 A 
ATOM     72  C   UNL A   1      37.743  31.041  30.491  1.00  0.00     0.148 A 
ATOM     73  C   UNL A   1      37.669  30.446  33.235  1.00  0.00     0.002 A 
ATOM     74  C   UNL A   1      36.669  31.456  31.273  1.00  0.00     0.091 A 
ATOM     75  F   UNL A   1      37.794  31.285  29.174  1.00  0.00    -0.205 F 
ATOM     76  C   UNL A   1      36.623  31.146  32.640  1.00  0.00     0.022 A 
BRANCH  74  77
ATOM     77  S   UNL A   1      35.341  32.473  30.615  1.00  0.00     0.127 S 
ATOM     78  O   UNL A   1      35.997  33.772  30.484  1.00  0.00    -0.237 OA
ATOM     79  O   UNL A   1      35.041  31.803  29.350  1.00  0.00    -0.237 OA
ATOM     80  O   UNL A   1      34.272  32.396  31.601  1.00  0.00    -0.744 OA
ENDBRANCH  74  77
ENDBRANCH  46  70
BRANCH  58  81
ATOM     81  C   UNL A   1      44.767  33.541  29.303  1.00  0.00     0.023 A 
ATOM     82  C   UNL A   1      45.506  33.777  30.479  1.00  0.00     0.012 A 
ATOM     83  C   UNL A   1      44.623  34.572  28.355  1.00  0.00     0.148 A 
ATOM     84  C   UNL A   1      46.072  35.028  30.718  1.00  0.00     0.002 A 
ATOM     85  C   UNL A   1      45.227  35.802  28.580  1.00  0.00     0.091 A 
ATOM     86  F   UNL A   1      43.898  34.333  27.253  1.00  0.00    -0.205 F 
ATOM     87  C   UNL A   1      45.944  36.036  29.765  1.00  0.00     0.022 A 
BRANCH  85  88
ATOM     88  S   UNL A   1      45.195  37.122  27.361  1.00  0.00     0.127 S 
ATOM     89  O   UNL A   1      46.040  36.571  26.303  1.00  0.00    -0.237 OA
ATOM     90  O   UNL A   1      43.774  37.204  27.024  1.00  0.00    -0.237 OA
ATOM     91  O   UNL A   1      45.722  38.300  28.037  1.00  0.00    -0.744 OA
ENDBRANCH  85  88
ENDBRANCH  58  81
ENDBRANCH  32  33
ENDBRANCH  24  27
ENDBRANCH  22  23
ENDBRANCH  21  22
ENDBRANCH   1  21
TORSDOF 18
ENDMDL
MODEL 2
REMARK VINA RESULT:     -11.1      5.391     10.074
REMARK SMILES [NH3+]CC[C@@H](C(=O)NCCCCNC(=O)c1ccc(-c2c3nc(c(-c4cccc(S(=O)(=O)[O-])c4F)c4ccc([nH]4)c(-c4cccc(S(=O)(=O)[O-])c4F)c4nc(c(-c5cccc(S(=O)(=O)[O-])c5F)c5ccc2[nH]5)C=C4)C=C3)cc1)c1ccc(F)cc1
REMARK SMILES IDX 9 1 8 2 7 3 5 4 6 5 4 7 3 8 2 9 1 10 78 14 79 15 84 16 80 17
REMARK SMILES IDX 83 18 81 19 82 20 10 21 11 22 12 23 13 24 14 26 15 27 16 28
REMARK SMILES IDX 77 29 17 30 76 31 18 32 19 33 20 34 70 35 21 36 75 37 69 38
REMARK SMILES IDX 71 39 22 40 74 41 68 42 67 43 23 45 55 46 35 47 54 48 36 49
REMARK SMILES IDX 39 50 53 51 72 52 37 53 38 54 52 56 73 57 40 58 24 59 25 60
REMARK SMILES IDX 33 61 26 62 28 63 34 64 27 65 29 66 30 67 31 68 32 69 56 70
REMARK SMILES IDX 57 71 65 72 58 73 60 74 66 75 59 76 61 77 62 78 63 79 64 80
REMARK SMILES IDX 41 81 42 82 50 83 43 84 45 85 51 86 44 87 46 88 47 89 48 90
REMARK SMILES IDX 49 91
REMARK H PARENT 7 6 1 11 1 12 1 13 12 25 71 44 39 55
REMARK Flexibility Score: inf
ROOT
ATOM      1  C   UNL A   1      33.974  26.696  24.571  1.00  0.00     0.023 C 
ENDROOT
BRANCH   1   2
ATOM      2  C   UNL A   1      33.290  25.333  24.424  1.00  0.00     0.116 C 
BRANCH   2   3
ATOM      3  N   UNL A   1      34.012  24.528  23.460  1.00  0.00    -0.356 N 
ATOM      4  C   UNL A   1      34.921  23.535  23.675  1.00  0.00     0.227 C 
ATOM      5  O   UNL A   1      35.756  23.357  22.782  1.00  0.00    -0.274 OA
ATOM      6  H   UNL A   1      33.819  24.728  22.515  1.00  0.00     0.163 HD
BRANCH   4   7
ATOM      7  C   UNL A   1      34.877  22.651  24.950  1.00  0.00     0.114 C 
BRANCH   7   8
ATOM      8  C   UNL A   1      36.337  22.496  25.473  1.00  0.00     0.079 C 
BRANCH   8   9
ATOM      9  C   UNL A   1      37.061  23.761  25.940  1.00  0.00     0.259 C 
BRANCH   9  10
ATOM     10  N   UNL A   1      38.480  23.821  25.624  1.00  0.00    -0.358 N 
ATOM     11  H   UNL A   1      38.642  23.404  24.707  1.00  0.00     0.344 HD
ATOM     12  H   UNL A   1      39.009  23.306  26.329  1.00  0.00     0.344 HD
ATOM     13  H   UNL A   1      38.785  24.794  25.613  1.00  0.00     0.344 HD
ENDBRANCH   9  10
ENDBRANCH   8   9
ENDBRANCH   7   8
BRANCH   7  14
ATOM     14  C   UNL A   1      34.208  21.275  24.658  1.00  0.00    -0.035 A 
ATOM     15  C   UNL A   1      32.866  21.171  24.239  1.00  0.00     0.007 A 
ATOM     16  C   UNL A   1      34.930  20.069  24.784  1.00  0.00     0.007 A 
ATOM     17  C   UNL A   1      32.236  19.929  24.115  1.00  0.00     0.039 A 
ATOM     18  C   UNL A   1      34.304  18.825  24.650  1.00  0.00     0.039 A 
ATOM     19  C   UNL A   1      32.954  18.767  24.344  1.00  0.00     0.123 A 
ATOM     20  F   UNL A   1      32.340  17.580  24.258  1.00  0.00    -0.207 F 
ENDBRANCH   7  14
ENDBRANCH   4   7
ENDBRANCH   2   3
ENDBRANCH   1   2
BRANCH   1  21
ATOM     21  C   UNL A   1      33.391  27.605  25.647  1.00  0.00     0.023 C 
BRANCH  21  22
ATOM     22  C   UNL A   1      34.413  28.459  26.380  1.00  0.00     0.116 C 
BRANCH  22  23
ATOM     23  N   UNL A   1      33.923  29.788  26.726  1.00  0.00    -0.352 N 
ATOM     24  C   UNL A   1      34.487  30.713  27.576  1.00  0.00     0.251 C 
ATOM     25  H   UNL A   1      33.081  30.059  26.295  1.00  0.00     0.163 HD
ATOM     26  O   UNL A   1      33.908  31.760  27.831  1.00  0.00    -0.269 OA
BRANCH  24  27
ATOM     27  C   UNL A   1      35.785  30.396  28.207  1.00  0.00     0.039 A 
ATOM     28  C   UNL A   1      35.798  29.721  29.431  1.00  0.00     0.014 A 
ATOM     29  C   UNL A   1      36.979  30.692  27.547  1.00  0.00     0.014 A 
ATOM     30  C   UNL A   1      37.012  29.267  29.951  1.00  0.00     0.010 A 
ATOM     31  C   UNL A   1      38.172  30.159  28.019  1.00  0.00     0.010 A 
ATOM     32  C   UNL A   1      38.202  29.444  29.226  1.00  0.00    -0.014 A 
BRANCH  32  33
ATOM     33  C   UNL A   1      39.494  28.890  29.703  1.00  0.00     0.031 A 
ATOM     34  C   UNL A   1      40.236  29.577  30.818  1.00  0.00     0.074 A 
ATOM     35  C   UNL A   1      40.052  27.844  29.061  1.00  0.00     0.049 A 
ATOM     36  N   UNL A   1      41.414  29.304  31.313  1.00  0.00    -0.248 NA
ATOM     37  C   UNL A   1      39.585  30.749  31.429  1.00  0.00     0.031 C 
ATOM     38  C   UNL A   1      39.476  27.153  27.903  1.00  0.00     0.029 A 
ATOM     39  N   UNL A   1      41.242  27.195  29.273  1.00  0.00    -0.354 N 
ATOM     40  C   UNL A   1      41.666  30.295  32.254  1.00  0.00     0.074 A 
ATOM     41  C   UNL A   1      40.536  31.196  32.236  1.00  0.00     0.031 C 
ATOM     42  C   UNL A   1      40.310  26.173  27.516  1.00  0.00     0.029 A 
ATOM     43  C   UNL A   1      41.487  26.179  28.378  1.00  0.00     0.049 A 
ATOM     44  H   UNL A   1      41.862  27.434  30.000  1.00  0.00     0.167 HD
ATOM     45  C   UNL A   1      42.725  30.424  33.087  1.00  0.00     0.034 A 
ATOM     46  C   UNL A   1      42.540  25.346  28.268  1.00  0.00     0.034 A 
ATOM     47  C   UNL A   1      43.808  29.481  33.157  1.00  0.00     0.049 A 
ATOM     48  C   UNL A   1      43.665  25.459  29.262  1.00  0.00     0.074 A 
ATOM     49  C   UNL A   1      44.869  29.456  34.044  1.00  0.00     0.029 A 
ATOM     50  N   UNL A   1      43.963  28.394  32.311  1.00  0.00    -0.354 N 
ATOM     51  N   UNL A   1      43.802  26.299  30.261  1.00  0.00    -0.248 NA
ATOM     52  C   UNL A   1      44.763  24.489  29.140  1.00  0.00     0.031 C 
ATOM     53  C   UNL A   1      45.672  28.355  33.728  1.00  0.00     0.029 A 
ATOM     54  C   UNL A   1      45.103  27.690  32.653  1.00  0.00     0.049 A 
ATOM     55  H   UNL A   1      43.352  28.159  31.577  1.00  0.00     0.167 HD
ATOM     56  C   UNL A   1      44.978  25.934  30.907  1.00  0.00     0.074 A 
ATOM     57  C   UNL A   1      45.505  24.786  30.199  1.00  0.00     0.031 C 
ATOM     58  C   UNL A   1      45.578  26.510  31.978  1.00  0.00     0.034 A 
BRANCH  45  59
ATOM     59  C   UNL A   1      42.725  31.586  34.044  1.00  0.00     0.023 A 
ATOM     60  C   UNL A   1      43.245  32.826  33.626  1.00  0.00     0.012 A 
ATOM     61  C   UNL A   1      42.168  31.468  35.333  1.00  0.00     0.148 A 
ATOM     62  C   UNL A   1      43.245  33.924  34.485  1.00  0.00     0.002 A 
ATOM     63  C   UNL A   1      42.132  32.578  36.169  1.00  0.00     0.091 A 
ATOM     64  F   UNL A   1      41.700  30.273  35.722  1.00  0.00    -0.205 F 
ATOM     65  C   UNL A   1      42.679  33.803  35.752  1.00  0.00     0.022 A 
BRANCH  63  66
ATOM     66  S   UNL A   1      41.358  32.544  37.790  1.00  0.00     0.127 S 
ATOM     67  O   UNL A   1      40.001  32.112  37.459  1.00  0.00    -0.237 OA
ATOM     68  O   UNL A   1      42.161  31.545  38.495  1.00  0.00    -0.237 OA
ATOM     69  O   UNL A   1      41.474  33.897  38.316  1.00  0.00    -0.744 OA
ENDBRANCH  63  66
ENDBRANCH  45  59
BRANCH  46  70
ATOM     70  C   UNL A   1      42.538  24.271  27.236  1.00  0.00     0.023 A 
ATOM     71  C   UNL A   1      43.413  24.379  26.135  1.00  0.00     0.012 A 
ATOM     72  C   UNL A   1      41.708  23.141  27.343  1.00  0.00     0.148 A 
ATOM     73  C   UNL A   1      43.437  23.396  25.145  1.00  0.00     0.002 A 
ATOM     74  C   UNL A   1      41.773  22.140  26.378  1.00  0.00     0.091 A 
ATOM     75  F   UNL A   1      40.872  23.062  28.388  1.00  0.00    -0.205 F 
ATOM     76  C   UNL A   1      42.625  22.273  25.272  1.00  0.00     0.022 A 
BRANCH  74  77
ATOM     77  S   UNL A   1      40.858  20.601  26.530  1.00  0.00     0.127 S 
ATOM     78  O   UNL A   1      39.528  20.997  26.072  1.00  0.00    -0.237 OA
ATOM     79  O   UNL A   1      41.587  19.720  25.618  1.00  0.00    -0.237 OA
ATOM     80  O   UNL A   1      40.962  20.226  27.934  1.00  0.00    -0.744 OA
ENDBRANCH  74  77
ENDBRANCH  46  70
BRANCH  58  81
ATOM     81  C   UNL A   1      46.855  25.893  32.480  1.00  0.00     0.023 A 
ATOM     82  C   UNL A   1      48.092  26.364  31.998  1.00  0.00     0.012 A 
ATOM     83  C   UNL A   1      46.833  24.912  33.490  1.00  0.00     0.148 A 
ATOM     84  C   UNL A   1      49.287  25.850  32.496  1.00  0.00     0.002 A 
ATOM     85  C   UNL A   1      48.028  24.437  34.014  1.00  0.00     0.091 A 
ATOM     86  F   UNL A   1      45.645  24.462  33.919  1.00  0.00    -0.205 F 
ATOM     87  C   UNL A   1      49.256  24.897  33.512  1.00  0.00     0.022 A 
BRANCH  85  88
ATOM     88  S   UNL A   1      48.079  23.282  35.389  1.00  0.00     0.127 S 
ATOM     89  O   UNL A   1      47.279  23.980  36.394  1.00  0.00    -0.237 OA
ATOM     90  O   UNL A   1      47.442  22.092  34.824  1.00  0.00    -0.237 OA
ATOM     91  O   UNL A   1      49.489  23.113  35.714  1.00  0.00    -0.744 OA
ENDBRANCH  85  88
ENDBRANCH  58  81
ENDBRANCH  32  33
ENDBRANCH  24  27
ENDBRANCH  22  23
ENDBRANCH  21  22
ENDBRANCH   1  21
TORSDOF 18
ENDMDL
MODEL 3
REMARK VINA RESULT:     -11.0      2.967      8.914
REMARK SMILES [NH3+]CC[C@@H](C(=O)NCCCCNC(=O)c1ccc(-c2c3nc(c(-c4cccc(S(=O)(=O)[O-])c4F)c4ccc([nH]4)c(-c4cccc(S(=O)(=O)[O-])c4F)c4nc(c(-c5cccc(S(=O)(=O)[O-])c5F)c5ccc2[nH]5)C=C4)C=C3)cc1)c1ccc(F)cc1
REMARK SMILES IDX 9 1 8 2 7 3 5 4 6 5 4 7 3 8 2 9 1 10 78 14 79 15 84 16 80 17
REMARK SMILES IDX 83 18 81 19 82 20 10 21 11 22 12 23 13 24 14 26 15 27 16 28
REMARK SMILES IDX 77 29 17 30 76 31 18 32 19 33 20 34 70 35 21 36 75 37 69 38
REMARK SMILES IDX 71 39 22 40 74 41 68 42 67 43 23 45 55 46 35 47 54 48 36 49
REMARK SMILES IDX 39 50 53 51 72 52 37 53 38 54 52 56 73 57 40 58 24 59 25 60
REMARK SMILES IDX 33 61 26 62 28 63 34 64 27 65 29 66 30 67 31 68 32 69 56 70
REMARK SMILES IDX 57 71 65 72 58 73 60 74 66 75 59 76 61 77 62 78 63 79 64 80
REMARK SMILES IDX 41 81 42 82 50 83 43 84 45 85 51 86 44 87 46 88 47 89 48 90
REMARK SMILES IDX 49 91
REMARK H PARENT 7 6 1 11 1 12 1 13 12 25 71 44 39 55
REMARK Flexibility Score: inf
ROOT
ATOM      1  C   UNL A   1      37.418  21.750  24.652  1.00  0.00     0.023 C 
ENDROOT
BRANCH   1   2
ATOM      2  C   UNL A   1      36.647  22.693  25.582  1.00  0.00     0.116 C 
BRANCH   2   3
ATOM      3  N   UNL A   1      35.859  21.916  26.516  1.00  0.00    -0.356 N 
ATOM      4  C   UNL A   1      34.534  21.597  26.470  1.00  0.00     0.227 C 
ATOM      5  O   UNL A   1      33.983  21.396  27.556  1.00  0.00    -0.274 OA
ATOM      6  H   UNL A   1      36.350  21.570  27.296  1.00  0.00     0.163 HD
BRANCH   4   7
ATOM      7  C   UNL A   1      33.777  21.451  25.123  1.00  0.00     0.114 C 
BRANCH   7   8
ATOM      8  C   UNL A   1      32.347  22.041  25.313  1.00  0.00     0.079 C 
BRANCH   8   9
ATOM      9  C   UNL A   1      32.145  23.526  25.003  1.00  0.00     0.259 C 
BRANCH   9  10
ATOM     10  N   UNL A   1      33.031  24.439  25.709  1.00  0.00    -0.358 N 
ATOM     11  H   UNL A   1      33.328  25.182  25.076  1.00  0.00     0.344 HD
ATOM     12  H   UNL A   1      33.849  23.929  26.042  1.00  0.00     0.344 HD
ATOM     13  H   UNL A   1      32.537  24.847  26.503  1.00  0.00     0.344 HD
ENDBRANCH   9  10
ENDBRANCH   8   9
ENDBRANCH   7   8
BRANCH   7  14
ATOM     14  C   UNL A   1      33.743  19.967  24.654  1.00  0.00    -0.035 A 
ATOM     15  C   UNL A   1      34.844  19.104  24.827  1.00  0.00     0.007 A 
ATOM     16  C   UNL A   1      32.593  19.417  24.048  1.00  0.00     0.007 A 
ATOM     17  C   UNL A   1      34.854  17.817  24.279  1.00  0.00     0.039 A 
ATOM     18  C   UNL A   1      32.597  18.126  23.508  1.00  0.00     0.039 A 
ATOM     19  C   UNL A   1      33.739  17.348  23.604  1.00  0.00     0.123 A 
ATOM     20  F   UNL A   1      33.764  16.129  23.050  1.00  0.00    -0.207 F 
ENDBRANCH   7  14
ENDBRANCH   4   7
ENDBRANCH   2   3
ENDBRANCH   1   2
BRANCH   1  21
ATOM     21  C   UNL A   1      38.009  20.515  25.322  1.00  0.00     0.023 C 
BRANCH  21  22
ATOM     22  C   UNL A   1      39.368  20.730  25.967  1.00  0.00     0.116 C 
BRANCH  22  23
ATOM     23  N   UNL A   1      40.218  19.546  25.948  1.00  0.00    -0.352 N 
ATOM     24  C   UNL A   1      41.586  19.472  26.093  1.00  0.00     0.251 C 
ATOM     25  H   UNL A   1      39.755  18.688  25.814  1.00  0.00     0.163 HD
ATOM     26  O   UNL A   1      42.169  18.405  25.968  1.00  0.00    -0.269 OA
BRANCH  24  27
ATOM     27  C   UNL A   1      42.338  20.716  26.361  1.00  0.00     0.039 A 
ATOM     28  C   UNL A   1      42.755  21.501  25.283  1.00  0.00     0.014 A 
ATOM     29  C   UNL A   1      42.551  21.140  27.674  1.00  0.00     0.014 A 
ATOM     30  C   UNL A   1      43.313  22.758  25.527  1.00  0.00     0.010 A 
ATOM     31  C   UNL A   1      43.020  22.426  27.909  1.00  0.00     0.010 A 
ATOM     32  C   UNL A   1      43.409  23.247  26.840  1.00  0.00    -0.014 A 
BRANCH  32  33
ATOM     33  C   UNL A   1      43.907  24.616  27.127  1.00  0.00     0.031 A 
ATOM     34  C   UNL A   1      42.965  25.657  27.669  1.00  0.00     0.074 A 
ATOM     35  C   UNL A   1      45.170  24.952  26.795  1.00  0.00     0.049 A 
ATOM     36  N   UNL A   1      43.182  26.924  27.897  1.00  0.00    -0.248 NA
ATOM     37  C   UNL A   1      41.585  25.224  27.951  1.00  0.00     0.031 C 
ATOM     38  C   UNL A   1      46.151  24.058  26.172  1.00  0.00     0.029 A 
ATOM     39  N   UNL A   1      45.838  26.146  26.908  1.00  0.00    -0.354 N 
ATOM     40  C   UNL A   1      41.960  27.449  28.302  1.00  0.00     0.074 A 
ATOM     41  C   UNL A   1      40.997  26.372  28.251  1.00  0.00     0.031 C 
ATOM     42  C   UNL A   1      47.295  24.733  25.970  1.00  0.00     0.029 A 
ATOM     43  C   UNL A   1      47.124  26.109  26.422  1.00  0.00     0.049 A 
ATOM     44  H   UNL A   1      45.433  26.952  27.302  1.00  0.00     0.167 HD
ATOM     45  C   UNL A   1      41.672  28.706  28.715  1.00  0.00     0.034 A 
ATOM     46  C   UNL A   1      48.060  27.076  26.354  1.00  0.00     0.034 A 
ATOM     47  C   UNL A   1      42.649  29.751  28.839  1.00  0.00     0.049 A 
ATOM     48  C   UNL A   1      47.737  28.442  26.898  1.00  0.00     0.074 A 
ATOM     49  C   UNL A   1      42.486  31.023  29.356  1.00  0.00     0.029 A 
ATOM     50  N   UNL A   1      43.974  29.643  28.447  1.00  0.00    -0.354 N 
ATOM     51  N   UNL A   1      46.623  28.872  27.440  1.00  0.00    -0.248 NA
ATOM     52  C   UNL A   1      48.810  29.446  26.858  1.00  0.00     0.031 C 
ATOM     53  C   UNL A   1      43.714  31.688  29.270  1.00  0.00     0.029 A 
ATOM     54  C   UNL A   1      44.642  30.826  28.710  1.00  0.00     0.049 A 
ATOM     55  H   UNL A   1      44.380  28.843  28.043  1.00  0.00     0.167 HD
ATOM     56  C   UNL A   1      46.872  30.180  27.839  1.00  0.00     0.074 A 
ATOM     57  C   UNL A   1      48.249  30.467  27.493  1.00  0.00     0.031 C 
ATOM     58  C   UNL A   1      46.031  31.071  28.419  1.00  0.00     0.034 A 
BRANCH  45  59
ATOM     59  C   UNL A   1      40.256  28.995  29.137  1.00  0.00     0.023 A 
ATOM     60  C   UNL A   1      39.297  29.325  28.159  1.00  0.00     0.012 A 
ATOM     61  C   UNL A   1      39.862  28.893  30.485  1.00  0.00     0.148 A 
ATOM     62  C   UNL A   1      37.975  29.585  28.518  1.00  0.00     0.002 A 
ATOM     63  C   UNL A   1      38.534  29.111  30.831  1.00  0.00     0.091 A 
ATOM     64  F   UNL A   1      40.794  28.603  31.405  1.00  0.00    -0.205 F 
ATOM     65  C   UNL A   1      37.592  29.467  29.852  1.00  0.00     0.022 A 
BRANCH  63  66
ATOM     66  S   UNL A   1      37.925  28.910  32.509  1.00  0.00     0.127 S 
ATOM     67  O   UNL A   1      38.815  29.800  33.254  1.00  0.00    -0.237 OA
ATOM     68  O   UNL A   1      36.545  29.383  32.396  1.00  0.00    -0.237 OA
ATOM     69  O   UNL A   1      38.057  27.492  32.815  1.00  0.00    -0.744 OA
ENDBRANCH  63  66
ENDBRANCH  45  59
BRANCH  46  70
ATOM     70  C   UNL A   1      49.421  26.764  25.833  1.00  0.00     0.023 A 
ATOM     71  C   UNL A   1      50.318  26.045  26.649  1.00  0.00     0.012 A 
ATOM     72  C   UNL A   1      49.826  27.143  24.540  1.00  0.00     0.148 A 
ATOM     73  C   UNL A   1      51.602  25.737  26.200  1.00  0.00     0.002 A 
ATOM     74  C   UNL A   1      51.089  26.788  24.079  1.00  0.00     0.091 A 
ATOM     75  F   UNL A   1      48.966  27.838  23.782  1.00  0.00    -0.205 F 
ATOM     76  C   UNL A   1      51.984  26.100  24.911  1.00  0.00     0.022 A 
BRANCH  74  77
ATOM     77  S   UNL A   1      51.616  27.102  22.389  1.00  0.00     0.127 S 
ATOM     78  O   UNL A   1      50.472  26.614  21.623  1.00  0.00    -0.237 OA
ATOM     79  O   UNL A   1      51.784  28.556  22.386  1.00  0.00    -0.237 OA
ATOM     80  O   UNL A   1      52.857  26.357  22.226  1.00  0.00    -0.744 OA
ENDBRANCH  74  77
ENDBRANCH  46  70
BRANCH  58  81
ATOM     81  C   UNL A   1      46.577  32.432  28.756  1.00  0.00     0.023 A 
ATOM     82  C   UNL A   1      47.157  32.656  30.020  1.00  0.00     0.012 A 
ATOM     83  C   UNL A   1      46.596  33.459  27.792  1.00  0.00     0.148 A 
ATOM     84  C   UNL A   1      47.725  33.891  30.328  1.00  0.00     0.002 A 
ATOM     85  C   UNL A   1      47.204  34.672  28.091  1.00  0.00     0.091 A 
ATOM     86  F   UNL A   1      46.020  33.232  26.603  1.00  0.00    -0.205 F 
ATOM     87  C   UNL A   1      47.760  34.893  29.362  1.00  0.00     0.022 A 
BRANCH  85  88
ATOM     88  S   UNL A   1      47.380  35.981  26.873  1.00  0.00     0.127 S 
ATOM     89  O   UNL A   1      48.749  36.432  27.117  1.00  0.00    -0.237 OA
ATOM     90  O   UNL A   1      47.191  35.263  25.612  1.00  0.00    -0.237 OA
ATOM     91  O   UNL A   1      46.335  36.949  27.177  1.00  0.00    -0.744 OA
ENDBRANCH  85  88
ENDBRANCH  58  81
ENDBRANCH  32  33
ENDBRANCH  24  27
ENDBRANCH  22  23
ENDBRANCH  21  22
ENDBRANCH   1  21
TORSDOF 18
ENDMDL
