MODEL 1
REMARK VINA RESULT:     -10.5      0.000      0.000
REMARK SMILES O=C(CNc1cc(N2CCCC2)c2noc3c2c1C(=O)c1ccccc1-3)NCCCCNC(=O)c1ccc(-c2c3nc(c(-c4cccc(S(=O)(=O)[O-])c4F)c4ccc([nH]4)c(-c4cccc(S(=O)(=O)[O-])c4F)c4nc(c(-c5cccc(S(=O)(=O)[O-])c5F)c5ccc2[nH]5)C=C4)C=C3)cc1
REMARK SMILES IDX 29 1 28 2 27 3 1 4 2 5 3 7 4 8 5 10 6 11 18 12 7 13 17 14
REMARK SMILES IDX 19 15 13 16 16 17 20 18 21 19 14 20 15 21 26 22 22 23 25 24
REMARK SMILES IDX 23 25 24 26 8 27 9 28 12 29 10 30 11 31 30 32 31 33 32 34
REMARK SMILES IDX 33 35 34 37 35 38 36 39 97 40 37 41 96 42 38 43 39 44 40 45
REMARK SMILES IDX 90 46 41 47 95 48 89 49 91 50 42 51 94 52 88 53 87 54 43 56
REMARK SMILES IDX 75 57 55 58 74 59 56 60 59 61 73 62 92 63 57 64 58 65 72 67
REMARK SMILES IDX 93 68 60 69 44 70 45 71 53 72 46 73 48 74 54 75 47 76 49 77
REMARK SMILES IDX 50 78 51 79 52 80 76 81 77 82 85 83 78 84 80 85 86 86 79 87
REMARK SMILES IDX 81 88 82 89 83 90 84 91 61 92 62 93 70 94 63 95 65 96 71 97
REMARK SMILES IDX 64 98 66 99 67 100 68 101 69 102
REMARK H PARENT 27 6 4 9 32 36 91 55 59 66
REMARK Flexibility Score: inf
ROOT
ATOM      1  C   UNL A   1      42.282  27.957  35.345  1.00  0.00     0.023 C 
ENDROOT
BRANCH   1   2
ATOM      2  C   UNL A   1      43.124  29.233  35.385  1.00  0.00     0.116 C 
BRANCH   2   3
ATOM      3  N   UNL A   1      42.398  30.404  34.939  1.00  0.00    -0.355 N 
ATOM      4  O   UNL A   1      41.527  30.991  36.990  1.00  0.00    -0.273 OA
ATOM      5  C   UNL A   1      41.642  31.193  35.785  1.00  0.00     0.239 C 
ATOM      6  H   UNL A   1      42.444  30.648  33.987  1.00  0.00     0.163 HD
BRANCH   5   7
ATOM      7  C   UNL A   1      40.949  32.355  35.055  1.00  0.00     0.213 C 
BRANCH   7   8
ATOM      8  N   UNL A   1      40.280  31.842  33.860  1.00  0.00    -0.375 N 
ATOM      9  H   UNL A   1      39.889  30.940  33.927  1.00  0.00     0.161 HD
BRANCH   8  10
ATOM     10  C   UNL A   1      40.140  32.490  32.641  1.00  0.00     0.049 A 
ATOM     11  C   UNL A   1      38.757  32.564  32.179  1.00  0.00     0.054 A 
ATOM     12  C   UNL A   1      41.157  33.141  31.909  1.00  0.00     0.059 A 
ATOM     13  C   UNL A   1      38.247  33.219  31.011  1.00  0.00     0.069 A 
ATOM     14  C   UNL A   1      40.626  33.783  30.801  1.00  0.00     0.065 A 
ATOM     15  C   UNL A   1      42.646  33.183  32.072  1.00  0.00     0.196 C 
ATOM     16  C   UNL A   1      39.296  33.856  30.304  1.00  0.00     0.138 A 
ATOM     17  C   UNL A   1      41.404  34.537  29.989  1.00  0.00     0.176 A 
ATOM     18  O   UNL A   1      43.244  32.448  32.846  1.00  0.00    -0.288 OA
ATOM     19  C   UNL A   1      43.443  34.119  31.197  1.00  0.00     0.034 A 
ATOM     20  N   UNL A   1      39.318  34.604  29.174  1.00  0.00    -0.077 NA
ATOM     21  O   UNL A   1      40.638  35.043  28.996  1.00  0.00    -0.355 OA
ATOM     22  C   UNL A   1      42.809  34.804  30.136  1.00  0.00     0.032 A 
ATOM     23  C   UNL A   1      44.807  34.302  31.434  1.00  0.00     0.013 A 
ATOM     24  C   UNL A   1      43.539  35.683  29.338  1.00  0.00     0.013 A 
ATOM     25  C   UNL A   1      45.533  35.183  30.631  1.00  0.00     0.001 A 
ATOM     26  C   UNL A   1      44.901  35.873  29.591  1.00  0.00     0.001 A 
BRANCH  13  27
ATOM     27  N   UNL A   1      36.921  33.174  30.683  1.00  0.00    -0.370 N 
ATOM     28  C   UNL A   1      36.267  34.099  29.776  1.00  0.00     0.116 C 
ATOM     29  C   UNL A   1      36.000  32.191  31.235  1.00  0.00     0.116 C 
ATOM     30  C   UNL A   1      34.828  34.078  30.273  1.00  0.00     0.023 C 
ATOM     31  C   UNL A   1      34.632  32.626  30.693  1.00  0.00     0.023 C 
ENDBRANCH  13  27
ENDBRANCH   8  10
ENDBRANCH   7   8
ENDBRANCH   5   7
ENDBRANCH   2   3
ENDBRANCH   1   2
BRANCH   1  32
ATOM     32  C   UNL A   1      42.670  26.881  36.364  1.00  0.00     0.023 C 
BRANCH  32  33
ATOM     33  C   UNL A   1      42.233  25.468  35.984  1.00  0.00     0.116 C 
BRANCH  33  34
ATOM     34  N   UNL A   1      43.169  24.438  36.397  1.00  0.00    -0.352 N 
ATOM     35  C   UNL A   1      44.337  24.035  35.781  1.00  0.00     0.251 C 
ATOM     36  H   UNL A   1      42.941  23.963  37.228  1.00  0.00     0.163 HD
ATOM     37  O   UNL A   1      45.005  23.128  36.246  1.00  0.00    -0.269 OA
BRANCH  35  38
ATOM     38  C   UNL A   1      44.742  24.719  34.536  1.00  0.00     0.039 A 
ATOM     39  C   UNL A   1      45.628  25.801  34.588  1.00  0.00     0.014 A 
ATOM     40  C   UNL A   1      44.169  24.318  33.330  1.00  0.00     0.014 A 
ATOM     41  C   UNL A   1      45.836  26.576  33.455  1.00  0.00     0.010 A 
ATOM     42  C   UNL A   1      44.416  25.069  32.183  1.00  0.00     0.010 A 
ATOM     43  C   UNL A   1      45.219  26.220  32.254  1.00  0.00    -0.014 A 
BRANCH  43  44
ATOM     44  C   UNL A   1      45.524  27.033  31.065  1.00  0.00     0.031 A 
ATOM     45  C   UNL A   1      45.652  26.229  29.825  1.00  0.00     0.074 A 
ATOM     46  C   UNL A   1      45.103  28.309  30.928  1.00  0.00     0.049 A 
ATOM     47  N   UNL A   1      44.583  25.876  29.187  1.00  0.00    -0.248 NA
ATOM     48  C   UNL A   1      46.859  25.547  29.375  1.00  0.00     0.031 C 
ATOM     49  C   UNL A   1      44.035  28.921  31.733  1.00  0.00     0.029 A 
ATOM     50  N   UNL A   1      45.358  29.238  29.943  1.00  0.00    -0.354 N 
ATOM     51  C   UNL A   1      44.927  24.874  28.307  1.00  0.00     0.074 A 
ATOM     52  C   UNL A   1      46.363  24.726  28.431  1.00  0.00     0.031 C 
ATOM     53  C   UNL A   1      43.604  30.035  31.108  1.00  0.00     0.029 A 
ATOM     54  C   UNL A   1      44.468  30.303  29.968  1.00  0.00     0.049 A 
ATOM     55  H   UNL A   1      46.091  29.155  29.292  1.00  0.00     0.167 HD
ATOM     56  C   UNL A   1      43.988  24.254  27.542  1.00  0.00     0.034 A 
ATOM     57  C   UNL A   1      44.176  31.142  28.941  1.00  0.00     0.034 A 
ATOM     58  C   UNL A   1      42.616  24.710  27.665  1.00  0.00     0.049 A 
ATOM     59  C   UNL A   1      43.283  30.281  28.082  1.00  0.00     0.074 A 
ATOM     60  C   UNL A   1      41.340  24.185  27.598  1.00  0.00     0.029 A 
ATOM     61  N   UNL A   1      42.433  26.034  27.959  1.00  0.00    -0.354 N 
ATOM     62  N   UNL A   1      42.029  29.995  28.332  1.00  0.00    -0.248 NA
ATOM     63  C   UNL A   1      43.897  29.458  27.027  1.00  0.00     0.031 C 
ATOM     64  C   UNL A   1      40.411  25.274  27.753  1.00  0.00     0.029 A 
ATOM     65  C   UNL A   1      41.137  26.449  27.853  1.00  0.00     0.049 A 
ATOM     66  H   UNL A   1      43.168  26.633  28.222  1.00  0.00     0.167 HD
ATOM     67  C   UNL A   1      41.813  28.780  27.694  1.00  0.00     0.074 A 
ATOM     68  C   UNL A   1      42.931  28.576  26.797  1.00  0.00     0.031 C 
ATOM     69  C   UNL A   1      40.890  27.852  28.080  1.00  0.00     0.034 A 
BRANCH  56  70
ATOM     70  C   UNL A   1      44.371  23.363  26.420  1.00  0.00     0.023 A 
ATOM     71  C   UNL A   1      45.001  23.992  25.327  1.00  0.00     0.012 A 
ATOM     72  C   UNL A   1      44.022  22.006  26.330  1.00  0.00     0.148 A 
ATOM     73  C   UNL A   1      45.268  23.296  24.154  1.00  0.00     0.002 A 
ATOM     74  C   UNL A   1      44.290  21.312  25.149  1.00  0.00     0.091 A 
ATOM     75  F   UNL A   1      43.415  21.427  27.375  1.00  0.00    -0.205 F 
ATOM     76  C   UNL A   1      44.908  21.957  24.062  1.00  0.00     0.022 A 
BRANCH  74  77
ATOM     77  S   UNL A   1      43.861  19.584  24.897  1.00  0.00     0.127 S 
ATOM     78  O   UNL A   1      42.412  19.600  25.085  1.00  0.00    -0.237 OA
ATOM     79  O   UNL A   1      44.293  19.365  23.516  1.00  0.00    -0.237 OA
ATOM     80  O   UNL A   1      44.611  18.834  25.894  1.00  0.00    -0.744 OA
ENDBRANCH  74  77
ENDBRANCH  56  70
BRANCH  57  81
ATOM     81  C   UNL A   1      45.331  31.952  28.421  1.00  0.00     0.023 A 
ATOM     82  C   UNL A   1      46.610  31.692  28.977  1.00  0.00     0.012 A 
ATOM     83  C   UNL A   1      45.245  32.973  27.458  1.00  0.00     0.148 A 
ATOM     84  C   UNL A   1      47.764  32.329  28.517  1.00  0.00     0.002 A 
ATOM     85  C   UNL A   1      46.405  33.564  26.956  1.00  0.00     0.091 A 
ATOM     86  F   UNL A   1      44.039  33.368  27.036  1.00  0.00    -0.205 F 
ATOM     87  C   UNL A   1      47.665  33.245  27.481  1.00  0.00     0.022 A 
BRANCH  85  88
ATOM     88  S   UNL A   1      46.380  34.697  25.560  1.00  0.00     0.127 S 
ATOM     89  O   UNL A   1      45.916  35.938  26.179  1.00  0.00    -0.237 OA
ATOM     90  O   UNL A   1      47.788  34.694  25.165  1.00  0.00    -0.237 OA
ATOM     91  O   UNL A   1      45.461  34.113  24.593  1.00  0.00    -0.744 OA
ENDBRANCH  85  88
ENDBRANCH  57  81
BRANCH  69  92
ATOM     92  C   UNL A   1      39.694  28.329  28.818  1.00  0.00     0.023 A 
ATOM     93  C   UNL A   1      38.616  28.809  28.047  1.00  0.00     0.012 A 
ATOM     94  C   UNL A   1      39.564  28.241  30.214  1.00  0.00     0.148 A 
ATOM     95  C   UNL A   1      37.419  29.184  28.648  1.00  0.00     0.002 A 
ATOM     96  C   UNL A   1      38.361  28.614  30.809  1.00  0.00     0.091 A 
ATOM     97  F   UNL A   1      40.598  27.783  30.934  1.00  0.00    -0.205 F 
ATOM     98  C   UNL A   1      37.290  29.083  30.028  1.00  0.00     0.022 A 
BRANCH  96  99
ATOM     99  S   UNL A   1      38.078  28.521  32.581  1.00  0.00     0.127 S 
ATOM    100  O   UNL A   1      36.755  29.134  32.715  1.00  0.00    -0.237 OA
ATOM    101  O   UNL A   1      38.104  27.078  32.815  1.00  0.00    -0.237 OA
ATOM    102  O   UNL A   1      39.155  29.279  33.205  1.00  0.00    -0.744 OA
ENDBRANCH  96  99
ENDBRANCH  69  92
ENDBRANCH  43  44
ENDBRANCH  35  38
ENDBRANCH  33  34
ENDBRANCH  32  33
ENDBRANCH   1  32
TORSDOF 17
ENDMDL
MODEL 2
REMARK VINA RESULT:     -10.1      0.916      3.162
REMARK SMILES O=C(CNc1cc(N2CCCC2)c2noc3c2c1C(=O)c1ccccc1-3)NCCCCNC(=O)c1ccc(-c2c3nc(c(-c4cccc(S(=O)(=O)[O-])c4F)c4ccc([nH]4)c(-c4cccc(S(=O)(=O)[O-])c4F)c4nc(c(-c5cccc(S(=O)(=O)[O-])c5F)c5ccc2[nH]5)C=C4)C=C3)cc1
REMARK SMILES IDX 29 1 28 2 27 3 1 4 2 5 3 7 4 8 5 10 6 11 18 12 7 13 17 14
REMARK SMILES IDX 19 15 13 16 16 17 20 18 21 19 14 20 15 21 26 22 22 23 25 24
REMARK SMILES IDX 23 25 24 26 8 27 9 28 12 29 10 30 11 31 30 32 31 33 32 34
REMARK SMILES IDX 33 35 34 37 35 38 36 39 97 40 37 41 96 42 38 43 39 44 40 45
REMARK SMILES IDX 90 46 41 47 95 48 89 49 91 50 42 51 94 52 88 53 87 54 43 56
REMARK SMILES IDX 75 57 55 58 74 59 56 60 59 61 73 62 92 63 57 64 58 65 72 67
REMARK SMILES IDX 93 68 60 69 44 70 45 71 53 72 46 73 48 74 54 75 47 76 49 77
REMARK SMILES IDX 50 78 51 79 52 80 76 81 77 82 85 83 78 84 80 85 86 86 79 87
REMARK SMILES IDX 81 88 82 89 83 90 84 91 61 92 62 93 70 94 63 95 65 96 71 97
REMARK SMILES IDX 64 98 66 99 67 100 68 101 69 102
REMARK H PARENT 27 6 4 9 32 36 91 55 59 66
REMARK Flexibility Score: inf
ROOT
ATOM      1  C   UNL A   1      42.518  28.262  35.525  1.00  0.00     0.023 C 
ENDROOT
BRANCH   1   2
ATOM      2  C   UNL A   1      43.391  29.518  35.533  1.00  0.00     0.116 C 
BRANCH   2   3
ATOM      3  N   UNL A   1      42.636  30.733  35.310  1.00  0.00    -0.355 N 
ATOM      4  O   UNL A   1      41.774  30.923  37.439  1.00  0.00    -0.273 OA
ATOM      5  C   UNL A   1      41.872  31.340  36.289  1.00  0.00     0.239 C 
ATOM      6  H   UNL A   1      42.667  31.145  34.417  1.00  0.00     0.163 HD
BRANCH   5   7
ATOM      7  C   UNL A   1      41.147  32.598  35.784  1.00  0.00     0.213 C 
BRANCH   7   8
ATOM      8  N   UNL A   1      40.395  32.267  34.574  1.00  0.00    -0.375 N 
ATOM      9  H   UNL A   1      39.814  31.473  34.620  1.00  0.00     0.161 HD
BRANCH   8  10
ATOM     10  C   UNL A   1      40.414  32.953  33.368  1.00  0.00     0.049 A 
ATOM     11  C   UNL A   1      41.719  33.522  33.045  1.00  0.00     0.054 A 
ATOM     12  C   UNL A   1      39.360  33.046  32.432  1.00  0.00     0.059 A 
ATOM     13  C   UNL A   1      42.110  34.222  31.858  1.00  0.00     0.069 A 
ATOM     14  C   UNL A   1      39.779  33.707  31.289  1.00  0.00     0.065 A 
ATOM     15  C   UNL A   1      37.918  32.646  32.498  1.00  0.00     0.196 C 
ATOM     16  C   UNL A   1      41.028  34.296  30.947  1.00  0.00     0.138 A 
ATOM     17  C   UNL A   1      38.959  33.849  30.222  1.00  0.00     0.176 A 
ATOM     18  O   UNL A   1      37.377  32.299  33.540  1.00  0.00    -0.288 OA
ATOM     19  C   UNL A   1      37.084  32.740  31.244  1.00  0.00     0.034 A 
ATOM     20  N   UNL A   1      40.907  34.829  29.707  1.00  0.00    -0.077 NA
ATOM     21  O   UNL A   1      39.615  34.527  29.252  1.00  0.00    -0.355 OA
ATOM     22  C   UNL A   1      37.615  33.356  30.088  1.00  0.00     0.032 A 
ATOM     23  C   UNL A   1      35.786  32.223  31.230  1.00  0.00     0.013 A 
ATOM     24  C   UNL A   1      36.854  33.428  28.923  1.00  0.00     0.013 A 
ATOM     25  C   UNL A   1      35.028  32.299  30.060  1.00  0.00     0.001 A 
ATOM     26  C   UNL A   1      35.561  32.895  28.912  1.00  0.00     0.001 A 
BRANCH  13  27
ATOM     27  N   UNL A   1      43.369  34.734  31.706  1.00  0.00    -0.370 N 
ATOM     28  C   UNL A   1      43.812  36.004  32.252  1.00  0.00     0.116 C 
ATOM     29  C   UNL A   1      44.413  34.060  30.948  1.00  0.00     0.116 C 
ATOM     30  C   UNL A   1      44.921  36.402  31.289  1.00  0.00     0.023 C 
ATOM     31  C   UNL A   1      45.571  35.067  30.943  1.00  0.00     0.023 C 
ENDBRANCH  13  27
ENDBRANCH   8  10
ENDBRANCH   7   8
ENDBRANCH   5   7
ENDBRANCH   2   3
ENDBRANCH   1   2
BRANCH   1  32
ATOM     32  C   UNL A   1      42.977  27.135  36.456  1.00  0.00     0.023 C 
BRANCH  32  33
ATOM     33  C   UNL A   1      42.379  25.769  36.132  1.00  0.00     0.116 C 
BRANCH  33  34
ATOM     34  N   UNL A   1      43.233  24.655  36.504  1.00  0.00    -0.352 N 
ATOM     35  C   UNL A   1      44.328  24.146  35.835  1.00  0.00     0.251 C 
ATOM     36  H   UNL A   1      43.001  24.203  37.346  1.00  0.00     0.163 HD
ATOM     37  O   UNL A   1      44.929  23.180  36.270  1.00  0.00    -0.269 OA
BRANCH  35  38
ATOM     38  C   UNL A   1      44.735  24.791  34.570  1.00  0.00     0.039 A 
ATOM     39  C   UNL A   1      45.773  25.728  34.564  1.00  0.00     0.014 A 
ATOM     40  C   UNL A   1      44.019  24.505  33.407  1.00  0.00     0.014 A 
ATOM     41  C   UNL A   1      46.008  26.490  33.427  1.00  0.00     0.010 A 
ATOM     42  C   UNL A   1      44.288  25.237  32.253  1.00  0.00     0.010 A 
ATOM     43  C   UNL A   1      45.257  26.255  32.274  1.00  0.00    -0.014 A 
BRANCH  43  44
ATOM     44  C   UNL A   1      45.588  27.041  31.075  1.00  0.00     0.031 A 
ATOM     45  C   UNL A   1      45.706  26.215  29.849  1.00  0.00     0.074 A 
ATOM     46  C   UNL A   1      45.200  28.325  30.914  1.00  0.00     0.049 A 
ATOM     47  N   UNL A   1      44.632  25.877  29.209  1.00  0.00    -0.248 NA
ATOM     48  C   UNL A   1      46.899  25.496  29.418  1.00  0.00     0.031 C 
ATOM     49  C   UNL A   1      44.141  28.975  31.701  1.00  0.00     0.029 A 
ATOM     50  N   UNL A   1      45.483  29.231  29.915  1.00  0.00    -0.354 N 
ATOM     51  C   UNL A   1      44.958  24.852  28.348  1.00  0.00     0.074 A 
ATOM     52  C   UNL A   1      46.389  24.672  28.484  1.00  0.00     0.031 C 
ATOM     53  C   UNL A   1      43.742  30.088  31.055  1.00  0.00     0.029 A 
ATOM     54  C   UNL A   1      44.618  30.317  29.917  1.00  0.00     0.049 A 
ATOM     55  H   UNL A   1      46.218  29.120  29.271  1.00  0.00     0.167 HD
ATOM     56  C   UNL A   1      44.010  24.242  27.586  1.00  0.00     0.034 A 
ATOM     57  C   UNL A   1      44.354  31.146  28.874  1.00  0.00     0.034 A 
ATOM     58  C   UNL A   1      42.648  24.733  27.693  1.00  0.00     0.049 A 
ATOM     59  C   UNL A   1      43.446  30.293  28.023  1.00  0.00     0.074 A 
ATOM     60  C   UNL A   1      41.360  24.237  27.625  1.00  0.00     0.029 A 
ATOM     61  N   UNL A   1      42.495  26.066  27.963  1.00  0.00    -0.354 N 
ATOM     62  N   UNL A   1      42.183  30.041  28.269  1.00  0.00    -0.248 NA
ATOM     63  C   UNL A   1      44.046  29.438  26.986  1.00  0.00     0.031 C 
ATOM     64  C   UNL A   1      40.457  25.351  27.756  1.00  0.00     0.029 A 
ATOM     65  C   UNL A   1      41.210  26.510  27.842  1.00  0.00     0.049 A 
ATOM     66  H   UNL A   1      43.243  26.651  28.222  1.00  0.00     0.167 HD
ATOM     67  C   UNL A   1      41.943  28.821  27.650  1.00  0.00     0.074 A 
ATOM     68  C   UNL A   1      43.061  28.575  26.764  1.00  0.00     0.031 C 
ATOM     69  C   UNL A   1      40.996  27.922  28.044  1.00  0.00     0.034 A 
BRANCH  56  70
ATOM     70  C   UNL A   1      44.378  23.324  26.481  1.00  0.00     0.023 A 
ATOM     71  C   UNL A   1      45.060  23.914  25.397  1.00  0.00     0.012 A 
ATOM     72  C   UNL A   1      43.973  21.983  26.396  1.00  0.00     0.148 A 
ATOM     73  C   UNL A   1      45.322  23.195  24.237  1.00  0.00     0.002 A 
ATOM     74  C   UNL A   1      44.236  21.266  25.228  1.00  0.00     0.091 A 
ATOM     75  F   UNL A   1      43.318  21.442  27.433  1.00  0.00    -0.205 F 
ATOM     76  C   UNL A   1      44.906  21.872  24.150  1.00  0.00     0.022 A 
BRANCH  74  77
ATOM     77  S   UNL A   1      43.738  19.555  24.983  1.00  0.00     0.127 S 
ATOM     78  O   UNL A   1      44.133  19.320  23.595  1.00  0.00    -0.237 OA
ATOM     79  O   UNL A   1      44.556  18.858  25.976  1.00  0.00    -0.237 OA
ATOM     80  O   UNL A   1      42.305  19.513  25.239  1.00  0.00    -0.744 OA
ENDBRANCH  74  77
ENDBRANCH  56  70
BRANCH  57  81
ATOM     81  C   UNL A   1      45.531  31.920  28.348  1.00  0.00     0.023 A 
ATOM     82  C   UNL A   1      46.812  31.578  28.855  1.00  0.00     0.012 A 
ATOM     83  C   UNL A   1      45.467  32.979  27.427  1.00  0.00     0.148 A 
ATOM     84  C   UNL A   1      47.981  32.177  28.384  1.00  0.00     0.002 A 
ATOM     85  C   UNL A   1      46.639  33.533  26.911  1.00  0.00     0.091 A 
ATOM     86  F   UNL A   1      44.270  33.447  27.057  1.00  0.00    -0.205 F 
ATOM     87  C   UNL A   1      47.897  33.135  27.386  1.00  0.00     0.022 A 
BRANCH  85  88
ATOM     88  S   UNL A   1      46.630  34.718  25.560  1.00  0.00     0.127 S 
ATOM     89  O   UNL A   1      46.363  35.977  26.255  1.00  0.00    -0.237 OA
ATOM     90  O   UNL A   1      47.990  34.575  25.044  1.00  0.00    -0.237 OA
ATOM     91  O   UNL A   1      45.573  34.281  24.658  1.00  0.00    -0.744 OA
ENDBRANCH  85  88
ENDBRANCH  57  81
BRANCH  69  92
ATOM     92  C   UNL A   1      39.806  28.439  28.766  1.00  0.00     0.023 A 
ATOM     93  C   UNL A   1      38.754  28.953  27.980  1.00  0.00     0.012 A 
ATOM     94  C   UNL A   1      39.655  28.359  30.160  1.00  0.00     0.148 A 
ATOM     95  C   UNL A   1      37.563  29.368  28.565  1.00  0.00     0.002 A 
ATOM     96  C   UNL A   1      38.458  28.772  30.740  1.00  0.00     0.091 A 
ATOM     97  F   UNL A   1      40.665  27.869  30.895  1.00  0.00    -0.205 F 
ATOM     98  C   UNL A   1      37.413  29.274  29.943  1.00  0.00     0.022 A 
BRANCH  96  99
ATOM     99  S   UNL A   1      38.150  28.692  32.508  1.00  0.00     0.127 S 
ATOM    100  O   UNL A   1      36.796  29.241  32.610  1.00  0.00    -0.237 OA
ATOM    101  O   UNL A   1      38.242  27.256  32.765  1.00  0.00    -0.237 OA
ATOM    102  O   UNL A   1      39.177  29.511  33.137  1.00  0.00    -0.744 OA
ENDBRANCH  96  99
ENDBRANCH  69  92
ENDBRANCH  43  44
ENDBRANCH  35  38
ENDBRANCH  33  34
ENDBRANCH  32  33
ENDBRANCH   1  32
TORSDOF 17
ENDMDL
MODEL 3
REMARK VINA RESULT:      -9.7      4.827     10.844
REMARK SMILES O=C(CNc1cc(N2CCCC2)c2noc3c2c1C(=O)c1ccccc1-3)NCCCCNC(=O)c1ccc(-c2c3nc(c(-c4cccc(S(=O)(=O)[O-])c4F)c4ccc([nH]4)c(-c4cccc(S(=O)(=O)[O-])c4F)c4nc(c(-c5cccc(S(=O)(=O)[O-])c5F)c5ccc2[nH]5)C=C4)C=C3)cc1
REMARK SMILES IDX 29 1 28 2 27 3 1 4 2 5 3 7 4 8 5 10 6 11 18 12 7 13 17 14
REMARK SMILES IDX 19 15 13 16 16 17 20 18 21 19 14 20 15 21 26 22 22 23 25 24
REMARK SMILES IDX 23 25 24 26 8 27 9 28 12 29 10 30 11 31 30 32 31 33 32 34
REMARK SMILES IDX 33 35 34 37 35 38 36 39 97 40 37 41 96 42 38 43 39 44 40 45
REMARK SMILES IDX 90 46 41 47 95 48 89 49 91 50 42 51 94 52 88 53 87 54 43 56
REMARK SMILES IDX 75 57 55 58 74 59 56 60 59 61 73 62 92 63 57 64 58 65 72 67
REMARK SMILES IDX 93 68 60 69 44 70 45 71 53 72 46 73 48 74 54 75 47 76 49 77
REMARK SMILES IDX 50 78 51 79 52 80 76 81 77 82 85 83 78 84 80 85 86 86 79 87
REMARK SMILES IDX 81 88 82 89 83 90 84 91 61 92 62 93 70 94 63 95 65 96 71 97
REMARK SMILES IDX 64 98 66 99 67 100 68 101 69 102
REMARK H PARENT 27 6 4 9 32 36 91 55 59 66
REMARK Flexibility Score: inf
ROOT
ATOM      1  C   UNL A   1      45.880  24.231  38.401  1.00  0.00     0.023 C 
ENDROOT
BRANCH   1   2
ATOM      2  C   UNL A   1      45.508  22.927  39.111  1.00  0.00     0.116 C 
BRANCH   2   3
ATOM      3  N   UNL A   1      46.318  21.804  38.688  1.00  0.00    -0.355 N 
ATOM      4  O   UNL A   1      45.497  21.659  36.539  1.00  0.00    -0.273 OA
ATOM      5  C   UNL A   1      46.240  21.248  37.425  1.00  0.00     0.239 C 
ATOM      6  H   UNL A   1      46.953  21.417  39.332  1.00  0.00     0.163 HD
BRANCH   5   7
ATOM      7  C   UNL A   1      47.184  20.048  37.243  1.00  0.00     0.213 C 
BRANCH   7   8
ATOM      8  N   UNL A   1      46.545  18.848  37.785  1.00  0.00    -0.375 N 
ATOM      9  H   UNL A   1      45.889  18.398  37.205  1.00  0.00     0.161 HD
BRANCH   8  10
ATOM     10  C   UNL A   1      46.766  18.279  39.031  1.00  0.00     0.049 A 
ATOM     11  C   UNL A   1      48.044  18.659  39.625  1.00  0.00     0.054 A 
ATOM     12  C   UNL A   1      45.856  17.492  39.773  1.00  0.00     0.059 A 
ATOM     13  C   UNL A   1      48.556  18.317  40.919  1.00  0.00     0.069 A 
ATOM     14  C   UNL A   1      46.373  17.199  41.025  1.00  0.00     0.065 A 
ATOM     15  C   UNL A   1      44.534  16.882  39.423  1.00  0.00     0.196 C 
ATOM     16  C   UNL A   1      47.618  17.528  41.629  1.00  0.00     0.138 A 
ATOM     17  C   UNL A   1      45.646  16.518  41.941  1.00  0.00     0.176 A 
ATOM     18  O   UNL A   1      44.106  16.851  38.276  1.00  0.00    -0.288 OA
ATOM     19  C   UNL A   1      43.731  16.220  40.515  1.00  0.00     0.034 A 
ATOM     20  N   UNL A   1      47.630  16.984  42.871  1.00  0.00    -0.077 NA
ATOM     21  O   UNL A   1      46.384  16.372  43.065  1.00  0.00    -0.355 OA
ATOM     22  C   UNL A   1      44.301  16.033  41.795  1.00  0.00     0.032 A 
ATOM     23  C   UNL A   1      42.427  15.790  40.258  1.00  0.00     0.013 A 
ATOM     24  C   UNL A   1      43.554  15.440  42.812  1.00  0.00     0.013 A 
ATOM     25  C   UNL A   1      41.685  15.194  41.279  1.00  0.00     0.001 A 
ATOM     26  C   UNL A   1      42.244  15.024  42.550  1.00  0.00     0.001 A 
BRANCH  13  27
ATOM     27  N   UNL A   1      49.796  18.719  41.331  1.00  0.00    -0.370 N 
ATOM     28  C   UNL A   1      51.009  18.580  40.547  1.00  0.00     0.116 C 
ATOM     29  C   UNL A   1      50.041  19.322  42.634  1.00  0.00     0.116 C 
ATOM     30  C   UNL A   1      52.083  18.505  41.622  1.00  0.00     0.023 C 
ATOM     31  C   UNL A   1      51.567  19.464  42.690  1.00  0.00     0.023 C 
ENDBRANCH  13  27
ENDBRANCH   8  10
ENDBRANCH   7   8
ENDBRANCH   5   7
ENDBRANCH   2   3
ENDBRANCH   1   2
BRANCH   1  32
ATOM     32  C   UNL A   1      45.135  25.479  38.886  1.00  0.00     0.023 C 
BRANCH  32  33
ATOM     33  C   UNL A   1      44.121  26.033  37.889  1.00  0.00     0.116 C 
BRANCH  33  34
ATOM     34  N   UNL A   1      43.074  25.092  37.538  1.00  0.00    -0.352 N 
ATOM     35  C   UNL A   1      42.584  24.771  36.288  1.00  0.00     0.251 C 
ATOM     36  H   UNL A   1      42.657  24.617  38.292  1.00  0.00     0.163 HD
ATOM     37  O   UNL A   1      41.673  23.970  36.163  1.00  0.00    -0.269 OA
BRANCH  35  38
ATOM     38  C   UNL A   1      43.178  25.439  35.113  1.00  0.00     0.039 A 
ATOM     39  C   UNL A   1      42.578  26.587  34.582  1.00  0.00     0.014 A 
ATOM     40  C   UNL A   1      44.294  24.866  34.503  1.00  0.00     0.014 A 
ATOM     41  C   UNL A   1      43.004  27.084  33.358  1.00  0.00     0.010 A 
ATOM     42  C   UNL A   1      44.751  25.396  33.298  1.00  0.00     0.010 A 
ATOM     43  C   UNL A   1      44.083  26.482  32.707  1.00  0.00    -0.014 A 
BRANCH  43  44
ATOM     44  C   UNL A   1      44.540  27.086  31.446  1.00  0.00     0.031 A 
ATOM     45  C   UNL A   1      44.637  26.112  30.332  1.00  0.00     0.074 A 
ATOM     46  C   UNL A   1      44.280  28.370  31.117  1.00  0.00     0.049 A 
ATOM     47  N   UNL A   1      43.568  25.794  29.676  1.00  0.00    -0.248 NA
ATOM     48  C   UNL A   1      45.777  25.247  30.055  1.00  0.00     0.031 C 
ATOM     49  C   UNL A   1      43.251  29.199  31.763  1.00  0.00     0.029 A 
ATOM     50  N   UNL A   1      44.692  29.122  30.038  1.00  0.00    -0.354 N 
ATOM     51  C   UNL A   1      43.837  24.649  28.959  1.00  0.00     0.074 A 
ATOM     52  C   UNL A   1      45.237  24.364  29.195  1.00  0.00     0.031 C 
ATOM     53  C   UNL A   1      42.986  30.257  30.971  1.00  0.00     0.029 A 
ATOM     54  C   UNL A   1      43.932  30.272  29.865  1.00  0.00     0.049 A 
ATOM     55  H   UNL A   1      45.442  28.871  29.454  1.00  0.00     0.167 HD
ATOM     56  C   UNL A   1      42.872  24.037  28.220  1.00  0.00     0.034 A 
ATOM     57  C   UNL A   1      43.794  30.989  28.721  1.00  0.00     0.034 A 
ATOM     58  C   UNL A   1      41.558  24.652  28.192  1.00  0.00     0.049 A 
ATOM     59  C   UNL A   1      42.851  30.122  27.924  1.00  0.00     0.074 A 
ATOM     60  C   UNL A   1      40.234  24.266  28.109  1.00  0.00     0.029 A 
ATOM     61  N   UNL A   1      41.516  26.016  28.298  1.00  0.00    -0.354 N 
ATOM     62  N   UNL A   1      41.561  30.012  28.125  1.00  0.00    -0.248 NA
ATOM     63  C   UNL A   1      43.417  29.100  27.027  1.00  0.00     0.031 C 
ATOM     64  C   UNL A   1      39.433  25.461  28.059  1.00  0.00     0.029 A 
ATOM     65  C   UNL A   1      40.285  26.552  28.053  1.00  0.00     0.049 A 
ATOM     66  H   UNL A   1      42.303  26.562  28.529  1.00  0.00     0.167 HD
ATOM     67  C   UNL A   1      41.237  28.751  27.638  1.00  0.00     0.074 A 
ATOM     68  C   UNL A   1      42.368  28.305  26.851  1.00  0.00     0.031 C 
ATOM     69  C   UNL A   1      40.194  27.992  28.079  1.00  0.00     0.034 A 
BRANCH  56  70
ATOM     70  C   UNL A   1      43.204  22.964  27.251  1.00  0.00     0.023 A 
ATOM     71  C   UNL A   1      43.980  23.361  26.142  1.00  0.00     0.012 A 
ATOM     72  C   UNL A   1      42.686  21.661  27.302  1.00  0.00     0.148 A 
ATOM     73  C   UNL A   1      44.227  22.487  25.089  1.00  0.00     0.002 A 
ATOM     74  C   UNL A   1      42.935  20.788  26.242  1.00  0.00     0.091 A 
ATOM     75  F   UNL A   1      41.944  21.305  28.359  1.00  0.00    -0.205 F 
ATOM     76  C   UNL A   1      43.700  21.202  25.136  1.00  0.00     0.022 A 
BRANCH  74  77
ATOM     77  S   UNL A   1      42.299  19.107  26.172  1.00  0.00     0.127 S 
ATOM     78  O   UNL A   1      43.158  18.498  25.159  1.00  0.00    -0.237 OA
ATOM     79  O   UNL A   1      42.540  18.638  27.537  1.00  0.00    -0.237 OA
ATOM     80  O   UNL A   1      40.894  19.224  25.810  1.00  0.00    -0.744 OA
ENDBRANCH  74  77
ENDBRANCH  56  70
BRANCH  57  81
ATOM     81  C   UNL A   1      45.060  31.590  28.177  1.00  0.00     0.023 A 
ATOM     82  C   UNL A   1      46.274  30.907  28.452  1.00  0.00     0.012 A 
ATOM     83  C   UNL A   1      45.151  32.791  27.453  1.00  0.00     0.148 A 
ATOM     84  C   UNL A   1      47.499  31.330  27.935  1.00  0.00     0.002 A 
ATOM     85  C   UNL A   1      46.364  33.179  26.884  1.00  0.00     0.091 A 
ATOM     86  F   UNL A   1      44.060  33.553  27.321  1.00  0.00    -0.205 F 
ATOM     87  C   UNL A   1      47.539  32.452  27.122  1.00  0.00     0.022 A 
BRANCH  85  88
ATOM     88  S   UNL A   1      46.495  34.569  25.753  1.00  0.00     0.127 S 
ATOM     89  O   UNL A   1      45.472  34.254  24.757  1.00  0.00    -0.237 OA
ATOM     90  O   UNL A   1      46.172  35.689  26.636  1.00  0.00    -0.237 OA
ATOM     91  O   UNL A   1      47.863  34.545  25.254  1.00  0.00    -0.744 OA
ENDBRANCH  85  88
ENDBRANCH  57  81
BRANCH  69  92
ATOM     92  C   UNL A   1      39.025  28.693  28.668  1.00  0.00     0.023 A 
ATOM     93  C   UNL A   1      38.021  29.121  27.777  1.00  0.00     0.012 A 
ATOM     94  C   UNL A   1      38.845  28.863  30.051  1.00  0.00     0.148 A 
ATOM     95  C   UNL A   1      36.846  29.699  28.248  1.00  0.00     0.002 A 
ATOM     96  C   UNL A   1      37.664  29.437  30.517  1.00  0.00     0.091 A 
ATOM     97  F   UNL A   1      39.809  28.450  30.886  1.00  0.00    -0.205 F 
ATOM     98  C   UNL A   1      36.667  29.853  29.617  1.00  0.00     0.022 A 
BRANCH  96  99
ATOM     99  S   UNL A   1      37.320  29.682  32.263  1.00  0.00     0.127 S 
ATOM    100  O   UNL A   1      38.397  30.590  32.665  1.00  0.00    -0.237 OA
ATOM    101  O   UNL A   1      35.993  30.294  32.225  1.00  0.00    -0.237 OA
ATOM    102  O   UNL A   1      37.387  28.363  32.879  1.00  0.00    -0.744 OA
ENDBRANCH  96  99
ENDBRANCH  69  92
ENDBRANCH  43  44
ENDBRANCH  35  38
ENDBRANCH  33  34
ENDBRANCH  32  33
ENDBRANCH   1  32
TORSDOF 17
ENDMDL
