MODEL 1
REMARK VINA RESULT:     -12.2      0.000      0.000
REMARK SMILES CC1(C)CSC[C@](Nc2ccccc2Cl)(C(=O)NCCCCNC(=O)c2ccc(-c3c4nc(c(-c5cccc(S(=O)(=O)[O-])c5F)c5ccc([nH]5)c(-c5cccc(S(=O)(=O)[O-])c5F)c5nc(c(-c6cccc(S(=O)(=O)[O-])c6F)c6ccc3[nH]6)C=C5)C=C4)cc2)C1
REMARK SMILES IDX 21 1 20 2 19 3 18 4 16 5 17 6 7 8 1 9 2 10 3 11 4 12 89 13
REMARK SMILES IDX 5 14 6 15 8 16 9 18 10 19 14 20 11 21 13 22 15 23 12 24
REMARK SMILES IDX 22 25 23 26 24 27 25 29 26 30 27 31 88 32 28 33 87 34 29 35
REMARK SMILES IDX 30 36 31 37 81 38 32 39 86 40 80 41 82 42 33 43 85 44 79 45
REMARK SMILES IDX 78 46 34 48 66 49 46 50 65 51 47 52 50 53 64 54 83 55 48 56
REMARK SMILES IDX 49 57 63 59 84 60 51 61 35 62 36 63 44 64 37 65 39 66 45 67
REMARK SMILES IDX 38 68 40 69 41 70 42 71 43 72 67 73 68 74 76 75 69 76 71 77
REMARK SMILES IDX 77 78 70 79 72 80 73 81 74 82 75 83 52 84 53 85 61 86 54 87
REMARK SMILES IDX 56 88 62 89 55 90 57 91 58 92 59 93 60 94
REMARK H PARENT 18 7 8 17 23 28 82 47 50 58
REMARK Flexibility Score: inf
ROOT
ATOM      1  C   UNL A   1      32.007  31.509  26.677  1.00  0.00     0.023 C 
ENDROOT
BRANCH   1   2
ATOM      2  C   UNL A   1      32.101  30.008  26.945  1.00  0.00     0.023 C 
BRANCH   2   3
ATOM      3  C   UNL A   1      33.426  29.381  26.521  1.00  0.00     0.116 C 
BRANCH   3   4
ATOM      4  N   UNL A   1      33.692  29.573  25.109  1.00  0.00    -0.354 N 
ATOM      5  C   UNL A   1      33.309  28.839  24.019  1.00  0.00     0.246 C 
ATOM      6  O   UNL A   1      33.688  29.259  22.919  1.00  0.00    -0.272 OA
ATOM      7  H   UNL A   1      34.240  30.363  24.898  1.00  0.00     0.163 HD
BRANCH   5   8
ATOM      8  C   UNL A   1      32.498  27.502  24.144  1.00  0.00     0.126 C 
ATOM      9  C   UNL A   1      31.565  25.000  26.102  1.00  0.00     0.012 C 
ATOM     10  C   UNL A   1      32.868  25.093  25.278  1.00  0.00    -0.024 C 
ATOM     11  C   UNL A   1      33.978  24.390  26.099  1.00  0.00     0.012 C 
ATOM     12  C   UNL A   1      32.739  24.356  23.932  1.00  0.00     0.076 C 
ATOM     13  C   UNL A   1      33.315  26.566  25.087  1.00  0.00     0.046 C 
ATOM     14  S   UNL A   1      31.645  25.186  22.743  1.00  0.00    -0.158 SA
ATOM     15  C   UNL A   1      32.462  26.828  22.743  1.00  0.00     0.108 C 
BRANCH   8  16
ATOM     16  N   UNL A   1      31.096  27.682  24.638  1.00  0.00    -0.369 N 
ATOM     17  H   UNL A   1      30.882  27.307  25.524  1.00  0.00     0.161 HD
BRANCH  16  18
ATOM     18  C   UNL A   1      30.067  28.329  23.960  1.00  0.00     0.054 A 
ATOM     19  C   UNL A   1      30.220  29.713  23.757  1.00  0.00     0.027 A 
ATOM     20  C   UNL A   1      28.849  27.759  23.544  1.00  0.00     0.064 A 
ATOM     21  C   UNL A   1      29.297  30.458  23.016  1.00  0.00     0.002 A 
ATOM     22  C   UNL A   1      27.921  28.503  22.799  1.00  0.00     0.023 A 
ATOM     23  Cl  UNL A   1      28.374  26.154  23.961  1.00  0.00    -0.082 Cl
ATOM     24  C   UNL A   1      28.158  29.844  22.512  1.00  0.00     0.002 A 
ENDBRANCH  16  18
ENDBRANCH   8  16
ENDBRANCH   5   8
ENDBRANCH   3   4
ENDBRANCH   2   3
ENDBRANCH   1   2
BRANCH   1  25
ATOM     25  C   UNL A   1      33.083  32.357  27.349  1.00  0.00     0.116 C 
BRANCH  25  26
ATOM     26  N   UNL A   1      32.661  33.728  27.606  1.00  0.00    -0.352 N 
ATOM     27  C   UNL A   1      33.147  34.602  28.549  1.00  0.00     0.251 C 
ATOM     28  H   UNL A   1      31.940  34.073  27.031  1.00  0.00     0.163 HD
ATOM     29  O   UNL A   1      32.616  35.697  28.718  1.00  0.00    -0.269 OA
BRANCH  27  30
ATOM     30  C   UNL A   1      34.294  34.188  29.380  1.00  0.00     0.039 A 
ATOM     31  C   UNL A   1      34.058  33.492  30.568  1.00  0.00     0.014 A 
ATOM     32  C   UNL A   1      35.600  34.432  28.945  1.00  0.00     0.014 A 
ATOM     33  C   UNL A   1      35.138  32.975  31.286  1.00  0.00     0.010 A 
ATOM     34  C   UNL A   1      36.668  33.859  29.626  1.00  0.00     0.010 A 
ATOM     35  C   UNL A   1      36.448  33.123  30.801  1.00  0.00    -0.014 A 
BRANCH  35  36
ATOM     36  C   UNL A   1      37.604  32.499  31.493  1.00  0.00     0.031 A 
ATOM     37  C   UNL A   1      38.342  31.358  30.850  1.00  0.00     0.074 A 
ATOM     38  C   UNL A   1      37.922  32.892  32.743  1.00  0.00     0.049 A 
ATOM     39  N   UNL A   1      39.327  30.643  31.326  1.00  0.00    -0.248 NA
ATOM     40  C   UNL A   1      37.895  30.947  29.509  1.00  0.00     0.031 C 
ATOM     41  C   UNL A   1      37.224  33.927  33.509  1.00  0.00     0.029 A 
ATOM     42  N   UNL A   1      38.894  32.443  33.603  1.00  0.00    -0.354 N 
ATOM     43  C   UNL A   1      39.593  29.676  30.364  1.00  0.00     0.074 A 
ATOM     44  C   UNL A   1      38.644  29.875  29.291  1.00  0.00     0.031 C 
ATOM     45  C   UNL A   1      37.791  34.035  34.721  1.00  0.00     0.029 A 
ATOM     46  C   UNL A   1      38.875  33.063  34.831  1.00  0.00     0.049 A 
ATOM     47  H   UNL A   1      39.545  31.745  33.362  1.00  0.00     0.167 HD
ATOM     48  C   UNL A   1      40.561  28.729  30.358  1.00  0.00     0.034 A 
ATOM     49  C   UNL A   1      39.641  32.868  35.922  1.00  0.00     0.034 A 
ATOM     50  C   UNL A   1      41.537  28.569  31.401  1.00  0.00     0.049 A 
ATOM     51  C   UNL A   1      40.745  31.847  35.866  1.00  0.00     0.074 A 
ATOM     52  C   UNL A   1      42.617  27.706  31.442  1.00  0.00     0.029 A 
ATOM     53  N   UNL A   1      41.550  29.285  32.587  1.00  0.00    -0.354 N 
ATOM     54  N   UNL A   1      41.090  31.059  34.877  1.00  0.00    -0.248 NA
ATOM     55  C   UNL A   1      41.591  31.715  37.062  1.00  0.00     0.031 C 
ATOM     56  C   UNL A   1      43.277  27.891  32.662  1.00  0.00     0.029 A 
ATOM     57  C   UNL A   1      42.617  28.881  33.372  1.00  0.00     0.049 A 
ATOM     58  H   UNL A   1      40.898  29.979  32.836  1.00  0.00     0.167 HD
ATOM     59  C   UNL A   1      42.212  30.364  35.316  1.00  0.00     0.074 A 
ATOM     60  C   UNL A   1      42.499  30.839  36.654  1.00  0.00     0.031 C 
ATOM     61  C   UNL A   1      42.927  29.405  34.678  1.00  0.00     0.034 A 
BRANCH  48  62
ATOM     62  C   UNL A   1      40.653  27.833  29.151  1.00  0.00     0.023 A 
ATOM     63  C   UNL A   1      39.793  26.721  29.048  1.00  0.00     0.012 A 
ATOM     64  C   UNL A   1      41.546  28.116  28.100  1.00  0.00     0.148 A 
ATOM     65  C   UNL A   1      39.841  25.884  27.934  1.00  0.00     0.002 A 
ATOM     66  C   UNL A   1      41.559  27.302  26.972  1.00  0.00     0.091 A 
ATOM     67  F   UNL A   1      42.374  29.163  28.225  1.00  0.00    -0.205 F 
ATOM     68  C   UNL A   1      40.715  26.181  26.893  1.00  0.00     0.022 A 
BRANCH  66  69
ATOM     69  S   UNL A   1      42.595  27.642  25.544  1.00  0.00     0.127 S 
ATOM     70  O   UNL A   1      42.335  26.473  24.707  1.00  0.00    -0.237 OA
ATOM     71  O   UNL A   1      42.026  28.892  25.040  1.00  0.00    -0.237 OA
ATOM     72  O   UNL A   1      43.953  27.758  26.056  1.00  0.00    -0.744 OA
ENDBRANCH  66  69
ENDBRANCH  48  62
BRANCH  49  73
ATOM     73  C   UNL A   1      39.441  33.714  37.132  1.00  0.00     0.023 A 
ATOM     74  C   UNL A   1      39.869  35.056  37.112  1.00  0.00     0.012 A 
ATOM     75  C   UNL A   1      38.803  33.216  38.283  1.00  0.00     0.148 A 
ATOM     76  C   UNL A   1      39.694  35.877  38.226  1.00  0.00     0.002 A 
ATOM     77  C   UNL A   1      38.583  34.054  39.371  1.00  0.00     0.091 A 
ATOM     78  F   UNL A   1      38.414  31.933  38.289  1.00  0.00    -0.205 F 
ATOM     79  C   UNL A   1      39.042  35.380  39.351  1.00  0.00     0.022 A 
BRANCH  77  80
ATOM     80  S   UNL A   1      37.635  33.536  40.807  1.00  0.00     0.127 S 
ATOM     81  O   UNL A   1      38.405  32.388  41.276  1.00  0.00    -0.237 OA
ATOM     82  O   UNL A   1      37.709  34.721  41.663  1.00  0.00    -0.237 OA
ATOM     83  O   UNL A   1      36.298  33.244  40.307  1.00  0.00    -0.744 OA
ENDBRANCH  77  80
ENDBRANCH  49  73
BRANCH  61  84
ATOM     84  C   UNL A   1      44.114  28.822  35.396  1.00  0.00     0.023 A 
ATOM     85  C   UNL A   1      45.389  29.392  35.213  1.00  0.00     0.012 A 
ATOM     86  C   UNL A   1      43.953  27.765  36.314  1.00  0.00     0.148 A 
ATOM     87  C   UNL A   1      46.491  28.902  35.912  1.00  0.00     0.002 A 
ATOM     88  C   UNL A   1      45.046  27.312  37.041  1.00  0.00     0.091 A 
ATOM     89  F   UNL A   1      42.735  27.223  36.458  1.00  0.00    -0.205 F 
ATOM     90  C   UNL A   1      46.318  27.872  36.834  1.00  0.00     0.022 A 
BRANCH  88  91
ATOM     91  S   UNL A   1      44.898  26.055  38.316  1.00  0.00     0.127 S 
ATOM     92  O   UNL A   1      46.269  25.974  38.816  1.00  0.00    -0.237 OA
ATOM     93  O   UNL A   1      43.945  26.665  39.245  1.00  0.00    -0.237 OA
ATOM     94  O   UNL A   1      44.403  24.862  37.644  1.00  0.00    -0.744 OA
ENDBRANCH  88  91
ENDBRANCH  61  84
ENDBRANCH  35  36
ENDBRANCH  27  30
ENDBRANCH  25  26
ENDBRANCH   1  25
TORSDOF 16
ENDMDL
MODEL 2
REMARK VINA RESULT:     -12.1      2.657      8.095
REMARK SMILES CC1(C)CSC[C@](Nc2ccccc2Cl)(C(=O)NCCCCNC(=O)c2ccc(-c3c4nc(c(-c5cccc(S(=O)(=O)[O-])c5F)c5ccc([nH]5)c(-c5cccc(S(=O)(=O)[O-])c5F)c5nc(c(-c6cccc(S(=O)(=O)[O-])c6F)c6ccc3[nH]6)C=C5)C=C4)cc2)C1
REMARK SMILES IDX 21 1 20 2 19 3 18 4 16 5 17 6 7 8 1 9 2 10 3 11 4 12 89 13
REMARK SMILES IDX 5 14 6 15 8 16 9 18 10 19 14 20 11 21 13 22 15 23 12 24
REMARK SMILES IDX 22 25 23 26 24 27 25 29 26 30 27 31 88 32 28 33 87 34 29 35
REMARK SMILES IDX 30 36 31 37 81 38 32 39 86 40 80 41 82 42 33 43 85 44 79 45
REMARK SMILES IDX 78 46 34 48 66 49 46 50 65 51 47 52 50 53 64 54 83 55 48 56
REMARK SMILES IDX 49 57 63 59 84 60 51 61 35 62 36 63 44 64 37 65 39 66 45 67
REMARK SMILES IDX 38 68 40 69 41 70 42 71 43 72 67 73 68 74 76 75 69 76 71 77
REMARK SMILES IDX 77 78 70 79 72 80 73 81 74 82 75 83 52 84 53 85 61 86 54 87
REMARK SMILES IDX 56 88 62 89 55 90 57 91 58 92 59 93 60 94
REMARK H PARENT 18 7 8 17 23 28 82 47 50 58
REMARK Flexibility Score: inf
ROOT
ATOM      1  C   UNL A   1      31.554  29.043  26.305  1.00  0.00     0.023 C 
ENDROOT
BRANCH   1   2
ATOM      2  C   UNL A   1      31.961  27.896  27.229  1.00  0.00     0.023 C 
BRANCH   2   3
ATOM      3  C   UNL A   1      32.240  26.583  26.506  1.00  0.00     0.116 C 
BRANCH   3   4
ATOM      4  N   UNL A   1      31.293  25.548  26.871  1.00  0.00    -0.354 N 
ATOM      5  C   UNL A   1      31.095  24.294  26.357  1.00  0.00     0.246 C 
ATOM      6  O   UNL A   1      30.201  23.624  26.886  1.00  0.00    -0.272 OA
ATOM      7  H   UNL A   1      30.690  25.786  27.611  1.00  0.00     0.163 HD
BRANCH   5   8
ATOM      8  C   UNL A   1      31.898  23.752  25.123  1.00  0.00     0.126 C 
ATOM      9  C   UNL A   1      32.149  21.416  22.790  1.00  0.00     0.012 C 
ATOM     10  C   UNL A   1      32.715  21.353  24.226  1.00  0.00    -0.024 C 
ATOM     11  C   UNL A   1      32.614  19.879  24.692  1.00  0.00     0.012 C 
ATOM     12  C   UNL A   1      34.200  21.760  24.267  1.00  0.00     0.076 C 
ATOM     13  C   UNL A   1      31.861  22.195  25.210  1.00  0.00     0.046 C 
ATOM     14  S   UNL A   1      34.484  23.530  23.975  1.00  0.00    -0.158 SA
ATOM     15  C   UNL A   1      33.382  24.187  25.286  1.00  0.00     0.108 C 
BRANCH   8  16
ATOM     16  N   UNL A   1      31.387  24.235  23.801  1.00  0.00    -0.369 N 
ATOM     17  H   UNL A   1      31.368  23.584  23.063  1.00  0.00     0.161 HD
BRANCH  16  18
ATOM     18  C   UNL A   1      30.935  25.522  23.521  1.00  0.00     0.054 A 
ATOM     19  C   UNL A   1      29.587  25.795  23.820  1.00  0.00     0.027 A 
ATOM     20  C   UNL A   1      31.662  26.544  22.881  1.00  0.00     0.064 A 
ATOM     21  C   UNL A   1      29.040  27.073  23.663  1.00  0.00     0.002 A 
ATOM     22  C   UNL A   1      31.116  27.827  22.724  1.00  0.00     0.023 A 
ATOM     23  Cl  UNL A   1      33.223  26.294  22.193  1.00  0.00    -0.082 Cl
ATOM     24  C   UNL A   1      29.816  28.098  23.139  1.00  0.00     0.002 A 
ENDBRANCH  16  18
ENDBRANCH   8  16
ENDBRANCH   5   8
ENDBRANCH   3   4
ENDBRANCH   2   3
ENDBRANCH   1   2
BRANCH   1  25
ATOM     25  C   UNL A   1      32.676  30.013  25.942  1.00  0.00     0.116 C 
BRANCH  25  26
ATOM     26  N   UNL A   1      32.424  31.379  26.384  1.00  0.00    -0.352 N 
ATOM     27  C   UNL A   1      33.164  32.136  27.260  1.00  0.00     0.251 C 
ATOM     28  H   UNL A   1      31.625  31.814  26.007  1.00  0.00     0.163 HD
ATOM     29  O   UNL A   1      32.767  33.241  27.620  1.00  0.00    -0.269 OA
BRANCH  27  30
ATOM     30  C   UNL A   1      34.427  31.584  27.788  1.00  0.00     0.039 A 
ATOM     31  C   UNL A   1      35.499  32.447  28.025  1.00  0.00     0.014 A 
ATOM     32  C   UNL A   1      34.520  30.227  28.110  1.00  0.00     0.014 A 
ATOM     33  C   UNL A   1      36.646  31.959  28.654  1.00  0.00     0.010 A 
ATOM     34  C   UNL A   1      35.636  29.760  28.796  1.00  0.00     0.010 A 
ATOM     35  C   UNL A   1      36.708  30.621  29.077  1.00  0.00    -0.014 A 
BRANCH  35  36
ATOM     36  C   UNL A   1      37.874  30.103  29.835  1.00  0.00     0.031 A 
ATOM     37  C   UNL A   1      38.148  30.595  31.229  1.00  0.00     0.074 A 
ATOM     38  C   UNL A   1      38.743  29.268  29.230  1.00  0.00     0.049 A 
ATOM     39  N   UNL A   1      39.149  30.313  32.021  1.00  0.00    -0.248 NA
ATOM     40  C   UNL A   1      37.186  31.553  31.798  1.00  0.00     0.031 C 
ATOM     41  C   UNL A   1      38.636  28.788  27.851  1.00  0.00     0.029 A 
ATOM     42  N   UNL A   1      39.906  28.700  29.689  1.00  0.00    -0.354 N 
ATOM     43  C   UNL A   1      38.962  31.084  33.161  1.00  0.00     0.074 A 
ATOM     44  C   UNL A   1      37.767  31.871  32.946  1.00  0.00     0.031 C 
ATOM     45  C   UNL A   1      39.687  27.999  27.576  1.00  0.00     0.029 A 
ATOM     46  C   UNL A   1      40.556  27.935  28.747  1.00  0.00     0.049 A 
ATOM     47  H   UNL A   1      40.244  28.828  30.604  1.00  0.00     0.167 HD
ATOM     48  C   UNL A   1      39.696  31.111  34.298  1.00  0.00     0.034 A 
ATOM     49  C   UNL A   1      41.720  27.260  28.819  1.00  0.00     0.034 A 
ATOM     50  C   UNL A   1      40.852  30.289  34.528  1.00  0.00     0.049 A 
ATOM     51  C   UNL A   1      42.487  27.263  30.114  1.00  0.00     0.074 A 
ATOM     52  C   UNL A   1      41.605  30.169  35.682  1.00  0.00     0.029 A 
ATOM     53  N   UNL A   1      41.422  29.446  33.588  1.00  0.00    -0.354 N 
ATOM     54  N   UNL A   1      42.198  27.865  31.243  1.00  0.00    -0.248 NA
ATOM     55  C   UNL A   1      43.720  26.463  30.159  1.00  0.00     0.031 C 
ATOM     56  C   UNL A   1      42.642  29.263  35.435  1.00  0.00     0.029 A 
ATOM     57  C   UNL A   1      42.523  28.806  34.131  1.00  0.00     0.049 A 
ATOM     58  H   UNL A   1      41.094  29.320  32.668  1.00  0.00     0.167 HD
ATOM     59  C   UNL A   1      43.191  27.490  32.141  1.00  0.00     0.074 A 
ATOM     60  C   UNL A   1      44.079  26.593  31.430  1.00  0.00     0.031 C 
ATOM     61  C   UNL A   1      43.363  27.869  33.431  1.00  0.00     0.034 A 
BRANCH  48  62
ATOM     62  C   UNL A   1      39.231  32.016  35.408  1.00  0.00     0.023 A 
ATOM     63  C   UNL A   1      38.286  31.539  36.339  1.00  0.00     0.012 A 
ATOM     64  C   UNL A   1      39.762  33.311  35.564  1.00  0.00     0.148 A 
ATOM     65  C   UNL A   1      37.852  32.345  37.390  1.00  0.00     0.002 A 
ATOM     66  C   UNL A   1      39.356  34.095  36.639  1.00  0.00     0.091 A 
ATOM     67  F   UNL A   1      40.641  33.757  34.655  1.00  0.00    -0.205 F 
ATOM     68  C   UNL A   1      38.394  33.618  37.545  1.00  0.00     0.022 A 
BRANCH  66  69
ATOM     69  S   UNL A   1      40.050  35.719  36.970  1.00  0.00     0.127 S 
ATOM     70  O   UNL A   1      39.652  36.458  35.773  1.00  0.00    -0.237 OA
ATOM     71  O   UNL A   1      39.348  36.112  38.191  1.00  0.00    -0.237 OA
ATOM     72  O   UNL A   1      41.483  35.514  37.134  1.00  0.00    -0.744 OA
ENDBRANCH  66  69
ENDBRANCH  48  62
BRANCH  49  73
ATOM     73  C   UNL A   1      42.190  26.461  27.653  1.00  0.00     0.023 A 
ATOM     74  C   UNL A   1      43.040  27.062  26.705  1.00  0.00     0.012 A 
ATOM     75  C   UNL A   1      41.833  25.109  27.494  1.00  0.00     0.148 A 
ATOM     76  C   UNL A   1      43.502  26.342  25.603  1.00  0.00     0.002 A 
ATOM     77  C   UNL A   1      42.340  24.381  26.423  1.00  0.00     0.091 A 
ATOM     78  F   UNL A   1      41.012  24.557  28.399  1.00  0.00    -0.205 F 
ATOM     79  C   UNL A   1      43.161  24.999  25.467  1.00  0.00     0.022 A 
BRANCH  77  80
ATOM     80  S   UNL A   1      42.060  22.615  26.244  1.00  0.00     0.127 S 
ATOM     81  O   UNL A   1      42.663  22.090  27.465  1.00  0.00    -0.237 OA
ATOM     82  O   UNL A   1      40.598  22.542  26.196  1.00  0.00    -0.237 OA
ATOM     83  O   UNL A   1      42.717  22.241  24.997  1.00  0.00    -0.744 OA
ENDBRANCH  77  80
ENDBRANCH  49  73
BRANCH  61  84
ATOM     84  C   UNL A   1      44.536  27.294  34.179  1.00  0.00     0.023 A 
ATOM     85  C   UNL A   1      45.788  27.936  34.114  1.00  0.00     0.012 A 
ATOM     86  C   UNL A   1      44.378  26.167  35.010  1.00  0.00     0.148 A 
ATOM     87  C   UNL A   1      46.872  27.450  34.843  1.00  0.00     0.002 A 
ATOM     88  C   UNL A   1      45.450  25.716  35.770  1.00  0.00     0.091 A 
ATOM     89  F   UNL A   1      43.184  25.558  35.042  1.00  0.00    -0.205 F 
ATOM     90  C   UNL A   1      46.701  26.350  35.680  1.00  0.00     0.022 A 
BRANCH  88  91
ATOM     91  S   UNL A   1      45.295  24.365  36.944  1.00  0.00     0.127 S 
ATOM     92  O   UNL A   1      46.601  24.389  37.601  1.00  0.00    -0.237 OA
ATOM     93  O   UNL A   1      44.182  24.809  37.784  1.00  0.00    -0.237 OA
ATOM     94  O   UNL A   1      45.013  23.177  36.150  1.00  0.00    -0.744 OA
ENDBRANCH  88  91
ENDBRANCH  61  84
ENDBRANCH  35  36
ENDBRANCH  27  30
ENDBRANCH  25  26
ENDBRANCH   1  25
TORSDOF 16
ENDMDL
MODEL 3
REMARK VINA RESULT:     -12.0      2.585      8.285
REMARK SMILES CC1(C)CSC[C@](Nc2ccccc2Cl)(C(=O)NCCCCNC(=O)c2ccc(-c3c4nc(c(-c5cccc(S(=O)(=O)[O-])c5F)c5ccc([nH]5)c(-c5cccc(S(=O)(=O)[O-])c5F)c5nc(c(-c6cccc(S(=O)(=O)[O-])c6F)c6ccc3[nH]6)C=C5)C=C4)cc2)C1
REMARK SMILES IDX 21 1 20 2 19 3 18 4 16 5 17 6 7 8 1 9 2 10 3 11 4 12 89 13
REMARK SMILES IDX 5 14 6 15 8 16 9 18 10 19 14 20 11 21 13 22 15 23 12 24
REMARK SMILES IDX 22 25 23 26 24 27 25 29 26 30 27 31 88 32 28 33 87 34 29 35
REMARK SMILES IDX 30 36 31 37 81 38 32 39 86 40 80 41 82 42 33 43 85 44 79 45
REMARK SMILES IDX 78 46 34 48 66 49 46 50 65 51 47 52 50 53 64 54 83 55 48 56
REMARK SMILES IDX 49 57 63 59 84 60 51 61 35 62 36 63 44 64 37 65 39 66 45 67
REMARK SMILES IDX 38 68 40 69 41 70 42 71 43 72 67 73 68 74 76 75 69 76 71 77
REMARK SMILES IDX 77 78 70 79 72 80 73 81 74 82 75 83 52 84 53 85 61 86 54 87
REMARK SMILES IDX 56 88 62 89 55 90 57 91 58 92 59 93 60 94
REMARK H PARENT 18 7 8 17 23 28 82 47 50 58
REMARK Flexibility Score: inf
ROOT
ATOM      1  C   UNL A   1      31.779  29.362  26.519  1.00  0.00     0.023 C 
ENDROOT
BRANCH   1   2
ATOM      2  C   UNL A   1      31.924  28.093  27.359  1.00  0.00     0.023 C 
BRANCH   2   3
ATOM      3  C   UNL A   1      32.157  26.828  26.540  1.00  0.00     0.116 C 
BRANCH   3   4
ATOM      4  N   UNL A   1      31.204  25.785  26.868  1.00  0.00    -0.354 N 
ATOM      5  C   UNL A   1      31.032  24.533  26.342  1.00  0.00     0.246 C 
ATOM      6  O   UNL A   1      30.125  23.854  26.836  1.00  0.00    -0.272 OA
ATOM      7  H   UNL A   1      30.574  26.015  27.588  1.00  0.00     0.163 HD
BRANCH   5   8
ATOM      8  C   UNL A   1      31.881  24.001  25.133  1.00  0.00     0.126 C 
ATOM      9  C   UNL A   1      32.198  21.710  22.765  1.00  0.00     0.012 C 
ATOM     10  C   UNL A   1      32.696  21.607  24.222  1.00  0.00    -0.024 C 
ATOM     11  C   UNL A   1      32.548  20.126  24.652  1.00  0.00     0.012 C 
ATOM     12  C   UNL A   1      34.184  21.985  24.339  1.00  0.00     0.076 C 
ATOM     13  C   UNL A   1      31.813  22.444  25.185  1.00  0.00     0.046 C 
ATOM     14  S   UNL A   1      34.513  23.755  24.099  1.00  0.00    -0.158 SA
ATOM     15  C   UNL A   1      33.364  24.406  25.372  1.00  0.00     0.108 C 
BRANCH   8  16
ATOM     16  N   UNL A   1      31.439  24.521  23.801  1.00  0.00    -0.369 N 
ATOM     17  H   UNL A   1      31.529  23.914  23.031  1.00  0.00     0.161 HD
BRANCH  16  18
ATOM     18  C   UNL A   1      30.912  25.785  23.551  1.00  0.00     0.054 A 
ATOM     19  C   UNL A   1      29.519  25.927  23.696  1.00  0.00     0.027 A 
ATOM     20  C   UNL A   1      31.616  26.908  23.076  1.00  0.00     0.064 A 
ATOM     21  C   UNL A   1      28.884  27.165  23.556  1.00  0.00     0.002 A 
ATOM     22  C   UNL A   1      30.982  28.151  22.936  1.00  0.00     0.023 A 
ATOM     23  Cl  UNL A   1      33.265  26.837  22.574  1.00  0.00    -0.082 Cl
ATOM     24  C   UNL A   1      29.623  28.286  23.202  1.00  0.00     0.002 A 
ENDBRANCH  16  18
ENDBRANCH   8  16
ENDBRANCH   5   8
ENDBRANCH   3   4
ENDBRANCH   2   3
ENDBRANCH   1   2
BRANCH   1  25
ATOM     25  C   UNL A   1      33.060  30.175  26.346  1.00  0.00     0.116 C 
BRANCH  25  26
ATOM     26  N   UNL A   1      32.932  31.556  26.794  1.00  0.00    -0.352 N 
ATOM     27  C   UNL A   1      33.771  32.258  27.627  1.00  0.00     0.251 C 
ATOM     28  H   UNL A   1      32.148  32.048  26.457  1.00  0.00     0.163 HD
ATOM     29  O   UNL A   1      33.475  33.389  28.003  1.00  0.00    -0.269 OA
BRANCH  27  30
ATOM     30  C   UNL A   1      35.016  31.615  28.091  1.00  0.00     0.039 A 
ATOM     31  C   UNL A   1      36.183  32.377  28.174  1.00  0.00     0.014 A 
ATOM     32  C   UNL A   1      35.005  30.280  28.505  1.00  0.00     0.014 A 
ATOM     33  C   UNL A   1      37.329  31.816  28.743  1.00  0.00     0.010 A 
ATOM     34  C   UNL A   1      36.126  29.748  29.131  1.00  0.00     0.010 A 
ATOM     35  C   UNL A   1      37.298  30.511  29.259  1.00  0.00    -0.014 A 
BRANCH  35  36
ATOM     36  C   UNL A   1      38.471  29.927  29.957  1.00  0.00     0.031 A 
ATOM     37  C   UNL A   1      38.856  30.417  31.325  1.00  0.00     0.074 A 
ATOM     38  C   UNL A   1      39.248  29.031  29.316  1.00  0.00     0.049 A 
ATOM     39  N   UNL A   1      39.882  30.080  32.062  1.00  0.00    -0.248 NA
ATOM     40  C   UNL A   1      37.992  31.442  31.933  1.00  0.00     0.031 C 
ATOM     41  C   UNL A   1      39.030  28.543  27.953  1.00  0.00     0.029 A 
ATOM     42  N   UNL A   1      40.397  28.394  29.715  1.00  0.00    -0.354 N 
ATOM     43  C   UNL A   1      39.811  30.875  33.199  1.00  0.00     0.074 A 
ATOM     44  C   UNL A   1      38.659  31.735  33.041  1.00  0.00     0.031 C 
ATOM     45  C   UNL A   1      40.011  27.684  27.630  1.00  0.00     0.029 A 
ATOM     46  C   UNL A   1      40.940  27.578  28.750  1.00  0.00     0.049 A 
ATOM     47  H   UNL A   1      40.795  28.511  30.608  1.00  0.00     0.167 HD
ATOM     48  C   UNL A   1      40.611  30.868  34.291  1.00  0.00     0.034 A 
ATOM     49  C   UNL A   1      42.061  26.831  28.765  1.00  0.00     0.034 A 
ATOM     50  C   UNL A   1      41.723  29.975  34.467  1.00  0.00     0.049 A 
ATOM     51  C   UNL A   1      42.902  26.799  30.014  1.00  0.00     0.074 A 
ATOM     52  C   UNL A   1      42.533  29.821  35.578  1.00  0.00     0.029 A 
ATOM     53  N   UNL A   1      42.183  29.086  33.509  1.00  0.00    -0.354 N 
ATOM     54  N   UNL A   1      42.718  27.431  31.148  1.00  0.00    -0.248 NA
ATOM     55  C   UNL A   1      44.081  25.922  30.000  1.00  0.00     0.031 C 
ATOM     56  C   UNL A   1      43.494  28.847  35.285  1.00  0.00     0.029 A 
ATOM     57  C   UNL A   1      43.270  28.383  33.998  1.00  0.00     0.049 A 
ATOM     58  H   UNL A   1      41.794  28.971  32.612  1.00  0.00     0.167 HD
ATOM     59  C   UNL A   1      43.736  27.004  31.993  1.00  0.00     0.074 A 
ATOM     60  C   UNL A   1      44.521  26.042  31.246  1.00  0.00     0.031 C 
ATOM     61  C   UNL A   1      44.007  27.385  33.265  1.00  0.00     0.034 A 
BRANCH  48  62
ATOM     62  C   UNL A   1      40.270  31.814  35.412  1.00  0.00     0.023 A 
ATOM     63  C   UNL A   1      41.034  32.986  35.585  1.00  0.00     0.012 A 
ATOM     64  C   UNL A   1      39.170  31.575  36.259  1.00  0.00     0.148 A 
ATOM     65  C   UNL A   1      40.731  33.891  36.601  1.00  0.00     0.002 A 
ATOM     66  C   UNL A   1      38.848  32.503  37.243  1.00  0.00     0.091 A 
ATOM     67  F   UNL A   1      38.470  30.444  36.097  1.00  0.00    -0.205 F 
ATOM     68  C   UNL A   1      39.633  33.655  37.422  1.00  0.00     0.022 A 
BRANCH  66  69
ATOM     69  S   UNL A   1      37.408  32.328  38.304  1.00  0.00     0.127 S 
ATOM     70  O   UNL A   1      36.387  33.033  37.532  1.00  0.00    -0.237 OA
ATOM     71  O   UNL A   1      37.237  30.876  38.356  1.00  0.00    -0.237 OA
ATOM     72  O   UNL A   1      37.771  32.941  39.574  1.00  0.00    -0.744 OA
ENDBRANCH  66  69
ENDBRANCH  48  62
BRANCH  49  73
ATOM     73  C   UNL A   1      42.410  25.989  27.587  1.00  0.00     0.023 A 
ATOM     74  C   UNL A   1      43.201  26.539  26.558  1.00  0.00     0.012 A 
ATOM     75  C   UNL A   1      41.998  24.646  27.490  1.00  0.00     0.148 A 
ATOM     76  C   UNL A   1      43.550  25.778  25.442  1.00  0.00     0.002 A 
ATOM     77  C   UNL A   1      42.394  23.877  26.402  1.00  0.00     0.091 A 
ATOM     78  F   UNL A   1      41.235  24.144  28.472  1.00  0.00    -0.205 F 
ATOM     79  C   UNL A   1      43.155  24.444  25.369  1.00  0.00     0.022 A 
BRANCH  77  80
ATOM     80  S   UNL A   1      42.044  22.118  26.291  1.00  0.00     0.127 S 
ATOM     81  O   UNL A   1      40.592  22.110  26.143  1.00  0.00    -0.237 OA
ATOM     82  O   UNL A   1      42.789  21.735  25.090  1.00  0.00    -0.237 OA
ATOM     83  O   UNL A   1      42.561  21.539  27.524  1.00  0.00    -0.744 OA
ENDBRANCH  77  80
ENDBRANCH  49  73
BRANCH  61  84
ATOM     84  C   UNL A   1      45.182  26.744  33.953  1.00  0.00     0.023 A 
ATOM     85  C   UNL A   1      46.455  27.341  33.861  1.00  0.00     0.012 A 
ATOM     86  C   UNL A   1      45.010  25.599  34.756  1.00  0.00     0.148 A 
ATOM     87  C   UNL A   1      47.544  26.793  34.537  1.00  0.00     0.002 A 
ATOM     88  C   UNL A   1      46.090  25.086  35.464  1.00  0.00     0.091 A 
ATOM     89  F   UNL A   1      43.796  25.035  34.813  1.00  0.00    -0.205 F 
ATOM     90  C   UNL A   1      47.360  25.675  35.347  1.00  0.00     0.022 A 
BRANCH  88  91
ATOM     91  S   UNL A   1      45.924  23.707  36.603  1.00  0.00     0.127 S 
ATOM     92  O   UNL A   1      44.958  24.232  37.567  1.00  0.00    -0.237 OA
ATOM     93  O   UNL A   1      45.406  22.647  35.737  1.00  0.00    -0.237 OA
ATOM     94  O   UNL A   1      47.261  23.458  37.126  1.00  0.00    -0.744 OA
ENDBRANCH  88  91
ENDBRANCH  61  84
ENDBRANCH  35  36
ENDBRANCH  27  30
ENDBRANCH  25  26
ENDBRANCH   1  25
TORSDOF 16
ENDMDL
