MODEL 1
REMARK VINA RESULT:     -12.3      0.000      0.000
REMARK SMILES CC1(C)[C@@](C)(C(=O)NCCCCNC(=O)c2ccc(-c3c4nc(c(-c5cccc(S(=O)(=O)[O-])c5F)c5ccc([nH]5)c(-c5cccc(S(=O)(=O)[O-])c5F)c5nc(c(-c6cccc(S(=O)(=O)[O-])c6F)c6ccc3[nH]6)C=C5)C=C4)cc2)CC[C@]1(C)C(=O)Nc1ccc(Cl)cc1Cl
REMARK SMILES IDX 11 1 10 2 9 3 8 4 6 5 7 6 4 8 1 9 2 10 3 11 81 12 5 13 79 14
REMARK SMILES IDX 80 15 82 16 83 17 84 18 85 19 86 21 87 22 92 23 88 24 91 25
REMARK SMILES IDX 93 26 89 27 90 28 12 29 13 30 14 31 15 33 16 34 17 35 78 36
REMARK SMILES IDX 18 37 77 38 19 39 20 40 21 41 71 42 22 43 76 44 70 45 72 46
REMARK SMILES IDX 23 47 75 48 69 49 68 50 24 52 56 53 36 54 55 55 37 56 40 57
REMARK SMILES IDX 54 58 73 59 38 60 39 61 53 63 74 64 41 65 25 66 26 67 34 68
REMARK SMILES IDX 27 69 29 70 35 71 28 72 30 73 31 74 32 75 33 76 57 77 58 78
REMARK SMILES IDX 66 79 59 80 61 81 67 82 60 83 62 84 63 85 64 86 65 87 42 88
REMARK SMILES IDX 43 89 51 90 44 91 46 92 52 93 45 94 47 95 48 96 49 97 50 98
REMARK H PARENT 8 7 85 20 13 32 72 51 40 62
REMARK Flexibility Score: inf
ROOT
ATOM      1  C   UNL A   1      34.464  31.699  27.290  1.00  0.00     0.023 C 
ENDROOT
BRANCH   1   2
ATOM      2  C   UNL A   1      35.003  30.414  27.877  1.00  0.00     0.023 C 
BRANCH   2   3
ATOM      3  C   UNL A   1      34.563  29.118  27.169  1.00  0.00     0.116 C 
BRANCH   3   4
ATOM      4  N   UNL A   1      34.196  29.312  25.769  1.00  0.00    -0.356 N 
ATOM      5  C   UNL A   1      33.209  28.841  24.950  1.00  0.00     0.226 C 
ATOM      6  O   UNL A   1      33.242  29.289  23.798  1.00  0.00    -0.274 OA
ATOM      7  H   UNL A   1      34.807  29.928  25.304  1.00  0.00     0.163 HD
BRANCH   5   8
ATOM      8  C   UNL A   1      32.073  27.840  25.382  1.00  0.00     0.052 C 
ATOM      9  C   UNL A   1      33.812  26.056  25.836  1.00  0.00     0.013 C 
ATOM     10  C   UNL A   1      32.412  26.291  25.352  1.00  0.00    -0.007 C 
ATOM     11  C   UNL A   1      31.437  25.524  26.282  1.00  0.00     0.013 C 
ATOM     12  C   UNL A   1      32.269  25.811  23.847  1.00  0.00     0.053 C 
ATOM     13  C   UNL A   1      31.507  28.373  26.723  1.00  0.00     0.022 C 
ATOM     14  C   UNL A   1      30.914  27.885  24.346  1.00  0.00     0.018 C 
ATOM     15  C   UNL A   1      31.074  26.702  23.376  1.00  0.00     0.018 C 
ATOM     16  C   UNL A   1      33.444  26.152  22.908  1.00  0.00     0.022 C 
BRANCH  12  17
ATOM     17  C   UNL A   1      31.921  24.274  23.676  1.00  0.00     0.230 C 
ATOM     18  O   UNL A   1      30.841  23.941  23.166  1.00  0.00    -0.274 OA
ATOM     19  N   UNL A   1      32.680  23.215  24.125  1.00  0.00    -0.324 N 
ATOM     20  H   UNL A   1      32.180  22.369  24.160  1.00  0.00     0.170 HD
BRANCH  19  21
ATOM     21  C   UNL A   1      34.017  23.087  24.543  1.00  0.00     0.060 A 
ATOM     22  C   UNL A   1      35.049  23.218  23.611  1.00  0.00     0.029 A 
ATOM     23  C   UNL A   1      34.351  22.788  25.885  1.00  0.00     0.066 A 
ATOM     24  C   UNL A   1      36.384  23.216  24.031  1.00  0.00     0.023 A 
ATOM     25  C   UNL A   1      35.682  22.866  26.315  1.00  0.00     0.043 A 
ATOM     26  Cl  UNL A   1      33.146  22.494  27.088  1.00  0.00    -0.082 Cl
ATOM     27  C   UNL A   1      36.690  23.097  25.385  1.00  0.00     0.042 A 
ATOM     28  Cl  UNL A   1      38.319  23.247  25.914  1.00  0.00    -0.084 Cl
ENDBRANCH  19  21
ENDBRANCH  12  17
ENDBRANCH   5   8
ENDBRANCH   3   4
ENDBRANCH   2   3
ENDBRANCH   1   2
BRANCH   1  29
ATOM     29  C   UNL A   1      33.039  31.992  27.696  1.00  0.00     0.116 C 
BRANCH  29  30
ATOM     30  N   UNL A   1      32.727  33.419  27.707  1.00  0.00    -0.352 N 
ATOM     31  C   UNL A   1      33.247  34.407  28.513  1.00  0.00     0.251 C 
ATOM     32  H   UNL A   1      32.055  33.714  27.049  1.00  0.00     0.163 HD
ATOM     33  O   UNL A   1      32.795  35.538  28.492  1.00  0.00    -0.269 OA
BRANCH  31  34
ATOM     34  C   UNL A   1      34.348  34.040  29.426  1.00  0.00     0.039 A 
ATOM     35  C   UNL A   1      34.081  33.241  30.538  1.00  0.00     0.014 A 
ATOM     36  C   UNL A   1      35.656  34.394  29.092  1.00  0.00     0.014 A 
ATOM     37  C   UNL A   1      35.149  32.727  31.273  1.00  0.00     0.010 A 
ATOM     38  C   UNL A   1      36.708  33.769  29.735  1.00  0.00     0.010 A 
ATOM     39  C   UNL A   1      36.470  32.951  30.848  1.00  0.00    -0.014 A 
BRANCH  39  40
ATOM     40  C   UNL A   1      37.634  32.370  31.556  1.00  0.00     0.031 A 
ATOM     41  C   UNL A   1      38.415  31.262  30.903  1.00  0.00     0.074 A 
ATOM     42  C   UNL A   1      37.913  32.753  32.817  1.00  0.00     0.049 A 
ATOM     43  N   UNL A   1      39.401  30.553  31.384  1.00  0.00    -0.248 NA
ATOM     44  C   UNL A   1      37.999  30.862  29.547  1.00  0.00     0.031 C 
ATOM     45  C   UNL A   1      37.163  33.745  33.592  1.00  0.00     0.029 A 
ATOM     46  N   UNL A   1      38.894  32.334  33.679  1.00  0.00    -0.354 N 
ATOM     47  C   UNL A   1      39.680  29.595  30.417  1.00  0.00     0.074 A 
ATOM     48  C   UNL A   1      38.722  29.773  29.351  1.00  0.00     0.031 C 
ATOM     49  C   UNL A   1      37.728  33.877  34.804  1.00  0.00     0.029 A 
ATOM     50  C   UNL A   1      38.858  32.960  34.903  1.00  0.00     0.049 A 
ATOM     51  H   UNL A   1      39.560  31.647  33.444  1.00  0.00     0.167 HD
ATOM     52  C   UNL A   1      40.676  28.678  30.393  1.00  0.00     0.034 A 
ATOM     53  C   UNL A   1      39.658  32.815  35.978  1.00  0.00     0.034 A 
ATOM     54  C   UNL A   1      41.670  28.563  31.422  1.00  0.00     0.049 A 
ATOM     55  C   UNL A   1      40.803  31.843  35.901  1.00  0.00     0.074 A 
ATOM     56  C   UNL A   1      42.790  27.754  31.450  1.00  0.00     0.029 A 
ATOM     57  N   UNL A   1      41.664  29.287  32.605  1.00  0.00    -0.354 N 
ATOM     58  N   UNL A   1      41.157  31.061  34.910  1.00  0.00    -0.248 NA
ATOM     59  C   UNL A   1      41.683  31.760  37.076  1.00  0.00     0.031 C 
ATOM     60  C   UNL A   1      43.455  27.977  32.662  1.00  0.00     0.029 A 
ATOM     61  C   UNL A   1      42.757  28.940  33.377  1.00  0.00     0.049 A 
ATOM     62  H   UNL A   1      40.981  29.949  32.858  1.00  0.00     0.167 HD
ATOM     63  C   UNL A   1      42.318  30.418  35.325  1.00  0.00     0.074 A 
ATOM     64  C   UNL A   1      42.617  30.919  36.652  1.00  0.00     0.031 C 
ATOM     65  C   UNL A   1      43.062  29.489  34.674  1.00  0.00     0.034 A 
BRANCH  52  66
ATOM     66  C   UNL A   1      40.765  27.789  29.181  1.00  0.00     0.023 A 
ATOM     67  C   UNL A   1      40.004  26.600  29.133  1.00  0.00     0.012 A 
ATOM     68  C   UNL A   1      41.593  28.120  28.093  1.00  0.00     0.148 A 
ATOM     69  C   UNL A   1      40.108  25.731  28.047  1.00  0.00     0.002 A 
ATOM     70  C   UNL A   1      41.653  27.273  26.992  1.00  0.00     0.091 A 
ATOM     71  F   UNL A   1      42.332  29.236  28.165  1.00  0.00    -0.205 F 
ATOM     72  C   UNL A   1      40.925  26.072  26.974  1.00  0.00     0.022 A 
BRANCH  70  73
ATOM     73  S   UNL A   1      42.615  27.668  25.528  1.00  0.00     0.127 S 
ATOM     74  O   UNL A   1      43.964  27.781  26.081  1.00  0.00    -0.237 OA
ATOM     75  O   UNL A   1      42.399  26.491  24.686  1.00  0.00    -0.237 OA
ATOM     76  O   UNL A   1      42.043  28.899  25.000  1.00  0.00    -0.744 OA
ENDBRANCH  70  73
ENDBRANCH  52  66
BRANCH  53  77
ATOM     77  C   UNL A   1      39.464  33.691  37.167  1.00  0.00     0.023 A 
ATOM     78  C   UNL A   1      39.901  35.029  37.106  1.00  0.00     0.012 A 
ATOM     79  C   UNL A   1      38.805  33.236  38.326  1.00  0.00     0.148 A 
ATOM     80  C   UNL A   1      39.708  35.892  38.184  1.00  0.00     0.002 A 
ATOM     81  C   UNL A   1      38.571  34.115  39.378  1.00  0.00     0.091 A 
ATOM     82  F   UNL A   1      38.400  31.959  38.365  1.00  0.00    -0.205 F 
ATOM     83  C   UNL A   1      39.035  35.439  39.315  1.00  0.00     0.022 A 
BRANCH  81  84
ATOM     84  S   UNL A   1      37.604  33.663  40.823  1.00  0.00     0.127 S 
ATOM     85  O   UNL A   1      38.483  32.702  41.483  1.00  0.00    -0.237 OA
ATOM     86  O   UNL A   1      37.470  34.949  41.509  1.00  0.00    -0.237 OA
ATOM     87  O   UNL A   1      36.353  33.123  40.308  1.00  0.00    -0.744 OA
ENDBRANCH  81  84
ENDBRANCH  53  77
BRANCH  65  88
ATOM     88  C   UNL A   1      44.291  28.970  35.370  1.00  0.00     0.023 A 
ATOM     89  C   UNL A   1      45.535  29.592  35.146  1.00  0.00     0.012 A 
ATOM     90  C   UNL A   1      44.196  27.927  36.312  1.00  0.00     0.148 A 
ATOM     91  C   UNL A   1      46.672  29.164  35.828  1.00  0.00     0.002 A 
ATOM     92  C   UNL A   1      45.325  27.538  37.024  1.00  0.00     0.091 A 
ATOM     93  F   UNL A   1      43.006  27.337  36.496  1.00  0.00    -0.205 F 
ATOM     94  C   UNL A   1      46.565  28.148  36.775  1.00  0.00     0.022 A 
BRANCH  92  95
ATOM     95  S   UNL A   1      45.257  26.308  38.331  1.00  0.00     0.127 S 
ATOM     96  O   UNL A   1      46.653  26.250  38.758  1.00  0.00    -0.237 OA
ATOM     97  O   UNL A   1      44.349  26.930  39.296  1.00  0.00    -0.237 OA
ATOM     98  O   UNL A   1      44.738  25.095  37.713  1.00  0.00    -0.744 OA
ENDBRANCH  92  95
ENDBRANCH  65  88
ENDBRANCH  39  40
ENDBRANCH  31  34
ENDBRANCH  29  30
ENDBRANCH   1  29
TORSDOF 16
ENDMDL
MODEL 2
REMARK VINA RESULT:     -12.1      2.168      7.974
REMARK SMILES CC1(C)[C@@](C)(C(=O)NCCCCNC(=O)c2ccc(-c3c4nc(c(-c5cccc(S(=O)(=O)[O-])c5F)c5ccc([nH]5)c(-c5cccc(S(=O)(=O)[O-])c5F)c5nc(c(-c6cccc(S(=O)(=O)[O-])c6F)c6ccc3[nH]6)C=C5)C=C4)cc2)CC[C@]1(C)C(=O)Nc1ccc(Cl)cc1Cl
REMARK SMILES IDX 11 1 10 2 9 3 8 4 6 5 7 6 4 8 1 9 2 10 3 11 81 12 5 13 79 14
REMARK SMILES IDX 80 15 82 16 83 17 84 18 85 19 86 21 87 22 92 23 88 24 91 25
REMARK SMILES IDX 93 26 89 27 90 28 12 29 13 30 14 31 15 33 16 34 17 35 78 36
REMARK SMILES IDX 18 37 77 38 19 39 20 40 21 41 71 42 22 43 76 44 70 45 72 46
REMARK SMILES IDX 23 47 75 48 69 49 68 50 24 52 56 53 36 54 55 55 37 56 40 57
REMARK SMILES IDX 54 58 73 59 38 60 39 61 53 63 74 64 41 65 25 66 26 67 34 68
REMARK SMILES IDX 27 69 29 70 35 71 28 72 30 73 31 74 32 75 33 76 57 77 58 78
REMARK SMILES IDX 66 79 59 80 61 81 67 82 60 83 62 84 63 85 64 86 65 87 42 88
REMARK SMILES IDX 43 89 51 90 44 91 46 92 52 93 45 94 47 95 48 96 49 97 50 98
REMARK H PARENT 8 7 85 20 13 32 72 51 40 62
REMARK Flexibility Score: inf
ROOT
ATOM      1  C   UNL A   1      32.249  30.032  25.721  1.00  0.00     0.023 C 
ENDROOT
BRANCH   1   2
ATOM      2  C   UNL A   1      33.491  29.341  25.200  1.00  0.00     0.023 C 
BRANCH   2   3
ATOM      3  C   UNL A   1      33.453  28.927  23.717  1.00  0.00     0.116 C 
BRANCH   3   4
ATOM      4  N   UNL A   1      32.101  28.785  23.183  1.00  0.00    -0.356 N 
ATOM      5  C   UNL A   1      31.308  27.736  22.813  1.00  0.00     0.226 C 
ATOM      6  O   UNL A   1      30.180  28.058  22.422  1.00  0.00    -0.274 OA
ATOM      7  H   UNL A   1      31.656  29.655  23.058  1.00  0.00     0.163 HD
BRANCH   5   8
ATOM      8  C   UNL A   1      31.720  26.218  22.889  1.00  0.00     0.052 C 
ATOM      9  C   UNL A   1      29.442  25.645  23.837  1.00  0.00     0.013 C 
ATOM     10  C   UNL A   1      30.898  25.286  23.875  1.00  0.00    -0.007 C 
ATOM     11  C   UNL A   1      31.049  23.805  23.442  1.00  0.00     0.013 C 
ATOM     12  C   UNL A   1      31.478  25.521  25.333  1.00  0.00     0.053 C 
ATOM     13  C   UNL A   1      31.819  25.718  21.426  1.00  0.00     0.022 C 
ATOM     14  C   UNL A   1      33.138  26.090  23.514  1.00  0.00     0.018 C 
ATOM     15  C   UNL A   1      32.990  25.741  25.005  1.00  0.00     0.018 C 
ATOM     16  C   UNL A   1      31.012  26.802  26.053  1.00  0.00     0.022 C 
BRANCH  12  17
ATOM     17  C   UNL A   1      31.293  24.296  26.321  1.00  0.00     0.230 C 
ATOM     18  O   UNL A   1      30.233  24.169  26.953  1.00  0.00    -0.274 OA
ATOM     19  N   UNL A   1      32.250  23.356  26.637  1.00  0.00    -0.324 N 
ATOM     20  H   UNL A   1      32.037  22.845  27.450  1.00  0.00     0.170 HD
BRANCH  19  21
ATOM     21  C   UNL A   1      33.466  22.971  26.043  1.00  0.00     0.060 A 
ATOM     22  C   UNL A   1      34.612  23.741  26.253  1.00  0.00     0.029 A 
ATOM     23  C   UNL A   1      33.557  21.837  25.203  1.00  0.00     0.066 A 
ATOM     24  C   UNL A   1      35.853  23.305  25.773  1.00  0.00     0.023 A 
ATOM     25  C   UNL A   1      34.808  21.361  24.792  1.00  0.00     0.043 A 
ATOM     26  Cl  UNL A   1      32.174  20.887  24.789  1.00  0.00    -0.082 Cl
ATOM     27  C   UNL A   1      35.953  22.091  25.096  1.00  0.00     0.042 A 
ATOM     28  Cl  UNL A   1      37.497  21.486  24.642  1.00  0.00    -0.084 Cl
ENDBRANCH  19  21
ENDBRANCH  12  17
ENDBRANCH   5   8
ENDBRANCH   3   4
ENDBRANCH   2   3
ENDBRANCH   1   2
BRANCH   1  29
ATOM     29  C   UNL A   1      32.406  30.567  27.125  1.00  0.00     0.116 C 
BRANCH  29  30
ATOM     30  N   UNL A   1      32.467  32.025  27.180  1.00  0.00    -0.352 N 
ATOM     31  C   UNL A   1      33.488  32.827  27.641  1.00  0.00     0.251 C 
ATOM     32  H   UNL A   1      31.672  32.499  26.842  1.00  0.00     0.163 HD
ATOM     33  O   UNL A   1      33.344  34.033  27.742  1.00  0.00    -0.269 OA
BRANCH  31  34
ATOM     34  C   UNL A   1      34.750  32.171  28.038  1.00  0.00     0.039 A 
ATOM     35  C   UNL A   1      35.923  32.924  28.107  1.00  0.00     0.014 A 
ATOM     36  C   UNL A   1      34.723  30.841  28.460  1.00  0.00     0.014 A 
ATOM     37  C   UNL A   1      37.058  32.354  28.682  1.00  0.00     0.010 A 
ATOM     38  C   UNL A   1      35.805  30.332  29.154  1.00  0.00     0.010 A 
ATOM     39  C   UNL A   1      36.993  31.070  29.250  1.00  0.00    -0.014 A 
BRANCH  39  40
ATOM     40  C   UNL A   1      38.153  30.450  29.931  1.00  0.00     0.031 A 
ATOM     41  C   UNL A   1      38.460  30.828  31.354  1.00  0.00     0.074 A 
ATOM     42  C   UNL A   1      38.987  29.648  29.241  1.00  0.00     0.049 A 
ATOM     43  N   UNL A   1      39.474  30.481  32.100  1.00  0.00    -0.248 NA
ATOM     44  C   UNL A   1      37.529  31.763  32.012  1.00  0.00     0.031 C 
ATOM     45  C   UNL A   1      38.850  29.292  27.827  1.00  0.00     0.029 A 
ATOM     46  N   UNL A   1      40.133  29.005  29.634  1.00  0.00    -0.354 N 
ATOM     47  C   UNL A   1      39.331  31.195  33.284  1.00  0.00     0.074 A 
ATOM     48  C   UNL A   1      38.169  32.040  33.135  1.00  0.00     0.031 C 
ATOM     49  C   UNL A   1      39.857  28.472  27.479  1.00  0.00     0.029 A 
ATOM     50  C   UNL A   1      40.725  28.270  28.634  1.00  0.00     0.049 A 
ATOM     51  H   UNL A   1      40.498  29.065  30.547  1.00  0.00     0.167 HD
ATOM     52  C   UNL A   1      40.071  31.121  34.415  1.00  0.00     0.034 A 
ATOM     53  C   UNL A   1      41.838  27.510  28.654  1.00  0.00     0.034 A 
ATOM     54  C   UNL A   1      41.175  30.220  34.580  1.00  0.00     0.049 A 
ATOM     55  C   UNL A   1      42.603  27.383  29.944  1.00  0.00     0.074 A 
ATOM     56  C   UNL A   1      41.924  29.973  35.715  1.00  0.00     0.029 A 
ATOM     57  N   UNL A   1      41.686  29.410  33.576  1.00  0.00    -0.354 N 
ATOM     58  N   UNL A   1      42.357  27.936  31.107  1.00  0.00    -0.248 NA
ATOM     59  C   UNL A   1      43.776  26.499  29.934  1.00  0.00     0.031 C 
ATOM     60  C   UNL A   1      42.900  29.023  35.392  1.00  0.00     0.029 A 
ATOM     61  C   UNL A   1      42.746  28.666  34.060  1.00  0.00     0.049 A 
ATOM     62  H   UNL A   1      41.345  29.373  32.653  1.00  0.00     0.167 HD
ATOM     63  C   UNL A   1      43.322  27.442  31.977  1.00  0.00     0.074 A 
ATOM     64  C   UNL A   1      44.145  26.530  31.208  1.00  0.00     0.031 C 
ATOM     65  C   UNL A   1      43.518  27.726  33.289  1.00  0.00     0.034 A 
BRANCH  52  66
ATOM     66  C   UNL A   1      39.652  31.991  35.571  1.00  0.00     0.023 A 
ATOM     67  C   UNL A   1      40.165  33.302  35.677  1.00  0.00     0.012 A 
ATOM     68  C   UNL A   1      38.757  31.520  36.550  1.00  0.00     0.148 A 
ATOM     69  C   UNL A   1      39.836  34.110  36.765  1.00  0.00     0.002 A 
ATOM     70  C   UNL A   1      38.396  32.351  37.606  1.00  0.00     0.091 A 
ATOM     71  F   UNL A   1      38.301  30.264  36.453  1.00  0.00    -0.205 F 
ATOM     72  C   UNL A   1      38.946  33.637  37.724  1.00  0.00     0.022 A 
BRANCH  70  73
ATOM     73  S   UNL A   1      37.192  31.858  38.844  1.00  0.00     0.127 S 
ATOM     74  O   UNL A   1      36.961  30.458  38.493  1.00  0.00    -0.237 OA
ATOM     75  O   UNL A   1      37.931  32.058  40.092  1.00  0.00    -0.237 OA
ATOM     76  O   UNL A   1      36.056  32.750  38.669  1.00  0.00    -0.744 OA
ENDBRANCH  70  73
ENDBRANCH  52  66
BRANCH  53  77
ATOM     77  C   UNL A   1      42.221  26.728  27.446  1.00  0.00     0.023 A 
ATOM     78  C   UNL A   1      42.906  27.379  26.402  1.00  0.00     0.012 A 
ATOM     79  C   UNL A   1      41.970  25.346  27.345  1.00  0.00     0.148 A 
ATOM     80  C   UNL A   1      43.314  26.676  25.269  1.00  0.00     0.002 A 
ATOM     81  C   UNL A   1      42.423  24.640  26.235  1.00  0.00     0.091 A 
ATOM     82  F   UNL A   1      41.314  24.745  28.348  1.00  0.00    -0.205 F 
ATOM     83  C   UNL A   1      43.082  25.306  25.189  1.00  0.00     0.022 A 
BRANCH  81  84
ATOM     84  S   UNL A   1      42.284  22.854  26.098  1.00  0.00     0.127 S 
ATOM     85  O   UNL A   1      40.838  22.659  26.174  1.00  0.00    -0.237 OA
ATOM     86  O   UNL A   1      42.871  22.608  24.781  1.00  0.00    -0.237 OA
ATOM     87  O   UNL A   1      43.052  22.312  27.211  1.00  0.00    -0.744 OA
ENDBRANCH  81  84
ENDBRANCH  53  77
BRANCH  65  88
ATOM     88  C   UNL A   1      44.649  27.024  33.991  1.00  0.00     0.023 A 
ATOM     89  C   UNL A   1      45.922  27.626  34.037  1.00  0.00     0.012 A 
ATOM     90  C   UNL A   1      44.427  25.815  34.678  1.00  0.00     0.148 A 
ATOM     91  C   UNL A   1      46.966  27.019  34.734  1.00  0.00     0.002 A 
ATOM     92  C   UNL A   1      45.460  25.241  35.411  1.00  0.00     0.091 A 
ATOM     93  F   UNL A   1      43.213  25.250  34.606  1.00  0.00    -0.205 F 
ATOM     94  C   UNL A   1      46.731  25.835  35.431  1.00  0.00     0.022 A 
BRANCH  92  95
ATOM     95  S   UNL A   1      45.219  23.773  36.417  1.00  0.00     0.127 S 
ATOM     96  O   UNL A   1      46.597  23.347  36.656  1.00  0.00    -0.237 OA
ATOM     97  O   UNL A   1      44.534  24.311  37.593  1.00  0.00    -0.237 OA
ATOM     98  O   UNL A   1      44.411  22.864  35.614  1.00  0.00    -0.744 OA
ENDBRANCH  92  95
ENDBRANCH  65  88
ENDBRANCH  39  40
ENDBRANCH  31  34
ENDBRANCH  29  30
ENDBRANCH   1  29
TORSDOF 16
ENDMDL
MODEL 3
REMARK VINA RESULT:     -12.0      0.985      7.688
REMARK SMILES CC1(C)[C@@](C)(C(=O)NCCCCNC(=O)c2ccc(-c3c4nc(c(-c5cccc(S(=O)(=O)[O-])c5F)c5ccc([nH]5)c(-c5cccc(S(=O)(=O)[O-])c5F)c5nc(c(-c6cccc(S(=O)(=O)[O-])c6F)c6ccc3[nH]6)C=C5)C=C4)cc2)CC[C@]1(C)C(=O)Nc1ccc(Cl)cc1Cl
REMARK SMILES IDX 11 1 10 2 9 3 8 4 6 5 7 6 4 8 1 9 2 10 3 11 81 12 5 13 79 14
REMARK SMILES IDX 80 15 82 16 83 17 84 18 85 19 86 21 87 22 92 23 88 24 91 25
REMARK SMILES IDX 93 26 89 27 90 28 12 29 13 30 14 31 15 33 16 34 17 35 78 36
REMARK SMILES IDX 18 37 77 38 19 39 20 40 21 41 71 42 22 43 76 44 70 45 72 46
REMARK SMILES IDX 23 47 75 48 69 49 68 50 24 52 56 53 36 54 55 55 37 56 40 57
REMARK SMILES IDX 54 58 73 59 38 60 39 61 53 63 74 64 41 65 25 66 26 67 34 68
REMARK SMILES IDX 27 69 29 70 35 71 28 72 30 73 31 74 32 75 33 76 57 77 58 78
REMARK SMILES IDX 66 79 59 80 61 81 67 82 60 83 62 84 63 85 64 86 65 87 42 88
REMARK SMILES IDX 43 89 51 90 44 91 46 92 52 93 45 94 47 95 48 96 49 97 50 98
REMARK H PARENT 8 7 85 20 13 32 72 51 40 62
REMARK Flexibility Score: inf
ROOT
ATOM      1  C   UNL A   1      33.663  31.780  27.613  1.00  0.00     0.023 C 
ENDROOT
BRANCH   1   2
ATOM      2  C   UNL A   1      34.716  30.740  27.923  1.00  0.00     0.023 C 
BRANCH   2   3
ATOM      3  C   UNL A   1      34.532  29.376  27.230  1.00  0.00     0.116 C 
BRANCH   3   4
ATOM      4  N   UNL A   1      34.193  29.479  25.814  1.00  0.00    -0.356 N 
ATOM      5  C   UNL A   1      33.222  28.956  25.008  1.00  0.00     0.226 C 
ATOM      6  O   UNL A   1      33.277  29.329  23.830  1.00  0.00    -0.274 OA
ATOM      7  H   UNL A   1      34.814  30.064  25.322  1.00  0.00     0.163 HD
BRANCH   5   8
ATOM      8  C   UNL A   1      32.076  27.986  25.481  1.00  0.00     0.052 C 
ATOM      9  C   UNL A   1      33.774  26.134  25.805  1.00  0.00     0.013 C 
ATOM     10  C   UNL A   1      32.359  26.427  25.402  1.00  0.00    -0.007 C 
ATOM     11  C   UNL A   1      31.408  25.674  26.368  1.00  0.00     0.013 C 
ATOM     12  C   UNL A   1      32.119  25.985  23.897  1.00  0.00     0.053 C 
ATOM     13  C   UNL A   1      31.602  28.509  26.861  1.00  0.00     0.022 C 
ATOM     14  C   UNL A   1      30.865  28.093  24.511  1.00  0.00     0.018 C 
ATOM     15  C   UNL A   1      30.932  26.926  23.510  1.00  0.00     0.018 C 
ATOM     16  C   UNL A   1      33.252  26.306  22.904  1.00  0.00     0.022 C 
BRANCH  12  17
ATOM     17  C   UNL A   1      31.708  24.465  23.715  1.00  0.00     0.230 C 
ATOM     18  O   UNL A   1      30.602  24.180  23.234  1.00  0.00    -0.274 OA
ATOM     19  N   UNL A   1      32.440  23.372  24.126  1.00  0.00    -0.324 N 
ATOM     20  H   UNL A   1      31.910  22.544  24.164  1.00  0.00     0.170 HD
BRANCH  19  21
ATOM     21  C   UNL A   1      33.783  23.187  24.501  1.00  0.00     0.060 A 
ATOM     22  C   UNL A   1      34.793  23.326  23.547  1.00  0.00     0.029 A 
ATOM     23  C   UNL A   1      34.144  22.826  25.820  1.00  0.00     0.066 A 
ATOM     24  C   UNL A   1      36.139  23.267  23.929  1.00  0.00     0.023 A 
ATOM     25  C   UNL A   1      35.487  22.848  26.216  1.00  0.00     0.043 A 
ATOM     26  Cl  UNL A   1      32.963  22.519  27.044  1.00  0.00    -0.082 Cl
ATOM     27  C   UNL A   1      36.477  23.086  25.268  1.00  0.00     0.042 A 
ATOM     28  Cl  UNL A   1      38.124  23.167  25.756  1.00  0.00    -0.084 Cl
ENDBRANCH  19  21
ENDBRANCH  12  17
ENDBRANCH   5   8
ENDBRANCH   3   4
ENDBRANCH   2   3
ENDBRANCH   1   2
BRANCH   1  29
ATOM     29  C   UNL A   1      34.200  33.193  27.607  1.00  0.00     0.116 C 
BRANCH  29  30
ATOM     30  N   UNL A   1      33.394  34.116  28.402  1.00  0.00    -0.352 N 
ATOM     31  C   UNL A   1      33.496  34.411  29.744  1.00  0.00     0.251 C 
ATOM     32  H   UNL A   1      32.684  34.592  27.913  1.00  0.00     0.163 HD
ATOM     33  O   UNL A   1      32.668  35.112  30.298  1.00  0.00    -0.269 OA
BRANCH  31  34
ATOM     34  C   UNL A   1      34.624  33.822  30.493  1.00  0.00     0.039 A 
ATOM     35  C   UNL A   1      34.403  32.712  31.308  1.00  0.00     0.014 A 
ATOM     36  C   UNL A   1      35.914  34.308  30.274  1.00  0.00     0.014 A 
ATOM     37  C   UNL A   1      35.500  32.037  31.842  1.00  0.00     0.010 A 
ATOM     38  C   UNL A   1      36.997  33.555  30.687  1.00  0.00     0.010 A 
ATOM     39  C   UNL A   1      36.805  32.428  31.498  1.00  0.00    -0.014 A 
BRANCH  39  40
ATOM     40  C   UNL A   1      38.000  31.701  31.986  1.00  0.00     0.031 A 
ATOM     41  C   UNL A   1      38.624  32.106  33.294  1.00  0.00     0.074 A 
ATOM     42  C   UNL A   1      38.584  30.769  31.209  1.00  0.00     0.049 A 
ATOM     43  N   UNL A   1      39.720  31.670  33.855  1.00  0.00    -0.248 NA
ATOM     44  C   UNL A   1      37.954  33.181  34.048  1.00  0.00     0.031 C 
ATOM     45  C   UNL A   1      38.130  30.364  29.876  1.00  0.00     0.029 A 
ATOM     46  N   UNL A   1      39.705  30.007  31.421  1.00  0.00    -0.354 N 
ATOM     47  C   UNL A   1      39.897  32.454  34.990  1.00  0.00     0.074 A 
ATOM     48  C   UNL A   1      38.832  33.429  35.005  1.00  0.00     0.031 C 
ATOM     49  C   UNL A   1      38.948  29.409  29.403  1.00  0.00     0.029 A 
ATOM     50  C   UNL A   1      39.999  29.156  30.381  1.00  0.00     0.049 A 
ATOM     51  H   UNL A   1      40.248  30.065  32.240  1.00  0.00     0.167 HD
ATOM     52  C   UNL A   1      40.833  32.342  35.961  1.00  0.00     0.034 A 
ATOM     53  C   UNL A   1      41.001  28.265  30.243  1.00  0.00     0.034 A 
ATOM     54  C   UNL A   1      41.839  31.319  35.976  1.00  0.00     0.049 A 
ATOM     55  C   UNL A   1      41.987  28.106  31.368  1.00  0.00     0.074 A 
ATOM     56  C   UNL A   1      42.765  31.036  36.961  1.00  0.00     0.029 A 
ATOM     57  N   UNL A   1      42.045  30.404  34.953  1.00  0.00    -0.354 N 
ATOM     58  N   UNL A   1      42.041  28.740  32.514  1.00  0.00    -0.248 NA
ATOM     59  C   UNL A   1      43.027  27.082  31.198  1.00  0.00     0.031 C 
ATOM     60  C   UNL A   1      43.544  29.957  36.527  1.00  0.00     0.029 A 
ATOM     61  C   UNL A   1      43.089  29.558  35.278  1.00  0.00     0.049 A 
ATOM     62  H   UNL A   1      41.526  30.365  34.118  1.00  0.00     0.167 HD
ATOM     63  C   UNL A   1      43.097  28.172  33.217  1.00  0.00     0.074 A 
ATOM     64  C   UNL A   1      43.642  27.128  32.372  1.00  0.00     0.031 C 
ATOM     65  C   UNL A   1      43.581  28.492  34.443  1.00  0.00     0.034 A 
BRANCH  52  66
ATOM     66  C   UNL A   1      40.753  33.312  37.110  1.00  0.00     0.023 A 
ATOM     67  C   UNL A   1      41.536  34.487  37.085  1.00  0.00     0.012 A 
ATOM     68  C   UNL A   1      39.911  33.069  38.212  1.00  0.00     0.148 A 
ATOM     69  C   UNL A   1      41.523  35.376  38.159  1.00  0.00     0.002 A 
ATOM     70  C   UNL A   1      39.866  33.986  39.256  1.00  0.00     0.091 A 
ATOM     71  F   UNL A   1      39.197  31.936  38.236  1.00  0.00    -0.205 F 
ATOM     72  C   UNL A   1      40.682  35.129  39.240  1.00  0.00     0.022 A 
BRANCH  70  73
ATOM     73  S   UNL A   1      38.754  33.794  40.653  1.00  0.00     0.127 S 
ATOM     74  O   UNL A   1      39.327  32.632  41.331  1.00  0.00    -0.237 OA
ATOM     75  O   UNL A   1      38.928  35.061  41.365  1.00  0.00    -0.237 OA
ATOM     76  O   UNL A   1      37.429  33.603  40.080  1.00  0.00    -0.744 OA
ENDBRANCH  70  73
ENDBRANCH  52  66
BRANCH  53  77
ATOM     77  C   UNL A   1      41.046  27.384  29.043  1.00  0.00     0.023 A 
ATOM     78  C   UNL A   1      40.128  26.320  28.943  1.00  0.00     0.012 A 
ATOM     79  C   UNL A   1      41.940  27.621  27.980  1.00  0.00     0.148 A 
ATOM     80  C   UNL A   1      40.114  25.493  27.821  1.00  0.00     0.002 A 
ATOM     81  C   UNL A   1      41.887  26.824  26.842  1.00  0.00     0.091 A 
ATOM     82  F   UNL A   1      42.807  28.637  28.096  1.00  0.00    -0.205 F 
ATOM     83  C   UNL A   1      40.986  25.750  26.767  1.00  0.00     0.022 A 
BRANCH  81  84
ATOM     84  S   UNL A   1      42.880  27.152  25.381  1.00  0.00     0.127 S 
ATOM     85  O   UNL A   1      44.205  27.362  25.960  1.00  0.00    -0.237 OA
ATOM     86  O   UNL A   1      42.727  25.906  24.628  1.00  0.00    -0.237 OA
ATOM     87  O   UNL A   1      42.278  28.317  24.747  1.00  0.00    -0.744 OA
ENDBRANCH  81  84
ENDBRANCH  53  77
BRANCH  65  88
ATOM     88  C   UNL A   1      44.742  27.689  34.964  1.00  0.00     0.023 A 
ATOM     89  C   UNL A   1      46.053  28.187  34.827  1.00  0.00     0.012 A 
ATOM     90  C   UNL A   1      44.526  26.487  35.667  1.00  0.00     0.148 A 
ATOM     91  C   UNL A   1      47.134  27.486  35.357  1.00  0.00     0.002 A 
ATOM     92  C   UNL A   1      45.604  25.819  36.234  1.00  0.00     0.091 A 
ATOM     93  F   UNL A   1      43.273  26.022  35.770  1.00  0.00    -0.205 F 
ATOM     94  C   UNL A   1      46.909  26.310  36.071  1.00  0.00     0.022 A 
BRANCH  92  95
ATOM     95  S   UNL A   1      45.396  24.354  37.252  1.00  0.00     0.127 S 
ATOM     96  O   UNL A   1      44.500  24.844  38.298  1.00  0.00    -0.237 OA
ATOM     97  O   UNL A   1      44.783  23.410  36.317  1.00  0.00    -0.237 OA
ATOM     98  O   UNL A   1      46.732  23.980  37.695  1.00  0.00    -0.744 OA
ENDBRANCH  92  95
ENDBRANCH  65  88
ENDBRANCH  39  40
ENDBRANCH  31  34
ENDBRANCH  29  30
ENDBRANCH   1  29
TORSDOF 16
ENDMDL
