MODEL 1
REMARK VINA RESULT:     -11.4      0.000      0.000
REMARK SMILES Nc1cc([N+](=O)[O-])ccc1[C@H]([NH3+])C(=O)NCCCCNC(=O)c1ccc(-c2c3nc(c(-c4cccc(S(=O)(=O)[O-])c4F)c4ccc([nH]4)c(-c4cccc(S(=O)(=O)[O-])c4F)c4nc(c(-c5cccc(S(=O)(=O)[O-])c5F)c5ccc2[nH]5)C=C4)C=C3)cc1
REMARK SMILES IDX 18 1 17 2 16 3 15 4 13 5 14 6 11 8 10 9 2 10 3 11 4 12 9 13
REMARK SMILES IDX 8 14 1 15 5 18 6 19 7 20 12 21 19 25 20 26 21 27 22 29 23 30
REMARK SMILES IDX 24 31 85 32 25 33 84 34 26 35 27 36 28 37 78 38 29 39 83 40
REMARK SMILES IDX 77 41 79 42 30 43 82 44 76 45 75 46 31 48 63 49 43 50 62 51
REMARK SMILES IDX 44 52 47 53 61 54 80 55 45 56 46 57 60 59 81 60 48 61 32 62
REMARK SMILES IDX 33 63 41 64 34 65 36 66 42 67 35 68 37 69 38 70 39 71 40 72
REMARK SMILES IDX 64 73 65 74 73 75 66 76 68 77 74 78 67 79 69 80 70 81 71 82
REMARK SMILES IDX 72 83 49 84 50 85 58 86 51 87 53 88 59 89 52 90 54 91 55 92
REMARK SMILES IDX 56 93 57 94
REMARK H PARENT 15 7 1 16 1 17 12 22 12 23 12 24 20 28 79 47 47 58
REMARK Flexibility Score: inf
ROOT
ATOM      1  C   UNL A   1      31.668  28.639  25.157  1.00  0.00     0.023 C 
ENDROOT
BRANCH   1   2
ATOM      2  C   UNL A   1      30.813  29.433  24.167  1.00  0.00     0.023 C 
BRANCH   2   3
ATOM      3  C   UNL A   1      30.900  28.947  22.725  1.00  0.00     0.116 C 
BRANCH   3   4
ATOM      4  N   UNL A   1      32.255  28.590  22.358  1.00  0.00    -0.351 N 
ATOM      5  C   UNL A   1      32.759  27.375  21.984  1.00  0.00     0.283 C 
ATOM      6  O   UNL A   1      33.956  27.312  21.684  1.00  0.00    -0.268 OA
ATOM      7  H   UNL A   1      32.907  29.328  22.382  1.00  0.00     0.163 HD
BRANCH   5   8
ATOM      8  C   UNL A   1      31.844  26.119  21.886  1.00  0.00     0.304 C 
BRANCH   8   9
ATOM      9  C   UNL A   1      31.759  25.337  23.209  1.00  0.00     0.042 A 
ATOM     10  C   UNL A   1      32.811  24.615  23.814  1.00  0.00     0.048 A 
ATOM     11  C   UNL A   1      32.611  24.034  25.080  1.00  0.00     0.111 A 
ATOM     12  C   UNL A   1      31.362  24.084  25.710  1.00  0.00     0.271 A 
ATOM     13  C   UNL A   1      30.495  25.338  23.859  1.00  0.00     0.020 A 
ATOM     14  C   UNL A   1      30.294  24.730  25.098  1.00  0.00     0.086 A 
BRANCH  10  15
ATOM     15  N   UNL A   1      34.098  24.551  23.288  1.00  0.00    -0.398 N 
ATOM     16  H   UNL A   1      34.687  25.340  23.331  1.00  0.00     0.156 HD
ATOM     17  H   UNL A   1      34.420  23.719  22.874  1.00  0.00     0.156 HD
ENDBRANCH  10  15
BRANCH  12  18
ATOM     18  N   UNL A   1      31.177  23.435  27.011  1.00  0.00     0.062 N 
ATOM     19  O   UNL A   1      32.189  23.036  27.607  1.00  0.00    -0.258 OA
ATOM     20  O   UNL A   1      30.019  23.310  27.435  1.00  0.00    -0.258 OA
ENDBRANCH  12  18
ENDBRANCH   8   9
BRANCH   8  21
ATOM     21  N   UNL A   1      32.236  25.372  20.674  1.00  0.00    -0.343 N 
ATOM     22  H   UNL A   1      32.565  24.444  20.939  1.00  0.00     0.345 HD
ATOM     23  H   UNL A   1      32.982  25.873  20.193  1.00  0.00     0.345 HD
ATOM     24  H   UNL A   1      31.430  25.283  20.055  1.00  0.00     0.345 HD
ENDBRANCH   8  21
ENDBRANCH   5   8
ENDBRANCH   3   4
ENDBRANCH   2   3
ENDBRANCH   1   2
BRANCH   1  25
ATOM     25  C   UNL A   1      32.866  29.390  25.731  1.00  0.00     0.116 C 
BRANCH  25  26
ATOM     26  N   UNL A   1      32.541  30.745  26.144  1.00  0.00    -0.352 N 
ATOM     27  C   UNL A   1      33.169  31.548  27.063  1.00  0.00     0.251 C 
ATOM     28  H   UNL A   1      31.757  31.145  25.702  1.00  0.00     0.163 HD
ATOM     29  O   UNL A   1      32.656  32.620  27.383  1.00  0.00    -0.269 OA
BRANCH  27  30
ATOM     30  C   UNL A   1      34.439  31.117  27.689  1.00  0.00     0.039 A 
ATOM     31  C   UNL A   1      35.434  32.073  27.909  1.00  0.00     0.014 A 
ATOM     32  C   UNL A   1      34.657  29.785  28.054  1.00  0.00     0.014 A 
ATOM     33  C   UNL A   1      36.624  31.702  28.538  1.00  0.00     0.010 A 
ATOM     34  C   UNL A   1      35.809  29.435  28.757  1.00  0.00     0.010 A 
ATOM     35  C   UNL A   1      36.811  30.386  28.997  1.00  0.00    -0.014 A 
BRANCH  35  36
ATOM     36  C   UNL A   1      38.045  30.017  29.741  1.00  0.00     0.031 A 
ATOM     37  C   UNL A   1      38.280  30.509  31.145  1.00  0.00     0.074 A 
ATOM     38  C   UNL A   1      38.980  29.261  29.130  1.00  0.00     0.049 A 
ATOM     39  N   UNL A   1      39.262  30.223  31.961  1.00  0.00    -0.248 NA
ATOM     40  C   UNL A   1      37.305  31.462  31.699  1.00  0.00     0.031 C 
ATOM     41  C   UNL A   1      38.920  28.800  27.739  1.00  0.00     0.029 A 
ATOM     42  N   UNL A   1      40.166  28.751  29.594  1.00  0.00    -0.354 N 
ATOM     43  C   UNL A   1      39.042  30.980  33.106  1.00  0.00     0.074 A 
ATOM     44  C   UNL A   1      37.851  31.765  32.868  1.00  0.00     0.031 C 
ATOM     45  C   UNL A   1      40.000  28.049  27.477  1.00  0.00     0.029 A 
ATOM     46  C   UNL A   1      40.843  27.994  28.666  1.00  0.00     0.049 A 
ATOM     47  H   UNL A   1      40.500  28.909  30.506  1.00  0.00     0.167 HD
ATOM     48  C   UNL A   1      39.749  31.001  34.261  1.00  0.00     0.034 A 
ATOM     49  C   UNL A   1      42.006  27.321  28.765  1.00  0.00     0.034 A 
ATOM     50  C   UNL A   1      40.911  30.189  34.510  1.00  0.00     0.049 A 
ATOM     51  C   UNL A   1      42.737  27.316  30.081  1.00  0.00     0.074 A 
ATOM     52  C   UNL A   1      41.634  30.059  35.684  1.00  0.00     0.029 A 
ATOM     53  N   UNL A   1      41.530  29.382  33.569  1.00  0.00    -0.354 N 
ATOM     54  N   UNL A   1      42.406  27.887  31.214  1.00  0.00    -0.248 NA
ATOM     55  C   UNL A   1      43.980  26.536  30.142  1.00  0.00     0.031 C 
ATOM     56  C   UNL A   1      42.713  29.202  35.440  1.00  0.00     0.029 A 
ATOM     57  C   UNL A   1      42.637  28.766  34.128  1.00  0.00     0.049 A 
ATOM     58  H   UNL A   1      41.228  29.264  32.641  1.00  0.00     0.167 HD
ATOM     59  C   UNL A   1      43.378  27.505  32.130  1.00  0.00     0.074 A 
ATOM     60  C   UNL A   1      44.290  26.625  31.428  1.00  0.00     0.031 C 
ATOM     61  C   UNL A   1      43.515  27.860  33.432  1.00  0.00     0.034 A 
BRANCH  48  62
ATOM     62  C   UNL A   1      39.266  31.901  35.370  1.00  0.00     0.023 A 
ATOM     63  C   UNL A   1      38.379  31.398  36.344  1.00  0.00     0.012 A 
ATOM     64  C   UNL A   1      39.750  33.217  35.493  1.00  0.00     0.148 A 
ATOM     65  C   UNL A   1      37.957  32.201  37.404  1.00  0.00     0.002 A 
ATOM     66  C   UNL A   1      39.364  33.996  36.578  1.00  0.00     0.091 A 
ATOM     67  F   UNL A   1      40.577  33.685  34.547  1.00  0.00    -0.205 F 
ATOM     68  C   UNL A   1      38.458  33.493  37.527  1.00  0.00     0.022 A 
BRANCH  66  69
ATOM     69  S   UNL A   1      40.018  35.642  36.874  1.00  0.00     0.127 S 
ATOM     70  O   UNL A   1      39.376  35.992  38.141  1.00  0.00    -0.237 OA
ATOM     71  O   UNL A   1      41.456  35.387  36.970  1.00  0.00    -0.237 OA
ATOM     72  O   UNL A   1      39.617  36.448  35.730  1.00  0.00    -0.744 OA
ENDBRANCH  66  69
ENDBRANCH  48  62
BRANCH  49  73
ATOM     73  C   UNL A   1      42.520  26.528  27.610  1.00  0.00     0.023 A 
ATOM     74  C   UNL A   1      43.387  27.139  26.683  1.00  0.00     0.012 A 
ATOM     75  C   UNL A   1      42.154  25.182  27.423  1.00  0.00     0.148 A 
ATOM     76  C   UNL A   1      43.841  26.438  25.564  1.00  0.00     0.002 A 
ATOM     77  C   UNL A   1      42.658  24.472  26.340  1.00  0.00     0.091 A 
ATOM     78  F   UNL A   1      41.319  24.622  28.311  1.00  0.00    -0.205 F 
ATOM     79  C   UNL A   1      43.485  25.103  25.398  1.00  0.00     0.022 A 
BRANCH  77  80
ATOM     80  S   UNL A   1      42.357  22.715  26.120  1.00  0.00     0.127 S 
ATOM     81  O   UNL A   1      42.935  22.478  24.800  1.00  0.00    -0.237 OA
ATOM     82  O   UNL A   1      43.108  22.138  27.235  1.00  0.00    -0.237 OA
ATOM     83  O   UNL A   1      40.913  22.549  26.220  1.00  0.00    -0.744 OA
ENDBRANCH  77  80
ENDBRANCH  49  73
BRANCH  61  84
ATOM     84  C   UNL A   1      44.674  27.267  34.193  1.00  0.00     0.023 A 
ATOM     85  C   UNL A   1      45.916  27.933  34.218  1.00  0.00     0.012 A 
ATOM     86  C   UNL A   1      44.524  26.061  34.906  1.00  0.00     0.148 A 
ATOM     87  C   UNL A   1      47.006  27.379  34.890  1.00  0.00     0.002 A 
ATOM     88  C   UNL A   1      45.598  25.546  35.624  1.00  0.00     0.091 A 
ATOM     89  F   UNL A   1      43.342  25.431  34.861  1.00  0.00    -0.205 F 
ATOM     90  C   UNL A   1      46.843  26.192  35.600  1.00  0.00     0.022 A 
BRANCH  88  91
ATOM     91  S   UNL A   1      45.449  24.078  36.647  1.00  0.00     0.127 S 
ATOM     92  O   UNL A   1      44.599  24.556  37.734  1.00  0.00    -0.237 OA
ATOM     93  O   UNL A   1      44.802  23.129  35.739  1.00  0.00    -0.237 OA
ATOM     94  O   UNL A   1      46.809  23.715  37.023  1.00  0.00    -0.744 OA
ENDBRANCH  88  91
ENDBRANCH  61  84
ENDBRANCH  35  36
ENDBRANCH  27  30
ENDBRANCH  25  26
ENDBRANCH   1  25
TORSDOF 18
ENDMDL
MODEL 2
REMARK VINA RESULT:     -11.4      2.094      3.276
REMARK SMILES Nc1cc([N+](=O)[O-])ccc1[C@H]([NH3+])C(=O)NCCCCNC(=O)c1ccc(-c2c3nc(c(-c4cccc(S(=O)(=O)[O-])c4F)c4ccc([nH]4)c(-c4cccc(S(=O)(=O)[O-])c4F)c4nc(c(-c5cccc(S(=O)(=O)[O-])c5F)c5ccc2[nH]5)C=C4)C=C3)cc1
REMARK SMILES IDX 18 1 17 2 16 3 15 4 13 5 14 6 11 8 10 9 2 10 3 11 4 12 9 13
REMARK SMILES IDX 8 14 1 15 5 18 6 19 7 20 12 21 19 25 20 26 21 27 22 29 23 30
REMARK SMILES IDX 24 31 85 32 25 33 84 34 26 35 27 36 28 37 78 38 29 39 83 40
REMARK SMILES IDX 77 41 79 42 30 43 82 44 76 45 75 46 31 48 63 49 43 50 62 51
REMARK SMILES IDX 44 52 47 53 61 54 80 55 45 56 46 57 60 59 81 60 48 61 32 62
REMARK SMILES IDX 33 63 41 64 34 65 36 66 42 67 35 68 37 69 38 70 39 71 40 72
REMARK SMILES IDX 64 73 65 74 73 75 66 76 68 77 74 78 67 79 69 80 70 81 71 82
REMARK SMILES IDX 72 83 49 84 50 85 58 86 51 87 53 88 59 89 52 90 54 91 55 92
REMARK SMILES IDX 56 93 57 94
REMARK H PARENT 15 7 1 16 1 17 12 22 12 23 12 24 20 28 79 47 47 58
REMARK Flexibility Score: inf
ROOT
ATOM      1  C   UNL A   1      31.830  30.066  26.794  1.00  0.00     0.023 C 
ENDROOT
BRANCH   1   2
ATOM      2  C   UNL A   1      31.796  28.730  27.541  1.00  0.00     0.023 C 
BRANCH   2   3
ATOM      3  C   UNL A   1      31.957  27.504  26.650  1.00  0.00     0.116 C 
BRANCH   3   4
ATOM      4  N   UNL A   1      30.905  26.533  26.874  1.00  0.00    -0.351 N 
ATOM      5  C   UNL A   1      30.162  25.837  25.963  1.00  0.00     0.283 C 
ATOM      6  O   UNL A   1      29.329  25.030  26.389  1.00  0.00    -0.268 OA
ATOM      7  H   UNL A   1      30.695  26.349  27.819  1.00  0.00     0.163 HD
BRANCH   5   8
ATOM      8  C   UNL A   1      30.392  26.012  24.433  1.00  0.00     0.304 C 
BRANCH   8   9
ATOM      9  C   UNL A   1      29.616  27.203  23.844  1.00  0.00     0.042 A 
ATOM     10  C   UNL A   1      28.214  27.285  23.693  1.00  0.00     0.048 A 
ATOM     11  C   UNL A   1      27.638  28.484  23.232  1.00  0.00     0.111 A 
ATOM     12  C   UNL A   1      28.435  29.565  22.837  1.00  0.00     0.271 A 
ATOM     13  C   UNL A   1      30.396  28.304  23.400  1.00  0.00     0.020 A 
ATOM     14  C   UNL A   1      29.820  29.477  22.912  1.00  0.00     0.086 A 
BRANCH  10  15
ATOM     15  N   UNL A   1      27.339  26.284  24.104  1.00  0.00    -0.398 N 
ATOM     16  H   UNL A   1      26.559  26.509  24.661  1.00  0.00     0.156 HD
ATOM     17  H   UNL A   1      27.500  25.350  23.837  1.00  0.00     0.156 HD
ENDBRANCH  10  15
BRANCH  12  18
ATOM     18  N   UNL A   1      27.805  30.785  22.325  1.00  0.00     0.062 N 
ATOM     19  O   UNL A   1      27.922  31.031  21.115  1.00  0.00    -0.258 OA
ATOM     20  O   UNL A   1      27.203  31.507  23.132  1.00  0.00    -0.258 OA
ENDBRANCH  12  18
ENDBRANCH   8   9
BRANCH   8  21
ATOM     21  N   UNL A   1      30.206  24.692  23.797  1.00  0.00    -0.343 N 
ATOM     22  H   UNL A   1      30.162  24.806  22.784  1.00  0.00     0.345 HD
ATOM     23  H   UNL A   1      29.338  24.274  24.130  1.00  0.00     0.345 HD
ATOM     24  H   UNL A   1      30.990  24.086  24.037  1.00  0.00     0.345 HD
ENDBRANCH   8  21
ENDBRANCH   5   8
ENDBRANCH   3   4
ENDBRANCH   2   3
ENDBRANCH   1   2
BRANCH   1  25
ATOM     25  C   UNL A   1      33.155  30.819  26.865  1.00  0.00     0.116 C 
BRANCH  25  26
ATOM     26  N   UNL A   1      32.985  32.242  27.113  1.00  0.00    -0.352 N 
ATOM     27  C   UNL A   1      33.714  33.075  27.924  1.00  0.00     0.251 C 
ATOM     28  H   UNL A   1      32.241  32.669  26.630  1.00  0.00     0.163 HD
ATOM     29  O   UNL A   1      33.325  34.228  28.114  1.00  0.00    -0.269 OA
BRANCH  27  30
ATOM     30  C   UNL A   1      34.942  32.587  28.589  1.00  0.00     0.039 A 
ATOM     31  C   UNL A   1      34.823  31.611  29.581  1.00  0.00     0.014 A 
ATOM     32  C   UNL A   1      36.203  33.084  28.247  1.00  0.00     0.014 A 
ATOM     33  C   UNL A   1      35.970  31.101  30.192  1.00  0.00     0.010 A 
ATOM     34  C   UNL A   1      37.350  32.514  28.797  1.00  0.00     0.010 A 
ATOM     35  C   UNL A   1      37.248  31.524  29.784  1.00  0.00    -0.014 A 
BRANCH  35  36
ATOM     36  C   UNL A   1      38.467  30.916  30.380  1.00  0.00     0.031 A 
ATOM     37  C   UNL A   1      38.927  31.295  31.763  1.00  0.00     0.074 A 
ATOM     38  C   UNL A   1      39.188  30.040  29.650  1.00  0.00     0.049 A 
ATOM     39  N   UNL A   1      39.921  30.809  32.460  1.00  0.00    -0.248 NA
ATOM     40  C   UNL A   1      38.195  32.375  32.446  1.00  0.00     0.031 C 
ATOM     41  C   UNL A   1      38.907  29.660  28.263  1.00  0.00     0.029 A 
ATOM     42  N   UNL A   1      40.308  29.313  29.970  1.00  0.00    -0.354 N 
ATOM     43  C   UNL A   1      39.955  31.539  33.642  1.00  0.00     0.074 A 
ATOM     44  C   UNL A   1      38.902  32.526  33.556  1.00  0.00     0.031 C 
ATOM     45  C   UNL A   1      39.806  28.748  27.864  1.00  0.00     0.029 A 
ATOM     46  C   UNL A   1      40.744  28.494  28.953  1.00  0.00     0.049 A 
ATOM     47  H   UNL A   1      40.756  29.370  30.844  1.00  0.00     0.167 HD
ATOM     48  C   UNL A   1      40.769  31.385  34.714  1.00  0.00     0.034 A 
ATOM     49  C   UNL A   1      41.775  27.629  28.907  1.00  0.00     0.034 A 
ATOM     50  C   UNL A   1      41.790  30.376  34.813  1.00  0.00     0.049 A 
ATOM     51  C   UNL A   1      42.624  27.439  30.135  1.00  0.00     0.074 A 
ATOM     52  C   UNL A   1      42.595  30.071  35.897  1.00  0.00     0.029 A 
ATOM     53  N   UNL A   1      42.159  29.519  33.789  1.00  0.00    -0.354 N 
ATOM     54  N   UNL A   1      42.515  28.006  31.312  1.00  0.00    -0.248 NA
ATOM     55  C   UNL A   1      43.711  26.455  30.040  1.00  0.00     0.031 C 
ATOM     56  C   UNL A   1      43.477  29.054  35.515  1.00  0.00     0.029 A 
ATOM     57  C   UNL A   1      43.192  28.698  34.207  1.00  0.00     0.049 A 
ATOM     58  H   UNL A   1      41.748  29.497  32.896  1.00  0.00     0.167 HD
ATOM     59  C   UNL A   1      43.494  27.421  32.108  1.00  0.00     0.074 A 
ATOM     60  C   UNL A   1      44.160  26.432  31.287  1.00  0.00     0.031 C 
ATOM     61  C   UNL A   1      43.822  27.688  33.396  1.00  0.00     0.034 A 
BRANCH  48  62
ATOM     62  C   UNL A   1      40.566  32.303  35.893  1.00  0.00     0.023 A 
ATOM     63  C   UNL A   1      41.402  33.427  36.057  1.00  0.00     0.012 A 
ATOM     64  C   UNL A   1      39.502  32.098  36.792  1.00  0.00     0.148 A 
ATOM     65  C   UNL A   1      41.201  34.314  37.115  1.00  0.00     0.002 A 
ATOM     66  C   UNL A   1      39.278  33.013  37.815  1.00  0.00     0.091 A 
ATOM     67  F   UNL A   1      38.730  31.014  36.633  1.00  0.00    -0.205 F 
ATOM     68  C   UNL A   1      40.134  34.114  37.985  1.00  0.00     0.022 A 
BRANCH  66  69
ATOM     69  S   UNL A   1      37.881  32.892  38.937  1.00  0.00     0.127 S 
ATOM     70  O   UNL A   1      38.098  34.048  39.806  1.00  0.00    -0.237 OA
ATOM     71  O   UNL A   1      36.744  33.021  38.024  1.00  0.00    -0.237 OA
ATOM     72  O   UNL A   1      37.996  31.594  39.588  1.00  0.00    -0.744 OA
ENDBRANCH  66  69
ENDBRANCH  48  62
BRANCH  49  73
ATOM     73  C   UNL A   1      42.021  26.814  27.682  1.00  0.00     0.023 A 
ATOM     74  C   UNL A   1      42.591  27.424  26.547  1.00  0.00     0.012 A 
ATOM     75  C   UNL A   1      41.694  25.446  27.633  1.00  0.00     0.148 A 
ATOM     76  C   UNL A   1      42.784  26.700  25.370  1.00  0.00     0.002 A 
ATOM     77  C   UNL A   1      41.944  24.716  26.477  1.00  0.00     0.091 A 
ATOM     78  F   UNL A   1      41.143  24.885  28.719  1.00  0.00    -0.205 F 
ATOM     79  C   UNL A   1      42.470  25.344  25.338  1.00  0.00     0.022 A 
BRANCH  77  80
ATOM     80  S   UNL A   1      41.694  22.939  26.390  1.00  0.00     0.127 S 
ATOM     81  O   UNL A   1      42.313  22.614  25.108  1.00  0.00    -0.237 OA
ATOM     82  O   UNL A   1      42.427  22.472  27.567  1.00  0.00    -0.237 OA
ATOM     83  O   UNL A   1      40.252  22.743  26.466  1.00  0.00    -0.744 OA
ENDBRANCH  77  80
ENDBRANCH  49  73
BRANCH  61  84
ATOM     84  C   UNL A   1      44.931  26.871  34.011  1.00  0.00     0.023 A 
ATOM     85  C   UNL A   1      46.270  27.295  33.890  1.00  0.00     0.012 A 
ATOM     86  C   UNL A   1      44.643  25.695  34.731  1.00  0.00     0.148 A 
ATOM     87  C   UNL A   1      47.308  26.532  34.425  1.00  0.00     0.002 A 
ATOM     88  C   UNL A   1      45.678  24.971  35.312  1.00  0.00     0.091 A 
ATOM     89  F   UNL A   1      43.367  25.295  34.824  1.00  0.00    -0.205 F 
ATOM     90  C   UNL A   1      47.011  25.377  35.144  1.00  0.00     0.022 A 
BRANCH  88  91
ATOM     91  S   UNL A   1      45.379  23.528  36.339  1.00  0.00     0.127 S 
ATOM     92  O   UNL A   1      44.631  24.105  37.454  1.00  0.00    -0.237 OA
ATOM     93  O   UNL A   1      44.588  22.673  35.452  1.00  0.00    -0.237 OA
ATOM     94  O   UNL A   1      46.694  22.996  36.671  1.00  0.00    -0.744 OA
ENDBRANCH  88  91
ENDBRANCH  61  84
ENDBRANCH  35  36
ENDBRANCH  27  30
ENDBRANCH  25  26
ENDBRANCH   1  25
TORSDOF 18
ENDMDL
MODEL 3
REMARK VINA RESULT:     -11.3      5.365     10.313
REMARK SMILES Nc1cc([N+](=O)[O-])ccc1[C@H]([NH3+])C(=O)NCCCCNC(=O)c1ccc(-c2c3nc(c(-c4cccc(S(=O)(=O)[O-])c4F)c4ccc([nH]4)c(-c4cccc(S(=O)(=O)[O-])c4F)c4nc(c(-c5cccc(S(=O)(=O)[O-])c5F)c5ccc2[nH]5)C=C4)C=C3)cc1
REMARK SMILES IDX 18 1 17 2 16 3 15 4 13 5 14 6 11 8 10 9 2 10 3 11 4 12 9 13
REMARK SMILES IDX 8 14 1 15 5 18 6 19 7 20 12 21 19 25 20 26 21 27 22 29 23 30
REMARK SMILES IDX 24 31 85 32 25 33 84 34 26 35 27 36 28 37 78 38 29 39 83 40
REMARK SMILES IDX 77 41 79 42 30 43 82 44 76 45 75 46 31 48 63 49 43 50 62 51
REMARK SMILES IDX 44 52 47 53 61 54 80 55 45 56 46 57 60 59 81 60 48 61 32 62
REMARK SMILES IDX 33 63 41 64 34 65 36 66 42 67 35 68 37 69 38 70 39 71 40 72
REMARK SMILES IDX 64 73 65 74 73 75 66 76 68 77 74 78 67 79 69 80 70 81 71 82
REMARK SMILES IDX 72 83 49 84 50 85 58 86 51 87 53 88 59 89 52 90 54 91 55 92
REMARK SMILES IDX 56 93 57 94
REMARK H PARENT 15 7 1 16 1 17 12 22 12 23 12 24 20 28 79 47 47 58
REMARK Flexibility Score: inf
ROOT
ATOM      1  C   UNL A   1      35.823  22.077  24.543  1.00  0.00     0.023 C 
ENDROOT
BRANCH   1   2
ATOM      2  C   UNL A   1      35.085  22.940  23.516  1.00  0.00     0.023 C 
BRANCH   2   3
ATOM      3  C   UNL A   1      34.140  23.972  24.121  1.00  0.00     0.116 C 
BRANCH   3   4
ATOM      4  N   UNL A   1      32.814  23.892  23.543  1.00  0.00    -0.351 N 
ATOM      5  C   UNL A   1      31.745  23.134  23.931  1.00  0.00     0.283 C 
ATOM      6  O   UNL A   1      30.690  23.252  23.297  1.00  0.00    -0.268 OA
ATOM      7  H   UNL A   1      32.661  24.466  22.757  1.00  0.00     0.163 HD
BRANCH   5   8
ATOM      8  C   UNL A   1      31.832  22.191  25.166  1.00  0.00     0.304 C 
BRANCH   8   9
ATOM      9  C   UNL A   1      32.370  20.793  24.813  1.00  0.00     0.042 A 
ATOM     10  C   UNL A   1      33.064  19.927  25.687  1.00  0.00     0.048 A 
ATOM     11  C   UNL A   1      33.405  18.633  25.251  1.00  0.00     0.111 A 
ATOM     12  C   UNL A   1      33.148  18.221  23.938  1.00  0.00     0.271 A 
ATOM     13  C   UNL A   1      32.157  20.356  23.478  1.00  0.00     0.020 A 
ATOM     14  C   UNL A   1      32.529  19.085  23.041  1.00  0.00     0.086 A 
BRANCH  10  15
ATOM     15  N   UNL A   1      33.321  20.229  27.021  1.00  0.00    -0.398 N 
ATOM     16  H   UNL A   1      33.594  21.140  27.276  1.00  0.00     0.156 HD
ATOM     17  H   UNL A   1      33.228  19.533  27.710  1.00  0.00     0.156 HD
ENDBRANCH  10  15
BRANCH  12  18
ATOM     18  N   UNL A   1      33.551  16.880  23.503  1.00  0.00     0.062 N 
ATOM     19  O   UNL A   1      34.062  16.767  22.379  1.00  0.00    -0.258 OA
ATOM     20  O   UNL A   1      33.346  15.936  24.278  1.00  0.00    -0.258 OA
ENDBRANCH  12  18
ENDBRANCH   8   9
BRANCH   8  21
ATOM     21  N   UNL A   1      30.541  22.266  25.881  1.00  0.00    -0.343 N 
ATOM     22  H   UNL A   1      30.086  21.354  25.856  1.00  0.00     0.345 HD
ATOM     23  H   UNL A   1      29.943  22.957  25.430  1.00  0.00     0.345 HD
ATOM     24  H   UNL A   1      30.706  22.538  26.850  1.00  0.00     0.345 HD
ENDBRANCH   8  21
ENDBRANCH   5   8
ENDBRANCH   3   4
ENDBRANCH   2   3
ENDBRANCH   1   2
BRANCH   1  25
ATOM     25  C   UNL A   1      37.345  22.172  24.500  1.00  0.00     0.116 C 
BRANCH  25  26
ATOM     26  N   UNL A   1      38.001  21.078  25.198  1.00  0.00    -0.352 N 
ATOM     27  C   UNL A   1      39.048  21.117  26.084  1.00  0.00     0.251 C 
ATOM     28  H   UNL A   1      37.644  20.181  25.006  1.00  0.00     0.163 HD
ATOM     29  O   UNL A   1      39.562  20.064  26.462  1.00  0.00    -0.269 OA
BRANCH  27  30
ATOM     30  C   UNL A   1      39.577  22.414  26.562  1.00  0.00     0.039 A 
ATOM     31  C   UNL A   1      40.670  22.411  27.431  1.00  0.00     0.014 A 
ATOM     32  C   UNL A   1      39.003  23.625  26.165  1.00  0.00     0.014 A 
ATOM     33  C   UNL A   1      41.216  23.622  27.861  1.00  0.00     0.010 A 
ATOM     34  C   UNL A   1      39.601  24.831  26.527  1.00  0.00     0.010 A 
ATOM     35  C   UNL A   1      40.708  24.845  27.389  1.00  0.00    -0.014 A 
BRANCH  35  36
ATOM     36  C   UNL A   1      41.346  26.128  27.784  1.00  0.00     0.031 A 
ATOM     37  C   UNL A   1      42.753  26.458  27.359  1.00  0.00     0.074 A 
ATOM     38  C   UNL A   1      40.664  26.989  28.567  1.00  0.00     0.049 A 
ATOM     39  N   UNL A   1      43.433  27.559  27.552  1.00  0.00    -0.248 NA
ATOM     40  C   UNL A   1      43.506  25.412  26.646  1.00  0.00     0.031 C 
ATOM     41  C   UNL A   1      39.331  26.748  29.128  1.00  0.00     0.029 A 
ATOM     42  N   UNL A   1      40.995  28.238  29.030  1.00  0.00    -0.354 N 
ATOM     43  C   UNL A   1      44.695  27.330  27.018  1.00  0.00     0.074 A 
ATOM     44  C   UNL A   1      44.700  25.972  26.521  1.00  0.00     0.031 C 
ATOM     45  C   UNL A   1      38.947  27.826  29.829  1.00  0.00     0.029 A 
ATOM     46  C   UNL A   1      40.010  28.824  29.792  1.00  0.00     0.049 A 
ATOM     47  H   UNL A   1      41.856  28.673  28.835  1.00  0.00     0.167 HD
ATOM     48  C   UNL A   1      45.746  28.179  26.922  1.00  0.00     0.034 A 
ATOM     49  C   UNL A   1      39.964  30.033  30.383  1.00  0.00     0.034 A 
ATOM     50  C   UNL A   1      45.725  29.543  27.382  1.00  0.00     0.049 A 
ATOM     51  C   UNL A   1      41.125  30.976  30.209  1.00  0.00     0.074 A 
ATOM     52  C   UNL A   1      46.700  30.515  27.237  1.00  0.00     0.029 A 
ATOM     53  N   UNL A   1      44.684  30.125  28.089  1.00  0.00    -0.354 N 
ATOM     54  N   UNL A   1      42.234  30.806  29.532  1.00  0.00    -0.248 NA
ATOM     55  C   UNL A   1      41.004  32.295  30.845  1.00  0.00     0.031 C 
ATOM     56  C   UNL A   1      46.264  31.673  27.889  1.00  0.00     0.029 A 
ATOM     57  C   UNL A   1      45.000  31.435  28.405  1.00  0.00     0.049 A 
ATOM     58  H   UNL A   1      43.845  29.673  28.331  1.00  0.00     0.167 HD
ATOM     59  C   UNL A   1      42.926  32.008  29.629  1.00  0.00     0.074 A 
ATOM     60  C   UNL A   1      42.093  32.907  30.400  1.00  0.00     0.031 C 
ATOM     61  C   UNL A   1      44.147  32.335  29.138  1.00  0.00     0.034 A 
BRANCH  48  62
ATOM     62  C   UNL A   1      47.003  27.678  26.258  1.00  0.00     0.023 A 
ATOM     63  C   UNL A   1      47.923  26.903  26.994  1.00  0.00     0.012 A 
ATOM     64  C   UNL A   1      47.235  27.906  24.888  1.00  0.00     0.148 A 
ATOM     65  C   UNL A   1      49.069  26.391  26.385  1.00  0.00     0.002 A 
ATOM     66  C   UNL A   1      48.354  27.352  24.276  1.00  0.00     0.091 A 
ATOM     67  F   UNL A   1      46.361  28.661  24.209  1.00  0.00    -0.205 F 
ATOM     68  C   UNL A   1      49.277  26.604  25.026  1.00  0.00     0.022 A 
BRANCH  66  69
ATOM     69  S   UNL A   1      48.670  27.497  22.514  1.00  0.00     0.127 S 
ATOM     70  O   UNL A   1      49.964  28.177  22.501  1.00  0.00    -0.237 OA
ATOM     71  O   UNL A   1      48.713  26.095  22.096  1.00  0.00    -0.237 OA
ATOM     72  O   UNL A   1      47.559  28.262  21.966  1.00  0.00    -0.744 OA
ENDBRANCH  66  69
ENDBRANCH  48  62
BRANCH  49  73
ATOM     73  C   UNL A   1      38.747  30.460  31.134  1.00  0.00     0.023 A 
ATOM     74  C   UNL A   1      38.639  30.158  32.506  1.00  0.00     0.012 A 
ATOM     75  C   UNL A   1      37.701  31.155  30.500  1.00  0.00     0.148 A 
ATOM     76  C   UNL A   1      37.490  30.498  33.221  1.00  0.00     0.002 A 
ATOM     77  C   UNL A   1      36.585  31.544  31.232  1.00  0.00     0.091 A 
ATOM     78  F   UNL A   1      37.818  31.424  29.191  1.00  0.00    -0.205 F 
ATOM     79  C   UNL A   1      36.468  31.199  32.587  1.00  0.00     0.022 A 
BRANCH  77  80
ATOM     80  S   UNL A   1      35.283  32.562  30.530  1.00  0.00     0.127 S 
ATOM     81  O   UNL A   1      35.993  33.809  30.259  1.00  0.00    -0.237 OA
ATOM     82  O   UNL A   1      34.906  31.796  29.342  1.00  0.00    -0.237 OA
ATOM     83  O   UNL A   1      34.246  32.632  31.552  1.00  0.00    -0.744 OA
ENDBRANCH  77  80
ENDBRANCH  49  73
BRANCH  61  84
ATOM     84  C   UNL A   1      44.640  33.738  29.388  1.00  0.00     0.023 A 
ATOM     85  C   UNL A   1      45.280  34.054  30.604  1.00  0.00     0.012 A 
ATOM     86  C   UNL A   1      44.493  34.738  28.408  1.00  0.00     0.148 A 
ATOM     87  C   UNL A   1      45.712  35.355  30.863  1.00  0.00     0.002 A 
ATOM     88  C   UNL A   1      44.979  36.018  28.649  1.00  0.00     0.091 A 
ATOM     89  F   UNL A   1      43.869  34.427  27.263  1.00  0.00    -0.205 F 
ATOM     90  C   UNL A   1      45.571  36.333  29.882  1.00  0.00     0.022 A 
BRANCH  88  91
ATOM     91  S   UNL A   1      44.930  37.311  27.404  1.00  0.00     0.127 S 
ATOM     92  O   UNL A   1      45.467  38.454  28.139  1.00  0.00    -0.237 OA
ATOM     93  O   UNL A   1      45.818  36.781  26.367  1.00  0.00    -0.237 OA
ATOM     94  O   UNL A   1      43.534  37.422  26.999  1.00  0.00    -0.744 OA
ENDBRANCH  88  91
ENDBRANCH  61  84
ENDBRANCH  35  36
ENDBRANCH  27  30
ENDBRANCH  25  26
ENDBRANCH   1  25
TORSDOF 18
ENDMDL
