MODEL 1
REMARK VINA RESULT:     -12.6      0.000      0.000
REMARK SMILES O=C(NCCCCNC(=O)[C@@H](c1ccccc1)[C@H](C(=O)c1ccccc1)c1ccccc1)c1ccc(-c2c3nc(c(-c4cccc(S(=O)(=O)[O-])c4F)c4ccc([nH]4)c(-c4cccc(S(=O)(=O)[O-])c4F)c4nc(c(-c5cccc(S(=O)(=O)[O-])c5F)c5ccc2[nH]5)C=C4)C=C3)cc1
REMARK SMILES IDX 5 1 4 2 3 3 1 4 2 5 33 7 34 8 95 9 35 10 94 11 36 12 37 13
REMARK SMILES IDX 38 14 88 15 39 16 93 17 87 18 89 19 40 20 92 21 86 22 85 23
REMARK SMILES IDX 41 25 73 26 53 27 72 28 54 29 57 30 71 31 90 32 55 33 56 34
REMARK SMILES IDX 70 36 91 37 58 38 42 39 43 40 51 41 44 42 46 43 52 44 45 45
REMARK SMILES IDX 47 46 48 47 49 48 50 49 74 50 75 51 83 52 76 53 78 54 84 55
REMARK SMILES IDX 77 56 79 57 80 58 81 59 82 60 59 61 60 62 68 63 61 64 63 65
REMARK SMILES IDX 69 66 62 67 64 68 65 69 66 70 67 71 6 72 7 73 8 74 9 75
REMARK SMILES IDX 10 77 11 78 12 79 13 80 17 81 14 82 16 83 15 84 18 85 27 86
REMARK SMILES IDX 28 87 32 88 29 89 31 90 30 91 19 92 20 93 21 94 22 95 26 96
REMARK SMILES IDX 23 97 25 98 24 99
REMARK H PARENT 3 6 89 24 57 35 8 76
REMARK Flexibility Score: inf
ROOT
ATOM      1  C   UNL A   1      34.959  21.444  25.388  1.00  0.00     0.023 C 
ENDROOT
BRANCH   1   2
ATOM      2  C   UNL A   1      36.371  21.843  25.771  1.00  0.00     0.116 C 
BRANCH   2   3
ATOM      3  N   UNL A   1      37.330  20.759  25.604  1.00  0.00    -0.352 N 
ATOM      4  O   UNL A   1      39.376  19.817  25.470  1.00  0.00    -0.269 OA
ATOM      5  C   UNL A   1      38.697  20.769  25.804  1.00  0.00     0.251 C 
ATOM      6  H   UNL A   1      36.952  19.900  25.307  1.00  0.00     0.163 HD
BRANCH   5   7
ATOM      7  C   UNL A   1      39.308  21.979  26.401  1.00  0.00     0.039 A 
ATOM      8  C   UNL A   1      38.890  23.240  25.979  1.00  0.00     0.014 A 
ATOM      9  C   UNL A   1      40.347  21.849  27.325  1.00  0.00     0.014 A 
ATOM     10  C   UNL A   1      39.644  24.352  26.311  1.00  0.00     0.010 A 
ATOM     11  C   UNL A   1      41.023  22.993  27.764  1.00  0.00     0.010 A 
ATOM     12  C   UNL A   1      40.706  24.249  27.228  1.00  0.00    -0.014 A 
BRANCH  12  13
ATOM     13  C   UNL A   1      41.386  25.501  27.649  1.00  0.00     0.031 A 
ATOM     14  C   UNL A   1      42.777  25.846  27.197  1.00  0.00     0.074 A 
ATOM     15  C   UNL A   1      40.683  26.367  28.407  1.00  0.00     0.049 A 
ATOM     16  N   UNL A   1      43.452  26.948  27.408  1.00  0.00    -0.248 NA
ATOM     17  C   UNL A   1      43.516  24.835  26.424  1.00  0.00     0.031 C 
ATOM     18  C   UNL A   1      39.346  26.105  28.951  1.00  0.00     0.029 A 
ATOM     19  N   UNL A   1      40.965  27.639  28.825  1.00  0.00    -0.354 N 
ATOM     20  C   UNL A   1      44.703  26.751  26.833  1.00  0.00     0.074 A 
ATOM     21  C   UNL A   1      44.697  25.419  26.266  1.00  0.00     0.031 C 
ATOM     22  C   UNL A   1      38.896  27.205  29.566  1.00  0.00     0.029 A 
ATOM     23  C   UNL A   1      39.935  28.226  29.523  1.00  0.00     0.049 A 
ATOM     24  H   UNL A   1      41.821  28.091  28.642  1.00  0.00     0.167 HD
ATOM     25  C   UNL A   1      45.749  27.609  26.771  1.00  0.00     0.034 A 
ATOM     26  C   UNL A   1      39.834  29.448  30.076  1.00  0.00     0.034 A 
ATOM     27  C   UNL A   1      45.728  28.948  27.302  1.00  0.00     0.049 A 
ATOM     28  C   UNL A   1      40.982  30.400  29.923  1.00  0.00     0.074 A 
ATOM     29  C   UNL A   1      46.728  29.906  27.265  1.00  0.00     0.029 A 
ATOM     30  N   UNL A   1      44.651  29.524  27.960  1.00  0.00    -0.354 N 
ATOM     31  N   UNL A   1      42.115  30.225  29.289  1.00  0.00    -0.248 NA
ATOM     32  C   UNL A   1      40.830  31.723  30.540  1.00  0.00     0.031 C 
ATOM     33  C   UNL A   1      46.256  31.059  27.901  1.00  0.00     0.029 A 
ATOM     34  C   UNL A   1      44.958  30.824  28.327  1.00  0.00     0.049 A 
ATOM     35  H   UNL A   1      43.794  29.075  28.138  1.00  0.00     0.167 HD
ATOM     36  C   UNL A   1      42.816  31.414  29.432  1.00  0.00     0.074 A 
ATOM     37  C   UNL A   1      41.954  32.319  30.168  1.00  0.00     0.031 C 
ATOM     38  C   UNL A   1      44.073  31.718  29.027  1.00  0.00     0.034 A 
BRANCH  25  39
ATOM     39  C   UNL A   1      46.996  27.153  26.056  1.00  0.00     0.023 A 
ATOM     40  C   UNL A   1      47.146  27.437  24.685  1.00  0.00     0.012 A 
ATOM     41  C   UNL A   1      48.050  26.528  26.752  1.00  0.00     0.148 A 
ATOM     42  C   UNL A   1      48.317  27.090  24.010  1.00  0.00     0.002 A 
ATOM     43  C   UNL A   1      49.229  26.216  26.081  1.00  0.00     0.091 A 
ATOM     44  F   UNL A   1      47.881  26.248  28.052  1.00  0.00    -0.205 F 
ATOM     45  C   UNL A   1      49.361  26.490  24.710  1.00  0.00     0.022 A 
BRANCH  43  46
ATOM     46  S   UNL A   1      50.657  25.504  26.907  1.00  0.00     0.127 S 
ATOM     47  O   UNL A   1      51.543  25.225  25.776  1.00  0.00    -0.237 OA
ATOM     48  O   UNL A   1      51.097  26.603  27.767  1.00  0.00    -0.237 OA
ATOM     49  O   UNL A   1      50.167  24.334  27.621  1.00  0.00    -0.744 OA
ENDBRANCH  43  46
ENDBRANCH  25  39
BRANCH  26  50
ATOM     50  C   UNL A   1      38.580  29.833  30.779  1.00  0.00     0.023 A 
ATOM     51  C   UNL A   1      38.376  29.433  32.113  1.00  0.00     0.012 A 
ATOM     52  C   UNL A   1      37.624  30.661  30.159  1.00  0.00     0.148 A 
ATOM     53  C   UNL A   1      37.235  29.837  32.809  1.00  0.00     0.002 A 
ATOM     54  C   UNL A   1      36.527  31.116  30.880  1.00  0.00     0.091 A 
ATOM     55  F   UNL A   1      37.819  31.016  28.881  1.00  0.00    -0.205 F 
ATOM     56  C   UNL A   1      36.320  30.692  32.200  1.00  0.00     0.022 A 
BRANCH  54  57
ATOM     57  S   UNL A   1      35.423  32.361  30.201  1.00  0.00     0.127 S 
ATOM     58  O   UNL A   1      36.330  33.482  29.980  1.00  0.00    -0.237 OA
ATOM     59  O   UNL A   1      34.932  31.715  28.981  1.00  0.00    -0.237 OA
ATOM     60  O   UNL A   1      34.400  32.545  31.222  1.00  0.00    -0.744 OA
ENDBRANCH  54  57
ENDBRANCH  26  50
BRANCH  38  61
ATOM     61  C   UNL A   1      44.589  33.084  29.388  1.00  0.00     0.023 A 
ATOM     62  C   UNL A   1      45.243  33.267  30.622  1.00  0.00     0.012 A 
ATOM     63  C   UNL A   1      44.455  34.172  28.504  1.00  0.00     0.148 A 
ATOM     64  C   UNL A   1      45.727  34.522  30.989  1.00  0.00     0.002 A 
ATOM     65  C   UNL A   1      44.977  35.411  28.859  1.00  0.00     0.091 A 
ATOM     66  F   UNL A   1      43.807  33.983  27.347  1.00  0.00    -0.205 F 
ATOM     67  C   UNL A   1      45.602  35.591  30.104  1.00  0.00     0.022 A 
BRANCH  65  68
ATOM     68  S   UNL A   1      44.924  36.816  27.742  1.00  0.00     0.127 S 
ATOM     69  O   UNL A   1      45.546  36.265  26.539  1.00  0.00    -0.237 OA
ATOM     70  O   UNL A   1      43.488  37.072  27.623  1.00  0.00    -0.237 OA
ATOM     71  O   UNL A   1      45.666  37.876  28.412  1.00  0.00    -0.744 OA
ENDBRANCH  65  68
ENDBRANCH  38  61
ENDBRANCH  12  13
ENDBRANCH   5   7
ENDBRANCH   2   3
ENDBRANCH   1   2
BRANCH   1  72
ATOM     72  C   UNL A   1      34.077  21.099  26.573  1.00  0.00     0.023 C 
BRANCH  72  73
ATOM     73  C   UNL A   1      33.703  22.272  27.474  1.00  0.00     0.116 C 
BRANCH  73  74
ATOM     74  N   UNL A   1      32.281  22.529  27.609  1.00  0.00    -0.356 N 
ATOM     75  C   UNL A   1      31.505  23.517  27.058  1.00  0.00     0.228 C 
ATOM     76  H   UNL A   1      31.798  21.895  28.185  1.00  0.00     0.163 HD
ATOM     77  O   UNL A   1      30.314  23.546  27.377  1.00  0.00    -0.274 OA
BRANCH  75  78
ATOM     78  C   UNL A   1      32.097  24.582  26.100  1.00  0.00     0.124 C 
BRANCH  78  79
ATOM     79  C   UNL A   1      32.448  23.972  24.727  1.00  0.00    -0.035 A 
ATOM     80  C   UNL A   1      33.608  24.336  24.034  1.00  0.00     0.004 A 
ATOM     81  C   UNL A   1      31.705  22.919  24.163  1.00  0.00     0.004 A 
ATOM     82  C   UNL A   1      33.874  23.862  22.744  1.00  0.00     0.000 A 
ATOM     83  C   UNL A   1      31.969  22.424  22.882  1.00  0.00     0.000 A 
ATOM     84  C   UNL A   1      33.032  22.929  22.152  1.00  0.00     0.000 A 
ENDBRANCH  78  79
BRANCH  78  85
ATOM     85  C   UNL A   1      31.214  25.892  26.252  1.00  0.00     0.108 C 
BRANCH  85  86
ATOM     86  C   UNL A   1      32.048  27.173  26.513  1.00  0.00    -0.036 A 
ATOM     87  C   UNL A   1      31.495  28.357  27.029  1.00  0.00     0.004 A 
ATOM     88  C   UNL A   1      33.431  27.158  26.249  1.00  0.00     0.004 A 
ATOM     89  C   UNL A   1      32.283  29.494  27.233  1.00  0.00     0.000 A 
ATOM     90  C   UNL A   1      34.220  28.293  26.468  1.00  0.00     0.000 A 
ATOM     91  C   UNL A   1      33.644  29.463  26.952  1.00  0.00     0.000 A 
ENDBRANCH  85  86
BRANCH  85  92
ATOM     92  C   UNL A   1      30.224  26.159  25.100  1.00  0.00     0.171 C 
ATOM     93  O   UNL A   1      29.096  25.663  25.082  1.00  0.00    -0.293 OA
BRANCH  92  94
ATOM     94  C   UNL A   1      30.574  27.120  23.991  1.00  0.00     0.018 A 
ATOM     95  C   UNL A   1      29.649  28.140  23.709  1.00  0.00     0.012 A 
ATOM     96  C   UNL A   1      31.805  27.135  23.331  1.00  0.00     0.012 A 
ATOM     97  C   UNL A   1      29.995  29.209  22.880  1.00  0.00     0.001 A 
ATOM     98  C   UNL A   1      32.158  28.215  22.515  1.00  0.00     0.001 A 
ATOM     99  C   UNL A   1      31.261  29.261  22.307  1.00  0.00     0.000 A 
ENDBRANCH  92  94
ENDBRANCH  85  92
ENDBRANCH  78  85
ENDBRANCH  75  78
ENDBRANCH  73  74
ENDBRANCH  72  73
ENDBRANCH   1  72
TORSDOF 19
ENDMDL
MODEL 2
REMARK VINA RESULT:     -12.2      1.457      7.456
REMARK SMILES O=C(NCCCCNC(=O)[C@@H](c1ccccc1)[C@H](C(=O)c1ccccc1)c1ccccc1)c1ccc(-c2c3nc(c(-c4cccc(S(=O)(=O)[O-])c4F)c4ccc([nH]4)c(-c4cccc(S(=O)(=O)[O-])c4F)c4nc(c(-c5cccc(S(=O)(=O)[O-])c5F)c5ccc2[nH]5)C=C4)C=C3)cc1
REMARK SMILES IDX 5 1 4 2 3 3 1 4 2 5 33 7 34 8 95 9 35 10 94 11 36 12 37 13
REMARK SMILES IDX 38 14 88 15 39 16 93 17 87 18 89 19 40 20 92 21 86 22 85 23
REMARK SMILES IDX 41 25 73 26 53 27 72 28 54 29 57 30 71 31 90 32 55 33 56 34
REMARK SMILES IDX 70 36 91 37 58 38 42 39 43 40 51 41 44 42 46 43 52 44 45 45
REMARK SMILES IDX 47 46 48 47 49 48 50 49 74 50 75 51 83 52 76 53 78 54 84 55
REMARK SMILES IDX 77 56 79 57 80 58 81 59 82 60 59 61 60 62 68 63 61 64 63 65
REMARK SMILES IDX 69 66 62 67 64 68 65 69 66 70 67 71 6 72 7 73 8 74 9 75
REMARK SMILES IDX 10 77 11 78 12 79 13 80 17 81 14 82 16 83 15 84 18 85 27 86
REMARK SMILES IDX 28 87 32 88 29 89 31 90 30 91 19 92 20 93 21 94 22 95 26 96
REMARK SMILES IDX 23 97 25 98 24 99
REMARK H PARENT 3 6 89 24 57 35 8 76
REMARK Flexibility Score: inf
ROOT
ATOM      1  C   UNL A   1      34.849  21.349  25.438  1.00  0.00     0.023 C 
ENDROOT
BRANCH   1   2
ATOM      2  C   UNL A   1      36.273  21.845  25.593  1.00  0.00     0.116 C 
BRANCH   2   3
ATOM      3  N   UNL A   1      37.255  20.769  25.547  1.00  0.00    -0.352 N 
ATOM      4  O   UNL A   1      39.319  19.859  25.544  1.00  0.00    -0.269 OA
ATOM      5  C   UNL A   1      38.616  20.825  25.774  1.00  0.00     0.251 C 
ATOM      6  H   UNL A   1      36.899  19.879  25.322  1.00  0.00     0.163 HD
BRANCH   5   7
ATOM      7  C   UNL A   1      39.192  22.095  26.271  1.00  0.00     0.039 A 
ATOM      8  C   UNL A   1      38.627  23.307  25.876  1.00  0.00     0.014 A 
ATOM      9  C   UNL A   1      40.337  22.074  27.070  1.00  0.00     0.014 A 
ATOM     10  C   UNL A   1      39.322  24.483  26.095  1.00  0.00     0.010 A 
ATOM     11  C   UNL A   1      40.964  23.279  27.405  1.00  0.00     0.010 A 
ATOM     12  C   UNL A   1      40.487  24.491  26.883  1.00  0.00    -0.014 A 
BRANCH  12  13
ATOM     13  C   UNL A   1      41.107  25.804  27.197  1.00  0.00     0.031 A 
ATOM     14  C   UNL A   1      40.418  26.830  28.051  1.00  0.00     0.074 A 
ATOM     15  C   UNL A   1      42.357  26.026  26.741  1.00  0.00     0.049 A 
ATOM     16  N   UNL A   1      40.884  27.975  28.484  1.00  0.00    -0.248 NA
ATOM     17  C   UNL A   1      39.033  26.556  28.466  1.00  0.00     0.031 C 
ATOM     18  C   UNL A   1      43.096  25.122  25.854  1.00  0.00     0.029 A 
ATOM     19  N   UNL A   1      43.238  27.047  26.978  1.00  0.00    -0.354 N 
ATOM     20  C   UNL A   1      39.843  28.574  29.185  1.00  0.00     0.074 A 
ATOM     21  C   UNL A   1      38.716  27.669  29.116  1.00  0.00     0.031 C 
ATOM     22  C   UNL A   1      44.337  25.589  25.680  1.00  0.00     0.029 A 
ATOM     23  C   UNL A   1      44.464  26.860  26.383  1.00  0.00     0.049 A 
ATOM     24  H   UNL A   1      43.015  27.838  27.520  1.00  0.00     0.167 HD
ATOM     25  C   UNL A   1      39.838  29.762  29.837  1.00  0.00     0.034 A 
ATOM     26  C   UNL A   1      45.570  27.625  26.394  1.00  0.00     0.034 A 
ATOM     27  C   UNL A   1      40.980  30.635  29.934  1.00  0.00     0.049 A 
ATOM     28  C   UNL A   1      45.555  28.895  27.188  1.00  0.00     0.074 A 
ATOM     29  C   UNL A   1      41.083  31.847  30.597  1.00  0.00     0.029 A 
ATOM     30  N   UNL A   1      42.218  30.389  29.361  1.00  0.00    -0.354 N 
ATOM     31  N   UNL A   1      44.591  29.392  27.924  1.00  0.00    -0.248 NA
ATOM     32  C   UNL A   1      46.782  29.700  27.174  1.00  0.00     0.031 C 
ATOM     33  C   UNL A   1      42.383  32.334  30.422  1.00  0.00     0.029 A 
ATOM     34  C   UNL A   1      43.093  31.421  29.658  1.00  0.00     0.049 A 
ATOM     35  H   UNL A   1      42.442  29.597  28.822  1.00  0.00     0.167 HD
ATOM     36  C   UNL A   1      45.092  30.569  28.459  1.00  0.00     0.074 A 
ATOM     37  C   UNL A   1      46.465  30.682  28.005  1.00  0.00     0.031 C 
ATOM     38  C   UNL A   1      44.464  31.495  29.225  1.00  0.00     0.034 A 
BRANCH  25  39
ATOM     39  C   UNL A   1      38.574  30.170  30.550  1.00  0.00     0.023 A 
ATOM     40  C   UNL A   1      38.364  29.747  31.877  1.00  0.00     0.012 A 
ATOM     41  C   UNL A   1      37.643  31.039  29.946  1.00  0.00     0.148 A 
ATOM     42  C   UNL A   1      37.238  30.165  32.588  1.00  0.00     0.002 A 
ATOM     43  C   UNL A   1      36.540  31.480  30.673  1.00  0.00     0.091 A 
ATOM     44  F   UNL A   1      37.849  31.416  28.677  1.00  0.00    -0.205 F 
ATOM     45  C   UNL A   1      36.333  31.038  31.990  1.00  0.00     0.022 A 
BRANCH  43  46
ATOM     46  S   UNL A   1      35.353  32.659  30.017  1.00  0.00     0.127 S 
ATOM     47  O   UNL A   1      34.827  31.935  28.860  1.00  0.00    -0.237 OA
ATOM     48  O   UNL A   1      34.410  32.799  31.127  1.00  0.00    -0.237 OA
ATOM     49  O   UNL A   1      36.111  33.863  29.710  1.00  0.00    -0.744 OA
ENDBRANCH  43  46
ENDBRANCH  25  39
BRANCH  26  50
ATOM     50  C   UNL A   1      46.783  27.170  25.658  1.00  0.00     0.023 A 
ATOM     51  C   UNL A   1      47.596  26.162  26.209  1.00  0.00     0.012 A 
ATOM     52  C   UNL A   1      47.088  27.674  24.380  1.00  0.00     0.148 A 
ATOM     53  C   UNL A   1      48.701  25.679  25.506  1.00  0.00     0.002 A 
ATOM     54  C   UNL A   1      48.147  27.139  23.656  1.00  0.00     0.091 A 
ATOM     55  F   UNL A   1      46.319  28.651  23.876  1.00  0.00    -0.205 F 
ATOM     56  C   UNL A   1      48.967  26.153  24.224  1.00  0.00     0.022 A 
BRANCH  54  57
ATOM     57  S   UNL A   1      48.415  27.586  21.937  1.00  0.00     0.127 S 
ATOM     58  O   UNL A   1      47.141  28.203  21.582  1.00  0.00    -0.237 OA
ATOM     59  O   UNL A   1      49.546  28.513  22.025  1.00  0.00    -0.237 OA
ATOM     60  O   UNL A   1      48.735  26.329  21.273  1.00  0.00    -0.744 OA
ENDBRANCH  54  57
ENDBRANCH  26  50
BRANCH  38  61
ATOM     61  C   UNL A   1      45.260  32.714  29.603  1.00  0.00     0.023 A 
ATOM     62  C   UNL A   1      45.987  32.712  30.810  1.00  0.00     0.012 A 
ATOM     63  C   UNL A   1      45.314  33.840  28.762  1.00  0.00     0.148 A 
ATOM     64  C   UNL A   1      46.730  33.828  31.192  1.00  0.00     0.002 A 
ATOM     65  C   UNL A   1      46.089  34.935  29.130  1.00  0.00     0.091 A 
ATOM     66  F   UNL A   1      44.594  33.833  27.631  1.00  0.00    -0.205 F 
ATOM     67  C   UNL A   1      46.788  34.935  30.348  1.00  0.00     0.022 A 
BRANCH  65  68
ATOM     68  S   UNL A   1      46.277  36.365  28.060  1.00  0.00     0.127 S 
ATOM     69  O   UNL A   1      47.159  37.219  28.854  1.00  0.00    -0.237 OA
ATOM     70  O   UNL A   1      46.897  35.788  26.867  1.00  0.00    -0.237 OA
ATOM     71  O   UNL A   1      44.927  36.872  27.846  1.00  0.00    -0.744 OA
ENDBRANCH  65  68
ENDBRANCH  38  61
ENDBRANCH  12  13
ENDBRANCH   5   7
ENDBRANCH   2   3
ENDBRANCH   1   2
BRANCH   1  72
ATOM     72  C   UNL A   1      34.149  21.074  26.756  1.00  0.00     0.023 C 
BRANCH  72  73
ATOM     73  C   UNL A   1      33.702  22.311  27.530  1.00  0.00     0.116 C 
BRANCH  73  74
ATOM     74  N   UNL A   1      32.268  22.530  27.584  1.00  0.00    -0.356 N 
ATOM     75  C   UNL A   1      31.499  23.505  27.002  1.00  0.00     0.228 C 
ATOM     76  H   UNL A   1      31.769  21.875  28.124  1.00  0.00     0.163 HD
ATOM     77  O   UNL A   1      30.291  23.499  27.251  1.00  0.00    -0.274 OA
BRANCH  75  78
ATOM     78  C   UNL A   1      32.117  24.598  26.094  1.00  0.00     0.124 C 
BRANCH  78  79
ATOM     79  C   UNL A   1      32.507  24.031  24.714  1.00  0.00    -0.035 A 
ATOM     80  C   UNL A   1      31.681  23.138  24.024  1.00  0.00     0.004 A 
ATOM     81  C   UNL A   1      33.639  24.484  24.010  1.00  0.00     0.004 A 
ATOM     82  C   UNL A   1      32.082  22.543  22.821  1.00  0.00     0.000 A 
ATOM     83  C   UNL A   1      34.043  23.911  22.800  1.00  0.00     0.000 A 
ATOM     84  C   UNL A   1      33.284  22.905  22.226  1.00  0.00     0.000 A 
ENDBRANCH  78  79
BRANCH  78  85
ATOM     85  C   UNL A   1      31.230  25.904  26.261  1.00  0.00     0.108 C 
BRANCH  85  86
ATOM     86  C   UNL A   1      32.061  27.191  26.498  1.00  0.00    -0.036 A 
ATOM     87  C   UNL A   1      33.429  27.289  26.195  1.00  0.00     0.004 A 
ATOM     88  C   UNL A   1      31.423  28.334  27.017  1.00  0.00     0.004 A 
ATOM     89  C   UNL A   1      34.142  28.466  26.441  1.00  0.00     0.000 A 
ATOM     90  C   UNL A   1      32.136  29.516  27.248  1.00  0.00     0.000 A 
ATOM     91  C   UNL A   1      33.498  29.579  26.967  1.00  0.00     0.000 A 
ENDBRANCH  85  86
BRANCH  85  92
ATOM     92  C   UNL A   1      30.212  26.160  25.131  1.00  0.00     0.171 C 
ATOM     93  O   UNL A   1      29.100  25.629  25.123  1.00  0.00    -0.293 OA
BRANCH  92  94
ATOM     94  C   UNL A   1      30.513  27.151  24.034  1.00  0.00     0.018 A 
ATOM     95  C   UNL A   1      29.604  28.208  23.856  1.00  0.00     0.012 A 
ATOM     96  C   UNL A   1      31.693  27.153  23.286  1.00  0.00     0.012 A 
ATOM     97  C   UNL A   1      29.924  29.297  23.042  1.00  0.00     0.001 A 
ATOM     98  C   UNL A   1      32.022  28.252  22.485  1.00  0.00     0.001 A 
ATOM     99  C   UNL A   1      31.148  29.332  22.381  1.00  0.00     0.000 A 
ENDBRANCH  92  94
ENDBRANCH  85  92
ENDBRANCH  78  85
ENDBRANCH  75  78
ENDBRANCH  73  74
ENDBRANCH  72  73
ENDBRANCH   1  72
TORSDOF 19
ENDMDL
MODEL 3
REMARK VINA RESULT:     -12.2      1.826      2.195
REMARK SMILES O=C(NCCCCNC(=O)[C@@H](c1ccccc1)[C@H](C(=O)c1ccccc1)c1ccccc1)c1ccc(-c2c3nc(c(-c4cccc(S(=O)(=O)[O-])c4F)c4ccc([nH]4)c(-c4cccc(S(=O)(=O)[O-])c4F)c4nc(c(-c5cccc(S(=O)(=O)[O-])c5F)c5ccc2[nH]5)C=C4)C=C3)cc1
REMARK SMILES IDX 5 1 4 2 3 3 1 4 2 5 33 7 34 8 95 9 35 10 94 11 36 12 37 13
REMARK SMILES IDX 38 14 88 15 39 16 93 17 87 18 89 19 40 20 92 21 86 22 85 23
REMARK SMILES IDX 41 25 73 26 53 27 72 28 54 29 57 30 71 31 90 32 55 33 56 34
REMARK SMILES IDX 70 36 91 37 58 38 42 39 43 40 51 41 44 42 46 43 52 44 45 45
REMARK SMILES IDX 47 46 48 47 49 48 50 49 74 50 75 51 83 52 76 53 78 54 84 55
REMARK SMILES IDX 77 56 79 57 80 58 81 59 82 60 59 61 60 62 68 63 61 64 63 65
REMARK SMILES IDX 69 66 62 67 64 68 65 69 66 70 67 71 6 72 7 73 8 74 9 75
REMARK SMILES IDX 10 77 11 78 12 79 13 80 17 81 14 82 16 83 15 84 18 85 27 86
REMARK SMILES IDX 28 87 32 88 29 89 31 90 30 91 19 92 20 93 21 94 22 95 26 96
REMARK SMILES IDX 23 97 25 98 24 99
REMARK H PARENT 3 6 89 24 57 35 8 76
REMARK Flexibility Score: inf
ROOT
ATOM      1  C   UNL A   1      35.455  22.068  25.206  1.00  0.00     0.023 C 
ENDROOT
BRANCH   1   2
ATOM      2  C   UNL A   1      36.792  22.492  25.780  1.00  0.00     0.116 C 
BRANCH   2   3
ATOM      3  N   UNL A   1      37.772  21.413  25.788  1.00  0.00    -0.352 N 
ATOM      4  O   UNL A   1      39.825  20.492  25.948  1.00  0.00    -0.269 OA
ATOM      5  C   UNL A   1      39.105  21.452  26.146  1.00  0.00     0.251 C 
ATOM      6  H   UNL A   1      37.438  20.534  25.497  1.00  0.00     0.163 HD
BRANCH   5   7
ATOM      7  C   UNL A   1      39.634  22.700  26.743  1.00  0.00     0.039 A 
ATOM      8  C   UNL A   1      39.262  23.931  26.203  1.00  0.00     0.014 A 
ATOM      9  C   UNL A   1      40.555  22.635  27.791  1.00  0.00     0.014 A 
ATOM     10  C   UNL A   1      39.965  25.068  26.561  1.00  0.00     0.010 A 
ATOM     11  C   UNL A   1      41.166  23.809  28.243  1.00  0.00     0.010 A 
ATOM     12  C   UNL A   1      40.909  25.030  27.602  1.00  0.00    -0.014 A 
BRANCH  12  13
ATOM     13  C   UNL A   1      41.527  26.311  28.031  1.00  0.00     0.031 A 
ATOM     14  C   UNL A   1      42.919  26.703  27.624  1.00  0.00     0.074 A 
ATOM     15  C   UNL A   1      40.765  27.159  28.752  1.00  0.00     0.049 A 
ATOM     16  N   UNL A   1      43.545  27.832  27.845  1.00  0.00    -0.248 NA
ATOM     17  C   UNL A   1      43.722  25.711  26.891  1.00  0.00     0.031 C 
ATOM     18  C   UNL A   1      39.420  26.853  29.252  1.00  0.00     0.029 A 
ATOM     19  N   UNL A   1      40.984  28.446  29.163  1.00  0.00    -0.354 N 
ATOM     20  C   UNL A   1      44.822  27.675  27.317  1.00  0.00     0.074 A 
ATOM     21  C   UNL A   1      44.886  26.338  26.768  1.00  0.00     0.031 C 
ATOM     22  C   UNL A   1      38.908  27.942  29.836  1.00  0.00     0.029 A 
ATOM     23  C   UNL A   1      39.909  29.001  29.816  1.00  0.00     0.049 A 
ATOM     24  H   UNL A   1      41.829  28.927  29.005  1.00  0.00     0.167 HD
ATOM     25  C   UNL A   1      45.837  28.572  27.281  1.00  0.00     0.034 A 
ATOM     26  C   UNL A   1      39.743  30.226  30.349  1.00  0.00     0.034 A 
ATOM     27  C   UNL A   1      45.747  29.915  27.793  1.00  0.00     0.049 A 
ATOM     28  C   UNL A   1      40.859  31.218  30.224  1.00  0.00     0.074 A 
ATOM     29  C   UNL A   1      46.711  30.909  27.778  1.00  0.00     0.029 A 
ATOM     30  N   UNL A   1      44.626  30.458  28.404  1.00  0.00    -0.354 N 
ATOM     31  N   UNL A   1      42.020  31.079  29.633  1.00  0.00    -0.248 NA
ATOM     32  C   UNL A   1      40.636  32.542  30.818  1.00  0.00     0.031 C 
ATOM     33  C   UNL A   1      46.174  32.051  28.382  1.00  0.00     0.029 A 
ATOM     34  C   UNL A   1      44.871  31.773  28.765  1.00  0.00     0.049 A 
ATOM     35  H   UNL A   1      43.781  29.980  28.558  1.00  0.00     0.167 HD
ATOM     36  C   UNL A   1      42.670  32.294  29.786  1.00  0.00     0.074 A 
ATOM     37  C   UNL A   1      41.750  33.175  30.478  1.00  0.00     0.031 C 
ATOM     38  C   UNL A   1      43.929  32.641  29.421  1.00  0.00     0.034 A 
BRANCH  25  39
ATOM     39  C   UNL A   1      47.124  28.155  26.617  1.00  0.00     0.023 A 
ATOM     40  C   UNL A   1      48.199  27.715  27.413  1.00  0.00     0.012 A 
ATOM     41  C   UNL A   1      47.243  28.113  25.213  1.00  0.00     0.148 A 
ATOM     42  C   UNL A   1      49.380  27.256  26.827  1.00  0.00     0.002 A 
ATOM     43  C   UNL A   1      48.410  27.623  24.634  1.00  0.00     0.091 A 
ATOM     44  F   UNL A   1      46.217  28.554  24.471  1.00  0.00    -0.205 F 
ATOM     45  C   UNL A   1      49.480  27.201  25.439  1.00  0.00     0.022 A 
BRANCH  43  46
ATOM     46  S   UNL A   1      48.613  27.446  22.857  1.00  0.00     0.127 S 
ATOM     47  O   UNL A   1      49.958  27.986  22.659  1.00  0.00    -0.237 OA
ATOM     48  O   UNL A   1      48.505  25.998  22.675  1.00  0.00    -0.237 OA
ATOM     49  O   UNL A   1      47.535  28.215  22.252  1.00  0.00    -0.744 OA
ENDBRANCH  43  46
ENDBRANCH  25  39
BRANCH  26  50
ATOM     50  C   UNL A   1      38.450  30.571  31.003  1.00  0.00     0.023 A 
ATOM     51  C   UNL A   1      38.254  30.271  32.364  1.00  0.00     0.012 A 
ATOM     52  C   UNL A   1      37.446  31.267  30.303  1.00  0.00     0.148 A 
ATOM     53  C   UNL A   1      37.073  30.644  33.010  1.00  0.00     0.002 A 
ATOM     54  C   UNL A   1      36.305  31.697  30.969  1.00  0.00     0.091 A 
ATOM     55  F   UNL A   1      37.636  31.526  29.001  1.00  0.00    -0.205 F 
ATOM     56  C   UNL A   1      36.107  31.371  32.318  1.00  0.00     0.022 A 
BRANCH  54  57
ATOM     57  S   UNL A   1      35.123  32.790  30.173  1.00  0.00     0.127 S 
ATOM     58  O   UNL A   1      34.591  31.941  29.112  1.00  0.00    -0.237 OA
ATOM     59  O   UNL A   1      34.183  33.082  31.258  1.00  0.00    -0.237 OA
ATOM     60  O   UNL A   1      35.909  33.942  29.749  1.00  0.00    -0.744 OA
ENDBRANCH  54  57
ENDBRANCH  26  50
BRANCH  38  61
ATOM     61  C   UNL A   1      44.380  34.030  29.782  1.00  0.00     0.023 A 
ATOM     62  C   UNL A   1      44.192  35.076  28.856  1.00  0.00     0.012 A 
ATOM     63  C   UNL A   1      44.958  34.307  31.035  1.00  0.00     0.148 A 
ATOM     64  C   UNL A   1      44.604  36.372  29.158  1.00  0.00     0.002 A 
ATOM     65  C   UNL A   1      45.330  35.611  31.344  1.00  0.00     0.091 A 
ATOM     66  F   UNL A   1      45.152  33.295  31.891  1.00  0.00    -0.205 F 
ATOM     67  C   UNL A   1      45.165  36.642  30.405  1.00  0.00     0.022 A 
BRANCH  65  68
ATOM     68  S   UNL A   1      45.986  36.051  32.957  1.00  0.00     0.127 S 
ATOM     69  O   UNL A   1      47.220  35.269  33.002  1.00  0.00    -0.237 OA
ATOM     70  O   UNL A   1      46.183  37.495  32.835  1.00  0.00    -0.237 OA
ATOM     71  O   UNL A   1      44.957  35.667  33.915  1.00  0.00    -0.744 OA
ENDBRANCH  65  68
ENDBRANCH  38  61
ENDBRANCH  12  13
ENDBRANCH   5   7
ENDBRANCH   2   3
ENDBRANCH   1   2
BRANCH   1  72
ATOM     72  C   UNL A   1      34.505  21.479  26.232  1.00  0.00     0.023 C 
BRANCH  72  73
ATOM     73  C   UNL A   1      34.098  22.421  27.362  1.00  0.00     0.116 C 
BRANCH  73  74
ATOM     74  N   UNL A   1      32.669  22.558  27.576  1.00  0.00    -0.356 N 
ATOM     75  C   UNL A   1      31.781  23.469  27.064  1.00  0.00     0.228 C 
ATOM     76  H   UNL A   1      32.276  21.892  28.186  1.00  0.00     0.163 HD
ATOM     77  O   UNL A   1      30.611  23.401  27.451  1.00  0.00    -0.274 OA
BRANCH  75  78
ATOM     78  C   UNL A   1      32.223  24.567  26.065  1.00  0.00     0.124 C 
BRANCH  78  79
ATOM     79  C   UNL A   1      32.465  23.985  24.657  1.00  0.00    -0.035 A 
ATOM     80  C   UNL A   1      31.679  22.948  24.143  1.00  0.00     0.004 A 
ATOM     81  C   UNL A   1      33.388  24.554  23.760  1.00  0.00     0.004 A 
ATOM     82  C   UNL A   1      31.964  22.350  22.909  1.00  0.00     0.000 A 
ATOM     83  C   UNL A   1      33.671  23.978  22.517  1.00  0.00     0.000 A 
ATOM     84  C   UNL A   1      32.987  22.845  22.110  1.00  0.00     0.000 A 
ENDBRANCH  78  79
BRANCH  78  85
ATOM     85  C   UNL A   1      31.299  25.833  26.319  1.00  0.00     0.108 C 
BRANCH  85  86
ATOM     86  C   UNL A   1      32.094  27.143  26.549  1.00  0.00    -0.036 A 
ATOM     87  C   UNL A   1      31.511  28.317  27.057  1.00  0.00     0.004 A 
ATOM     88  C   UNL A   1      33.473  27.170  26.264  1.00  0.00     0.004 A 
ATOM     89  C   UNL A   1      32.264  29.481  27.233  1.00  0.00     0.000 A 
ATOM     90  C   UNL A   1      34.227  28.333  26.455  1.00  0.00     0.000 A 
ATOM     91  C   UNL A   1      33.621  29.491  26.932  1.00  0.00     0.000 A 
ENDBRANCH  85  86
BRANCH  85  92
ATOM     92  C   UNL A   1      30.212  26.081  25.254  1.00  0.00     0.171 C 
ATOM     93  O   UNL A   1      29.093  25.570  25.334  1.00  0.00    -0.293 OA
BRANCH  92  94
ATOM     94  C   UNL A   1      30.453  27.042  24.116  1.00  0.00     0.018 A 
ATOM     95  C   UNL A   1      29.363  27.819  23.688  1.00  0.00     0.012 A 
ATOM     96  C   UNL A   1      31.711  27.296  23.563  1.00  0.00     0.012 A 
ATOM     97  C   UNL A   1      29.550  28.897  22.821  1.00  0.00     0.001 A 
ATOM     98  C   UNL A   1      31.902  28.387  22.709  1.00  0.00     0.001 A 
ATOM     99  C   UNL A   1      30.826  29.199  22.356  1.00  0.00     0.000 A 
ENDBRANCH  92  94
ENDBRANCH  85  92
ENDBRANCH  78  85
ENDBRANCH  75  78
ENDBRANCH  73  74
ENDBRANCH  72  73
ENDBRANCH   1  72
TORSDOF 19
ENDMDL
