MODEL 1
REMARK VINA RESULT:     -12.8      0.000      0.000
REMARK SMILES CC(C)CCc1cc2c(cc1Cl)C=C(C(=O)NCCCCNC(=O)c1ccc(-c3c4nc(c(-c5cccc(S(=O)(=O)[O-])c5F)c5ccc([nH]5)c(-c5cccc(S(=O)(=O)[O-])c5F)c5nc(c(-c6cccc(S(=O)(=O)[O-])c6F)c6ccc3[nH]6)C=C5)C=C4)cc1)[C@H](C(F)(F)F)O2
REMARK SMILES IDX 19 1 18 2 17 3 15 4 16 5 14 7 6 8 7 9 11 10 8 11 10 12 12 13
REMARK SMILES IDX 9 14 93 15 13 16 88 17 5 18 4 19 2 20 1 21 3 22 89 23 90 24
REMARK SMILES IDX 91 25 92 26 20 27 21 28 22 29 23 30 24 32 25 33 26 34 87 35
REMARK SMILES IDX 27 36 86 37 28 38 29 39 30 40 80 41 31 42 85 43 79 44 81 45
REMARK SMILES IDX 32 46 84 47 78 48 77 49 33 51 65 52 45 53 64 54 46 55 49 56
REMARK SMILES IDX 63 57 82 58 47 59 48 60 62 62 83 63 50 64 34 65 35 66 43 67
REMARK SMILES IDX 36 68 38 69 44 70 37 71 39 72 40 73 41 74 42 75 66 76 67 77
REMARK SMILES IDX 75 78 68 79 70 80 76 81 69 82 71 83 72 84 73 85 74 86 51 87
REMARK SMILES IDX 52 88 60 89 53 90 55 91 61 92 54 93 56 94 57 95 58 96 59 97
REMARK H PARENT 17 6 22 31 81 50 49 61
REMARK Flexibility Score: inf
ROOT
ATOM      1  C   UNL A   1      31.278  29.478  24.760  1.00  0.00     0.023 C 
ENDROOT
BRANCH   1   2
ATOM      2  C   UNL A   1      32.609  28.731  24.807  1.00  0.00     0.116 C 
BRANCH   2   3
ATOM      3  N   UNL A   1      33.246  28.689  23.503  1.00  0.00    -0.352 N 
ATOM      4  C   UNL A   1      33.568  27.735  22.599  1.00  0.00     0.251 C 
ATOM      5  O   UNL A   1      34.044  28.153  21.538  1.00  0.00    -0.270 OA
ATOM      6  H   UNL A   1      33.514  29.585  23.198  1.00  0.00     0.163 HD
BRANCH   4   7
ATOM      7  C   UNL A   1      33.395  26.264  22.792  1.00  0.00     0.067 C 
ATOM      8  C   UNL A   1      34.010  21.500  24.361  1.00  0.00    -0.026 A 
ATOM      9  C   UNL A   1      33.123  22.143  23.480  1.00  0.00     0.052 A 
ATOM     10  C   UNL A   1      35.060  22.253  24.912  1.00  0.00     0.045 A 
ATOM     11  C   UNL A   1      33.257  23.501  23.197  1.00  0.00     0.128 A 
ATOM     12  C   UNL A   1      35.201  23.614  24.610  1.00  0.00     0.032 A 
ATOM     13  Cl  UNL A   1      36.236  21.550  25.967  1.00  0.00    -0.084 Cl
ATOM     14  C   UNL A   1      34.294  24.242  23.755  1.00  0.00     0.019 A 
ATOM     15  O   UNL A   1      32.349  24.045  22.333  1.00  0.00    -0.475 OA
ATOM     16  C   UNL A   1      34.418  25.654  23.420  1.00  0.00     0.025 C 
ATOM     17  C   UNL A   1      32.152  25.486  22.449  1.00  0.00     0.314 C 
BRANCH   8  18
ATOM     18  C   UNL A   1      33.771  20.044  24.688  1.00  0.00     0.037 C 
BRANCH  18  19
ATOM     19  C   UNL A   1      32.598  19.406  23.924  1.00  0.00     0.008 C 
BRANCH  19  20
ATOM     20  C   UNL A   1      32.608  17.866  23.845  1.00  0.00    -0.017 C 
ATOM     21  C   UNL A   1      33.917  17.318  23.276  1.00  0.00     0.007 C 
ATOM     22  C   UNL A   1      32.370  17.277  25.239  1.00  0.00     0.007 C 
ENDBRANCH  19  20
ENDBRANCH  18  19
ENDBRANCH   8  18
BRANCH  17  23
ATOM     23  C   UNL A   1      30.960  25.774  23.379  1.00  0.00     0.429 C 
ATOM     24  F   UNL A   1      30.332  26.914  22.990  1.00  0.00    -0.167 F 
ATOM     25  F   UNL A   1      30.033  24.789  23.364  1.00  0.00    -0.167 F 
ATOM     26  F   UNL A   1      31.327  25.947  24.667  1.00  0.00    -0.167 F 
ENDBRANCH  17  23
ENDBRANCH   4   7
ENDBRANCH   2   3
ENDBRANCH   1   2
BRANCH   1  27
ATOM     27  C   UNL A   1      31.077  30.492  25.888  1.00  0.00     0.023 C 
BRANCH  27  28
ATOM     28  C   UNL A   1      32.361  31.040  26.501  1.00  0.00     0.116 C 
BRANCH  28  29
ATOM     29  N   UNL A   1      32.228  32.378  27.060  1.00  0.00    -0.352 N 
ATOM     30  C   UNL A   1      33.169  33.084  27.779  1.00  0.00     0.251 C 
ATOM     31  H   UNL A   1      31.367  32.831  26.906  1.00  0.00     0.163 HD
ATOM     32  O   UNL A   1      32.912  34.188  28.240  1.00  0.00    -0.269 OA
BRANCH  30  33
ATOM     33  C   UNL A   1      34.473  32.437  28.023  1.00  0.00     0.039 A 
ATOM     34  C   UNL A   1      34.516  31.096  28.412  1.00  0.00     0.014 A 
ATOM     35  C   UNL A   1      35.628  33.221  28.018  1.00  0.00     0.014 A 
ATOM     36  C   UNL A   1      35.683  30.593  28.972  1.00  0.00     0.010 A 
ATOM     37  C   UNL A   1      36.819  32.685  28.513  1.00  0.00     0.010 A 
ATOM     38  C   UNL A   1      36.837  31.391  29.054  1.00  0.00    -0.014 A 
BRANCH  38  39
ATOM     39  C   UNL A   1      38.036  30.861  29.752  1.00  0.00     0.031 A 
ATOM     40  C   UNL A   1      38.301  31.202  31.195  1.00  0.00     0.074 A 
ATOM     41  C   UNL A   1      38.848  30.009  29.100  1.00  0.00     0.049 A 
ATOM     42  N   UNL A   1      39.275  30.791  31.966  1.00  0.00    -0.248 NA
ATOM     43  C   UNL A   1      37.361  32.120  31.860  1.00  0.00     0.031 C 
ATOM     44  C   UNL A   1      38.694  29.608  27.700  1.00  0.00     0.029 A 
ATOM     45  N   UNL A   1      39.944  29.307  29.530  1.00  0.00    -0.354 N 
ATOM     46  C   UNL A   1      39.094  31.434  33.185  1.00  0.00     0.074 A 
ATOM     47  C   UNL A   1      37.912  32.258  33.059  1.00  0.00     0.031 C 
ATOM     48  C   UNL A   1      39.622  28.686  27.404  1.00  0.00     0.029 A 
ATOM     49  C   UNL A   1      40.465  28.467  28.575  1.00  0.00     0.049 A 
ATOM     50  H   UNL A   1      40.321  29.396  30.435  1.00  0.00     0.167 HD
ATOM     51  C   UNL A   1      39.834  31.331  34.313  1.00  0.00     0.034 A 
ATOM     52  C   UNL A   1      41.503  27.611  28.634  1.00  0.00     0.034 A 
ATOM     53  C   UNL A   1      40.964  30.457  34.466  1.00  0.00     0.049 A 
ATOM     54  C   UNL A   1      42.284  27.488  29.908  1.00  0.00     0.074 A 
ATOM     55  C   UNL A   1      41.753  30.261  35.587  1.00  0.00     0.029 A 
ATOM     56  N   UNL A   1      41.459  29.624  33.476  1.00  0.00    -0.354 N 
ATOM     57  N   UNL A   1      42.061  28.066  31.064  1.00  0.00    -0.248 NA
ATOM     58  C   UNL A   1      43.451  26.596  29.892  1.00  0.00     0.031 C 
ATOM     59  C   UNL A   1      42.719  29.298  35.277  1.00  0.00     0.029 A 
ATOM     60  C   UNL A   1      42.538  28.905  33.960  1.00  0.00     0.049 A 
ATOM     61  H   UNL A   1      41.096  29.553  32.564  1.00  0.00     0.167 HD
ATOM     62  C   UNL A   1      43.064  27.614  31.911  1.00  0.00     0.074 A 
ATOM     63  C   UNL A   1      43.876  26.688  31.147  1.00  0.00     0.031 C 
ATOM     64  C   UNL A   1      43.307  27.960  33.198  1.00  0.00     0.034 A 
BRANCH  51  65
ATOM     65  C   UNL A   1      39.414  32.141  35.509  1.00  0.00     0.023 A 
ATOM     66  C   UNL A   1      39.744  33.508  35.558  1.00  0.00     0.012 A 
ATOM     67  C   UNL A   1      38.620  31.577  36.527  1.00  0.00     0.148 A 
ATOM     68  C   UNL A   1      39.291  34.307  36.607  1.00  0.00     0.002 A 
ATOM     69  C   UNL A   1      38.154  32.385  37.558  1.00  0.00     0.091 A 
ATOM     70  F   UNL A   1      38.338  30.268  36.467  1.00  0.00    -0.205 F 
ATOM     71  C   UNL A   1      38.490  33.749  37.599  1.00  0.00     0.022 A 
BRANCH  69  72
ATOM     72  S   UNL A   1      37.078  31.773  38.860  1.00  0.00     0.127 S 
ATOM     73  O   UNL A   1      36.833  30.401  38.417  1.00  0.00    -0.237 OA
ATOM     74  O   UNL A   1      37.930  31.888  40.044  1.00  0.00    -0.237 OA
ATOM     75  O   UNL A   1      35.913  32.645  38.860  1.00  0.00    -0.744 OA
ENDBRANCH  69  72
ENDBRANCH  51  65
BRANCH  52  76
ATOM     76  C   UNL A   1      41.802  26.760  27.452  1.00  0.00     0.023 A 
ATOM     77  C   UNL A   1      42.512  27.317  26.372  1.00  0.00     0.012 A 
ATOM     78  C   UNL A   1      41.487  25.388  27.440  1.00  0.00     0.148 A 
ATOM     79  C   UNL A   1      42.909  26.517  25.300  1.00  0.00     0.002 A 
ATOM     80  C   UNL A   1      41.928  24.588  26.393  1.00  0.00     0.091 A 
ATOM     81  F   UNL A   1      40.794  24.887  28.472  1.00  0.00    -0.205 F 
ATOM     82  C   UNL A   1      42.632  25.153  25.317  1.00  0.00     0.022 A 
BRANCH  80  83
ATOM     83  S   UNL A   1      41.738  22.802  26.407  1.00  0.00     0.127 S 
ATOM     84  O   UNL A   1      40.286  22.657  26.384  1.00  0.00    -0.237 OA
ATOM     85  O   UNL A   1      42.416  22.414  25.170  1.00  0.00    -0.237 OA
ATOM     86  O   UNL A   1      42.404  22.349  27.621  1.00  0.00    -0.744 OA
ENDBRANCH  80  83
ENDBRANCH  52  76
BRANCH  64  87
ATOM     87  C   UNL A   1      44.511  27.359  33.865  1.00  0.00     0.023 A 
ATOM     88  C   UNL A   1      45.743  28.037  33.773  1.00  0.00     0.012 A 
ATOM     89  C   UNL A   1      44.407  26.202  34.659  1.00  0.00     0.148 A 
ATOM     90  C   UNL A   1      46.859  27.565  34.461  1.00  0.00     0.002 A 
ATOM     91  C   UNL A   1      45.519  25.752  35.360  1.00  0.00     0.091 A 
ATOM     92  F   UNL A   1      43.226  25.570  34.714  1.00  0.00    -0.205 F 
ATOM     93  C   UNL A   1      46.746  26.431  35.261  1.00  0.00     0.022 A 
BRANCH  91  94
ATOM     94  S   UNL A   1      45.453  24.337  36.465  1.00  0.00     0.127 S 
ATOM     95  O   UNL A   1      46.865  24.153  36.796  1.00  0.00    -0.237 OA
ATOM     96  O   UNL A   1      44.627  24.837  37.564  1.00  0.00    -0.237 OA
ATOM     97  O   UNL A   1      44.846  23.259  35.697  1.00  0.00    -0.744 OA
ENDBRANCH  91  94
ENDBRANCH  64  87
ENDBRANCH  38  39
ENDBRANCH  30  33
ENDBRANCH  28  29
ENDBRANCH  27  28
ENDBRANCH   1  27
TORSDOF 18
ENDMDL
MODEL 2
REMARK VINA RESULT:     -12.8      1.555      1.808
REMARK SMILES CC(C)CCc1cc2c(cc1Cl)C=C(C(=O)NCCCCNC(=O)c1ccc(-c3c4nc(c(-c5cccc(S(=O)(=O)[O-])c5F)c5ccc([nH]5)c(-c5cccc(S(=O)(=O)[O-])c5F)c5nc(c(-c6cccc(S(=O)(=O)[O-])c6F)c6ccc3[nH]6)C=C5)C=C4)cc1)[C@H](C(F)(F)F)O2
REMARK SMILES IDX 19 1 18 2 17 3 15 4 16 5 14 7 6 8 7 9 11 10 8 11 10 12 12 13
REMARK SMILES IDX 9 14 93 15 13 16 88 17 5 18 4 19 2 20 1 21 3 22 89 23 90 24
REMARK SMILES IDX 91 25 92 26 20 27 21 28 22 29 23 30 24 32 25 33 26 34 87 35
REMARK SMILES IDX 27 36 86 37 28 38 29 39 30 40 80 41 31 42 85 43 79 44 81 45
REMARK SMILES IDX 32 46 84 47 78 48 77 49 33 51 65 52 45 53 64 54 46 55 49 56
REMARK SMILES IDX 63 57 82 58 47 59 48 60 62 62 83 63 50 64 34 65 35 66 43 67
REMARK SMILES IDX 36 68 38 69 44 70 37 71 39 72 40 73 41 74 42 75 66 76 67 77
REMARK SMILES IDX 75 78 68 79 70 80 76 81 69 82 71 83 72 84 73 85 74 86 51 87
REMARK SMILES IDX 52 88 60 89 53 90 55 91 61 92 54 93 56 94 57 95 58 96 59 97
REMARK H PARENT 17 6 22 31 81 50 49 61
REMARK Flexibility Score: inf
ROOT
ATOM      1  C   UNL A   1      32.042  28.979  26.561  1.00  0.00     0.023 C 
ENDROOT
BRANCH   1   2
ATOM      2  C   UNL A   1      31.695  28.653  25.110  1.00  0.00     0.116 C 
BRANCH   2   3
ATOM      3  N   UNL A   1      32.809  28.922  24.219  1.00  0.00    -0.352 N 
ATOM      4  C   UNL A   1      33.665  28.190  23.469  1.00  0.00     0.251 C 
ATOM      5  O   UNL A   1      34.440  28.844  22.764  1.00  0.00    -0.270 OA
ATOM      6  H   UNL A   1      32.989  29.886  24.140  1.00  0.00     0.163 HD
BRANCH   4   7
ATOM      7  C   UNL A   1      33.733  26.698  23.440  1.00  0.00     0.067 C 
ATOM      8  C   UNL A   1      33.917  21.850  24.851  1.00  0.00    -0.026 A 
ATOM      9  C   UNL A   1      33.937  22.520  23.616  1.00  0.00     0.052 A 
ATOM     10  C   UNL A   1      33.946  22.621  26.025  1.00  0.00     0.045 A 
ATOM     11  C   UNL A   1      33.939  23.912  23.559  1.00  0.00     0.128 A 
ATOM     12  C   UNL A   1      33.968  24.020  25.962  1.00  0.00     0.032 A 
ATOM     13  Cl  UNL A   1      33.976  21.898  27.595  1.00  0.00    -0.084 Cl
ATOM     14  C   UNL A   1      33.958  24.669  24.726  1.00  0.00     0.019 A 
ATOM     15  O   UNL A   1      33.954  24.480  22.316  1.00  0.00    -0.475 OA
ATOM     16  C   UNL A   1      33.983  26.122  24.630  1.00  0.00     0.025 C 
ATOM     17  C   UNL A   1      33.433  25.841  22.238  1.00  0.00     0.314 C 
BRANCH   8  18
ATOM     18  C   UNL A   1      33.840  20.340  24.850  1.00  0.00     0.037 C 
BRANCH  18  19
ATOM     19  C   UNL A   1      32.731  19.761  23.955  1.00  0.00     0.008 C 
BRANCH  19  20
ATOM     20  C   UNL A   1      32.494  18.242  24.078  1.00  0.00    -0.017 C 
ATOM     21  C   UNL A   1      33.441  17.431  23.193  1.00  0.00     0.007 C 
ATOM     22  C   UNL A   1      32.663  17.811  25.538  1.00  0.00     0.007 C 
ENDBRANCH  19  20
ENDBRANCH  18  19
ENDBRANCH   8  18
BRANCH  17  23
ATOM     23  C   UNL A   1      31.944  25.806  21.853  1.00  0.00     0.429 C 
ATOM     24  F   UNL A   1      31.442  27.068  21.821  1.00  0.00    -0.167 F 
ATOM     25  F   UNL A   1      31.731  25.265  20.632  1.00  0.00    -0.167 F 
ATOM     26  F   UNL A   1      31.191  25.105  22.729  1.00  0.00    -0.167 F 
ENDBRANCH  17  23
ENDBRANCH   4   7
ENDBRANCH   2   3
ENDBRANCH   1   2
BRANCH   1  27
ATOM     27  C   UNL A   1      31.593  30.365  27.027  1.00  0.00     0.023 C 
BRANCH  27  28
ATOM     28  C   UNL A   1      32.310  31.535  26.362  1.00  0.00     0.116 C 
BRANCH  28  29
ATOM     29  N   UNL A   1      32.161  32.800  27.067  1.00  0.00    -0.352 N 
ATOM     30  C   UNL A   1      33.068  33.399  27.915  1.00  0.00     0.251 C 
ATOM     31  H   UNL A   1      31.315  33.284  26.921  1.00  0.00     0.163 HD
ATOM     32  O   UNL A   1      32.798  34.446  28.490  1.00  0.00    -0.269 OA
BRANCH  30  33
ATOM     33  C   UNL A   1      34.348  32.704  28.153  1.00  0.00     0.039 A 
ATOM     34  C   UNL A   1      34.344  31.405  28.664  1.00  0.00     0.014 A 
ATOM     35  C   UNL A   1      35.540  33.418  28.014  1.00  0.00     0.014 A 
ATOM     36  C   UNL A   1      35.514  30.890  29.208  1.00  0.00     0.010 A 
ATOM     37  C   UNL A   1      36.728  32.864  28.495  1.00  0.00     0.010 A 
ATOM     38  C   UNL A   1      36.710  31.625  29.155  1.00  0.00    -0.014 A 
BRANCH  38  39
ATOM     39  C   UNL A   1      37.917  31.094  29.837  1.00  0.00     0.031 A 
ATOM     40  C   UNL A   1      38.223  31.469  31.264  1.00  0.00     0.074 A 
ATOM     41  C   UNL A   1      38.700  30.213  29.188  1.00  0.00     0.049 A 
ATOM     42  N   UNL A   1      39.209  31.063  32.022  1.00  0.00    -0.248 NA
ATOM     43  C   UNL A   1      37.314  32.418  31.927  1.00  0.00     0.031 C 
ATOM     44  C   UNL A   1      38.505  29.778  27.804  1.00  0.00     0.029 A 
ATOM     45  N   UNL A   1      39.795  29.505  29.611  1.00  0.00    -0.354 N 
ATOM     46  C   UNL A   1      39.068  31.740  33.227  1.00  0.00     0.074 A 
ATOM     47  C   UNL A   1      37.897  32.579  33.108  1.00  0.00     0.031 C 
ATOM     48  C   UNL A   1      39.411  28.834  27.510  1.00  0.00     0.029 A 
ATOM     49  C   UNL A   1      40.279  28.632  28.666  1.00  0.00     0.049 A 
ATOM     50  H   UNL A   1      40.195  29.611  30.503  1.00  0.00     0.167 HD
ATOM     51  C   UNL A   1      39.834  31.654  34.340  1.00  0.00     0.034 A 
ATOM     52  C   UNL A   1      41.305  27.761  28.722  1.00  0.00     0.034 A 
ATOM     53  C   UNL A   1      40.954  30.766  34.488  1.00  0.00     0.049 A 
ATOM     54  C   UNL A   1      42.115  27.659  29.980  1.00  0.00     0.074 A 
ATOM     55  C   UNL A   1      41.767  30.587  35.595  1.00  0.00     0.029 A 
ATOM     56  N   UNL A   1      41.411  29.900  33.509  1.00  0.00    -0.354 N 
ATOM     57  N   UNL A   1      41.930  28.271  31.125  1.00  0.00    -0.248 NA
ATOM     58  C   UNL A   1      43.268  26.748  29.959  1.00  0.00     0.031 C 
ATOM     59  C   UNL A   1      42.710  29.601  35.287  1.00  0.00     0.029 A 
ATOM     60  C   UNL A   1      42.490  29.177  33.986  1.00  0.00     0.049 A 
ATOM     61  H   UNL A   1      41.025  29.811  32.608  1.00  0.00     0.167 HD
ATOM     62  C   UNL A   1      42.946  27.824  31.959  1.00  0.00     0.074 A 
ATOM     63  C   UNL A   1      43.724  26.866  31.200  1.00  0.00     0.031 C 
ATOM     64  C   UNL A   1      43.226  28.200  33.230  1.00  0.00     0.034 A 
BRANCH  51  65
ATOM     65  C   UNL A   1      39.457  32.501  35.523  1.00  0.00     0.023 A 
ATOM     66  C   UNL A   1      38.722  31.921  36.574  1.00  0.00     0.012 A 
ATOM     67  C   UNL A   1      39.907  33.831  35.638  1.00  0.00     0.148 A 
ATOM     68  C   UNL A   1      38.436  32.653  37.726  1.00  0.00     0.002 A 
ATOM     69  C   UNL A   1      39.636  34.548  36.798  1.00  0.00     0.091 A 
ATOM     70  F   UNL A   1      40.586  34.367  34.614  1.00  0.00    -0.205 F 
ATOM     71  C   UNL A   1      38.901  33.960  37.842  1.00  0.00     0.022 A 
BRANCH  69  72
ATOM     72  S   UNL A   1      40.229  36.223  37.065  1.00  0.00     0.127 S 
ATOM     73  O   UNL A   1      39.413  36.645  38.203  1.00  0.00    -0.237 OA
ATOM     74  O   UNL A   1      41.642  36.004  37.377  1.00  0.00    -0.237 OA
ATOM     75  O   UNL A   1      39.983  36.939  35.822  1.00  0.00    -0.744 OA
ENDBRANCH  69  72
ENDBRANCH  51  65
BRANCH  52  76
ATOM     76  C   UNL A   1      41.562  26.875  27.556  1.00  0.00     0.023 A 
ATOM     77  C   UNL A   1      42.273  27.385  26.454  1.00  0.00     0.012 A 
ATOM     78  C   UNL A   1      41.205  25.513  27.580  1.00  0.00     0.148 A 
ATOM     79  C   UNL A   1      42.630  26.550  25.396  1.00  0.00     0.002 A 
ATOM     80  C   UNL A   1      41.607  24.677  26.546  1.00  0.00     0.091 A 
ATOM     81  F   UNL A   1      40.512  25.057  28.632  1.00  0.00    -0.205 F 
ATOM     82  C   UNL A   1      42.313  25.195  25.448  1.00  0.00     0.022 A 
BRANCH  80  83
ATOM     83  S   UNL A   1      41.364  22.898  26.604  1.00  0.00     0.127 S 
ATOM     84  O   UNL A   1      41.978  22.555  27.882  1.00  0.00    -0.237 OA
ATOM     85  O   UNL A   1      39.904  22.790  26.571  1.00  0.00    -0.237 OA
ATOM     86  O   UNL A   1      42.028  22.375  25.417  1.00  0.00    -0.744 OA
ENDBRANCH  80  83
ENDBRANCH  52  76
BRANCH  64  87
ATOM     87  C   UNL A   1      44.437  27.597  33.883  1.00  0.00     0.023 A 
ATOM     88  C   UNL A   1      45.665  28.282  33.793  1.00  0.00     0.012 A 
ATOM     89  C   UNL A   1      44.343  26.430  34.665  1.00  0.00     0.148 A 
ATOM     90  C   UNL A   1      46.787  27.808  34.469  1.00  0.00     0.002 A 
ATOM     91  C   UNL A   1      45.461  25.978  35.355  1.00  0.00     0.091 A 
ATOM     92  F   UNL A   1      43.165  25.792  34.719  1.00  0.00    -0.205 F 
ATOM     93  C   UNL A   1      46.684  26.664  35.257  1.00  0.00     0.022 A 
BRANCH  91  94
ATOM     94  S   UNL A   1      45.408  24.550  36.443  1.00  0.00     0.127 S 
ATOM     95  O   UNL A   1      45.426  23.446  35.486  1.00  0.00    -0.237 OA
ATOM     96  O   UNL A   1      46.638  24.705  37.221  1.00  0.00    -0.237 OA
ATOM     97  O   UNL A   1      44.183  24.685  37.220  1.00  0.00    -0.744 OA
ENDBRANCH  91  94
ENDBRANCH  64  87
ENDBRANCH  38  39
ENDBRANCH  30  33
ENDBRANCH  28  29
ENDBRANCH  27  28
ENDBRANCH   1  27
TORSDOF 18
ENDMDL
MODEL 3
REMARK VINA RESULT:     -12.6      1.852      2.330
REMARK SMILES CC(C)CCc1cc2c(cc1Cl)C=C(C(=O)NCCCCNC(=O)c1ccc(-c3c4nc(c(-c5cccc(S(=O)(=O)[O-])c5F)c5ccc([nH]5)c(-c5cccc(S(=O)(=O)[O-])c5F)c5nc(c(-c6cccc(S(=O)(=O)[O-])c6F)c6ccc3[nH]6)C=C5)C=C4)cc1)[C@H](C(F)(F)F)O2
REMARK SMILES IDX 19 1 18 2 17 3 15 4 16 5 14 7 6 8 7 9 11 10 8 11 10 12 12 13
REMARK SMILES IDX 9 14 93 15 13 16 88 17 5 18 4 19 2 20 1 21 3 22 89 23 90 24
REMARK SMILES IDX 91 25 92 26 20 27 21 28 22 29 23 30 24 32 25 33 26 34 87 35
REMARK SMILES IDX 27 36 86 37 28 38 29 39 30 40 80 41 31 42 85 43 79 44 81 45
REMARK SMILES IDX 32 46 84 47 78 48 77 49 33 51 65 52 45 53 64 54 46 55 49 56
REMARK SMILES IDX 63 57 82 58 47 59 48 60 62 62 83 63 50 64 34 65 35 66 43 67
REMARK SMILES IDX 36 68 38 69 44 70 37 71 39 72 40 73 41 74 42 75 66 76 67 77
REMARK SMILES IDX 75 78 68 79 70 80 76 81 69 82 71 83 72 84 73 85 74 86 51 87
REMARK SMILES IDX 52 88 60 89 53 90 55 91 61 92 54 93 56 94 57 95 58 96 59 97
REMARK H PARENT 17 6 22 31 81 50 49 61
REMARK Flexibility Score: inf
ROOT
ATOM      1  C   UNL A   1      31.706  27.798  25.401  1.00  0.00     0.023 C 
ENDROOT
BRANCH   1   2
ATOM      2  C   UNL A   1      31.210  27.268  24.057  1.00  0.00     0.116 C 
BRANCH   2   3
ATOM      3  N   UNL A   1      32.311  26.934  23.173  1.00  0.00    -0.352 N 
ATOM      4  C   UNL A   1      33.014  25.821  22.859  1.00  0.00     0.251 C 
ATOM      5  O   UNL A   1      33.847  25.960  21.959  1.00  0.00    -0.270 OA
ATOM      6  H   UNL A   1      32.631  27.719  22.674  1.00  0.00     0.163 HD
BRANCH   4   7
ATOM      7  C   UNL A   1      32.855  24.484  23.507  1.00  0.00     0.067 C 
ATOM      8  C   UNL A   1      32.287  19.517  24.240  1.00  0.00    -0.026 A 
ATOM      9  C   UNL A   1      32.383  20.635  25.086  1.00  0.00     0.052 A 
ATOM     10  C   UNL A   1      32.234  19.736  22.854  1.00  0.00     0.045 A 
ATOM     11  C   UNL A   1      32.471  21.923  24.561  1.00  0.00     0.128 A 
ATOM     12  C   UNL A   1      32.302  21.034  22.331  1.00  0.00     0.032 A 
ATOM     13  Cl  UNL A   1      32.064  18.436  21.727  1.00  0.00    -0.084 Cl
ATOM     14  C   UNL A   1      32.428  22.131  23.185  1.00  0.00     0.019 A 
ATOM     15  O   UNL A   1      32.566  22.951  25.456  1.00  0.00    -0.475 OA
ATOM     16  C   UNL A   1      32.498  23.491  22.671  1.00  0.00     0.025 C 
ATOM     17  C   UNL A   1      33.174  24.176  24.946  1.00  0.00     0.314 C 
BRANCH   8  18
ATOM     18  C   UNL A   1      32.271  18.141  24.865  1.00  0.00     0.037 C 
BRANCH  18  19
ATOM     19  C   UNL A   1      33.646  17.641  25.336  1.00  0.00     0.008 C 
BRANCH  19  20
ATOM     20  C   UNL A   1      34.167  16.362  24.650  1.00  0.00    -0.017 C 
ATOM     21  C   UNL A   1      34.421  16.563  23.156  1.00  0.00     0.007 C 
ATOM     22  C   UNL A   1      35.460  15.902  25.331  1.00  0.00     0.007 C 
ENDBRANCH  19  20
ENDBRANCH  18  19
ENDBRANCH   8  18
BRANCH  17  23
ATOM     23  C   UNL A   1      34.679  24.181  25.267  1.00  0.00     0.429 C 
ATOM     24  F   UNL A   1      35.381  23.695  24.210  1.00  0.00    -0.167 F 
ATOM     25  F   UNL A   1      35.156  25.421  25.521  1.00  0.00    -0.167 F 
ATOM     26  F   UNL A   1      34.992  23.414  26.334  1.00  0.00    -0.167 F 
ENDBRANCH  17  23
ENDBRANCH   4   7
ENDBRANCH   2   3
ENDBRANCH   1   2
BRANCH   1  27
ATOM     27  C   UNL A   1      31.681  29.322  25.533  1.00  0.00     0.023 C 
BRANCH  27  28
ATOM     28  C   UNL A   1      32.410  29.878  26.751  1.00  0.00     0.116 C 
BRANCH  28  29
ATOM     29  N   UNL A   1      32.191  31.300  26.976  1.00  0.00    -0.352 N 
ATOM     30  C   UNL A   1      33.107  32.230  27.418  1.00  0.00     0.251 C 
ATOM     31  H   UNL A   1      31.283  31.636  26.791  1.00  0.00     0.163 HD
ATOM     32  O   UNL A   1      32.780  33.392  27.617  1.00  0.00    -0.269 OA
BRANCH  30  33
ATOM     33  C   UNL A   1      34.478  31.762  27.700  1.00  0.00     0.039 A 
ATOM     34  C   UNL A   1      34.717  30.401  27.894  1.00  0.00     0.014 A 
ATOM     35  C   UNL A   1      35.481  32.707  27.927  1.00  0.00     0.014 A 
ATOM     36  C   UNL A   1      35.905  30.001  28.493  1.00  0.00     0.010 A 
ATOM     37  C   UNL A   1      36.703  32.291  28.460  1.00  0.00     0.010 A 
ATOM     38  C   UNL A   1      36.897  30.945  28.808  1.00  0.00    -0.014 A 
BRANCH  38  39
ATOM     39  C   UNL A   1      38.110  30.503  29.542  1.00  0.00     0.031 A 
ATOM     40  C   UNL A   1      38.328  30.898  30.978  1.00  0.00     0.074 A 
ATOM     41  C   UNL A   1      38.981  29.681  28.929  1.00  0.00     0.049 A 
ATOM     42  N   UNL A   1      39.307  30.565  31.779  1.00  0.00    -0.248 NA
ATOM     43  C   UNL A   1      37.324  31.779  31.600  1.00  0.00     0.031 C 
ATOM     44  C   UNL A   1      38.877  29.233  27.538  1.00  0.00     0.029 A 
ATOM     45  N   UNL A   1      40.106  29.054  29.399  1.00  0.00    -0.354 N 
ATOM     46  C   UNL A   1      39.068  31.229  32.975  1.00  0.00     0.074 A 
ATOM     47  C   UNL A   1      37.844  31.981  32.804  1.00  0.00     0.031 C 
ATOM     48  C   UNL A   1      39.861  28.358  27.286  1.00  0.00     0.029 A 
ATOM     49  C   UNL A   1      40.692  28.219  28.478  1.00  0.00     0.049 A 
ATOM     50  H   UNL A   1      40.460  29.189  30.307  1.00  0.00     0.167 HD
ATOM     51  C   UNL A   1      39.790  31.199  34.119  1.00  0.00     0.034 A 
ATOM     52  C   UNL A   1      41.775  27.425  28.579  1.00  0.00     0.034 A 
ATOM     53  C   UNL A   1      40.964  30.395  34.317  1.00  0.00     0.049 A 
ATOM     54  C   UNL A   1      42.536  27.381  29.870  1.00  0.00     0.074 A 
ATOM     55  C   UNL A   1      41.740  30.275  35.457  1.00  0.00     0.029 A 
ATOM     56  N   UNL A   1      41.524  29.564  33.361  1.00  0.00    -0.354 N 
ATOM     57  N   UNL A   1      42.260  27.978  31.004  1.00  0.00    -0.248 NA
ATOM     58  C   UNL A   1      43.752  26.557  29.900  1.00  0.00     0.031 C 
ATOM     59  C   UNL A   1      42.765  29.360  35.192  1.00  0.00     0.029 A 
ATOM     60  C   UNL A   1      42.631  28.922  33.884  1.00  0.00     0.049 A 
ATOM     61  H   UNL A   1      41.183  29.448  32.444  1.00  0.00     0.167 HD
ATOM     62  C   UNL A   1      43.269  27.606  31.882  1.00  0.00     0.074 A 
ATOM     63  C   UNL A   1      44.146  26.707  31.159  1.00  0.00     0.031 C 
ATOM     64  C   UNL A   1      43.468  28.000  33.163  1.00  0.00     0.034 A 
BRANCH  51  65
ATOM     65  C   UNL A   1      39.302  32.017  35.283  1.00  0.00     0.023 A 
ATOM     66  C   UNL A   1      38.440  31.422  36.224  1.00  0.00     0.012 A 
ATOM     67  C   UNL A   1      39.769  33.329  35.496  1.00  0.00     0.148 A 
ATOM     68  C   UNL A   1      38.045  32.123  37.362  1.00  0.00     0.002 A 
ATOM     69  C   UNL A   1      39.387  34.014  36.644  1.00  0.00     0.091 A 
ATOM     70  F   UNL A   1      40.572  33.879  34.574  1.00  0.00    -0.205 F 
ATOM     71  C   UNL A   1      38.525  33.412  37.577  1.00  0.00     0.022 A 
BRANCH  69  72
ATOM     72  S   UNL A   1      39.986  35.661  37.037  1.00  0.00     0.127 S 
ATOM     73  O   UNL A   1      39.259  35.952  38.272  1.00  0.00    -0.237 OA
ATOM     74  O   UNL A   1      41.421  35.434  37.214  1.00  0.00    -0.237 OA
ATOM     75  O   UNL A   1      39.638  36.497  35.897  1.00  0.00    -0.744 OA
ENDBRANCH  69  72
ENDBRANCH  51  65
BRANCH  52  76
ATOM     76  C   UNL A   1      42.144  26.560  27.427  1.00  0.00     0.023 A 
ATOM     77  C   UNL A   1      42.980  27.081  26.422  1.00  0.00     0.012 A 
ATOM     78  C   UNL A   1      41.765  25.205  27.379  1.00  0.00     0.148 A 
ATOM     79  C   UNL A   1      43.438  26.263  25.390  1.00  0.00     0.002 A 
ATOM     80  C   UNL A   1      42.265  24.384  26.376  1.00  0.00     0.091 A 
ATOM     81  F   UNL A   1      40.954  24.738  28.339  1.00  0.00    -0.205 F 
ATOM     82  C   UNL A   1      43.095  24.913  25.375  1.00  0.00     0.022 A 
BRANCH  80  83
ATOM     83  S   UNL A   1      41.989  22.609  26.365  1.00  0.00     0.127 S 
ATOM     84  O   UNL A   1      40.532  22.535  26.321  1.00  0.00    -0.237 OA
ATOM     85  O   UNL A   1      42.664  22.204  25.131  1.00  0.00    -0.237 OA
ATOM     86  O   UNL A   1      42.616  22.109  27.581  1.00  0.00    -0.744 OA
ENDBRANCH  80  83
ENDBRANCH  52  76
BRANCH  64  87
ATOM     87  C   UNL A   1      44.690  27.488  33.868  1.00  0.00     0.023 A 
ATOM     88  C   UNL A   1      45.850  28.287  33.879  1.00  0.00     0.012 A 
ATOM     89  C   UNL A   1      44.663  26.285  34.599  1.00  0.00     0.148 A 
ATOM     90  C   UNL A   1      46.971  27.893  34.606  1.00  0.00     0.002 A 
ATOM     91  C   UNL A   1      45.777  25.911  35.341  1.00  0.00     0.091 A 
ATOM     92  F   UNL A   1      43.551  25.538  34.557  1.00  0.00    -0.205 F 
ATOM     93  C   UNL A   1      46.932  26.713  35.344  1.00  0.00     0.022 A 
BRANCH  91  94
ATOM     94  S   UNL A   1      45.798  24.440  36.372  1.00  0.00     0.127 S 
ATOM     95  O   UNL A   1      46.610  23.527  35.570  1.00  0.00    -0.237 OA
ATOM     96  O   UNL A   1      46.445  24.923  37.592  1.00  0.00    -0.237 OA
ATOM     97  O   UNL A   1      44.404  24.052  36.542  1.00  0.00    -0.744 OA
ENDBRANCH  91  94
ENDBRANCH  64  87
ENDBRANCH  38  39
ENDBRANCH  30  33
ENDBRANCH  28  29
ENDBRANCH  27  28
ENDBRANCH   1  27
TORSDOF 18
ENDMDL
