MODEL 1
REMARK VINA RESULT:     -13.1      0.000      0.000
REMARK SMILES C[C@H](C(=O)NCCCCNC(=O)c1ccc(-c2c3nc(c(-c4cccc(S(=O)(=O)[O-])c4F)c4ccc([nH]4)c(-c4cccc(S(=O)(=O)[O-])c4F)c4nc(c(-c5cccc(S(=O)(=O)[O-])c5F)c5ccc2[nH]5)C=C4)C=C3)cc1)c1ccc2c(c1)[nH]c1ccc(Cl)cc12
REMARK SMILES IDX 8 1 7 2 6 3 5 4 3 5 4 6 2 8 1 9 76 10 77 11 81 12 78 13
REMARK SMILES IDX 80 14 79 15 82 16 89 17 83 18 88 20 84 21 86 22 85 23 87 24
REMARK SMILES IDX 9 25 10 26 11 27 12 29 13 30 14 31 75 32 15 33 74 34 16 35
REMARK SMILES IDX 17 36 18 37 68 38 19 39 73 40 67 41 69 42 20 43 72 44 66 45
REMARK SMILES IDX 65 46 21 48 53 49 33 50 52 51 34 52 37 53 51 54 70 55 35 56
REMARK SMILES IDX 36 57 50 59 71 60 38 61 22 62 23 63 31 64 24 65 26 66 32 67
REMARK SMILES IDX 25 68 27 69 28 70 29 71 30 72 54 73 55 74 63 75 56 76 58 77
REMARK SMILES IDX 64 78 57 79 59 80 60 81 61 82 62 83 39 84 40 85 48 86 41 87
REMARK SMILES IDX 43 88 49 89 42 90 44 91 45 92 46 93 47 94
REMARK H PARENT 5 7 82 19 10 28 69 47 37 58
REMARK Flexibility Score: inf
ROOT
ATOM      1  C   UNL A   1      32.414  29.345  25.061  1.00  0.00     0.023 C 
ENDROOT
BRANCH   1   2
ATOM      2  C   UNL A   1      31.187  29.204  24.166  1.00  0.00     0.023 C 
BRANCH   2   3
ATOM      3  C   UNL A   1      30.757  27.798  23.766  1.00  0.00     0.116 C 
BRANCH   3   4
ATOM      4  N   UNL A   1      30.378  26.931  24.859  1.00  0.00    -0.356 N 
ATOM      5  C   UNL A   1      31.083  25.980  25.528  1.00  0.00     0.227 C 
ATOM      6  O   UNL A   1      30.600  25.654  26.624  1.00  0.00    -0.274 OA
ATOM      7  H   UNL A   1      29.452  27.048  25.172  1.00  0.00     0.163 HD
BRANCH   5   8
ATOM      8  C   UNL A   1      32.336  25.229  25.031  1.00  0.00     0.105 C 
ATOM      9  C   UNL A   1      33.530  25.890  25.753  1.00  0.00     0.023 C 
BRANCH   8  10
ATOM     10  C   UNL A   1      32.383  23.702  25.051  1.00  0.00    -0.034 A 
ATOM     11  C   UNL A   1      32.703  23.019  26.238  1.00  0.00     0.005 A 
ATOM     12  C   UNL A   1      32.106  22.942  23.900  1.00  0.00     0.031 A 
ATOM     13  C   UNL A   1      32.909  21.625  26.255  1.00  0.00     0.011 A 
ATOM     14  C   UNL A   1      32.278  21.555  23.943  1.00  0.00     0.047 A 
ATOM     15  C   UNL A   1      32.724  20.879  25.073  1.00  0.00     0.007 A 
ATOM     16  N   UNL A   1      32.090  20.623  22.953  1.00  0.00    -0.355 N 
ATOM     17  C   UNL A   1      32.933  19.512  24.687  1.00  0.00     0.009 A 
ATOM     18  C   UNL A   1      32.530  19.387  23.356  1.00  0.00     0.047 A 
ATOM     19  H   UNL A   1      31.691  20.814  22.074  1.00  0.00     0.167 HD
ATOM     20  C   UNL A   1      33.461  18.373  25.332  1.00  0.00     0.031 A 
ATOM     21  C   UNL A   1      32.613  18.192  22.634  1.00  0.00     0.028 A 
ATOM     22  C   UNL A   1      33.573  17.176  24.613  1.00  0.00     0.041 A 
ATOM     23  C   UNL A   1      33.155  17.083  23.288  1.00  0.00     0.022 A 
ATOM     24  Cl  UNL A   1      34.254  15.789  25.377  1.00  0.00    -0.084 Cl
ENDBRANCH   8  10
ENDBRANCH   5   8
ENDBRANCH   3   4
ENDBRANCH   2   3
ENDBRANCH   1   2
BRANCH   1  25
ATOM     25  C   UNL A   1      32.178  29.763  26.508  1.00  0.00     0.116 C 
BRANCH  25  26
ATOM     26  N   UNL A   1      32.165  31.202  26.724  1.00  0.00    -0.352 N 
ATOM     27  C   UNL A   1      33.116  32.038  27.268  1.00  0.00     0.251 C 
ATOM     28  H   UNL A   1      31.339  31.653  26.434  1.00  0.00     0.163 HD
ATOM     29  O   UNL A   1      32.869  33.231  27.385  1.00  0.00    -0.269 OA
BRANCH  27  30
ATOM     30  C   UNL A   1      34.410  31.501  27.755  1.00  0.00     0.039 A 
ATOM     31  C   UNL A   1      35.452  32.401  28.002  1.00  0.00     0.014 A 
ATOM     32  C   UNL A   1      34.604  30.139  27.987  1.00  0.00     0.014 A 
ATOM     33  C   UNL A   1      36.645  31.945  28.572  1.00  0.00     0.010 A 
ATOM     34  C   UNL A   1      35.757  29.700  28.638  1.00  0.00     0.010 A 
ATOM     35  C   UNL A   1      36.788  30.599  28.946  1.00  0.00    -0.014 A 
BRANCH  35  36
ATOM     36  C   UNL A   1      37.989  30.139  29.698  1.00  0.00     0.031 A 
ATOM     37  C   UNL A   1      38.261  30.624  31.097  1.00  0.00     0.074 A 
ATOM     38  C   UNL A   1      38.882  29.333  29.085  1.00  0.00     0.049 A 
ATOM     39  N   UNL A   1      39.256  30.324  31.893  1.00  0.00    -0.248 NA
ATOM     40  C   UNL A   1      37.309  31.591  31.670  1.00  0.00     0.031 C 
ATOM     41  C   UNL A   1      38.799  28.880  27.695  1.00  0.00     0.029 A 
ATOM     42  N   UNL A   1      40.045  28.767  29.546  1.00  0.00    -0.354 N 
ATOM     43  C   UNL A   1      39.065  31.078  33.046  1.00  0.00     0.074 A 
ATOM     44  C   UNL A   1      37.884  31.885  32.828  1.00  0.00     0.031 C 
ATOM     45  C   UNL A   1      39.855  28.099  27.419  1.00  0.00     0.029 A 
ATOM     46  C   UNL A   1      40.702  28.008  28.604  1.00  0.00     0.049 A 
ATOM     47  H   UNL A   1      40.378  28.891  30.464  1.00  0.00     0.167 HD
ATOM     48  C   UNL A   1      39.780  31.071  34.196  1.00  0.00     0.034 A 
ATOM     49  C   UNL A   1      41.855  27.315  28.683  1.00  0.00     0.034 A 
ATOM     50  C   UNL A   1      40.931  30.239  34.428  1.00  0.00     0.049 A 
ATOM     51  C   UNL A   1      42.589  27.267  29.996  1.00  0.00     0.074 A 
ATOM     52  C   UNL A   1      41.676  30.105  35.587  1.00  0.00     0.029 A 
ATOM     53  N   UNL A   1      41.503  29.400  33.487  1.00  0.00    -0.354 N 
ATOM     54  N   UNL A   1      42.290  27.853  31.130  1.00  0.00    -0.248 NA
ATOM     55  C   UNL A   1      43.792  26.425  30.054  1.00  0.00     0.031 C 
ATOM     56  C   UNL A   1      42.707  29.190  35.342  1.00  0.00     0.029 A 
ATOM     57  C   UNL A   1      42.592  28.742  34.036  1.00  0.00     0.049 A 
ATOM     58  H   UNL A   1      41.184  29.287  32.562  1.00  0.00     0.167 HD
ATOM     59  C   UNL A   1      43.251  27.432  32.041  1.00  0.00     0.074 A 
ATOM     60  C   UNL A   1      44.119  26.510  31.336  1.00  0.00     0.031 C 
ATOM     61  C   UNL A   1      43.418  27.792  33.337  1.00  0.00     0.034 A 
BRANCH  48  62
ATOM     62  C   UNL A   1      39.288  31.936  35.330  1.00  0.00     0.023 A 
ATOM     63  C   UNL A   1      38.375  31.394  36.258  1.00  0.00     0.012 A 
ATOM     64  C   UNL A   1      39.774  33.243  35.522  1.00  0.00     0.148 A 
ATOM     65  C   UNL A   1      37.929  32.148  37.342  1.00  0.00     0.002 A 
ATOM     66  C   UNL A   1      39.357  33.975  36.630  1.00  0.00     0.091 A 
ATOM     67  F   UNL A   1      40.629  33.748  34.620  1.00  0.00    -0.205 F 
ATOM     68  C   UNL A   1      38.428  33.434  37.533  1.00  0.00     0.022 A 
BRANCH  66  69
ATOM     69  S   UNL A   1      39.995  35.611  37.013  1.00  0.00     0.127 S 
ATOM     70  O   UNL A   1      39.294  35.916  38.259  1.00  0.00    -0.237 OA
ATOM     71  O   UNL A   1      41.427  35.352  37.167  1.00  0.00    -0.237 OA
ATOM     72  O   UNL A   1      39.646  36.455  35.879  1.00  0.00    -0.744 OA
ENDBRANCH  66  69
ENDBRANCH  48  62
BRANCH  49  73
ATOM     73  C   UNL A   1      42.349  26.546  27.504  1.00  0.00     0.023 A 
ATOM     74  C   UNL A   1      43.134  27.194  26.531  1.00  0.00     0.012 A 
ATOM     75  C   UNL A   1      42.058  25.177  27.349  1.00  0.00     0.148 A 
ATOM     76  C   UNL A   1      43.587  26.504  25.406  1.00  0.00     0.002 A 
ATOM     77  C   UNL A   1      42.562  24.481  26.256  1.00  0.00     0.091 A 
ATOM     78  F   UNL A   1      41.296  24.579  28.276  1.00  0.00    -0.205 F 
ATOM     79  C   UNL A   1      43.310  25.146  25.273  1.00  0.00     0.022 A 
BRANCH  77  80
ATOM     80  S   UNL A   1      42.369  22.703  26.086  1.00  0.00     0.127 S 
ATOM     81  O   UNL A   1      43.029  22.450  24.809  1.00  0.00    -0.237 OA
ATOM     82  O   UNL A   1      43.085  22.202  27.260  1.00  0.00    -0.237 OA
ATOM     83  O   UNL A   1      40.931  22.466  26.121  1.00  0.00    -0.744 OA
ENDBRANCH  77  80
ENDBRANCH  49  73
BRANCH  61  84
ATOM     84  C   UNL A   1      44.574  27.176  34.084  1.00  0.00     0.023 A 
ATOM     85  C   UNL A   1      45.850  27.767  34.002  1.00  0.00     0.012 A 
ATOM     86  C   UNL A   1      44.389  26.041  34.897  1.00  0.00     0.148 A 
ATOM     87  C   UNL A   1      46.934  27.214  34.682  1.00  0.00     0.002 A 
ATOM     88  C   UNL A   1      45.464  25.523  35.610  1.00  0.00     0.091 A 
ATOM     89  F   UNL A   1      43.172  25.479  34.948  1.00  0.00    -0.205 F 
ATOM     90  C   UNL A   1      46.739  26.098  35.493  1.00  0.00     0.022 A 
BRANCH  88  91
ATOM     91  S   UNL A   1      45.281  24.145  36.748  1.00  0.00     0.127 S 
ATOM     92  O   UNL A   1      44.215  24.624  37.627  1.00  0.00    -0.237 OA
ATOM     93  O   UNL A   1      44.890  23.051  35.857  1.00  0.00    -0.237 OA
ATOM     94  O   UNL A   1      46.584  23.972  37.374  1.00  0.00    -0.744 OA
ENDBRANCH  88  91
ENDBRANCH  61  84
ENDBRANCH  35  36
ENDBRANCH  27  30
ENDBRANCH  25  26
ENDBRANCH   1  25
TORSDOF 15
ENDMDL
MODEL 2
REMARK VINA RESULT:     -12.9      4.654      9.666
REMARK SMILES C[C@H](C(=O)NCCCCNC(=O)c1ccc(-c2c3nc(c(-c4cccc(S(=O)(=O)[O-])c4F)c4ccc([nH]4)c(-c4cccc(S(=O)(=O)[O-])c4F)c4nc(c(-c5cccc(S(=O)(=O)[O-])c5F)c5ccc2[nH]5)C=C4)C=C3)cc1)c1ccc2c(c1)[nH]c1ccc(Cl)cc12
REMARK SMILES IDX 8 1 7 2 6 3 5 4 3 5 4 6 2 8 1 9 76 10 77 11 81 12 78 13
REMARK SMILES IDX 80 14 79 15 82 16 89 17 83 18 88 20 84 21 86 22 85 23 87 24
REMARK SMILES IDX 9 25 10 26 11 27 12 29 13 30 14 31 75 32 15 33 74 34 16 35
REMARK SMILES IDX 17 36 18 37 68 38 19 39 73 40 67 41 69 42 20 43 72 44 66 45
REMARK SMILES IDX 65 46 21 48 53 49 33 50 52 51 34 52 37 53 51 54 70 55 35 56
REMARK SMILES IDX 36 57 50 59 71 60 38 61 22 62 23 63 31 64 24 65 26 66 32 67
REMARK SMILES IDX 25 68 27 69 28 70 29 71 30 72 54 73 55 74 63 75 56 76 58 77
REMARK SMILES IDX 64 78 57 79 59 80 60 81 61 82 62 83 39 84 40 85 48 86 41 87
REMARK SMILES IDX 43 88 49 89 42 90 44 91 45 92 46 93 47 94
REMARK H PARENT 5 7 82 19 10 28 69 47 37 58
REMARK Flexibility Score: inf
ROOT
ATOM      1  C   UNL A   1      35.625  22.322  25.263  1.00  0.00     0.023 C 
ENDROOT
BRANCH   1   2
ATOM      2  C   UNL A   1      35.138  23.730  25.586  1.00  0.00     0.023 C 
BRANCH   2   3
ATOM      3  C   UNL A   1      34.834  24.662  24.419  1.00  0.00     0.116 C 
BRANCH   3   4
ATOM      4  N   UNL A   1      34.028  25.818  24.742  1.00  0.00    -0.356 N 
ATOM      5  C   UNL A   1      32.683  25.960  24.868  1.00  0.00     0.227 C 
ATOM      6  O   UNL A   1      32.325  26.978  25.482  1.00  0.00    -0.274 OA
ATOM      7  H   UNL A   1      34.542  26.643  24.897  1.00  0.00     0.163 HD
BRANCH   5   8
ATOM      8  C   UNL A   1      31.591  25.052  24.266  1.00  0.00     0.105 C 
ATOM      9  C   UNL A   1      31.399  25.540  22.813  1.00  0.00     0.023 C 
BRANCH   8  10
ATOM     10  C   UNL A   1      31.693  23.532  24.388  1.00  0.00    -0.034 A 
ATOM     11  C   UNL A   1      31.715  22.923  25.655  1.00  0.00     0.005 A 
ATOM     12  C   UNL A   1      31.759  22.706  23.251  1.00  0.00     0.031 A 
ATOM     13  C   UNL A   1      31.965  21.545  25.808  1.00  0.00     0.011 A 
ATOM     14  C   UNL A   1      31.969  21.333  23.419  1.00  0.00     0.047 A 
ATOM     15  C   UNL A   1      32.128  20.735  24.664  1.00  0.00     0.007 A 
ATOM     16  N   UNL A   1      32.086  20.347  22.472  1.00  0.00    -0.355 N 
ATOM     17  C   UNL A   1      32.487  19.366  24.428  1.00  0.00     0.009 A 
ATOM     18  C   UNL A   1      32.454  19.157  23.047  1.00  0.00     0.047 A 
ATOM     19  H   UNL A   1      31.926  20.476  21.509  1.00  0.00     0.167 HD
ATOM     20  C   UNL A   1      32.871  18.288  25.254  1.00  0.00     0.031 A 
ATOM     21  C   UNL A   1      32.772  17.936  22.445  1.00  0.00     0.028 A 
ATOM     22  C   UNL A   1      33.216  17.066  24.662  1.00  0.00     0.041 A 
ATOM     23  C   UNL A   1      33.166  16.890  23.282  1.00  0.00     0.022 A 
ATOM     24  Cl  UNL A   1      33.727  15.756  25.657  1.00  0.00    -0.084 Cl
ENDBRANCH   8  10
ENDBRANCH   5   8
ENDBRANCH   3   4
ENDBRANCH   2   3
ENDBRANCH   1   2
BRANCH   1  25
ATOM     25  C   UNL A   1      36.948  22.195  24.517  1.00  0.00     0.116 C 
BRANCH  25  26
ATOM     26  N   UNL A   1      37.812  21.128  25.000  1.00  0.00    -0.352 N 
ATOM     27  C   UNL A   1      38.897  21.165  25.848  1.00  0.00     0.251 C 
ATOM     28  H   UNL A   1      37.583  20.231  24.665  1.00  0.00     0.163 HD
ATOM     29  O   UNL A   1      39.505  20.130  26.091  1.00  0.00    -0.269 OA
BRANCH  27  30
ATOM     30  C   UNL A   1      39.365  22.448  26.428  1.00  0.00     0.039 A 
ATOM     31  C   UNL A   1      40.457  22.423  27.301  1.00  0.00     0.014 A 
ATOM     32  C   UNL A   1      38.759  23.665  26.113  1.00  0.00     0.014 A 
ATOM     33  C   UNL A   1      40.998  23.623  27.774  1.00  0.00     0.010 A 
ATOM     34  C   UNL A   1      39.354  24.862  26.511  1.00  0.00     0.010 A 
ATOM     35  C   UNL A   1      40.484  24.857  27.340  1.00  0.00    -0.014 A 
BRANCH  35  36
ATOM     36  C   UNL A   1      41.154  26.135  27.711  1.00  0.00     0.031 A 
ATOM     37  C   UNL A   1      42.586  26.399  27.330  1.00  0.00     0.074 A 
ATOM     38  C   UNL A   1      40.485  27.036  28.462  1.00  0.00     0.049 A 
ATOM     39  N   UNL A   1      43.320  27.456  27.571  1.00  0.00    -0.248 NA
ATOM     40  C   UNL A   1      43.298  25.331  26.608  1.00  0.00     0.031 C 
ATOM     41  C   UNL A   1      39.132  26.856  28.995  1.00  0.00     0.029 A 
ATOM     42  N   UNL A   1      40.859  28.273  28.925  1.00  0.00    -0.354 N 
ATOM     43  C   UNL A   1      44.579  27.174  27.055  1.00  0.00     0.074 A 
ATOM     44  C   UNL A   1      44.525  25.828  26.528  1.00  0.00     0.031 C 
ATOM     45  C   UNL A   1      38.786  27.945  29.700  1.00  0.00     0.029 A 
ATOM     46  C   UNL A   1      39.895  28.893  29.687  1.00  0.00     0.049 A 
ATOM     47  H   UNL A   1      41.734  28.680  28.729  1.00  0.00     0.167 HD
ATOM     48  C   UNL A   1      45.671  27.973  26.986  1.00  0.00     0.034 A 
ATOM     49  C   UNL A   1      39.899  30.091  30.305  1.00  0.00     0.034 A 
ATOM     50  C   UNL A   1      45.714  29.327  27.473  1.00  0.00     0.049 A 
ATOM     51  C   UNL A   1      41.098  30.987  30.149  1.00  0.00     0.074 A 
ATOM     52  C   UNL A   1      46.748  30.242  27.381  1.00  0.00     0.029 A 
ATOM     53  N   UNL A   1      44.680  29.960  28.143  1.00  0.00    -0.354 N 
ATOM     54  N   UNL A   1      42.217  30.765  29.503  1.00  0.00    -0.248 NA
ATOM     55  C   UNL A   1      41.017  32.318  30.768  1.00  0.00     0.031 C 
ATOM     56  C   UNL A   1      46.341  31.427  28.005  1.00  0.00     0.029 A 
ATOM     57  C   UNL A   1      45.048  31.255  28.469  1.00  0.00     0.049 A 
ATOM     58  H   UNL A   1      43.810  29.550  28.356  1.00  0.00     0.167 HD
ATOM     59  C   UNL A   1      42.960  31.933  29.616  1.00  0.00     0.074 A 
ATOM     60  C   UNL A   1      42.148  32.875  30.358  1.00  0.00     0.031 C 
ATOM     61  C   UNL A   1      44.212  32.197  29.167  1.00  0.00     0.034 A 
BRANCH  48  62
ATOM     62  C   UNL A   1      46.891  27.432  26.284  1.00  0.00     0.023 A 
ATOM     63  C   UNL A   1      47.070  27.705  24.912  1.00  0.00     0.012 A 
ATOM     64  C   UNL A   1      47.887  26.724  26.982  1.00  0.00     0.148 A 
ATOM     65  C   UNL A   1      48.204  27.257  24.238  1.00  0.00     0.002 A 
ATOM     66  C   UNL A   1      49.037  26.316  26.313  1.00  0.00     0.091 A 
ATOM     67  F   UNL A   1      47.693  26.458  28.282  1.00  0.00    -0.205 F 
ATOM     68  C   UNL A   1      49.192  26.572  24.941  1.00  0.00     0.022 A 
BRANCH  66  69
ATOM     69  S   UNL A   1      50.406  25.494  27.138  1.00  0.00     0.127 S 
ATOM     70  O   UNL A   1      51.340  25.293  26.032  1.00  0.00    -0.237 OA
ATOM     71  O   UNL A   1      50.824  26.502  28.114  1.00  0.00    -0.237 OA
ATOM     72  O   UNL A   1      49.855  24.277  27.717  1.00  0.00    -0.744 OA
ENDBRANCH  66  69
ENDBRANCH  48  62
BRANCH  49  73
ATOM     73  C   UNL A   1      38.698  30.546  31.064  1.00  0.00     0.023 A 
ATOM     74  C   UNL A   1      38.622  30.309  32.451  1.00  0.00     0.012 A 
ATOM     75  C   UNL A   1      37.642  31.223  30.426  1.00  0.00     0.148 A 
ATOM     76  C   UNL A   1      37.499  30.702  33.180  1.00  0.00     0.002 A 
ATOM     77  C   UNL A   1      36.553  31.665  31.169  1.00  0.00     0.091 A 
ATOM     78  F   UNL A   1      37.723  31.427  29.103  1.00  0.00    -0.205 F 
ATOM     79  C   UNL A   1      36.470  31.388  32.542  1.00  0.00     0.022 A 
BRANCH  77  80
ATOM     80  S   UNL A   1      35.254  32.677  30.449  1.00  0.00     0.127 S 
ATOM     81  O   UNL A   1      34.314  32.793  31.560  1.00  0.00    -0.237 OA
ATOM     82  O   UNL A   1      35.972  33.908  30.119  1.00  0.00    -0.237 OA
ATOM     83  O   UNL A   1      34.785  31.932  29.288  1.00  0.00    -0.744 OA
ENDBRANCH  77  80
ENDBRANCH  49  73
BRANCH  61  84
ATOM     84  C   UNL A   1      44.775  33.565  29.454  1.00  0.00     0.023 A 
ATOM     85  C   UNL A   1      45.539  33.775  30.620  1.00  0.00     0.012 A 
ATOM     86  C   UNL A   1      44.586  34.630  28.552  1.00  0.00     0.148 A 
ATOM     87  C   UNL A   1      46.068  35.032  30.906  1.00  0.00     0.002 A 
ATOM     88  C   UNL A   1      45.157  35.869  28.820  1.00  0.00     0.091 A 
ATOM     89  F   UNL A   1      43.840  34.420  27.457  1.00  0.00    -0.205 F 
ATOM     90  C   UNL A   1      45.885  36.077  30.003  1.00  0.00     0.022 A 
BRANCH  88  91
ATOM     91  S   UNL A   1      45.048  37.242  27.666  1.00  0.00     0.127 S 
ATOM     92  O   UNL A   1      45.771  36.717  26.509  1.00  0.00    -0.237 OA
ATOM     93  O   UNL A   1      43.603  37.376  27.472  1.00  0.00    -0.237 OA
ATOM     94  O   UNL A   1      45.670  38.375  28.338  1.00  0.00    -0.744 OA
ENDBRANCH  88  91
ENDBRANCH  61  84
ENDBRANCH  35  36
ENDBRANCH  27  30
ENDBRANCH  25  26
ENDBRANCH   1  25
TORSDOF 15
ENDMDL
MODEL 3
REMARK VINA RESULT:     -12.8      2.534      8.092
REMARK SMILES C[C@H](C(=O)NCCCCNC(=O)c1ccc(-c2c3nc(c(-c4cccc(S(=O)(=O)[O-])c4F)c4ccc([nH]4)c(-c4cccc(S(=O)(=O)[O-])c4F)c4nc(c(-c5cccc(S(=O)(=O)[O-])c5F)c5ccc2[nH]5)C=C4)C=C3)cc1)c1ccc2c(c1)[nH]c1ccc(Cl)cc12
REMARK SMILES IDX 8 1 7 2 6 3 5 4 3 5 4 6 2 8 1 9 76 10 77 11 81 12 78 13
REMARK SMILES IDX 80 14 79 15 82 16 89 17 83 18 88 20 84 21 86 22 85 23 87 24
REMARK SMILES IDX 9 25 10 26 11 27 12 29 13 30 14 31 75 32 15 33 74 34 16 35
REMARK SMILES IDX 17 36 18 37 68 38 19 39 73 40 67 41 69 42 20 43 72 44 66 45
REMARK SMILES IDX 65 46 21 48 53 49 33 50 52 51 34 52 37 53 51 54 70 55 35 56
REMARK SMILES IDX 36 57 50 59 71 60 38 61 22 62 23 63 31 64 24 65 26 66 32 67
REMARK SMILES IDX 25 68 27 69 28 70 29 71 30 72 54 73 55 74 63 75 56 76 58 77
REMARK SMILES IDX 64 78 57 79 59 80 60 81 61 82 62 83 39 84 40 85 48 86 41 87
REMARK SMILES IDX 43 88 49 89 42 90 44 91 45 92 46 93 47 94
REMARK H PARENT 5 7 82 19 10 28 69 47 37 58
REMARK Flexibility Score: inf
ROOT
ATOM      1  C   UNL A   1      31.604  31.596  26.859  1.00  0.00     0.023 C 
ENDROOT
BRANCH   1   2
ATOM      2  C   UNL A   1      31.849  30.499  25.829  1.00  0.00     0.023 C 
BRANCH   2   3
ATOM      3  C   UNL A   1      33.144  29.703  25.932  1.00  0.00     0.116 C 
BRANCH   3   4
ATOM      4  N   UNL A   1      33.729  29.302  24.673  1.00  0.00    -0.356 N 
ATOM      5  C   UNL A   1      33.219  28.575  23.644  1.00  0.00     0.227 C 
ATOM      6  O   UNL A   1      33.834  28.692  22.572  1.00  0.00    -0.274 OA
ATOM      7  H   UNL A   1      34.654  29.609  24.536  1.00  0.00     0.163 HD
BRANCH   5   8
ATOM      8  C   UNL A   1      32.039  27.582  23.702  1.00  0.00     0.105 C 
ATOM      9  C   UNL A   1      31.005  28.104  22.680  1.00  0.00     0.023 C 
BRANCH   8  10
ATOM     10  C   UNL A   1      32.287  26.077  23.601  1.00  0.00    -0.034 A 
ATOM     11  C   UNL A   1      31.323  25.239  23.013  1.00  0.00     0.005 A 
ATOM     12  C   UNL A   1      33.474  25.494  24.080  1.00  0.00     0.031 A 
ATOM     13  C   UNL A   1      31.447  23.836  23.044  1.00  0.00     0.011 A 
ATOM     14  C   UNL A   1      33.599  24.100  24.069  1.00  0.00     0.047 A 
ATOM     15  C   UNL A   1      32.597  23.251  23.614  1.00  0.00     0.007 A 
ATOM     16  N   UNL A   1      34.641  23.316  24.496  1.00  0.00    -0.355 N 
ATOM     17  C   UNL A   1      33.017  21.911  23.913  1.00  0.00     0.009 A 
ATOM     18  C   UNL A   1      34.297  21.988  24.466  1.00  0.00     0.047 A 
ATOM     19  H   UNL A   1      35.517  23.660  24.784  1.00  0.00     0.167 HD
ATOM     20  C   UNL A   1      32.417  20.639  23.799  1.00  0.00     0.031 A 
ATOM     21  C   UNL A   1      35.017  20.871  24.902  1.00  0.00     0.028 A 
ATOM     22  C   UNL A   1      33.118  19.514  24.254  1.00  0.00     0.041 A 
ATOM     23  C   UNL A   1      34.396  19.625  24.794  1.00  0.00     0.022 A 
ATOM     24  Cl  UNL A   1      32.379  17.960  24.157  1.00  0.00    -0.084 Cl
ENDBRANCH   8  10
ENDBRANCH   5   8
ENDBRANCH   3   4
ENDBRANCH   2   3
ENDBRANCH   1   2
BRANCH   1  25
ATOM     25  C   UNL A   1      32.805  32.434  27.285  1.00  0.00     0.116 C 
BRANCH  25  26
ATOM     26  N   UNL A   1      32.491  33.821  27.597  1.00  0.00    -0.352 N 
ATOM     27  C   UNL A   1      33.093  34.704  28.466  1.00  0.00     0.251 C 
ATOM     28  H   UNL A   1      31.722  34.188  27.104  1.00  0.00     0.163 HD
ATOM     29  O   UNL A   1      32.628  35.829  28.594  1.00  0.00    -0.269 OA
BRANCH  27  30
ATOM     30  C   UNL A   1      34.261  34.291  29.282  1.00  0.00     0.039 A 
ATOM     31  C   UNL A   1      34.027  33.736  30.545  1.00  0.00     0.014 A 
ATOM     32  C   UNL A   1      35.569  34.425  28.818  1.00  0.00     0.014 A 
ATOM     33  C   UNL A   1      35.095  33.229  31.291  1.00  0.00     0.010 A 
ATOM     34  C   UNL A   1      36.621  33.838  29.521  1.00  0.00     0.010 A 
ATOM     35  C   UNL A   1      36.396  33.226  30.762  1.00  0.00    -0.014 A 
BRANCH  35  36
ATOM     36  C   UNL A   1      37.510  32.544  31.480  1.00  0.00     0.031 A 
ATOM     37  C   UNL A   1      38.230  31.375  30.863  1.00  0.00     0.074 A 
ATOM     38  C   UNL A   1      37.826  32.938  32.732  1.00  0.00     0.049 A 
ATOM     39  N   UNL A   1      39.220  30.669  31.348  1.00  0.00    -0.248 NA
ATOM     40  C   UNL A   1      37.765  30.920  29.542  1.00  0.00     0.031 C 
ATOM     41  C   UNL A   1      37.133  33.982  33.491  1.00  0.00     0.029 A 
ATOM     42  N   UNL A   1      38.797  32.494  33.595  1.00  0.00    -0.354 N 
ATOM     43  C   UNL A   1      39.480  29.678  30.408  1.00  0.00     0.074 A 
ATOM     44  C   UNL A   1      38.513  29.844  29.345  1.00  0.00     0.031 C 
ATOM     45  C   UNL A   1      37.707  34.105  34.699  1.00  0.00     0.029 A 
ATOM     46  C   UNL A   1      38.795  33.140  34.810  1.00  0.00     0.049 A 
ATOM     47  H   UNL A   1      39.436  31.780  33.366  1.00  0.00     0.167 HD
ATOM     48  C   UNL A   1      40.457  28.740  30.407  1.00  0.00     0.034 A 
ATOM     49  C   UNL A   1      39.582  32.978  35.893  1.00  0.00     0.034 A 
ATOM     50  C   UNL A   1      41.444  28.600  31.445  1.00  0.00     0.049 A 
ATOM     51  C   UNL A   1      40.706  31.979  35.834  1.00  0.00     0.074 A 
ATOM     52  C   UNL A   1      42.521  27.731  31.498  1.00  0.00     0.029 A 
ATOM     53  N   UNL A   1      41.478  29.347  32.612  1.00  0.00    -0.354 N 
ATOM     54  N   UNL A   1      41.041  31.170  34.859  1.00  0.00    -0.248 NA
ATOM     55  C   UNL A   1      41.589  31.904  37.007  1.00  0.00     0.031 C 
ATOM     56  C   UNL A   1      43.200  27.946  32.703  1.00  0.00     0.029 A 
ATOM     57  C   UNL A   1      42.556  28.962  33.391  1.00  0.00     0.049 A 
ATOM     58  H   UNL A   1      40.830  30.048  32.852  1.00  0.00     0.167 HD
ATOM     59  C   UNL A   1      42.186  30.509  35.289  1.00  0.00     0.074 A 
ATOM     60  C   UNL A   1      42.508  31.042  36.596  1.00  0.00     0.031 C 
ATOM     61  C   UNL A   1      42.893  29.532  34.670  1.00  0.00     0.034 A 
BRANCH  48  62
ATOM     62  C   UNL A   1      40.561  27.839  29.203  1.00  0.00     0.023 A 
ATOM     63  C   UNL A   1      39.687  26.737  29.094  1.00  0.00     0.012 A 
ATOM     64  C   UNL A   1      41.459  28.114  28.154  1.00  0.00     0.148 A 
ATOM     65  C   UNL A   1      39.725  25.905  27.977  1.00  0.00     0.002 A 
ATOM     66  C   UNL A   1      41.461  27.304  27.022  1.00  0.00     0.091 A 
ATOM     67  F   UNL A   1      42.293  29.155  28.281  1.00  0.00    -0.205 F 
ATOM     68  C   UNL A   1      40.604  26.195  26.937  1.00  0.00     0.022 A 
BRANCH  66  69
ATOM     69  S   UNL A   1      42.499  27.631  25.592  1.00  0.00     0.127 S 
ATOM     70  O   UNL A   1      43.827  27.689  26.198  1.00  0.00    -0.237 OA
ATOM     71  O   UNL A   1      42.258  26.451  24.762  1.00  0.00    -0.237 OA
ATOM     72  O   UNL A   1      42.019  28.884  25.024  1.00  0.00    -0.744 OA
ENDBRANCH  66  69
ENDBRANCH  48  62
BRANCH  49  73
ATOM     73  C   UNL A   1      39.383  33.835  37.097  1.00  0.00     0.023 A 
ATOM     74  C   UNL A   1      39.816  35.175  37.076  1.00  0.00     0.012 A 
ATOM     75  C   UNL A   1      38.757  33.335  38.255  1.00  0.00     0.148 A 
ATOM     76  C   UNL A   1      39.665  35.990  38.199  1.00  0.00     0.002 A 
ATOM     77  C   UNL A   1      38.556  34.170  39.349  1.00  0.00     0.091 A 
ATOM     78  F   UNL A   1      38.365  32.054  38.265  1.00  0.00    -0.205 F 
ATOM     79  C   UNL A   1      39.026  35.492  39.331  1.00  0.00     0.022 A 
BRANCH  77  80
ATOM     80  S   UNL A   1      37.618  33.646  40.789  1.00  0.00     0.127 S 
ATOM     81  O   UNL A   1      36.411  33.097  40.178  1.00  0.00    -0.237 OA
ATOM     82  O   UNL A   1      38.509  32.655  41.392  1.00  0.00    -0.237 OA
ATOM     83  O   UNL A   1      37.438  34.850  41.590  1.00  0.00    -0.744 OA
ENDBRANCH  77  80
ENDBRANCH  49  73
BRANCH  61  84
ATOM     84  C   UNL A   1      44.097  28.986  35.393  1.00  0.00     0.023 A 
ATOM     85  C   UNL A   1      45.356  29.591  35.207  1.00  0.00     0.012 A 
ATOM     86  C   UNL A   1      43.976  27.904  36.287  1.00  0.00     0.148 A 
ATOM     87  C   UNL A   1      46.484  29.101  35.863  1.00  0.00     0.002 A 
ATOM     88  C   UNL A   1      45.097  27.451  36.974  1.00  0.00     0.091 A 
ATOM     89  F   UNL A   1      42.776  27.327  36.437  1.00  0.00    -0.205 F 
ATOM     90  C   UNL A   1      46.353  28.038  36.754  1.00  0.00     0.022 A 
BRANCH  88  91
ATOM     91  S   UNL A   1      44.999  26.149  38.208  1.00  0.00     0.127 S 
ATOM     92  O   UNL A   1      46.398  26.012  38.609  1.00  0.00    -0.237 OA
ATOM     93  O   UNL A   1      44.130  26.743  39.225  1.00  0.00    -0.237 OA
ATOM     94  O   UNL A   1      44.424  24.998  37.525  1.00  0.00    -0.744 OA
ENDBRANCH  88  91
ENDBRANCH  61  84
ENDBRANCH  35  36
ENDBRANCH  27  30
ENDBRANCH  25  26
ENDBRANCH   1  25
TORSDOF 15
ENDMDL
