MODEL 1
REMARK VINA RESULT:     -11.0      0.000      0.000
REMARK SMILES O=C(CCNC(=O)C1CCCC1)NCCCCNC(=O)c1ccc(-c2c3nc(c(-c4cccc(S(=O)(=O)[O-])c4F)c4ccc([nH]4)c(-c4cccc(S(=O)(=O)[O-])c4F)c4nc(c(-c5cccc(S(=O)(=O)[O-])c5F)c5ccc2[nH]5)C=C4)C=C3)cc1
REMARK SMILES IDX 15 1 14 2 13 3 1 4 2 5 3 7 4 8 5 9 6 10 7 12 8 13 9 14 12 15
REMARK SMILES IDX 10 16 11 17 16 18 17 19 18 20 19 21 20 23 21 24 22 25 83 26
REMARK SMILES IDX 23 27 82 28 24 29 25 30 26 31 76 32 27 33 81 34 75 35 77 36
REMARK SMILES IDX 28 37 80 38 74 39 73 40 29 42 61 43 41 44 60 45 42 46 45 47
REMARK SMILES IDX 59 48 78 49 43 50 44 51 58 53 79 54 46 55 30 56 31 57 39 58
REMARK SMILES IDX 32 59 34 60 40 61 33 62 35 63 36 64 37 65 38 66 62 67 63 68
REMARK SMILES IDX 71 69 64 70 66 71 72 72 65 73 67 74 68 75 69 76 70 77 47 78
REMARK SMILES IDX 48 79 56 80 49 81 51 82 57 83 50 84 52 85 53 86 54 87 55 88
REMARK H PARENT 13 6 5 11 18 22 77 41 45 52
REMARK Flexibility Score: inf
ROOT
ATOM      1  C   UNL A   1      33.912  28.587  25.116  1.00  0.00     0.023 C 
ENDROOT
BRANCH   1   2
ATOM      2  C   UNL A   1      33.686  27.349  25.980  1.00  0.00     0.116 C 
BRANCH   2   3
ATOM      3  N   UNL A   1      32.721  26.443  25.392  1.00  0.00    -0.356 N 
ATOM      4  O   UNL A   1      31.377  26.249  27.250  1.00  0.00    -0.275 OA
ATOM      5  C   UNL A   1      31.624  25.976  26.080  1.00  0.00     0.221 C 
ATOM      6  H   UNL A   1      32.854  26.148  24.462  1.00  0.00     0.163 HD
BRANCH   5   7
ATOM      7  C   UNL A   1      30.705  25.108  25.251  1.00  0.00     0.121 C 
BRANCH   7   8
ATOM      8  C   UNL A   1      29.690  25.966  24.503  1.00  0.00     0.125 C 
BRANCH   8   9
ATOM      9  N   UNL A   1      30.284  26.618  23.347  1.00  0.00    -0.355 N 
ATOM     10  C   UNL A   1      30.073  27.831  22.774  1.00  0.00     0.223 C 
ATOM     11  H   UNL A   1      30.969  26.078  22.893  1.00  0.00     0.163 HD
ATOM     12  O   UNL A   1      30.650  28.033  21.702  1.00  0.00    -0.275 OA
BRANCH  10  13
ATOM     13  C   UNL A   1      29.224  28.918  23.414  1.00  0.00     0.078 C 
ATOM     14  C   UNL A   1      29.705  30.352  23.240  1.00  0.00     0.013 C 
ATOM     15  C   UNL A   1      27.774  28.912  22.933  1.00  0.00     0.013 C 
ATOM     16  C   UNL A   1      28.466  31.195  23.503  1.00  0.00     0.001 C 
ATOM     17  C   UNL A   1      27.277  30.349  23.061  1.00  0.00     0.001 C 
ENDBRANCH  10  13
ENDBRANCH   8   9
ENDBRANCH   7   8
ENDBRANCH   5   7
ENDBRANCH   2   3
ENDBRANCH   1   2
BRANCH   1  18
ATOM     18  C   UNL A   1      32.753  29.588  25.098  1.00  0.00     0.023 C 
BRANCH  18  19
ATOM     19  C   UNL A   1      32.244  30.027  26.467  1.00  0.00     0.116 C 
BRANCH  19  20
ATOM     20  N   UNL A   1      32.249  31.474  26.630  1.00  0.00    -0.352 N 
ATOM     21  C   UNL A   1      33.128  32.271  27.323  1.00  0.00     0.251 C 
ATOM     22  H   UNL A   1      31.515  31.950  26.178  1.00  0.00     0.163 HD
ATOM     23  O   UNL A   1      32.872  33.465  27.477  1.00  0.00    -0.269 OA
BRANCH  21  24
ATOM     24  C   UNL A   1      34.362  31.698  27.905  1.00  0.00     0.039 A 
ATOM     25  C   UNL A   1      35.459  32.538  28.122  1.00  0.00     0.014 A 
ATOM     26  C   UNL A   1      34.446  30.342  28.235  1.00  0.00     0.014 A 
ATOM     27  C   UNL A   1      36.612  32.032  28.731  1.00  0.00     0.010 A 
ATOM     28  C   UNL A   1      35.564  29.860  28.911  1.00  0.00     0.010 A 
ATOM     29  C   UNL A   1      36.661  30.698  29.166  1.00  0.00    -0.014 A 
BRANCH  29  30
ATOM     30  C   UNL A   1      37.838  30.169  29.906  1.00  0.00     0.031 A 
ATOM     31  C   UNL A   1      38.125  30.622  31.313  1.00  0.00     0.074 A 
ATOM     32  C   UNL A   1      38.700  29.341  29.281  1.00  0.00     0.049 A 
ATOM     33  N   UNL A   1      39.129  30.309  32.092  1.00  0.00    -0.248 NA
ATOM     34  C   UNL A   1      37.174  31.570  31.916  1.00  0.00     0.031 C 
ATOM     35  C   UNL A   1      38.579  28.886  27.895  1.00  0.00     0.029 A 
ATOM     36  N   UNL A   1      39.863  28.759  29.720  1.00  0.00    -0.354 N 
ATOM     37  C   UNL A   1      38.951  31.045  33.259  1.00  0.00     0.074 A 
ATOM     38  C   UNL A   1      37.761  31.846  33.072  1.00  0.00     0.031 C 
ATOM     39  C   UNL A   1      39.622  28.094  27.599  1.00  0.00     0.029 A 
ATOM     40  C   UNL A   1      40.505  28.012  28.758  1.00  0.00     0.049 A 
ATOM     41  H   UNL A   1      40.207  28.864  30.637  1.00  0.00     0.167 HD
ATOM     42  C   UNL A   1      39.694  31.038  34.391  1.00  0.00     0.034 A 
ATOM     43  C   UNL A   1      41.677  27.349  28.797  1.00  0.00     0.034 A 
ATOM     44  C   UNL A   1      40.862  30.220  34.585  1.00  0.00     0.049 A 
ATOM     45  C   UNL A   1      42.471  27.337  30.075  1.00  0.00     0.074 A 
ATOM     46  C   UNL A   1      41.632  30.078  35.726  1.00  0.00     0.029 A 
ATOM     47  N   UNL A   1      41.439  29.418  33.611  1.00  0.00    -0.354 N 
ATOM     48  N   UNL A   1      42.201  27.914  31.220  1.00  0.00    -0.248 NA
ATOM     49  C   UNL A   1      43.715  26.554  30.077  1.00  0.00     0.031 C 
ATOM     50  C   UNL A   1      42.696  29.218  35.432  1.00  0.00     0.029 A 
ATOM     51  C   UNL A   1      42.564  28.791  34.120  1.00  0.00     0.049 A 
ATOM     52  H   UNL A   1      41.099  29.311  32.694  1.00  0.00     0.167 HD
ATOM     53  C   UNL A   1      43.218  27.534  32.089  1.00  0.00     0.074 A 
ATOM     54  C   UNL A   1      44.099  26.661  31.343  1.00  0.00     0.031 C 
ATOM     55  C   UNL A   1      43.409  27.886  33.385  1.00  0.00     0.034 A 
BRANCH  42  56
ATOM     56  C   UNL A   1      39.243  31.917  35.531  1.00  0.00     0.023 A 
ATOM     57  C   UNL A   1      39.528  33.298  35.502  1.00  0.00     0.012 A 
ATOM     58  C   UNL A   1      38.489  31.391  36.598  1.00  0.00     0.148 A 
ATOM     59  C   UNL A   1      39.107  34.134  36.535  1.00  0.00     0.002 A 
ATOM     60  C   UNL A   1      38.030  32.239  37.600  1.00  0.00     0.091 A 
ATOM     61  F   UNL A   1      38.241  30.074  36.619  1.00  0.00    -0.205 F 
ATOM     62  C   UNL A   1      38.351  33.606  37.578  1.00  0.00     0.022 A 
BRANCH  60  63
ATOM     63  S   UNL A   1      36.978  31.675  38.943  1.00  0.00     0.127 S 
ATOM     64  O   UNL A   1      35.877  32.635  38.878  1.00  0.00    -0.237 OA
ATOM     65  O   UNL A   1      36.632  30.321  38.511  1.00  0.00    -0.237 OA
ATOM     66  O   UNL A   1      37.793  31.739  40.148  1.00  0.00    -0.744 OA
ENDBRANCH  60  63
ENDBRANCH  42  56
BRANCH  43  67
ATOM     67  C   UNL A   1      42.146  26.594  27.599  1.00  0.00     0.023 A 
ATOM     68  C   UNL A   1      42.868  27.268  26.595  1.00  0.00     0.012 A 
ATOM     69  C   UNL A   1      41.902  25.214  27.461  1.00  0.00     0.148 A 
ATOM     70  C   UNL A   1      43.308  26.589  25.458  1.00  0.00     0.002 A 
ATOM     71  C   UNL A   1      42.393  24.532  26.354  1.00  0.00     0.091 A 
ATOM     72  F   UNL A   1      41.206  24.593  28.424  1.00  0.00    -0.205 F 
ATOM     73  C   UNL A   1      43.080  25.221  25.343  1.00  0.00     0.022 A 
BRANCH  71  74
ATOM     74  S   UNL A   1      42.261  22.749  26.182  1.00  0.00     0.127 S 
ATOM     75  O   UNL A   1      42.912  22.524  24.893  1.00  0.00    -0.237 OA
ATOM     76  O   UNL A   1      43.016  22.279  27.344  1.00  0.00    -0.237 OA
ATOM     77  O   UNL A   1      40.837  22.450  26.230  1.00  0.00    -0.744 OA
ENDBRANCH  71  74
ENDBRANCH  43  67
BRANCH  55  78
ATOM     78  C   UNL A   1      44.595  27.294  34.104  1.00  0.00     0.023 A 
ATOM     79  C   UNL A   1      45.838  27.958  34.083  1.00  0.00     0.012 A 
ATOM     80  C   UNL A   1      44.455  26.114  34.862  1.00  0.00     0.148 A 
ATOM     81  C   UNL A   1      46.931  27.438  34.774  1.00  0.00     0.002 A 
ATOM     82  C   UNL A   1      45.534  25.631  35.592  1.00  0.00     0.091 A 
ATOM     83  F   UNL A   1      43.270  25.487  34.856  1.00  0.00    -0.205 F 
ATOM     84  C   UNL A   1      46.776  26.282  35.538  1.00  0.00     0.022 A 
BRANCH  82  85
ATOM     85  S   UNL A   1      45.403  24.207  36.680  1.00  0.00     0.127 S 
ATOM     86  O   UNL A   1      46.795  24.009  37.080  1.00  0.00    -0.237 OA
ATOM     87  O   UNL A   1      44.529  24.709  37.741  1.00  0.00    -0.237 OA
ATOM     88  O   UNL A   1      44.826  23.137  35.877  1.00  0.00    -0.744 OA
ENDBRANCH  82  85
ENDBRANCH  55  78
ENDBRANCH  29  30
ENDBRANCH  21  24
ENDBRANCH  19  20
ENDBRANCH  18  19
ENDBRANCH   1  18
TORSDOF 17
ENDMDL
MODEL 2
REMARK VINA RESULT:     -10.9      2.692      8.784
REMARK SMILES O=C(CCNC(=O)C1CCCC1)NCCCCNC(=O)c1ccc(-c2c3nc(c(-c4cccc(S(=O)(=O)[O-])c4F)c4ccc([nH]4)c(-c4cccc(S(=O)(=O)[O-])c4F)c4nc(c(-c5cccc(S(=O)(=O)[O-])c5F)c5ccc2[nH]5)C=C4)C=C3)cc1
REMARK SMILES IDX 15 1 14 2 13 3 1 4 2 5 3 7 4 8 5 9 6 10 7 12 8 13 9 14 12 15
REMARK SMILES IDX 10 16 11 17 16 18 17 19 18 20 19 21 20 23 21 24 22 25 83 26
REMARK SMILES IDX 23 27 82 28 24 29 25 30 26 31 76 32 27 33 81 34 75 35 77 36
REMARK SMILES IDX 28 37 80 38 74 39 73 40 29 42 61 43 41 44 60 45 42 46 45 47
REMARK SMILES IDX 59 48 78 49 43 50 44 51 58 53 79 54 46 55 30 56 31 57 39 58
REMARK SMILES IDX 32 59 34 60 40 61 33 62 35 63 36 64 37 65 38 66 62 67 63 68
REMARK SMILES IDX 71 69 64 70 66 71 72 72 65 73 67 74 68 75 69 76 70 77 47 78
REMARK SMILES IDX 48 79 56 80 49 81 51 82 57 83 50 84 52 85 53 86 54 87 55 88
REMARK H PARENT 13 6 5 11 18 22 77 41 45 52
REMARK Flexibility Score: inf
ROOT
ATOM      1  C   UNL A   1      31.784  30.505  26.361  1.00  0.00     0.023 C 
ENDROOT
BRANCH   1   2
ATOM      2  C   UNL A   1      33.167  29.958  26.706  1.00  0.00     0.116 C 
BRANCH   2   3
ATOM      3  N   UNL A   1      33.178  28.511  26.781  1.00  0.00    -0.356 N 
ATOM      4  O   UNL A   1      33.489  28.134  24.533  1.00  0.00    -0.275 OA
ATOM      5  C   UNL A   1      33.357  27.710  25.677  1.00  0.00     0.221 C 
ATOM      6  H   UNL A   1      33.052  28.083  27.659  1.00  0.00     0.163 HD
BRANCH   5   7
ATOM      7  C   UNL A   1      33.416  26.234  25.994  1.00  0.00     0.121 C 
BRANCH   7   8
ATOM      8  C   UNL A   1      32.815  25.417  24.856  1.00  0.00     0.125 C 
BRANCH   8   9
ATOM      9  N   UNL A   1      33.838  24.931  23.943  1.00  0.00    -0.355 N 
ATOM     10  C   UNL A   1      34.423  23.715  23.790  1.00  0.00     0.223 C 
ATOM     11  H   UNL A   1      34.170  25.613  23.317  1.00  0.00     0.163 HD
ATOM     12  O   UNL A   1      35.372  23.664  23.004  1.00  0.00    -0.275 OA
BRANCH  10  13
ATOM     13  C   UNL A   1      33.930  22.460  24.494  1.00  0.00     0.078 C 
ATOM     14  C   UNL A   1      32.812  21.687  23.806  1.00  0.00     0.013 C 
ATOM     15  C   UNL A   1      35.036  21.439  24.750  1.00  0.00     0.013 C 
ATOM     16  C   UNL A   1      32.891  20.297  24.419  1.00  0.00     0.001 C 
ATOM     17  C   UNL A   1      34.356  20.072  24.773  1.00  0.00     0.001 C 
ENDBRANCH  10  13
ENDBRANCH   8   9
ENDBRANCH   7   8
ENDBRANCH   5   7
ENDBRANCH   2   3
ENDBRANCH   1   2
BRANCH   1  18
ATOM     18  C   UNL A   1      31.568  31.984  26.692  1.00  0.00     0.023 C 
BRANCH  18  19
ATOM     19  C   UNL A   1      32.764  32.699  27.314  1.00  0.00     0.116 C 
BRANCH  19  20
ATOM     20  N   UNL A   1      32.467  34.076  27.680  1.00  0.00    -0.352 N 
ATOM     21  C   UNL A   1      33.026  34.857  28.662  1.00  0.00     0.251 C 
ATOM     22  H   UNL A   1      31.762  34.509  27.147  1.00  0.00     0.163 HD
ATOM     23  O   UNL A   1      32.528  35.951  28.925  1.00  0.00    -0.269 OA
BRANCH  21  24
ATOM     24  C   UNL A   1      34.205  34.381  29.421  1.00  0.00     0.039 A 
ATOM     25  C   UNL A   1      34.004  33.736  30.646  1.00  0.00     0.014 A 
ATOM     26  C   UNL A   1      35.502  34.567  28.935  1.00  0.00     0.014 A 
ATOM     27  C   UNL A   1      35.098  33.220  31.347  1.00  0.00     0.010 A 
ATOM     28  C   UNL A   1      36.581  33.985  29.597  1.00  0.00     0.010 A 
ATOM     29  C   UNL A   1      36.393  33.306  30.811  1.00  0.00    -0.014 A 
BRANCH  29  30
ATOM     30  C   UNL A   1      37.555  32.675  31.492  1.00  0.00     0.031 A 
ATOM     31  C   UNL A   1      38.277  31.516  30.859  1.00  0.00     0.074 A 
ATOM     32  C   UNL A   1      37.911  33.092  32.725  1.00  0.00     0.049 A 
ATOM     33  N   UNL A   1      39.275  30.810  31.327  1.00  0.00    -0.248 NA
ATOM     34  C   UNL A   1      37.802  31.075  29.537  1.00  0.00     0.031 C 
ATOM     35  C   UNL A   1      37.245  34.154  33.482  1.00  0.00     0.029 A 
ATOM     36  N   UNL A   1      38.900  32.654  33.570  1.00  0.00    -0.354 N 
ATOM     37  C   UNL A   1      39.523  29.824  30.379  1.00  0.00     0.074 A 
ATOM     38  C   UNL A   1      38.550  30.002  29.324  1.00  0.00     0.031 C 
ATOM     39  C   UNL A   1      37.846  34.288  34.675  1.00  0.00     0.029 A 
ATOM     40  C   UNL A   1      38.915  33.300  34.785  1.00  0.00     0.049 A 
ATOM     41  H   UNL A   1      39.541  31.946  33.329  1.00  0.00     0.167 HD
ATOM     42  C   UNL A   1      40.487  28.873  30.373  1.00  0.00     0.034 A 
ATOM     43  C   UNL A   1      39.689  33.110  35.872  1.00  0.00     0.034 A 
ATOM     44  C   UNL A   1      41.472  28.715  31.410  1.00  0.00     0.049 A 
ATOM     45  C   UNL A   1      40.768  32.063  35.830  1.00  0.00     0.074 A 
ATOM     46  C   UNL A   1      42.541  27.837  31.454  1.00  0.00     0.029 A 
ATOM     47  N   UNL A   1      41.500  29.438  32.593  1.00  0.00    -0.354 N 
ATOM     48  N   UNL A   1      41.088  31.245  34.857  1.00  0.00    -0.248 NA
ATOM     49  C   UNL A   1      41.617  31.936  37.023  1.00  0.00     0.031 C 
ATOM     50  C   UNL A   1      43.195  28.005  32.679  1.00  0.00     0.029 A 
ATOM     51  C   UNL A   1      42.559  29.016  33.380  1.00  0.00     0.049 A 
ATOM     52  H   UNL A   1      40.863  30.146  32.837  1.00  0.00     0.167 HD
ATOM     53  C   UNL A   1      42.195  30.534  35.304  1.00  0.00     0.074 A 
ATOM     54  C   UNL A   1      42.504  31.032  36.628  1.00  0.00     0.031 C 
ATOM     55  C   UNL A   1      42.888  29.550  34.677  1.00  0.00     0.034 A 
BRANCH  42  56
ATOM     56  C   UNL A   1      40.551  27.947  29.184  1.00  0.00     0.023 A 
ATOM     57  C   UNL A   1      39.635  26.880  29.081  1.00  0.00     0.012 A 
ATOM     58  C   UNL A   1      41.474  28.165  28.143  1.00  0.00     0.148 A 
ATOM     59  C   UNL A   1      39.663  26.021  27.983  1.00  0.00     0.002 A 
ATOM     60  C   UNL A   1      41.464  27.334  27.028  1.00  0.00     0.091 A 
ATOM     61  F   UNL A   1      42.349  29.174  28.264  1.00  0.00    -0.205 F 
ATOM     62  C   UNL A   1      40.570  26.254  26.953  1.00  0.00     0.022 A 
BRANCH  60  63
ATOM     63  S   UNL A   1      42.535  27.600  25.610  1.00  0.00     0.127 S 
ATOM     64  O   UNL A   1      41.995  28.843  25.061  1.00  0.00    -0.237 OA
ATOM     65  O   UNL A   1      43.849  27.732  26.239  1.00  0.00    -0.237 OA
ATOM     66  O   UNL A   1      42.382  26.425  24.764  1.00  0.00    -0.744 OA
ENDBRANCH  60  63
ENDBRANCH  42  56
BRANCH  43  67
ATOM     67  C   UNL A   1      39.504  33.970  37.076  1.00  0.00     0.023 A 
ATOM     68  C   UNL A   1      39.922  35.314  37.038  1.00  0.00     0.012 A 
ATOM     69  C   UNL A   1      38.897  33.472  38.245  1.00  0.00     0.148 A 
ATOM     70  C   UNL A   1      39.771  36.138  38.154  1.00  0.00     0.002 A 
ATOM     71  C   UNL A   1      38.698  34.314  39.334  1.00  0.00     0.091 A 
ATOM     72  F   UNL A   1      38.514  32.188  38.264  1.00  0.00    -0.205 F 
ATOM     73  C   UNL A   1      39.151  35.641  39.297  1.00  0.00     0.022 A 
BRANCH  71  74
ATOM     74  S   UNL A   1      37.793  33.801  40.798  1.00  0.00     0.127 S 
ATOM     75  O   UNL A   1      36.590  33.210  40.214  1.00  0.00    -0.237 OA
ATOM     76  O   UNL A   1      38.719  32.842  41.403  1.00  0.00    -0.237 OA
ATOM     77  O   UNL A   1      37.585  35.011  41.580  1.00  0.00    -0.744 OA
ENDBRANCH  71  74
ENDBRANCH  43  67
BRANCH  55  78
ATOM     78  C   UNL A   1      44.081  28.968  35.392  1.00  0.00     0.023 A 
ATOM     79  C   UNL A   1      45.357  29.540  35.218  1.00  0.00     0.012 A 
ATOM     80  C   UNL A   1      43.921  27.896  36.293  1.00  0.00     0.148 A 
ATOM     81  C   UNL A   1      46.461  29.030  35.902  1.00  0.00     0.002 A 
ATOM     82  C   UNL A   1      45.015  27.430  37.012  1.00  0.00     0.091 A 
ATOM     83  F   UNL A   1      42.702  27.354  36.432  1.00  0.00    -0.205 F 
ATOM     84  C   UNL A   1      46.287  27.985  36.807  1.00  0.00     0.022 A 
BRANCH  82  85
ATOM     85  S   UNL A   1      44.870  26.154  38.270  1.00  0.00     0.127 S 
ATOM     86  O   UNL A   1      44.428  25.006  37.480  1.00  0.00    -0.237 OA
ATOM     87  O   UNL A   1      46.242  26.058  38.770  1.00  0.00    -0.237 OA
ATOM     88  O   UNL A   1      43.906  26.653  39.241  1.00  0.00    -0.744 OA
ENDBRANCH  82  85
ENDBRANCH  55  78
ENDBRANCH  29  30
ENDBRANCH  21  24
ENDBRANCH  19  20
ENDBRANCH  18  19
ENDBRANCH   1  18
TORSDOF 17
ENDMDL
MODEL 3
REMARK VINA RESULT:     -10.8      5.585     10.629
REMARK SMILES O=C(CCNC(=O)C1CCCC1)NCCCCNC(=O)c1ccc(-c2c3nc(c(-c4cccc(S(=O)(=O)[O-])c4F)c4ccc([nH]4)c(-c4cccc(S(=O)(=O)[O-])c4F)c4nc(c(-c5cccc(S(=O)(=O)[O-])c5F)c5ccc2[nH]5)C=C4)C=C3)cc1
REMARK SMILES IDX 15 1 14 2 13 3 1 4 2 5 3 7 4 8 5 9 6 10 7 12 8 13 9 14 12 15
REMARK SMILES IDX 10 16 11 17 16 18 17 19 18 20 19 21 20 23 21 24 22 25 83 26
REMARK SMILES IDX 23 27 82 28 24 29 25 30 26 31 76 32 27 33 81 34 75 35 77 36
REMARK SMILES IDX 28 37 80 38 74 39 73 40 29 42 61 43 41 44 60 45 42 46 45 47
REMARK SMILES IDX 59 48 78 49 43 50 44 51 58 53 79 54 46 55 30 56 31 57 39 58
REMARK SMILES IDX 32 59 34 60 40 61 33 62 35 63 36 64 37 65 38 66 62 67 63 68
REMARK SMILES IDX 71 69 64 70 66 71 72 72 65 73 67 74 68 75 69 76 70 77 47 78
REMARK SMILES IDX 48 79 56 80 49 81 51 82 57 83 50 84 52 85 53 86 54 87 55 88
REMARK H PARENT 13 6 5 11 18 22 77 41 45 52
REMARK Flexibility Score: inf
ROOT
ATOM      1  C   UNL A   1      35.260  21.889  26.571  1.00  0.00     0.023 C 
ENDROOT
BRANCH   1   2
ATOM      2  C   UNL A   1      33.866  21.406  26.964  1.00  0.00     0.116 C 
BRANCH   2   3
ATOM      3  N   UNL A   1      32.831  22.326  26.541  1.00  0.00    -0.356 N 
ATOM      4  O   UNL A   1      31.808  20.902  25.051  1.00  0.00    -0.275 OA
ATOM      5  C   UNL A   1      31.866  21.987  25.620  1.00  0.00     0.221 C 
ATOM      6  H   UNL A   1      32.816  23.231  26.928  1.00  0.00     0.163 HD
BRANCH   5   7
ATOM      7  C   UNL A   1      30.837  23.068  25.386  1.00  0.00     0.121 C 
BRANCH   7   8
ATOM      8  C   UNL A   1      31.130  23.813  24.088  1.00  0.00     0.125 C 
BRANCH   8   9
ATOM      9  N   UNL A   1      32.316  23.294  23.425  1.00  0.00    -0.355 N 
ATOM     10  C   UNL A   1      33.532  23.841  23.167  1.00  0.00     0.223 C 
ATOM     11  H   UNL A   1      32.219  22.370  23.101  1.00  0.00     0.163 HD
ATOM     12  O   UNL A   1      34.286  23.176  22.453  1.00  0.00    -0.275 OA
BRANCH  10  13
ATOM     13  C   UNL A   1      33.988  25.169  23.752  1.00  0.00     0.078 C 
ATOM     14  C   UNL A   1      33.215  26.407  23.317  1.00  0.00     0.013 C 
ATOM     15  C   UNL A   1      33.974  25.192  25.279  1.00  0.00     0.013 C 
ATOM     16  C   UNL A   1      33.525  27.436  24.394  1.00  0.00     0.001 C 
ATOM     17  C   UNL A   1      33.751  26.648  25.680  1.00  0.00     0.001 C 
ENDBRANCH  10  13
ENDBRANCH   8   9
ENDBRANCH   7   8
ENDBRANCH   5   7
ENDBRANCH   2   3
ENDBRANCH   1   2
BRANCH   1  18
ATOM     18  C   UNL A   1      35.780  21.354  25.233  1.00  0.00     0.023 C 
BRANCH  18  19
ATOM     19  C   UNL A   1      37.235  21.684  24.916  1.00  0.00     0.116 C 
BRANCH  19  20
ATOM     20  N   UNL A   1      38.162  20.681  25.421  1.00  0.00    -0.352 N 
ATOM     21  C   UNL A   1      39.359  20.851  26.073  1.00  0.00     0.251 C 
ATOM     22  H   UNL A   1      37.891  19.747  25.272  1.00  0.00     0.163 HD
ATOM     23  O   UNL A   1      40.080  19.875  26.280  1.00  0.00    -0.269 OA
BRANCH  21  24
ATOM     24  C   UNL A   1      39.796  22.198  26.503  1.00  0.00     0.039 A 
ATOM     25  C   UNL A   1      40.696  22.308  27.568  1.00  0.00     0.014 A 
ATOM     26  C   UNL A   1      39.325  23.350  25.867  1.00  0.00     0.014 A 
ATOM     27  C   UNL A   1      41.173  23.566  27.949  1.00  0.00     0.010 A 
ATOM     28  C   UNL A   1      39.860  24.593  26.197  1.00  0.00     0.010 A 
ATOM     29  C   UNL A   1      40.789  24.717  27.241  1.00  0.00    -0.014 A 
BRANCH  29  30
ATOM     30  C   UNL A   1      41.363  26.051  27.566  1.00  0.00     0.031 A 
ATOM     31  C   UNL A   1      42.786  26.380  27.201  1.00  0.00     0.074 A 
ATOM     32  C   UNL A   1      40.628  26.939  28.265  1.00  0.00     0.049 A 
ATOM     33  N   UNL A   1      43.470  27.468  27.448  1.00  0.00    -0.248 NA
ATOM     34  C   UNL A   1      43.551  25.344  26.488  1.00  0.00     0.031 C 
ATOM     35  C   UNL A   1      39.263  26.715  28.745  1.00  0.00     0.029 A 
ATOM     36  N   UNL A   1      40.935  28.198  28.718  1.00  0.00    -0.354 N 
ATOM     37  C   UNL A   1      44.749  27.236  26.955  1.00  0.00     0.074 A 
ATOM     38  C   UNL A   1      44.756  25.891  26.424  1.00  0.00     0.031 C 
ATOM     39  C   UNL A   1      38.850  27.799  29.421  1.00  0.00     0.029 A 
ATOM     40  C   UNL A   1      39.929  28.781  29.455  1.00  0.00     0.049 A 
ATOM     41  H   UNL A   1      41.794  28.644  28.533  1.00  0.00     0.167 HD
ATOM     42  C   UNL A   1      45.814  28.072  26.923  1.00  0.00     0.034 A 
ATOM     43  C   UNL A   1      39.884  29.963  30.100  1.00  0.00     0.034 A 
ATOM     44  C   UNL A   1      45.797  29.421  27.426  1.00  0.00     0.049 A 
ATOM     45  C   UNL A   1      41.072  30.884  30.029  1.00  0.00     0.074 A 
ATOM     46  C   UNL A   1      46.797  30.374  27.363  1.00  0.00     0.029 A 
ATOM     47  N   UNL A   1      44.733  30.001  28.101  1.00  0.00    -0.354 N 
ATOM     48  N   UNL A   1      42.218  30.707  29.419  1.00  0.00    -0.248 NA
ATOM     49  C   UNL A   1      40.946  32.183  30.704  1.00  0.00     0.031 C 
ATOM     50  C   UNL A   1      46.352  31.521  28.030  1.00  0.00     0.029 A 
ATOM     51  C   UNL A   1      45.059  31.296  28.472  1.00  0.00     0.049 A 
ATOM     52  H   UNL A   1      43.874  29.560  28.288  1.00  0.00     0.167 HD
ATOM     53  C   UNL A   1      42.935  31.883  29.604  1.00  0.00     0.074 A 
ATOM     54  C   UNL A   1      42.086  32.774  30.366  1.00  0.00     0.031 C 
ATOM     55  C   UNL A   1      44.189  32.192  29.190  1.00  0.00     0.034 A 
BRANCH  42  56
ATOM     56  C   UNL A   1      47.083  27.567  26.285  1.00  0.00     0.023 A 
ATOM     57  C   UNL A   1      48.006  26.831  27.057  1.00  0.00     0.012 A 
ATOM     58  C   UNL A   1      47.337  27.767  24.914  1.00  0.00     0.148 A 
ATOM     59  C   UNL A   1      49.179  26.338  26.486  1.00  0.00     0.002 A 
ATOM     60  C   UNL A   1      48.484  27.231  24.340  1.00  0.00     0.091 A 
ATOM     61  F   UNL A   1      46.457  28.483  24.199  1.00  0.00    -0.205 F 
ATOM     62  C   UNL A   1      49.413  26.530  25.127  1.00  0.00     0.022 A 
BRANCH  60  63
ATOM     63  S   UNL A   1      48.837  27.349  22.583  1.00  0.00     0.127 S 
ATOM     64  O   UNL A   1      50.281  27.577  22.586  1.00  0.00    -0.237 OA
ATOM     65  O   UNL A   1      48.430  26.030  22.099  1.00  0.00    -0.237 OA
ATOM     66  O   UNL A   1      48.031  28.455  22.083  1.00  0.00    -0.744 OA
ENDBRANCH  60  63
ENDBRANCH  42  56
BRANCH  43  67
ATOM     67  C   UNL A   1      38.646  30.367  30.826  1.00  0.00     0.023 A 
ATOM     68  C   UNL A   1      38.508  30.048  32.191  1.00  0.00     0.012 A 
ATOM     69  C   UNL A   1      37.619  31.085  30.182  1.00  0.00     0.148 A 
ATOM     70  C   UNL A   1      37.356  30.404  32.893  1.00  0.00     0.002 A 
ATOM     71  C   UNL A   1      36.499  31.487  30.901  1.00  0.00     0.091 A 
ATOM     72  F   UNL A   1      37.766  31.372  28.881  1.00  0.00    -0.205 F 
ATOM     73  C   UNL A   1      36.357  31.131  32.251  1.00  0.00     0.022 A 
BRANCH  71  74
ATOM     74  S   UNL A   1      35.224  32.536  30.195  1.00  0.00     0.127 S 
ATOM     75  O   UNL A   1      34.296  32.674  31.315  1.00  0.00    -0.237 OA
ATOM     76  O   UNL A   1      35.979  33.746  29.867  1.00  0.00    -0.237 OA
ATOM     77  O   UNL A   1      34.713  31.815  29.038  1.00  0.00    -0.744 OA
ENDBRANCH  71  74
ENDBRANCH  43  67
BRANCH  55  78
ATOM     78  C   UNL A   1      44.713  33.570  29.509  1.00  0.00     0.023 A 
ATOM     79  C   UNL A   1      45.346  33.817  30.744  1.00  0.00     0.012 A 
ATOM     80  C   UNL A   1      44.640  34.602  28.551  1.00  0.00     0.148 A 
ATOM     81  C   UNL A   1      45.865  35.078  31.034  1.00  0.00     0.002 A 
ATOM     82  C   UNL A   1      45.208  35.839  28.826  1.00  0.00     0.091 A 
ATOM     83  F   UNL A   1      44.020  34.352  27.389  1.00  0.00    -0.205 F 
ATOM     84  C   UNL A   1      45.808  36.084  30.072  1.00  0.00     0.022 A 
BRANCH  82  85
ATOM     85  S   UNL A   1      45.269  37.164  27.614  1.00  0.00     0.127 S 
ATOM     86  O   UNL A   1      43.850  37.390  27.348  1.00  0.00    -0.237 OA
ATOM     87  O   UNL A   1      45.928  38.236  28.361  1.00  0.00    -0.237 OA
ATOM     88  O   UNL A   1      46.040  36.647  26.490  1.00  0.00    -0.744 OA
ENDBRANCH  82  85
ENDBRANCH  55  78
ENDBRANCH  29  30
ENDBRANCH  21  24
ENDBRANCH  19  20
ENDBRANCH  18  19
ENDBRANCH   1  18
TORSDOF 17
ENDMDL
