MODEL 1
REMARK VINA RESULT:     -12.9      0.000      0.000
REMARK SMILES Cc1cc(C)c(NS(=O)(=O)c2cccc3cc(C)cnc23)c(C(=O)NCCCCNC(=O)c2ccc(-c3c4nc(c(-c5cccc(S(=O)(=O)[O-])c5F)c5ccc([nH]5)c(-c5cccc(S(=O)(=O)[O-])c5F)c5nc(c(-c6cccc(S(=O)(=O)[O-])c6F)c6ccc3[nH]6)C=C5)C=C4)cc2)c1
REMARK SMILES IDX 27 1 26 2 25 3 23 4 24 5 22 7 1 8 2 9 3 10 96 11 4 12 5 13
REMARK SMILES IDX 6 14 7 15 8 17 9 18 10 19 11 20 12 21 21 22 13 23 15 24
REMARK SMILES IDX 20 25 14 26 16 27 19 28 17 29 18 30 28 31 29 32 30 33 31 34
REMARK SMILES IDX 32 36 33 37 34 38 95 39 35 40 94 41 36 42 37 43 38 44 88 45
REMARK SMILES IDX 39 46 93 47 87 48 89 49 40 50 92 51 86 52 85 53 41 55 73 56
REMARK SMILES IDX 53 57 72 58 54 59 57 60 71 61 90 62 55 63 56 64 70 66 91 67
REMARK SMILES IDX 58 68 42 69 43 70 51 71 44 72 46 73 52 74 45 75 47 76 48 77
REMARK SMILES IDX 49 78 50 79 74 80 75 81 83 82 76 83 78 84 84 85 77 86 79 87
REMARK SMILES IDX 80 88 81 89 82 90 59 91 60 92 68 93 61 94 63 95 69 96 62 97
REMARK SMILES IDX 64 98 65 99 66 100 67 101
REMARK H PARENT 25 6 7 16 30 35 89 54 57 65
REMARK Flexibility Score: inf
ROOT
ATOM      1  C   UNL A   1      32.398  30.493  25.998  1.00  0.00     0.023 C 
ENDROOT
BRANCH   1   2
ATOM      2  C   UNL A   1      33.269  29.299  26.398  1.00  0.00     0.116 C 
BRANCH   2   3
ATOM      3  N   UNL A   1      32.433  28.260  26.979  1.00  0.00    -0.352 N 
ATOM      4  C   UNL A   1      31.533  27.387  26.415  1.00  0.00     0.253 C 
ATOM      5  O   UNL A   1      30.902  26.638  27.160  1.00  0.00    -0.269 OA
ATOM      6  H   UNL A   1      32.529  28.166  27.955  1.00  0.00     0.163 HD
BRANCH   4   7
ATOM      7  C   UNL A   1      31.388  27.239  24.936  1.00  0.00     0.064 A 
ATOM      8  C   UNL A   1      29.826  29.182  22.080  1.00  0.00     0.044 C 
ATOM      9  C   UNL A   1      30.652  28.175  22.822  1.00  0.00    -0.050 A 
ATOM     10  C   UNL A   1      31.545  27.319  22.169  1.00  0.00     0.009 A 
ATOM     11  C   UNL A   1      30.596  28.137  24.213  1.00  0.00     0.019 A 
ATOM     12  C   UNL A   1      32.293  26.350  22.875  1.00  0.00    -0.026 A 
ATOM     13  C   UNL A   1      33.291  25.539  22.099  1.00  0.00     0.046 C 
ATOM     14  C   UNL A   1      32.088  26.206  24.258  1.00  0.00     0.065 A 
BRANCH  14  15
ATOM     15  N   UNL A   1      32.623  25.129  25.052  1.00  0.00    -0.278 N 
ATOM     16  H   UNL A   1      33.476  25.307  25.508  1.00  0.00     0.180 HD
BRANCH  15  17
ATOM     17  S   UNL A   1      31.959  23.603  25.291  1.00  0.00     0.264 S 
ATOM     18  O   UNL A   1      31.803  23.502  26.735  1.00  0.00    -0.201 OA
ATOM     19  O   UNL A   1      30.773  23.524  24.461  1.00  0.00    -0.201 OA
BRANCH  17  20
ATOM     20  C   UNL A   1      32.965  22.214  24.840  1.00  0.00     0.114 A 
ATOM     21  C   UNL A   1      32.242  21.021  24.604  1.00  0.00     0.024 A 
ATOM     22  C   UNL A   1      34.355  22.226  24.864  1.00  0.00     0.091 A 
ATOM     23  C   UNL A   1      32.893  19.802  24.510  1.00  0.00     0.002 A 
ATOM     24  C   UNL A   1      34.986  20.957  24.892  1.00  0.00     0.002 A 
ATOM     25  N   UNL A   1      35.099  23.351  24.905  1.00  0.00    -0.255 NA
ATOM     26  C   UNL A   1      34.263  19.767  24.703  1.00  0.00     0.010 A 
ATOM     27  C   UNL A   1      36.356  20.892  25.172  1.00  0.00     0.015 A 
ATOM     28  C   UNL A   1      36.430  23.250  25.135  1.00  0.00     0.115 A 
ATOM     29  C   UNL A   1      37.090  22.056  25.357  1.00  0.00    -0.032 A 
ATOM     30  C   UNL A   1      38.506  22.006  25.827  1.00  0.00     0.046 C 
ENDBRANCH  17  20
ENDBRANCH  15  17
ENDBRANCH  14  15
ENDBRANCH   4   7
ENDBRANCH   2   3
ENDBRANCH   1   2
BRANCH   1  31
ATOM     31  C   UNL A   1      32.155  31.476  27.145  1.00  0.00     0.023 C 
BRANCH  31  32
ATOM     32  C   UNL A   1      33.269  32.500  27.333  1.00  0.00     0.116 C 
BRANCH  32  33
ATOM     33  N   UNL A   1      32.771  33.832  27.653  1.00  0.00    -0.352 N 
ATOM     34  C   UNL A   1      33.193  34.673  28.655  1.00  0.00     0.251 C 
ATOM     35  H   UNL A   1      32.043  34.171  27.082  1.00  0.00     0.163 HD
ATOM     36  O   UNL A   1      32.611  35.734  28.866  1.00  0.00    -0.269 OA
BRANCH  34  37
ATOM     37  C   UNL A   1      34.327  34.255  29.501  1.00  0.00     0.039 A 
ATOM     38  C   UNL A   1      34.070  33.499  30.648  1.00  0.00     0.014 A 
ATOM     39  C   UNL A   1      35.638  34.539  29.112  1.00  0.00     0.014 A 
ATOM     40  C   UNL A   1      35.140  32.965  31.368  1.00  0.00     0.010 A 
ATOM     41  C   UNL A   1      36.697  33.950  29.793  1.00  0.00     0.010 A 
ATOM     42  C   UNL A   1      36.459  33.154  30.924  1.00  0.00    -0.014 A 
BRANCH  42  43
ATOM     43  C   UNL A   1      37.602  32.506  31.612  1.00  0.00     0.031 A 
ATOM     44  C   UNL A   1      38.326  31.361  30.962  1.00  0.00     0.074 A 
ATOM     45  C   UNL A   1      37.923  32.886  32.865  1.00  0.00     0.049 A 
ATOM     46  N   UNL A   1      39.316  30.643  31.425  1.00  0.00    -0.248 NA
ATOM     47  C   UNL A   1      37.860  30.948  29.628  1.00  0.00     0.031 C 
ATOM     48  C   UNL A   1      37.231  33.919  33.640  1.00  0.00     0.029 A 
ATOM     49  N   UNL A   1      38.895  32.429  33.719  1.00  0.00    -0.354 N 
ATOM     50  C   UNL A   1      39.568  29.676  30.461  1.00  0.00     0.074 A 
ATOM     51  C   UNL A   1      38.604  29.875  29.400  1.00  0.00     0.031 C 
ATOM     52  C   UNL A   1      37.804  34.020  34.851  1.00  0.00     0.029 A 
ATOM     53  C   UNL A   1      38.889  33.048  34.947  1.00  0.00     0.049 A 
ATOM     54  H   UNL A   1      39.537  31.723  33.475  1.00  0.00     0.167 HD
ATOM     55  C   UNL A   1      40.536  28.730  30.442  1.00  0.00     0.034 A 
ATOM     56  C   UNL A   1      39.672  32.857  36.027  1.00  0.00     0.034 A 
ATOM     57  C   UNL A   1      41.527  28.572  31.471  1.00  0.00     0.049 A 
ATOM     58  C   UNL A   1      40.783  31.843  35.952  1.00  0.00     0.074 A 
ATOM     59  C   UNL A   1      42.608  27.711  31.499  1.00  0.00     0.029 A 
ATOM     60  N   UNL A   1      41.556  29.292  32.655  1.00  0.00    -0.354 N 
ATOM     61  N   UNL A   1      41.118  31.059  34.955  1.00  0.00    -0.248 NA
ATOM     62  C   UNL A   1      41.647  31.715  37.134  1.00  0.00     0.031 C 
ATOM     63  C   UNL A   1      43.288  27.903  32.706  1.00  0.00     0.029 A 
ATOM     64  C   UNL A   1      42.635  28.893  33.424  1.00  0.00     0.049 A 
ATOM     65  H   UNL A   1      40.905  29.984  32.913  1.00  0.00     0.167 HD
ATOM     66  C   UNL A   1      42.252  30.374  35.374  1.00  0.00     0.074 A 
ATOM     67  C   UNL A   1      42.559  30.849  36.708  1.00  0.00     0.031 C 
ATOM     68  C   UNL A   1      42.964  29.422  34.723  1.00  0.00     0.034 A 
BRANCH  55  69
ATOM     69  C   UNL A   1      40.618  27.840  29.230  1.00  0.00     0.023 A 
ATOM     70  C   UNL A   1      39.747  26.737  29.125  1.00  0.00     0.012 A 
ATOM     71  C   UNL A   1      41.509  28.120  28.177  1.00  0.00     0.148 A 
ATOM     72  C   UNL A   1      39.780  25.907  28.006  1.00  0.00     0.002 A 
ATOM     73  C   UNL A   1      41.510  27.312  27.045  1.00  0.00     0.091 A 
ATOM     74  F   UNL A   1      42.347  29.159  28.305  1.00  0.00    -0.205 F 
ATOM     75  C   UNL A   1      40.653  26.200  26.963  1.00  0.00     0.022 A 
BRANCH  73  76
ATOM     76  S   UNL A   1      42.545  27.647  25.615  1.00  0.00     0.127 S 
ATOM     77  O   UNL A   1      41.969  28.896  25.121  1.00  0.00    -0.237 OA
ATOM     78  O   UNL A   1      43.871  27.784  26.219  1.00  0.00    -0.237 OA
ATOM     79  O   UNL A   1      42.397  26.496  24.736  1.00  0.00    -0.744 OA
ENDBRANCH  73  76
ENDBRANCH  55  69
BRANCH  56  80
ATOM     80  C   UNL A   1      39.492  33.706  37.238  1.00  0.00     0.023 A 
ATOM     81  C   UNL A   1      40.029  35.008  37.251  1.00  0.00     0.012 A 
ATOM     82  C   UNL A   1      38.773  33.249  38.359  1.00  0.00     0.148 A 
ATOM     83  C   UNL A   1      39.882  35.828  38.370  1.00  0.00     0.002 A 
ATOM     84  C   UNL A   1      38.586  34.090  39.450  1.00  0.00     0.091 A 
ATOM     85  F   UNL A   1      38.281  32.002  38.335  1.00  0.00    -0.205 F 
ATOM     86  C   UNL A   1      39.153  35.374  39.464  1.00  0.00     0.022 A 
BRANCH  84  87
ATOM     87  S   UNL A   1      37.548  33.633  40.844  1.00  0.00     0.127 S 
ATOM     88  O   UNL A   1      36.409  33.010  40.177  1.00  0.00    -0.237 OA
ATOM     89  O   UNL A   1      38.414  32.710  41.580  1.00  0.00    -0.237 OA
ATOM     90  O   UNL A   1      37.274  34.880  41.546  1.00  0.00    -0.744 OA
ENDBRANCH  84  87
ENDBRANCH  56  80
BRANCH  68  91
ATOM     91  C   UNL A   1      44.168  28.849  35.420  1.00  0.00     0.023 A 
ATOM     92  C   UNL A   1      45.435  29.428  35.210  1.00  0.00     0.012 A 
ATOM     93  C   UNL A   1      44.033  27.794  36.343  1.00  0.00     0.148 A 
ATOM     94  C   UNL A   1      46.554  28.950  35.890  1.00  0.00     0.002 A 
ATOM     95  C   UNL A   1      45.144  27.352  37.051  1.00  0.00     0.091 A 
ATOM     96  F   UNL A   1      42.823  27.242  36.512  1.00  0.00    -0.205 F 
ATOM     97  C   UNL A   1      46.407  27.922  36.819  1.00  0.00     0.022 A 
BRANCH  95  98
ATOM     98  S   UNL A   1      45.027  26.099  38.334  1.00  0.00     0.127 S 
ATOM     99  O   UNL A   1      44.118  26.732  39.287  1.00  0.00    -0.237 OA
ATOM    100  O   UNL A   1      44.458  24.961  37.610  1.00  0.00    -0.237 OA
ATOM    101  O   UNL A   1      46.388  25.888  38.809  1.00  0.00    -0.744 OA
ENDBRANCH  95  98
ENDBRANCH  68  91
ENDBRANCH  42  43
ENDBRANCH  34  37
ENDBRANCH  32  33
ENDBRANCH  31  32
ENDBRANCH   1  31
TORSDOF 17
ENDMDL
MODEL 2
REMARK VINA RESULT:     -12.5      1.363      2.042
REMARK SMILES Cc1cc(C)c(NS(=O)(=O)c2cccc3cc(C)cnc23)c(C(=O)NCCCCNC(=O)c2ccc(-c3c4nc(c(-c5cccc(S(=O)(=O)[O-])c5F)c5ccc([nH]5)c(-c5cccc(S(=O)(=O)[O-])c5F)c5nc(c(-c6cccc(S(=O)(=O)[O-])c6F)c6ccc3[nH]6)C=C5)C=C4)cc2)c1
REMARK SMILES IDX 27 1 26 2 25 3 23 4 24 5 22 7 1 8 2 9 3 10 96 11 4 12 5 13
REMARK SMILES IDX 6 14 7 15 8 17 9 18 10 19 11 20 12 21 21 22 13 23 15 24
REMARK SMILES IDX 20 25 14 26 16 27 19 28 17 29 18 30 28 31 29 32 30 33 31 34
REMARK SMILES IDX 32 36 33 37 34 38 95 39 35 40 94 41 36 42 37 43 38 44 88 45
REMARK SMILES IDX 39 46 93 47 87 48 89 49 40 50 92 51 86 52 85 53 41 55 73 56
REMARK SMILES IDX 53 57 72 58 54 59 57 60 71 61 90 62 55 63 56 64 70 66 91 67
REMARK SMILES IDX 58 68 42 69 43 70 51 71 44 72 46 73 52 74 45 75 47 76 48 77
REMARK SMILES IDX 49 78 50 79 74 80 75 81 83 82 76 83 78 84 84 85 77 86 79 87
REMARK SMILES IDX 80 88 81 89 82 90 59 91 60 92 68 93 61 94 63 95 69 96 62 97
REMARK SMILES IDX 64 98 65 99 66 100 67 101
REMARK H PARENT 25 6 7 16 30 35 89 54 57 65
REMARK Flexibility Score: inf
ROOT
ATOM      1  C   UNL A   1      32.249  30.242  25.870  1.00  0.00     0.023 C 
ENDROOT
BRANCH   1   2
ATOM      2  C   UNL A   1      33.274  29.112  25.994  1.00  0.00     0.116 C 
BRANCH   2   3
ATOM      3  N   UNL A   1      32.651  27.955  26.614  1.00  0.00    -0.352 N 
ATOM      4  C   UNL A   1      31.707  27.066  26.155  1.00  0.00     0.253 C 
ATOM      5  O   UNL A   1      31.299  26.198  26.926  1.00  0.00    -0.269 OA
ATOM      6  H   UNL A   1      32.961  27.775  27.532  1.00  0.00     0.163 HD
BRANCH   4   7
ATOM      7  C   UNL A   1      31.256  27.051  24.732  1.00  0.00     0.064 A 
ATOM      8  C   UNL A   1      28.927  29.066  22.522  1.00  0.00     0.044 C 
ATOM      9  C   UNL A   1      29.988  28.097  22.947  1.00  0.00    -0.050 A 
ATOM     10  C   UNL A   1      30.794  27.425  22.023  1.00  0.00     0.009 A 
ATOM     11  C   UNL A   1      30.242  27.914  24.304  1.00  0.00     0.019 A 
ATOM     12  C   UNL A   1      31.769  26.487  22.435  1.00  0.00    -0.026 A 
ATOM     13  C   UNL A   1      32.646  25.884  21.375  1.00  0.00     0.046 C 
ATOM     14  C   UNL A   1      31.887  26.182  23.802  1.00  0.00     0.065 A 
BRANCH  14  15
ATOM     15  N   UNL A   1      32.684  25.103  24.329  1.00  0.00    -0.278 N 
ATOM     16  H   UNL A   1      33.562  25.351  24.697  1.00  0.00     0.180 HD
BRANCH  15  17
ATOM     17  S   UNL A   1      32.289  23.470  24.389  1.00  0.00     0.264 S 
ATOM     18  O   UNL A   1      31.223  23.397  25.378  1.00  0.00    -0.201 OA
ATOM     19  O   UNL A   1      32.001  23.056  23.030  1.00  0.00    -0.201 OA
BRANCH  17  20
ATOM     20  C   UNL A   1      33.543  22.366  24.982  1.00  0.00     0.114 A 
ATOM     21  C   UNL A   1      34.696  23.010  25.491  1.00  0.00     0.024 A 
ATOM     22  C   UNL A   1      33.494  20.985  24.826  1.00  0.00     0.091 A 
ATOM     23  C   UNL A   1      35.858  22.297  25.737  1.00  0.00     0.002 A 
ATOM     24  C   UNL A   1      34.728  20.301  24.964  1.00  0.00     0.002 A 
ATOM     25  N   UNL A   1      32.372  20.301  24.518  1.00  0.00    -0.255 NA
ATOM     26  C   UNL A   1      35.886  20.949  25.426  1.00  0.00     0.010 A 
ATOM     27  C   UNL A   1      34.801  18.960  24.573  1.00  0.00     0.015 A 
ATOM     28  C   UNL A   1      32.473  18.991  24.187  1.00  0.00     0.115 A 
ATOM     29  C   UNL A   1      33.667  18.299  24.118  1.00  0.00    -0.032 A 
ATOM     30  C   UNL A   1      33.758  16.927  23.534  1.00  0.00     0.046 C 
ENDBRANCH  17  20
ENDBRANCH  15  17
ENDBRANCH  14  15
ENDBRANCH   4   7
ENDBRANCH   2   3
ENDBRANCH   1   2
BRANCH   1  31
ATOM     31  C   UNL A   1      32.157  31.116  27.124  1.00  0.00     0.023 C 
BRANCH  31  32
ATOM     32  C   UNL A   1      33.287  32.129  27.260  1.00  0.00     0.116 C 
BRANCH  32  33
ATOM     33  N   UNL A   1      32.812  33.480  27.531  1.00  0.00    -0.352 N 
ATOM     34  C   UNL A   1      33.240  34.345  28.509  1.00  0.00     0.251 C 
ATOM     35  H   UNL A   1      32.096  33.814  26.942  1.00  0.00     0.163 HD
ATOM     36  O   UNL A   1      32.677  35.424  28.679  1.00  0.00    -0.269 OA
BRANCH  34  37
ATOM     37  C   UNL A   1      34.358  33.934  29.379  1.00  0.00     0.039 A 
ATOM     38  C   UNL A   1      34.093  33.102  30.470  1.00  0.00     0.014 A 
ATOM     39  C   UNL A   1      35.668  34.304  29.065  1.00  0.00     0.014 A 
ATOM     40  C   UNL A   1      35.157  32.579  31.205  1.00  0.00     0.010 A 
ATOM     41  C   UNL A   1      36.727  33.727  29.758  1.00  0.00     0.010 A 
ATOM     42  C   UNL A   1      36.483  32.857  30.831  1.00  0.00    -0.014 A 
BRANCH  42  43
ATOM     43  C   UNL A   1      37.627  32.225  31.532  1.00  0.00     0.031 A 
ATOM     44  C   UNL A   1      38.389  31.106  30.880  1.00  0.00     0.074 A 
ATOM     45  C   UNL A   1      37.917  32.596  32.796  1.00  0.00     0.049 A 
ATOM     46  N   UNL A   1      39.387  30.405  31.352  1.00  0.00    -0.248 NA
ATOM     47  C   UNL A   1      37.957  30.701  29.532  1.00  0.00     0.031 C 
ATOM     48  C   UNL A   1      37.187  33.602  33.571  1.00  0.00     0.029 A 
ATOM     49  N   UNL A   1      38.883  32.149  33.661  1.00  0.00    -0.354 N 
ATOM     50  C   UNL A   1      39.679  29.457  30.380  1.00  0.00     0.074 A 
ATOM     51  C   UNL A   1      38.730  29.649  29.304  1.00  0.00     0.031 C 
ATOM     52  C   UNL A   1      37.736  33.700  34.794  1.00  0.00     0.029 A 
ATOM     53  C   UNL A   1      38.841  32.751  34.897  1.00  0.00     0.049 A 
ATOM     54  H   UNL A   1      39.546  31.461  33.420  1.00  0.00     0.167 HD
ATOM     55  C   UNL A   1      40.669  28.534  30.366  1.00  0.00     0.034 A 
ATOM     56  C   UNL A   1      39.608  32.563  35.988  1.00  0.00     0.034 A 
ATOM     57  C   UNL A   1      41.644  28.385  31.412  1.00  0.00     0.049 A 
ATOM     58  C   UNL A   1      40.743  31.577  35.921  1.00  0.00     0.074 A 
ATOM     59  C   UNL A   1      42.744  27.548  31.448  1.00  0.00     0.029 A 
ATOM     60  N   UNL A   1      41.635  29.089  32.605  1.00  0.00    -0.354 N 
ATOM     61  N   UNL A   1      41.114  30.814  34.920  1.00  0.00    -0.248 NA
ATOM     62  C   UNL A   1      41.589  31.452  37.116  1.00  0.00     0.031 C 
ATOM     63  C   UNL A   1      43.397  27.740  32.670  1.00  0.00     0.029 A 
ATOM     64  C   UNL A   1      42.709  28.705  33.388  1.00  0.00     0.049 A 
ATOM     65  H   UNL A   1      40.963  29.762  32.860  1.00  0.00     0.167 HD
ATOM     66  C   UNL A   1      42.256  30.149  35.351  1.00  0.00     0.074 A 
ATOM     67  C   UNL A   1      42.527  30.613  36.697  1.00  0.00     0.031 C 
ATOM     68  C   UNL A   1      43.002  29.223  34.700  1.00  0.00     0.034 A 
BRANCH  55  69
ATOM     69  C   UNL A   1      40.793  27.663  29.145  1.00  0.00     0.023 A 
ATOM     70  C   UNL A   1      40.006  26.497  29.046  1.00  0.00     0.012 A 
ATOM     71  C   UNL A   1      41.639  28.018  28.077  1.00  0.00     0.148 A 
ATOM     72  C   UNL A   1      40.080  25.682  27.919  1.00  0.00     0.002 A 
ATOM     73  C   UNL A   1      41.678  27.221  26.938  1.00  0.00     0.091 A 
ATOM     74  F   UNL A   1      42.399  29.116  28.198  1.00  0.00    -0.205 F 
ATOM     75  C   UNL A   1      40.906  26.049  26.861  1.00  0.00     0.022 A 
BRANCH  73  76
ATOM     76  S   UNL A   1      42.655  27.646  25.491  1.00  0.00     0.127 S 
ATOM     77  O   UNL A   1      43.989  27.796  26.070  1.00  0.00    -0.237 OA
ATOM     78  O   UNL A   1      42.487  26.462  24.646  1.00  0.00    -0.237 OA
ATOM     79  O   UNL A   1      42.064  28.863  24.952  1.00  0.00    -0.744 OA
ENDBRANCH  73  76
ENDBRANCH  55  69
BRANCH  56  80
ATOM     80  C   UNL A   1      39.387  33.391  37.208  1.00  0.00     0.023 A 
ATOM     81  C   UNL A   1      38.512  32.923  38.207  1.00  0.00     0.012 A 
ATOM     82  C   UNL A   1      40.053  34.617  37.398  1.00  0.00     0.148 A 
ATOM     83  C   UNL A   1      38.278  33.674  39.359  1.00  0.00     0.002 A 
ATOM     84  C   UNL A   1      39.856  35.335  38.573  1.00  0.00     0.091 A 
ATOM     85  F   UNL A   1      40.872  35.054  36.431  1.00  0.00    -0.205 F 
ATOM     86  C   UNL A   1      38.957  34.874  39.546  1.00  0.00     0.022 A 
BRANCH  84  87
ATOM     87  S   UNL A   1      40.790  36.822  38.953  1.00  0.00     0.127 S 
ATOM     88  O   UNL A   1      41.682  36.918  37.801  1.00  0.00    -0.237 OA
ATOM     89  O   UNL A   1      39.738  37.839  39.006  1.00  0.00    -0.237 OA
ATOM     90  O   UNL A   1      41.429  36.559  40.236  1.00  0.00    -0.744 OA
ENDBRANCH  84  87
ENDBRANCH  56  80
BRANCH  68  91
ATOM     91  C   UNL A   1      44.206  28.668  35.412  1.00  0.00     0.023 A 
ATOM     92  C   UNL A   1      45.470  29.253  35.201  1.00  0.00     0.012 A 
ATOM     93  C   UNL A   1      44.073  27.626  36.350  1.00  0.00     0.148 A 
ATOM     94  C   UNL A   1      46.589  28.792  35.894  1.00  0.00     0.002 A 
ATOM     95  C   UNL A   1      45.183  27.202  37.070  1.00  0.00     0.091 A 
ATOM     96  F   UNL A   1      42.865  27.068  36.520  1.00  0.00    -0.205 F 
ATOM     97  C   UNL A   1      46.443  27.776  36.836  1.00  0.00     0.022 A 
BRANCH  95  98
ATOM     98  S   UNL A   1      45.068  25.966  38.370  1.00  0.00     0.127 S 
ATOM     99  O   UNL A   1      46.452  25.891  38.834  1.00  0.00    -0.237 OA
ATOM    100  O   UNL A   1      44.140  26.590  39.314  1.00  0.00    -0.237 OA
ATOM    101  O   UNL A   1      44.554  24.762  37.730  1.00  0.00    -0.744 OA
ENDBRANCH  95  98
ENDBRANCH  68  91
ENDBRANCH  42  43
ENDBRANCH  34  37
ENDBRANCH  32  33
ENDBRANCH  31  32
ENDBRANCH   1  31
TORSDOF 17
ENDMDL
MODEL 3
REMARK VINA RESULT:     -12.4      1.079      7.551
REMARK SMILES Cc1cc(C)c(NS(=O)(=O)c2cccc3cc(C)cnc23)c(C(=O)NCCCCNC(=O)c2ccc(-c3c4nc(c(-c5cccc(S(=O)(=O)[O-])c5F)c5ccc([nH]5)c(-c5cccc(S(=O)(=O)[O-])c5F)c5nc(c(-c6cccc(S(=O)(=O)[O-])c6F)c6ccc3[nH]6)C=C5)C=C4)cc2)c1
REMARK SMILES IDX 27 1 26 2 25 3 23 4 24 5 22 7 1 8 2 9 3 10 96 11 4 12 5 13
REMARK SMILES IDX 6 14 7 15 8 17 9 18 10 19 11 20 12 21 21 22 13 23 15 24
REMARK SMILES IDX 20 25 14 26 16 27 19 28 17 29 18 30 28 31 29 32 30 33 31 34
REMARK SMILES IDX 32 36 33 37 34 38 95 39 35 40 94 41 36 42 37 43 38 44 88 45
REMARK SMILES IDX 39 46 93 47 87 48 89 49 40 50 92 51 86 52 85 53 41 55 73 56
REMARK SMILES IDX 53 57 72 58 54 59 57 60 71 61 90 62 55 63 56 64 70 66 91 67
REMARK SMILES IDX 58 68 42 69 43 70 51 71 44 72 46 73 52 74 45 75 47 76 48 77
REMARK SMILES IDX 49 78 50 79 74 80 75 81 83 82 76 83 78 84 84 85 77 86 79 87
REMARK SMILES IDX 80 88 81 89 82 90 59 91 60 92 68 93 61 94 63 95 69 96 62 97
REMARK SMILES IDX 64 98 65 99 66 100 67 101
REMARK H PARENT 25 6 7 16 30 35 89 54 57 65
REMARK Flexibility Score: inf
ROOT
ATOM      1  C   UNL A   1      33.900  31.157  27.612  1.00  0.00     0.023 C 
ENDROOT
BRANCH   1   2
ATOM      2  C   UNL A   1      33.623  29.959  26.699  1.00  0.00     0.116 C 
BRANCH   2   3
ATOM      3  N   UNL A   1      32.773  29.005  27.393  1.00  0.00    -0.352 N 
ATOM      4  C   UNL A   1      31.822  28.124  26.935  1.00  0.00     0.253 C 
ATOM      5  O   UNL A   1      31.193  27.464  27.762  1.00  0.00    -0.269 OA
ATOM      6  H   UNL A   1      32.904  28.987  28.369  1.00  0.00     0.163 HD
BRANCH   4   7
ATOM      7  C   UNL A   1      31.615  27.862  25.480  1.00  0.00     0.064 A 
ATOM      8  C   UNL A   1      30.247  29.730  22.478  1.00  0.00     0.044 C 
ATOM      9  C   UNL A   1      30.950  28.691  23.299  1.00  0.00    -0.050 A 
ATOM     10  C   UNL A   1      31.700  27.665  22.716  1.00  0.00     0.009 A 
ATOM     11  C   UNL A   1      30.930  28.789  24.688  1.00  0.00     0.019 A 
ATOM     12  C   UNL A   1      32.331  26.672  23.499  1.00  0.00    -0.026 A 
ATOM     13  C   UNL A   1      33.188  25.664  22.787  1.00  0.00     0.046 C 
ATOM     14  C   UNL A   1      32.149  26.685  24.893  1.00  0.00     0.065 A 
BRANCH  14  15
ATOM     15  N   UNL A   1      32.557  25.622  25.776  1.00  0.00    -0.278 N 
ATOM     16  H   UNL A   1      33.352  25.798  26.329  1.00  0.00     0.180 HD
BRANCH  15  17
ATOM     17  S   UNL A   1      31.833  24.118  25.975  1.00  0.00     0.264 S 
ATOM     18  O   UNL A   1      31.798  23.925  27.417  1.00  0.00    -0.201 OA
ATOM     19  O   UNL A   1      30.577  24.157  25.253  1.00  0.00    -0.201 OA
BRANCH  17  20
ATOM     20  C   UNL A   1      32.717  22.717  25.344  1.00  0.00     0.114 A 
ATOM     21  C   UNL A   1      31.911  21.580  25.096  1.00  0.00     0.024 A 
ATOM     22  C   UNL A   1      34.102  22.657  25.244  1.00  0.00     0.091 A 
ATOM     23  C   UNL A   1      32.482  20.340  24.864  1.00  0.00     0.002 A 
ATOM     24  C   UNL A   1      34.661  21.359  25.132  1.00  0.00     0.002 A 
ATOM     25  N   UNL A   1      34.908  23.738  25.292  1.00  0.00    -0.255 NA
ATOM     26  C   UNL A   1      33.860  20.223  24.931  1.00  0.00     0.010 A 
ATOM     27  C   UNL A   1      36.044  21.207  25.283  1.00  0.00     0.015 A 
ATOM     28  C   UNL A   1      36.247  23.555  25.394  1.00  0.00     0.115 A 
ATOM     29  C   UNL A   1      36.855  22.317  25.477  1.00  0.00    -0.032 A 
ATOM     30  C   UNL A   1      38.302  22.163  25.813  1.00  0.00     0.046 C 
ENDBRANCH  17  20
ENDBRANCH  15  17
ENDBRANCH  14  15
ENDBRANCH   4   7
ENDBRANCH   2   3
ENDBRANCH   1   2
BRANCH   1  31
ATOM     31  C   UNL A   1      32.774  32.193  27.610  1.00  0.00     0.023 C 
BRANCH  31  32
ATOM     32  C   UNL A   1      33.236  33.614  27.309  1.00  0.00     0.116 C 
BRANCH  32  33
ATOM     33  N   UNL A   1      32.888  34.562  28.359  1.00  0.00    -0.352 N 
ATOM     34  C   UNL A   1      33.462  34.697  29.600  1.00  0.00     0.251 C 
ATOM     35  H   UNL A   1      32.150  35.182  28.154  1.00  0.00     0.163 HD
ATOM     36  O   UNL A   1      32.997  35.483  30.421  1.00  0.00    -0.269 OA
BRANCH  34  37
ATOM     37  C   UNL A   1      34.617  33.846  29.942  1.00  0.00     0.039 A 
ATOM     38  C   UNL A   1      35.878  34.190  29.447  1.00  0.00     0.014 A 
ATOM     39  C   UNL A   1      34.463  32.766  30.815  1.00  0.00     0.014 A 
ATOM     40  C   UNL A   1      37.001  33.489  29.890  1.00  0.00     0.010 A 
ATOM     41  C   UNL A   1      35.590  32.115  31.304  1.00  0.00     0.010 A 
ATOM     42  C   UNL A   1      36.869  32.472  30.850  1.00  0.00    -0.014 A 
BRANCH  42  43
ATOM     43  C   UNL A   1      38.059  31.789  31.413  1.00  0.00     0.031 A 
ATOM     44  C   UNL A   1      38.698  32.299  32.674  1.00  0.00     0.074 A 
ATOM     45  C   UNL A   1      38.620  30.768  30.735  1.00  0.00     0.049 A 
ATOM     46  N   UNL A   1      39.764  31.862  33.292  1.00  0.00    -0.248 NA
ATOM     47  C   UNL A   1      38.076  33.472  33.311  1.00  0.00     0.031 C 
ATOM     48  C   UNL A   1      38.150  30.245  29.450  1.00  0.00     0.029 A 
ATOM     49  N   UNL A   1      39.726  30.006  31.016  1.00  0.00    -0.354 N 
ATOM     50  C   UNL A   1      39.962  32.722  34.365  1.00  0.00     0.074 A 
ATOM     51  C   UNL A   1      38.925  33.729  34.296  1.00  0.00     0.031 C 
ATOM     52  C   UNL A   1      38.957  29.246  29.058  1.00  0.00     0.029 A 
ATOM     53  C   UNL A   1      40.013  29.069  30.051  1.00  0.00     0.049 A 
ATOM     54  H   UNL A   1      40.265  30.119  31.833  1.00  0.00     0.167 HD
ATOM     55  C   UNL A   1      40.898  32.659  35.340  1.00  0.00     0.034 A 
ATOM     56  C   UNL A   1      41.011  28.167  29.976  1.00  0.00     0.034 A 
ATOM     57  C   UNL A   1      41.891  31.625  35.436  1.00  0.00     0.049 A 
ATOM     58  C   UNL A   1      41.999  28.078  31.108  1.00  0.00     0.074 A 
ATOM     59  C   UNL A   1      42.821  31.417  36.438  1.00  0.00     0.029 A 
ATOM     60  N   UNL A   1      42.084  30.626  34.496  1.00  0.00    -0.354 N 
ATOM     61  N   UNL A   1      42.059  28.789  32.208  1.00  0.00    -0.248 NA
ATOM     62  C   UNL A   1      43.032  27.037  31.009  1.00  0.00     0.031 C 
ATOM     63  C   UNL A   1      43.584  30.294  36.099  1.00  0.00     0.029 A 
ATOM     64  C   UNL A   1      43.120  29.798  34.891  1.00  0.00     0.049 A 
ATOM     65  H   UNL A   1      41.562  30.520  33.667  1.00  0.00     0.167 HD
ATOM     66  C   UNL A   1      43.110  28.259  32.948  1.00  0.00     0.074 A 
ATOM     67  C   UNL A   1      43.646  27.154  32.180  1.00  0.00     0.031 C 
ATOM     68  C   UNL A   1      43.600  28.663  34.146  1.00  0.00     0.034 A 
BRANCH  55  69
ATOM     69  C   UNL A   1      40.844  33.700  36.426  1.00  0.00     0.023 A 
ATOM     70  C   UNL A   1      41.517  34.925  36.242  1.00  0.00     0.012 A 
ATOM     71  C   UNL A   1      40.090  33.495  37.598  1.00  0.00     0.148 A 
ATOM     72  C   UNL A   1      41.468  35.919  37.218  1.00  0.00     0.002 A 
ATOM     73  C   UNL A   1      40.012  34.506  38.549  1.00  0.00     0.091 A 
ATOM     74  F   UNL A   1      39.477  32.315  37.767  1.00  0.00    -0.205 F 
ATOM     75  C   UNL A   1      40.707  35.714  38.365  1.00  0.00     0.022 A 
BRANCH  73  76
ATOM     76  S   UNL A   1      39.000  34.369  40.028  1.00  0.00     0.127 S 
ATOM     77  O   UNL A   1      38.565  35.751  40.216  1.00  0.00    -0.237 OA
ATOM     78  O   UNL A   1      37.944  33.451  39.596  1.00  0.00    -0.237 OA
ATOM     79  O   UNL A   1      39.876  33.839  41.064  1.00  0.00    -0.744 OA
ENDBRANCH  73  76
ENDBRANCH  55  69
BRANCH  56  80
ATOM     80  C   UNL A   1      41.072  27.215  28.831  1.00  0.00     0.023 A 
ATOM     81  C   UNL A   1      40.130  26.170  28.755  1.00  0.00     0.012 A 
ATOM     82  C   UNL A   1      42.029  27.352  27.808  1.00  0.00     0.148 A 
ATOM     83  C   UNL A   1      40.160  25.259  27.699  1.00  0.00     0.002 A 
ATOM     84  C   UNL A   1      42.021  26.472  26.731  1.00  0.00     0.091 A 
ATOM     85  F   UNL A   1      42.926  28.343  27.904  1.00  0.00    -0.205 F 
ATOM     86  C   UNL A   1      41.098  25.416  26.683  1.00  0.00     0.022 A 
BRANCH  84  87
ATOM     87  S   UNL A   1      43.107  26.681  25.316  1.00  0.00     0.127 S 
ATOM     88  O   UNL A   1      42.956  25.401  24.631  1.00  0.00    -0.237 OA
ATOM     89  O   UNL A   1      42.499  27.823  24.630  1.00  0.00    -0.237 OA
ATOM     90  O   UNL A   1      44.423  26.955  25.877  1.00  0.00    -0.744 OA
ENDBRANCH  84  87
ENDBRANCH  56  80
BRANCH  68  91
ATOM     91  C   UNL A   1      44.754  27.890  34.726  1.00  0.00     0.023 A 
ATOM     92  C   UNL A   1      46.070  28.345  34.517  1.00  0.00     0.012 A 
ATOM     93  C   UNL A   1      44.531  26.766  35.544  1.00  0.00     0.148 A 
ATOM     94  C   UNL A   1      47.150  27.678  35.094  1.00  0.00     0.002 A 
ATOM     95  C   UNL A   1      45.607  26.133  36.153  1.00  0.00     0.091 A 
ATOM     96  F   UNL A   1      43.271  26.337  35.712  1.00  0.00    -0.205 F 
ATOM     97  C   UNL A   1      46.918  26.581  35.921  1.00  0.00     0.022 A 
BRANCH  95  98
ATOM     98  S   UNL A   1      45.392  24.773  37.307  1.00  0.00     0.127 S 
ATOM     99  O   UNL A   1      44.504  25.366  38.304  1.00  0.00    -0.237 OA
ATOM    100  O   UNL A   1      44.770  23.746  36.470  1.00  0.00    -0.237 OA
ATOM    101  O   UNL A   1      46.729  24.435  37.779  1.00  0.00    -0.744 OA
ENDBRANCH  95  98
ENDBRANCH  68  91
ENDBRANCH  42  43
ENDBRANCH  34  37
ENDBRANCH  32  33
ENDBRANCH  31  32
ENDBRANCH   1  31
TORSDOF 17
ENDMDL
