MODEL 1
REMARK VINA RESULT:     -13.0      0.000      0.000
REMARK SMILES Cc1ccc(S(=O)(=O)N2CCCC2)cc1C(=O)N[C@H](CC1=c2ccccc2=NC1)C(=O)NCCCCNC(=O)c1ccc(-c2c3nc(c(-c4cccc(S(=O)(=O)[O-])c4F)c4ccc([nH]4)c(-c4cccc(S(=O)(=O)[O-])c4F)c4nc(c(-c5cccc(S(=O)(=O)[O-])c5F)c5ccc2[nH]5)C=C4)C=C3)cc1
REMARK SMILES IDX 34 1 33 2 32 3 30 4 31 5 19 7 18 8 16 9 17 10 15 12 1 13
REMARK SMILES IDX 2 14 3 15 4 16 14 17 5 18 6 19 7 20 8 21 9 22 10 23 13 24
REMARK SMILES IDX 11 25 12 26 20 27 21 28 22 29 29 30 23 31 27 32 28 33 24 34
REMARK SMILES IDX 26 35 25 36 35 37 36 38 37 39 38 40 39 42 40 43 41 44 102 45
REMARK SMILES IDX 42 46 101 47 43 48 44 49 45 50 95 51 46 52 100 53 94 54
REMARK SMILES IDX 96 55 47 56 99 57 93 58 92 59 48 61 80 62 60 63 79 64 61 65
REMARK SMILES IDX 64 66 78 67 97 68 62 69 63 70 77 72 98 73 65 74 49 75 50 76
REMARK SMILES IDX 58 77 51 78 53 79 59 80 52 81 54 82 55 83 56 84 57 85 81 86
REMARK SMILES IDX 82 87 90 88 83 89 85 90 91 91 84 92 86 93 87 94 88 95 89 96
REMARK SMILES IDX 66 97 67 98 75 99 68 100 70 101 76 102 69 103 71 104 72 105
REMARK SMILES IDX 73 106 74 107
REMARK H PARENT 32 6 18 11 37 41 96 60 64 71
REMARK Flexibility Score: inf
ROOT
ATOM      1  C   UNL A   1      31.609  29.575  25.774  1.00  0.00     0.023 C 
ENDROOT
BRANCH   1   2
ATOM      2  C   UNL A   1      32.454  29.780  24.516  1.00  0.00     0.116 C 
BRANCH   2   3
ATOM      3  N   UNL A   1      31.874  29.171  23.336  1.00  0.00    -0.354 N 
ATOM      4  C   UNL A   1      31.998  27.961  22.745  1.00  0.00     0.242 C 
ATOM      5  O   UNL A   1      31.160  27.736  21.860  1.00  0.00    -0.273 OA
ATOM      6  H   UNL A   1      31.255  29.770  22.859  1.00  0.00     0.163 HD
BRANCH   4   7
ATOM      7  C   UNL A   1      33.104  26.895  23.018  1.00  0.00     0.175 C 
BRANCH   7   8
ATOM      8  N   UNL A   1      33.258  25.660  22.180  1.00  0.00    -0.340 N 
ATOM      9  C   UNL A   1      33.084  24.307  22.068  1.00  0.00     0.252 C 
ATOM     10  O   UNL A   1      33.450  23.875  20.964  1.00  0.00    -0.269 OA
ATOM     11  H   UNL A   1      33.665  25.954  21.332  1.00  0.00     0.164 HD
BRANCH   9  12
ATOM     12  C   UNL A   1      32.515  23.279  23.012  1.00  0.00     0.044 A 
ATOM     13  C   UNL A   1      30.195  24.234  23.367  1.00  0.00     0.045 C 
ATOM     14  C   UNL A   1      31.258  23.259  23.617  1.00  0.00    -0.038 A 
ATOM     15  C   UNL A   1      30.885  22.269  24.550  1.00  0.00     0.005 A 
ATOM     16  C   UNL A   1      31.761  21.285  24.924  1.00  0.00     0.022 A 
ATOM     17  C   UNL A   1      33.391  22.231  23.386  1.00  0.00     0.035 A 
ATOM     18  C   UNL A   1      33.025  21.280  24.359  1.00  0.00     0.083 A 
BRANCH  18  19
ATOM     19  S   UNL A   1      34.095  20.018  24.989  1.00  0.00     0.243 S 
ATOM     20  O   UNL A   1      35.441  20.537  24.913  1.00  0.00    -0.207 OA
ATOM     21  O   UNL A   1      33.510  19.610  26.251  1.00  0.00    -0.207 OA
BRANCH  19  22
ATOM     22  N   UNL A   1      33.963  18.754  23.910  1.00  0.00    -0.198 NA
ATOM     23  C   UNL A   1      34.558  17.451  24.250  1.00  0.00     0.102 C 
ATOM     24  C   UNL A   1      32.596  18.451  23.423  1.00  0.00     0.102 C 
ATOM     25  C   UNL A   1      34.193  16.662  23.007  1.00  0.00     0.018 C 
ATOM     26  C   UNL A   1      32.756  17.096  22.727  1.00  0.00     0.018 C 
ENDBRANCH  19  22
ENDBRANCH  18  19
ENDBRANCH   9  12
ENDBRANCH   7   8
BRANCH   7  27
ATOM     27  C   UNL A   1      33.689  26.846  24.496  1.00  0.00     0.068 C 
BRANCH  27  28
ATOM     28  C   UNL A   1      33.162  25.851  25.523  1.00  0.00    -0.037 C 
ATOM     29  C   UNL A   1      33.781  24.771  25.998  1.00  0.00     0.001 A 
ATOM     30  C   UNL A   1      31.772  25.883  26.108  1.00  0.00     0.174 C 
ATOM     31  C   UNL A   1      35.050  24.162  25.784  1.00  0.00     0.010 A 
ATOM     32  C   UNL A   1      32.819  24.200  26.958  1.00  0.00     0.065 A 
ATOM     33  N   UNL A   1      31.631  24.712  27.000  1.00  0.00    -0.280 NA
ATOM     34  C   UNL A   1      35.406  23.129  26.564  1.00  0.00     0.001 A 
ATOM     35  C   UNL A   1      33.294  23.102  27.814  1.00  0.00     0.028 A 
ATOM     36  C   UNL A   1      34.536  22.632  27.616  1.00  0.00     0.002 A 
ENDBRANCH  27  28
ENDBRANCH   7  27
ENDBRANCH   4   7
ENDBRANCH   2   3
ENDBRANCH   1   2
BRANCH   1  37
ATOM     37  C   UNL A   1      32.312  29.297  27.109  1.00  0.00     0.023 C 
BRANCH  37  38
ATOM     38  C   UNL A   1      33.837  29.343  27.104  1.00  0.00     0.116 C 
BRANCH  38  39
ATOM     39  N   UNL A   1      34.363  30.701  27.291  1.00  0.00    -0.352 N 
ATOM     40  C   UNL A   1      35.360  31.163  28.139  1.00  0.00     0.251 C 
ATOM     41  H   UNL A   1      33.945  31.391  26.726  1.00  0.00     0.163 HD
ATOM     42  O   UNL A   1      35.351  32.335  28.492  1.00  0.00    -0.269 OA
BRANCH  40  43
ATOM     43  C   UNL A   1      36.441  30.243  28.534  1.00  0.00     0.039 A 
ATOM     44  C   UNL A   1      36.490  29.533  29.738  1.00  0.00     0.014 A 
ATOM     45  C   UNL A   1      37.505  30.179  27.653  1.00  0.00     0.014 A 
ATOM     46  C   UNL A   1      37.647  28.812  30.045  1.00  0.00     0.010 A 
ATOM     47  C   UNL A   1      38.440  29.214  27.783  1.00  0.00     0.010 A 
ATOM     48  C   UNL A   1      38.625  28.706  29.061  1.00  0.00    -0.014 A 
BRANCH  48  49
ATOM     49  C   UNL A   1      39.983  28.231  29.213  1.00  0.00     0.031 A 
ATOM     50  C   UNL A   1      40.298  26.842  28.952  1.00  0.00     0.074 A 
ATOM     51  C   UNL A   1      40.911  29.216  29.216  1.00  0.00     0.049 A 
ATOM     52  N   UNL A   1      41.430  26.314  29.234  1.00  0.00    -0.248 NA
ATOM     53  C   UNL A   1      39.351  25.932  28.327  1.00  0.00     0.031 C 
ATOM     54  C   UNL A   1      42.306  29.231  28.814  1.00  0.00     0.029 A 
ATOM     55  N   UNL A   1      40.698  30.521  29.640  1.00  0.00    -0.354 N 
ATOM     56  C   UNL A   1      41.500  25.153  28.502  1.00  0.00     0.074 A 
ATOM     57  C   UNL A   1      40.134  24.869  28.128  1.00  0.00     0.031 C 
ATOM     58  C   UNL A   1      42.876  30.361  29.283  1.00  0.00     0.029 A 
ATOM     59  C   UNL A   1      41.899  31.012  30.144  1.00  0.00     0.049 A 
ATOM     60  H   UNL A   1      39.846  31.013  29.593  1.00  0.00     0.167 HD
ATOM     61  C   UNL A   1      42.736  24.722  28.124  1.00  0.00     0.034 A 
ATOM     62  C   UNL A   1      41.953  31.158  31.508  1.00  0.00     0.034 A 
ATOM     63  C   UNL A   1      43.786  25.607  28.688  1.00  0.00     0.049 A 
ATOM     64  C   UNL A   1      42.865  30.120  32.145  1.00  0.00     0.074 A 
ATOM     65  C   UNL A   1      44.603  26.609  28.189  1.00  0.00     0.029 A 
ATOM     66  N   UNL A   1      43.853  25.738  30.065  1.00  0.00    -0.354 N 
ATOM     67  N   UNL A   1      43.516  29.207  31.475  1.00  0.00    -0.248 NA
ATOM     68  C   UNL A   1      43.090  30.000  33.582  1.00  0.00     0.031 C 
ATOM     69  C   UNL A   1      45.097  27.378  29.299  1.00  0.00     0.029 A 
ATOM     70  C   UNL A   1      44.603  26.826  30.470  1.00  0.00     0.049 A 
ATOM     71  H   UNL A   1      43.412  25.119  30.690  1.00  0.00     0.167 HD
ATOM     72  C   UNL A   1      44.072  28.299  32.328  1.00  0.00     0.074 A 
ATOM     73  C   UNL A   1      43.816  28.868  33.646  1.00  0.00     0.031 C 
ATOM     74  C   UNL A   1      44.652  27.133  31.903  1.00  0.00     0.034 A 
BRANCH  61  75
ATOM     75  C   UNL A   1      43.016  23.687  27.047  1.00  0.00     0.023 A 
ATOM     76  C   UNL A   1      43.632  24.156  25.865  1.00  0.00     0.012 A 
ATOM     77  C   UNL A   1      42.715  22.303  27.074  1.00  0.00     0.148 A 
ATOM     78  C   UNL A   1      43.874  23.332  24.762  1.00  0.00     0.002 A 
ATOM     79  C   UNL A   1      42.916  21.485  25.957  1.00  0.00     0.091 A 
ATOM     80  F   UNL A   1      42.294  21.725  28.197  1.00  0.00    -0.205 F 
ATOM     81  C   UNL A   1      43.496  21.999  24.798  1.00  0.00     0.022 A 
BRANCH  79  82
ATOM     82  S   UNL A   1      42.420  19.751  25.916  1.00  0.00     0.127 S 
ATOM     83  O   UNL A   1      40.960  19.854  25.853  1.00  0.00    -0.237 OA
ATOM     84  O   UNL A   1      43.050  19.276  24.686  1.00  0.00    -0.237 OA
ATOM     85  O   UNL A   1      42.920  19.149  27.147  1.00  0.00    -0.744 OA
ENDBRANCH  79  82
ENDBRANCH  61  75
BRANCH  62  86
ATOM     86  C   UNL A   1      40.606  31.634  32.036  1.00  0.00     0.023 A 
ATOM     87  C   UNL A   1      39.606  30.628  32.157  1.00  0.00     0.012 A 
ATOM     88  C   UNL A   1      40.449  32.803  32.806  1.00  0.00     0.148 A 
ATOM     89  C   UNL A   1      38.653  30.675  33.177  1.00  0.00     0.002 A 
ATOM     90  C   UNL A   1      39.426  32.879  33.761  1.00  0.00     0.091 A 
ATOM     91  F   UNL A   1      41.312  33.812  32.640  1.00  0.00    -0.205 F 
ATOM     92  C   UNL A   1      38.569  31.795  33.990  1.00  0.00     0.022 A 
BRANCH  90  93
ATOM     93  S   UNL A   1      39.230  34.348  34.780  1.00  0.00     0.127 S 
ATOM     94  O   UNL A   1      38.546  35.253  33.859  1.00  0.00    -0.237 OA
ATOM     95  O   UNL A   1      38.406  33.888  35.898  1.00  0.00    -0.237 OA
ATOM     96  O   UNL A   1      40.589  34.713  35.158  1.00  0.00    -0.744 OA
ENDBRANCH  90  93
ENDBRANCH  62  86
BRANCH  74  97
ATOM     97  C   UNL A   1      45.318  26.158  32.853  1.00  0.00     0.023 A 
ATOM     98  C   UNL A   1      46.712  25.967  32.811  1.00  0.00     0.012 A 
ATOM     99  C   UNL A   1      44.581  25.303  33.713  1.00  0.00     0.148 A 
ATOM    100  C   UNL A   1      47.350  25.039  33.640  1.00  0.00     0.002 A 
ATOM    101  C   UNL A   1      45.205  24.301  34.441  1.00  0.00     0.091 A 
ATOM    102  F   UNL A   1      43.270  25.487  33.886  1.00  0.00    -0.205 F 
ATOM    103  C   UNL A   1      46.595  24.192  34.440  1.00  0.00     0.022 A 
BRANCH 101 104
ATOM    104  S   UNL A   1      44.271  23.032  35.311  1.00  0.00     0.127 S 
ATOM    105  O   UNL A   1      44.589  21.840  34.521  1.00  0.00    -0.237 OA
ATOM    106  O   UNL A   1      44.882  23.068  36.637  1.00  0.00    -0.237 OA
ATOM    107  O   UNL A   1      42.875  23.439  35.245  1.00  0.00    -0.744 OA
ENDBRANCH 101 104
ENDBRANCH  74  97
ENDBRANCH  48  49
ENDBRANCH  40  43
ENDBRANCH  38  39
ENDBRANCH  37  38
ENDBRANCH   1  37
TORSDOF 20
ENDMDL
MODEL 2
REMARK VINA RESULT:     -12.3      1.886      2.331
REMARK SMILES Cc1ccc(S(=O)(=O)N2CCCC2)cc1C(=O)N[C@H](CC1=c2ccccc2=NC1)C(=O)NCCCCNC(=O)c1ccc(-c2c3nc(c(-c4cccc(S(=O)(=O)[O-])c4F)c4ccc([nH]4)c(-c4cccc(S(=O)(=O)[O-])c4F)c4nc(c(-c5cccc(S(=O)(=O)[O-])c5F)c5ccc2[nH]5)C=C4)C=C3)cc1
REMARK SMILES IDX 34 1 33 2 32 3 30 4 31 5 19 7 18 8 16 9 17 10 15 12 1 13
REMARK SMILES IDX 2 14 3 15 4 16 14 17 5 18 6 19 7 20 8 21 9 22 10 23 13 24
REMARK SMILES IDX 11 25 12 26 20 27 21 28 22 29 29 30 23 31 27 32 28 33 24 34
REMARK SMILES IDX 26 35 25 36 35 37 36 38 37 39 38 40 39 42 40 43 41 44 102 45
REMARK SMILES IDX 42 46 101 47 43 48 44 49 45 50 95 51 46 52 100 53 94 54
REMARK SMILES IDX 96 55 47 56 99 57 93 58 92 59 48 61 80 62 60 63 79 64 61 65
REMARK SMILES IDX 64 66 78 67 97 68 62 69 63 70 77 72 98 73 65 74 49 75 50 76
REMARK SMILES IDX 58 77 51 78 53 79 59 80 52 81 54 82 55 83 56 84 57 85 81 86
REMARK SMILES IDX 82 87 90 88 83 89 85 90 91 91 84 92 86 93 87 94 88 95 89 96
REMARK SMILES IDX 66 97 67 98 75 99 68 100 70 101 76 102 69 103 71 104 72 105
REMARK SMILES IDX 73 106 74 107
REMARK H PARENT 32 6 18 11 37 41 96 60 64 71
REMARK Flexibility Score: inf
ROOT
ATOM      1  C   UNL A   1      32.591  29.248  24.921  1.00  0.00     0.023 C 
ENDROOT
BRANCH   1   2
ATOM      2  C   UNL A   1      32.290  28.549  23.594  1.00  0.00     0.116 C 
BRANCH   2   3
ATOM      3  N   UNL A   1      31.324  27.478  23.721  1.00  0.00    -0.354 N 
ATOM      4  C   UNL A   1      31.408  26.128  23.703  1.00  0.00     0.242 C 
ATOM      5  O   UNL A   1      30.376  25.547  24.069  1.00  0.00    -0.273 OA
ATOM      6  H   UNL A   1      30.403  27.804  23.847  1.00  0.00     0.163 HD
BRANCH   4   7
ATOM      7  C   UNL A   1      32.616  25.272  23.211  1.00  0.00     0.175 C 
BRANCH   7   8
ATOM      8  N   UNL A   1      32.440  23.980  22.471  1.00  0.00    -0.340 N 
ATOM      9  C   UNL A   1      32.364  22.614  22.527  1.00  0.00     0.252 C 
ATOM     10  O   UNL A   1      32.158  22.108  21.413  1.00  0.00    -0.269 OA
ATOM     11  H   UNL A   1      32.329  24.220  21.523  1.00  0.00     0.164 HD
BRANCH   9  12
ATOM     12  C   UNL A   1      32.455  21.642  23.675  1.00  0.00     0.044 A 
ATOM     13  C   UNL A   1      31.260  22.964  25.476  1.00  0.00     0.045 C 
ATOM     14  C   UNL A   1      32.005  21.803  24.986  1.00  0.00    -0.038 A 
ATOM     15  C   UNL A   1      32.231  20.835  25.986  1.00  0.00     0.005 A 
ATOM     16  C   UNL A   1      32.932  19.690  25.715  1.00  0.00     0.022 A 
ATOM     17  C   UNL A   1      33.145  20.434  23.410  1.00  0.00     0.035 A 
ATOM     18  C   UNL A   1      33.411  19.499  24.430  1.00  0.00     0.083 A 
BRANCH  18  19
ATOM     19  S   UNL A   1      34.377  18.030  24.227  1.00  0.00     0.243 S 
ATOM     20  O   UNL A   1      34.254  17.639  22.842  1.00  0.00    -0.207 OA
ATOM     21  O   UNL A   1      35.666  18.332  24.817  1.00  0.00    -0.207 OA
BRANCH  19  22
ATOM     22  N   UNL A   1      33.621  16.877  25.163  1.00  0.00    -0.198 NA
ATOM     23  C   UNL A   1      32.162  16.707  25.059  1.00  0.00     0.102 C 
ATOM     24  C   UNL A   1      34.185  15.508  25.096  1.00  0.00     0.102 C 
ATOM     25  C   UNL A   1      31.953  15.590  26.064  1.00  0.00     0.018 C 
ATOM     26  C   UNL A   1      33.123  14.648  25.786  1.00  0.00     0.018 C 
ENDBRANCH  19  22
ENDBRANCH  18  19
ENDBRANCH   9  12
ENDBRANCH   7   8
BRANCH   7  27
ATOM     27  C   UNL A   1      33.992  25.488  23.977  1.00  0.00     0.068 C 
BRANCH  27  28
ATOM     28  C   UNL A   1      34.567  24.411  24.890  1.00  0.00    -0.037 C 
ATOM     29  C   UNL A   1      35.407  23.431  24.560  1.00  0.00     0.001 A 
ATOM     30  C   UNL A   1      34.184  24.225  26.338  1.00  0.00     0.174 C 
ATOM     31  C   UNL A   1      36.058  23.025  23.361  1.00  0.00     0.010 A 
ATOM     32  C   UNL A   1      35.630  22.709  25.825  1.00  0.00     0.065 A 
ATOM     33  N   UNL A   1      34.901  23.034  26.843  1.00  0.00    -0.280 NA
ATOM     34  C   UNL A   1      36.976  22.047  23.428  1.00  0.00     0.001 A 
ATOM     35  C   UNL A   1      36.686  21.684  25.838  1.00  0.00     0.028 A 
ATOM     36  C   UNL A   1      37.322  21.411  24.688  1.00  0.00     0.002 A 
ENDBRANCH  27  28
ENDBRANCH   7  27
ENDBRANCH   4   7
ENDBRANCH   2   3
ENDBRANCH   1   2
BRANCH   1  37
ATOM     37  C   UNL A   1      33.719  28.708  25.810  1.00  0.00     0.023 C 
BRANCH  37  38
ATOM     38  C   UNL A   1      33.894  29.370  27.173  1.00  0.00     0.116 C 
BRANCH  38  39
ATOM     39  N   UNL A   1      34.566  30.673  27.088  1.00  0.00    -0.352 N 
ATOM     40  C   UNL A   1      35.694  31.140  27.748  1.00  0.00     0.251 C 
ATOM     41  H   UNL A   1      34.153  31.315  26.466  1.00  0.00     0.163 HD
ATOM     42  O   UNL A   1      35.839  32.345  27.909  1.00  0.00    -0.269 OA
BRANCH  40  43
ATOM     43  C   UNL A   1      36.721  30.173  28.173  1.00  0.00     0.039 A 
ATOM     44  C   UNL A   1      36.718  29.484  29.391  1.00  0.00     0.014 A 
ATOM     45  C   UNL A   1      37.791  30.037  27.308  1.00  0.00     0.014 A 
ATOM     46  C   UNL A   1      37.832  28.710  29.726  1.00  0.00     0.010 A 
ATOM     47  C   UNL A   1      38.673  29.028  27.468  1.00  0.00     0.010 A 
ATOM     48  C   UNL A   1      38.815  28.534  28.757  1.00  0.00    -0.014 A 
BRANCH  48  49
ATOM     49  C   UNL A   1      40.144  27.993  28.935  1.00  0.00     0.031 A 
ATOM     50  C   UNL A   1      40.359  26.562  28.869  1.00  0.00     0.074 A 
ATOM     51  C   UNL A   1      41.134  28.901  28.768  1.00  0.00     0.049 A 
ATOM     52  N   UNL A   1      41.464  26.002  29.190  1.00  0.00    -0.248 NA
ATOM     53  C   UNL A   1      39.331  25.640  28.410  1.00  0.00     0.031 C 
ATOM     54  C   UNL A   1      42.509  28.761  28.327  1.00  0.00     0.029 A 
ATOM     55  N   UNL A   1      41.023  30.265  29.005  1.00  0.00    -0.354 N 
ATOM     56  C   UNL A   1      41.430  24.747  28.631  1.00  0.00     0.074 A 
ATOM     57  C   UNL A   1      40.036  24.508  28.343  1.00  0.00     0.031 C 
ATOM     58  C   UNL A   1      43.170  29.904  28.610  1.00  0.00     0.029 A 
ATOM     59  C   UNL A   1      42.272  30.738  29.397  1.00  0.00     0.049 A 
ATOM     60  H   UNL A   1      40.203  30.803  28.913  1.00  0.00     0.167 HD
ATOM     61  C   UNL A   1      42.620  24.181  28.283  1.00  0.00     0.034 A 
ATOM     62  C   UNL A   1      42.389  31.072  30.723  1.00  0.00     0.034 A 
ATOM     63  C   UNL A   1      43.747  25.062  28.682  1.00  0.00     0.049 A 
ATOM     64  C   UNL A   1      43.256  30.074  31.476  1.00  0.00     0.074 A 
ATOM     65  C   UNL A   1      44.606  25.924  28.019  1.00  0.00     0.029 A 
ATOM     66  N   UNL A   1      43.877  25.383  30.022  1.00  0.00    -0.354 N 
ATOM     67  N   UNL A   1      43.819  29.031  30.925  1.00  0.00    -0.248 NA
ATOM     68  C   UNL A   1      43.530  30.144  32.908  1.00  0.00     0.031 C 
ATOM     69  C   UNL A   1      45.192  26.806  28.990  1.00  0.00     0.029 A 
ATOM     70  C   UNL A   1      44.711  26.463  30.243  1.00  0.00     0.049 A 
ATOM     71  H   UNL A   1      43.421  24.892  30.744  1.00  0.00     0.167 HD
ATOM     72  C   UNL A   1      44.349  28.218  31.884  1.00  0.00     0.074 A 
ATOM     73  C   UNL A   1      44.183  28.985  33.112  1.00  0.00     0.031 C 
ATOM     74  C   UNL A   1      44.836  26.966  31.615  1.00  0.00     0.034 A 
BRANCH  61  75
ATOM     75  C   UNL A   1      42.789  22.987  27.359  1.00  0.00     0.023 A 
ATOM     76  C   UNL A   1      42.025  21.839  27.664  1.00  0.00     0.012 A 
ATOM     77  C   UNL A   1      43.640  22.875  26.232  1.00  0.00     0.148 A 
ATOM     78  C   UNL A   1      42.139  20.643  26.949  1.00  0.00     0.002 A 
ATOM     79  C   UNL A   1      43.789  21.668  25.541  1.00  0.00     0.091 A 
ATOM     80  F   UNL A   1      44.273  23.944  25.754  1.00  0.00    -0.205 F 
ATOM     81  C   UNL A   1      43.038  20.548  25.899  1.00  0.00     0.022 A 
BRANCH  79  82
ATOM     82  S   UNL A   1      44.963  21.459  24.186  1.00  0.00     0.127 S 
ATOM     83  O   UNL A   1      46.242  21.730  24.847  1.00  0.00    -0.237 OA
ATOM     84  O   UNL A   1      44.758  20.061  23.810  1.00  0.00    -0.237 OA
ATOM     85  O   UNL A   1      44.600  22.440  23.170  1.00  0.00    -0.744 OA
ENDBRANCH  79  82
ENDBRANCH  61  75
BRANCH  62  86
ATOM     86  C   UNL A   1      41.097  31.711  31.217  1.00  0.00     0.023 A 
ATOM     87  C   UNL A   1      40.555  32.723  30.375  1.00  0.00     0.012 A 
ATOM     88  C   UNL A   1      40.223  31.081  32.124  1.00  0.00     0.148 A 
ATOM     89  C   UNL A   1      39.174  32.906  30.264  1.00  0.00     0.002 A 
ATOM     90  C   UNL A   1      38.848  31.348  32.069  1.00  0.00     0.091 A 
ATOM     91  F   UNL A   1      40.719  30.201  33.001  1.00  0.00    -0.205 F 
ATOM     92  C   UNL A   1      38.316  32.210  31.102  1.00  0.00     0.022 A 
BRANCH  90  93
ATOM     93  S   UNL A   1      37.710  30.527  33.194  1.00  0.00     0.127 S 
ATOM     94  O   UNL A   1      36.428  30.757  32.531  1.00  0.00    -0.237 OA
ATOM     95  O   UNL A   1      38.154  29.134  33.183  1.00  0.00    -0.237 OA
ATOM     96  O   UNL A   1      37.909  31.201  34.470  1.00  0.00    -0.744 OA
ENDBRANCH  90  93
ENDBRANCH  62  86
BRANCH  74  97
ATOM     97  C   UNL A   1      45.474  26.092  32.675  1.00  0.00     0.023 A 
ATOM     98  C   UNL A   1      46.856  25.827  32.639  1.00  0.00     0.012 A 
ATOM     99  C   UNL A   1      44.716  25.395  33.652  1.00  0.00     0.148 A 
ATOM    100  C   UNL A   1      47.467  24.985  33.573  1.00  0.00     0.002 A 
ATOM    101  C   UNL A   1      45.307  24.467  34.496  1.00  0.00     0.091 A 
ATOM    102  F   UNL A   1      43.419  25.665  33.818  1.00  0.00    -0.205 F 
ATOM    103  C   UNL A   1      46.689  24.290  34.490  1.00  0.00     0.022 A 
BRANCH 101 104
ATOM    104  S   UNL A   1      44.331  23.372  35.540  1.00  0.00     0.127 S 
ATOM    105  O   UNL A   1      43.547  22.639  34.543  1.00  0.00    -0.237 OA
ATOM    106  O   UNL A   1      45.370  22.586  36.200  1.00  0.00    -0.237 OA
ATOM    107  O   UNL A   1      43.542  24.235  36.407  1.00  0.00    -0.744 OA
ENDBRANCH 101 104
ENDBRANCH  74  97
ENDBRANCH  48  49
ENDBRANCH  40  43
ENDBRANCH  38  39
ENDBRANCH  37  38
ENDBRANCH   1  37
TORSDOF 20
ENDMDL
MODEL 3
REMARK VINA RESULT:     -11.9      2.047      2.985
REMARK SMILES Cc1ccc(S(=O)(=O)N2CCCC2)cc1C(=O)N[C@H](CC1=c2ccccc2=NC1)C(=O)NCCCCNC(=O)c1ccc(-c2c3nc(c(-c4cccc(S(=O)(=O)[O-])c4F)c4ccc([nH]4)c(-c4cccc(S(=O)(=O)[O-])c4F)c4nc(c(-c5cccc(S(=O)(=O)[O-])c5F)c5ccc2[nH]5)C=C4)C=C3)cc1
REMARK SMILES IDX 34 1 33 2 32 3 30 4 31 5 19 7 18 8 16 9 17 10 15 12 1 13
REMARK SMILES IDX 2 14 3 15 4 16 14 17 5 18 6 19 7 20 8 21 9 22 10 23 13 24
REMARK SMILES IDX 11 25 12 26 20 27 21 28 22 29 29 30 23 31 27 32 28 33 24 34
REMARK SMILES IDX 26 35 25 36 35 37 36 38 37 39 38 40 39 42 40 43 41 44 102 45
REMARK SMILES IDX 42 46 101 47 43 48 44 49 45 50 95 51 46 52 100 53 94 54
REMARK SMILES IDX 96 55 47 56 99 57 93 58 92 59 48 61 80 62 60 63 79 64 61 65
REMARK SMILES IDX 64 66 78 67 97 68 62 69 63 70 77 72 98 73 65 74 49 75 50 76
REMARK SMILES IDX 58 77 51 78 53 79 59 80 52 81 54 82 55 83 56 84 57 85 81 86
REMARK SMILES IDX 82 87 90 88 83 89 85 90 91 91 84 92 86 93 87 94 88 95 89 96
REMARK SMILES IDX 66 97 67 98 75 99 68 100 70 101 76 102 69 103 71 104 72 105
REMARK SMILES IDX 73 106 74 107
REMARK H PARENT 32 6 18 11 37 41 96 60 64 71
REMARK Flexibility Score: inf
ROOT
ATOM      1  C   UNL A   1      32.844  29.210  24.458  1.00  0.00     0.023 C 
ENDROOT
BRANCH   1   2
ATOM      2  C   UNL A   1      31.496  28.495  24.559  1.00  0.00     0.116 C 
BRANCH   2   3
ATOM      3  N   UNL A   1      31.341  27.743  25.788  1.00  0.00    -0.354 N 
ATOM      4  C   UNL A   1      31.239  26.426  26.078  1.00  0.00     0.242 C 
ATOM      5  O   UNL A   1      31.342  26.159  27.284  1.00  0.00    -0.273 OA
ATOM      6  H   UNL A   1      31.300  28.317  26.587  1.00  0.00     0.163 HD
BRANCH   4   7
ATOM      7  C   UNL A   1      30.944  25.267  25.077  1.00  0.00     0.175 C 
BRANCH   7   8
ATOM      8  N   UNL A   1      30.428  23.930  25.521  1.00  0.00    -0.340 N 
ATOM      9  C   UNL A   1      30.716  22.660  25.944  1.00  0.00     0.252 C 
ATOM     10  O   UNL A   1      29.692  22.003  26.191  1.00  0.00    -0.269 OA
ATOM     11  H   UNL A   1      29.446  23.994  25.498  1.00  0.00     0.164 HD
BRANCH   9  12
ATOM     12  C   UNL A   1      32.020  21.946  26.186  1.00  0.00     0.044 A 
ATOM     13  C   UNL A   1      32.997  23.404  28.013  1.00  0.00     0.045 C 
ATOM     14  C   UNL A   1      33.047  22.287  27.068  1.00  0.00    -0.038 A 
ATOM     15  C   UNL A   1      34.257  21.567  27.132  1.00  0.00     0.005 A 
ATOM     16  C   UNL A   1      34.490  20.501  26.304  1.00  0.00     0.022 A 
ATOM     17  C   UNL A   1      32.269  20.818  25.365  1.00  0.00     0.035 A 
ATOM     18  C   UNL A   1      33.504  20.140  25.402  1.00  0.00     0.083 A 
BRANCH  18  19
ATOM     19  S   UNL A   1      33.957  18.810  24.326  1.00  0.00     0.243 S 
ATOM     20  O   UNL A   1      33.146  18.941  23.137  1.00  0.00    -0.207 OA
ATOM     21  O   UNL A   1      35.405  18.840  24.262  1.00  0.00    -0.207 OA
BRANCH  19  22
ATOM     22  N   UNL A   1      33.489  17.423  25.124  1.00  0.00    -0.198 NA
ATOM     23  C   UNL A   1      32.085  16.988  25.049  1.00  0.00     0.102 C 
ATOM     24  C   UNL A   1      34.296  16.210  24.854  1.00  0.00     0.102 C 
ATOM     25  C   UNL A   1      32.151  15.735  25.902  1.00  0.00     0.018 C 
ATOM     26  C   UNL A   1      33.458  15.080  25.458  1.00  0.00     0.018 C 
ENDBRANCH  19  22
ENDBRANCH  18  19
ENDBRANCH   9  12
ENDBRANCH   7   8
BRANCH   7  27
ATOM     27  C   UNL A   1      31.710  25.324  23.685  1.00  0.00     0.068 C 
BRANCH  27  28
ATOM     28  C   UNL A   1      32.854  24.366  23.372  1.00  0.00    -0.037 C 
ATOM     29  C   UNL A   1      34.026  24.273  23.998  1.00  0.00     0.001 A 
ATOM     30  C   UNL A   1      32.873  23.410  22.206  1.00  0.00     0.174 C 
ATOM     31  C   UNL A   1      34.637  24.938  25.098  1.00  0.00     0.010 A 
ATOM     32  C   UNL A   1      34.724  23.184  23.289  1.00  0.00     0.065 A 
ATOM     33  N   UNL A   1      34.180  22.720  22.210  1.00  0.00    -0.280 NA
ATOM     34  C   UNL A   1      35.809  24.474  25.560  1.00  0.00     0.001 A 
ATOM     35  C   UNL A   1      35.978  22.692  23.880  1.00  0.00     0.028 A 
ATOM     36  C   UNL A   1      36.454  23.312  24.972  1.00  0.00     0.002 A 
ENDBRANCH  27  28
ENDBRANCH   7  27
ENDBRANCH   4   7
ENDBRANCH   2   3
ENDBRANCH   1   2
BRANCH   1  37
ATOM     37  C   UNL A   1      34.129  28.428  24.758  1.00  0.00     0.023 C 
BRANCH  37  38
ATOM     38  C   UNL A   1      34.598  28.408  26.210  1.00  0.00     0.116 C 
BRANCH  38  39
ATOM     39  N   UNL A   1      34.480  29.719  26.861  1.00  0.00    -0.352 N 
ATOM     40  C   UNL A   1      35.265  30.298  27.849  1.00  0.00     0.251 C 
ATOM     41  H   UNL A   1      33.728  30.273  26.549  1.00  0.00     0.163 HD
ATOM     42  O   UNL A   1      34.777  31.154  28.575  1.00  0.00    -0.269 OA
BRANCH  40  43
ATOM     43  C   UNL A   1      36.683  29.914  27.946  1.00  0.00     0.039 A 
ATOM     44  C   UNL A   1      37.590  29.918  26.880  1.00  0.00     0.014 A 
ATOM     45  C   UNL A   1      37.078  29.438  29.183  1.00  0.00     0.014 A 
ATOM     46  C   UNL A   1      38.866  29.388  27.083  1.00  0.00     0.010 A 
ATOM     47  C   UNL A   1      38.387  29.273  29.464  1.00  0.00     0.010 A 
ATOM     48  C   UNL A   1      39.222  29.034  28.381  1.00  0.00    -0.014 A 
BRANCH  48  49
ATOM     49  C   UNL A   1      40.368  28.258  28.803  1.00  0.00     0.031 A 
ATOM     50  C   UNL A   1      40.362  26.817  28.653  1.00  0.00     0.074 A 
ATOM     51  C   UNL A   1      41.500  28.985  28.947  1.00  0.00     0.049 A 
ATOM     52  N   UNL A   1      41.256  26.055  29.161  1.00  0.00    -0.248 NA
ATOM     53  C   UNL A   1      39.340  26.117  27.891  1.00  0.00     0.031 C 
ATOM     54  C   UNL A   1      42.901  28.629  28.816  1.00  0.00     0.029 A 
ATOM     55  N   UNL A   1      41.554  30.332  29.280  1.00  0.00    -0.354 N 
ATOM     56  C   UNL A   1      41.157  24.857  28.494  1.00  0.00     0.074 A 
ATOM     57  C   UNL A   1      39.851  24.884  27.879  1.00  0.00     0.031 C 
ATOM     58  C   UNL A   1      43.648  29.621  29.346  1.00  0.00     0.029 A 
ATOM     59  C   UNL A   1      42.733  30.556  29.985  1.00  0.00     0.049 A 
ATOM     60  H   UNL A   1      40.876  31.011  29.056  1.00  0.00     0.167 HD
ATOM     61  C   UNL A   1      42.290  24.110  28.371  1.00  0.00     0.034 A 
ATOM     62  C   UNL A   1      42.584  30.793  31.328  1.00  0.00     0.034 A 
ATOM     63  C   UNL A   1      43.415  24.757  29.093  1.00  0.00     0.049 A 
ATOM     64  C   UNL A   1      43.078  29.619  32.160  1.00  0.00     0.074 A 
ATOM     65  C   UNL A   1      44.533  25.488  28.724  1.00  0.00     0.029 A 
ATOM     66  N   UNL A   1      43.272  24.977  30.452  1.00  0.00    -0.354 N 
ATOM     67  N   UNL A   1      43.583  28.524  31.656  1.00  0.00    -0.248 NA
ATOM     68  C   UNL A   1      43.011  29.563  33.618  1.00  0.00     0.031 C 
ATOM     69  C   UNL A   1      45.004  26.199  29.880  1.00  0.00     0.029 A 
ATOM     70  C   UNL A   1      44.191  25.879  30.955  1.00  0.00     0.049 A 
ATOM     71  H   UNL A   1      42.586  24.535  31.004  1.00  0.00     0.167 HD
ATOM     72  C   UNL A   1      43.734  27.580  32.629  1.00  0.00     0.074 A 
ATOM     73  C   UNL A   1      43.405  28.298  33.855  1.00  0.00     0.031 C 
ATOM     74  C   UNL A   1      44.065  26.278  32.360  1.00  0.00     0.034 A 
BRANCH  61  75
ATOM     75  C   UNL A   1      42.482  22.956  27.401  1.00  0.00     0.023 A 
ATOM     76  C   UNL A   1      41.611  21.854  27.551  1.00  0.00     0.012 A 
ATOM     77  C   UNL A   1      43.446  22.840  26.370  1.00  0.00     0.148 A 
ATOM     78  C   UNL A   1      41.724  20.692  26.783  1.00  0.00     0.002 A 
ATOM     79  C   UNL A   1      43.591  21.663  25.628  1.00  0.00     0.091 A 
ATOM     80  F   UNL A   1      44.200  23.883  26.030  1.00  0.00    -0.205 F 
ATOM     81  C   UNL A   1      42.729  20.585  25.834  1.00  0.00     0.022 A 
BRANCH  79  82
ATOM     82  S   UNL A   1      44.895  21.437  24.401  1.00  0.00     0.127 S 
ATOM     83  O   UNL A   1      44.614  20.089  23.904  1.00  0.00    -0.237 OA
ATOM     84  O   UNL A   1      44.612  22.508  23.447  1.00  0.00    -0.237 OA
ATOM     85  O   UNL A   1      46.160  21.555  25.117  1.00  0.00    -0.744 OA
ENDBRANCH  79  82
ENDBRANCH  61  75
BRANCH  62  86
ATOM     86  C   UNL A   1      41.330  31.622  31.577  1.00  0.00     0.023 A 
ATOM     87  C   UNL A   1      41.126  32.706  30.676  1.00  0.00     0.012 A 
ATOM     88  C   UNL A   1      40.207  31.133  32.272  1.00  0.00     0.148 A 
ATOM     89  C   UNL A   1      39.839  33.099  30.300  1.00  0.00     0.002 A 
ATOM     90  C   UNL A   1      38.927  31.607  31.954  1.00  0.00     0.091 A 
ATOM     91  F   UNL A   1      40.380  30.186  33.202  1.00  0.00    -0.205 F 
ATOM     92  C   UNL A   1      38.736  32.542  30.929  1.00  0.00     0.022 A 
BRANCH  90  93
ATOM     93  S   UNL A   1      37.476  30.970  32.805  1.00  0.00     0.127 S 
ATOM     94  O   UNL A   1      37.724  29.530  32.766  1.00  0.00    -0.237 OA
ATOM     95  O   UNL A   1      37.567  31.562  34.139  1.00  0.00    -0.237 OA
ATOM     96  O   UNL A   1      36.350  31.455  32.017  1.00  0.00    -0.744 OA
ENDBRANCH  90  93
ENDBRANCH  62  86
BRANCH  74  97
ATOM     97  C   UNL A   1      44.286  25.250  33.451  1.00  0.00     0.023 A 
ATOM     98  C   UNL A   1      43.212  24.829  34.258  1.00  0.00     0.012 A 
ATOM     99  C   UNL A   1      45.575  24.774  33.805  1.00  0.00     0.148 A 
ATOM    100  C   UNL A   1      43.393  23.919  35.305  1.00  0.00     0.002 A 
ATOM    101  C   UNL A   1      45.767  23.971  34.919  1.00  0.00     0.091 A 
ATOM    102  F   UNL A   1      46.630  25.045  33.032  1.00  0.00    -0.205 F 
ATOM    103  C   UNL A   1      44.674  23.506  35.648  1.00  0.00     0.022 A 
BRANCH 101 104
ATOM    104  S   UNL A   1      47.410  23.592  35.549  1.00  0.00     0.127 S 
ATOM    105  O   UNL A   1      47.831  24.893  36.073  1.00  0.00    -0.237 OA
ATOM    106  O   UNL A   1      47.114  22.589  36.569  1.00  0.00    -0.237 OA
ATOM    107  O   UNL A   1      48.185  23.127  34.408  1.00  0.00    -0.744 OA
ENDBRANCH 101 104
ENDBRANCH  74  97
ENDBRANCH  48  49
ENDBRANCH  40  43
ENDBRANCH  38  39
ENDBRANCH  37  38
ENDBRANCH   1  37
TORSDOF 20
ENDMDL
