MODEL 1
REMARK VINA RESULT:     -12.5      0.000      0.000
REMARK SMILES COc1cc2c(cc1OC)[C@H](C(=O)NCCCCNC(=O)c1ccc(-c3c4nc(c(-c5cccc(S(=O)(=O)[O-])c5F)c5ccc([nH]5)c(-c5cccc(S(=O)(=O)[O-])c5F)c5nc(c(-c6cccc(S(=O)(=O)[O-])c6F)c6ccc3[nH]6)C=C5)C=C4)cc1)[C@H](c1cccc(Cl)c1)N(C)C2=O
REMARK SMILES IDX 17 1 16 2 15 3 14 4 12 5 13 6 11 8 3 9 4 10 8 11 5 12 7 13
REMARK SMILES IDX 6 14 95 15 93 16 96 17 85 18 94 19 2 20 1 21 9 22 10 23
REMARK SMILES IDX 86 24 87 25 92 26 88 27 90 28 89 29 91 30 18 31 19 32 20 33
REMARK SMILES IDX 21 35 22 36 23 37 84 38 24 39 83 40 25 41 26 42 27 43 77 44
REMARK SMILES IDX 28 45 82 46 76 47 78 48 29 49 81 50 75 51 74 52 30 54 62 55
REMARK SMILES IDX 42 56 61 57 43 58 46 59 60 60 79 61 44 62 45 63 59 65 80 66
REMARK SMILES IDX 47 67 31 68 32 69 40 70 33 71 35 72 41 73 34 74 36 75 37 76
REMARK SMILES IDX 38 77 39 78 63 79 64 80 72 81 65 82 67 83 73 84 66 85 68 86
REMARK SMILES IDX 69 87 70 88 71 89 48 90 49 91 57 92 50 93 52 94 58 95 51 96
REMARK SMILES IDX 53 97 54 98 55 99 56 100
REMARK H PARENT 14 7 19 34 78 53 46 64
REMARK Flexibility Score: inf
ROOT
ATOM      1  C   UNL A   1      39.279  21.740  25.839  1.00  0.00     0.023 C 
ENDROOT
BRANCH   1   2
ATOM      2  C   UNL A   1      39.053  23.115  26.449  1.00  0.00     0.023 C 
BRANCH   2   3
ATOM      3  C   UNL A   1      37.988  23.985  25.800  1.00  0.00     0.116 C 
BRANCH   3   4
ATOM      4  N   UNL A   1      37.346  23.470  24.605  1.00  0.00    -0.355 N 
ATOM      5  C   UNL A   1      36.040  23.575  24.217  1.00  0.00     0.230 C 
ATOM      6  O   UNL A   1      35.796  23.431  23.014  1.00  0.00    -0.274 OA
ATOM      7  H   UNL A   1      37.933  22.975  23.988  1.00  0.00     0.163 HD
BRANCH   5   8
ATOM      8  C   UNL A   1      34.890  23.858  25.188  1.00  0.00     0.136 C 
ATOM      9  C   UNL A   1      31.690  26.370  23.706  1.00  0.00     0.161 A 
ATOM     10  C   UNL A   1      31.508  25.557  24.837  1.00  0.00     0.064 A 
ATOM     11  C   UNL A   1      32.966  26.482  23.144  1.00  0.00     0.161 A 
ATOM     12  C   UNL A   1      32.568  24.798  25.354  1.00  0.00     0.048 A 
ATOM     13  C   UNL A   1      34.018  25.729  23.683  1.00  0.00     0.056 A 
ATOM     14  C   UNL A   1      33.810  24.807  24.715  1.00  0.00    -0.016 A 
ATOM     15  C   UNL A   1      32.358  23.985  26.591  1.00  0.00     0.254 C 
ATOM     16  N   UNL A   1      33.295  22.991  26.872  1.00  0.00    -0.333 N 
ATOM     17  O   UNL A   1      31.377  24.204  27.297  1.00  0.00    -0.269 OA
ATOM     18  C   UNL A   1      34.310  22.588  25.876  1.00  0.00     0.132 C 
ATOM     19  C   UNL A   1      33.096  22.148  28.037  1.00  0.00     0.147 C 
BRANCH   9  20
ATOM     20  O   UNL A   1      30.634  26.979  23.084  1.00  0.00    -0.493 OA
ATOM     21  C   UNL A   1      29.373  26.833  23.723  1.00  0.00     0.278 C 
ENDBRANCH   9  20
BRANCH  11  22
ATOM     22  O   UNL A   1      33.378  27.232  22.077  1.00  0.00    -0.493 OA
ATOM     23  C   UNL A   1      33.957  28.507  22.299  1.00  0.00     0.278 C 
ENDBRANCH  11  22
BRANCH  18  24
ATOM     24  C   UNL A   1      33.776  21.465  24.977  1.00  0.00    -0.023 A 
ATOM     25  C   UNL A   1      32.788  21.752  24.017  1.00  0.00     0.006 A 
ATOM     26  C   UNL A   1      34.200  20.126  25.098  1.00  0.00     0.026 A 
ATOM     27  C   UNL A   1      32.200  20.730  23.260  1.00  0.00     0.002 A 
ATOM     28  C   UNL A   1      33.610  19.111  24.342  1.00  0.00     0.041 A 
ATOM     29  C   UNL A   1      32.600  19.406  23.435  1.00  0.00     0.020 A 
ATOM     30  Cl  UNL A   1      34.117  17.482  24.566  1.00  0.00    -0.084 Cl
ENDBRANCH  18  24
ENDBRANCH   5   8
ENDBRANCH   3   4
ENDBRANCH   2   3
ENDBRANCH   1   2
BRANCH   1  31
ATOM     31  C   UNL A   1      39.610  20.620  26.815  1.00  0.00     0.116 C 
BRANCH  31  32
ATOM     32  N   UNL A   1      40.455  19.570  26.259  1.00  0.00    -0.352 N 
ATOM     33  C   UNL A   1      41.809  19.559  26.009  1.00  0.00     0.251 C 
ATOM     34  H   UNL A   1      39.984  18.737  26.027  1.00  0.00     0.163 HD
ATOM     35  O   UNL A   1      42.328  18.580  25.479  1.00  0.00    -0.269 OA
BRANCH  33  36
ATOM     36  C   UNL A   1      42.627  20.748  26.329  1.00  0.00     0.039 A 
ATOM     37  C   UNL A   1      43.126  21.528  25.283  1.00  0.00     0.014 A 
ATOM     38  C   UNL A   1      42.839  21.133  27.653  1.00  0.00     0.014 A 
ATOM     39  C   UNL A   1      43.730  22.756  25.565  1.00  0.00     0.010 A 
ATOM     40  C   UNL A   1      43.346  22.398  27.926  1.00  0.00     0.010 A 
ATOM     41  C   UNL A   1      43.783  23.233  26.886  1.00  0.00    -0.014 A 
BRANCH  41  42
ATOM     42  C   UNL A   1      44.244  24.610  27.205  1.00  0.00     0.031 A 
ATOM     43  C   UNL A   1      43.266  25.640  27.704  1.00  0.00     0.074 A 
ATOM     44  C   UNL A   1      45.514  24.969  26.926  1.00  0.00     0.049 A 
ATOM     45  N   UNL A   1      43.454  26.915  27.925  1.00  0.00    -0.248 NA
ATOM     46  C   UNL A   1      41.889  25.185  27.953  1.00  0.00     0.031 C 
ATOM     47  C   UNL A   1      46.539  24.092  26.354  1.00  0.00     0.029 A 
ATOM     48  N   UNL A   1      46.153  26.178  27.056  1.00  0.00    -0.354 N 
ATOM     49  C   UNL A   1      42.214  27.422  28.293  1.00  0.00     0.074 A 
ATOM     50  C   UNL A   1      41.274  26.325  28.232  1.00  0.00     0.031 C 
ATOM     51  C   UNL A   1      47.676  24.787  26.193  1.00  0.00     0.029 A 
ATOM     52  C   UNL A   1      47.457  26.165  26.617  1.00  0.00     0.049 A 
ATOM     53  H   UNL A   1      45.718  26.979  27.429  1.00  0.00     0.167 HD
ATOM     54  C   UNL A   1      41.891  28.678  28.685  1.00  0.00     0.034 A 
ATOM     55  C   UNL A   1      48.373  27.152  26.557  1.00  0.00     0.034 A 
ATOM     56  C   UNL A   1      42.838  29.751  28.810  1.00  0.00     0.049 A 
ATOM     57  C   UNL A   1      48.002  28.526  27.046  1.00  0.00     0.074 A 
ATOM     58  C   UNL A   1      42.630  31.030  29.296  1.00  0.00     0.029 A 
ATOM     59  N   UNL A   1      44.174  29.673  28.449  1.00  0.00    -0.354 N 
ATOM     60  N   UNL A   1      46.865  28.943  27.547  1.00  0.00    -0.248 NA
ATOM     61  C   UNL A   1      49.049  29.558  26.990  1.00  0.00     0.031 C 
ATOM     62  C   UNL A   1      43.840  31.728  29.222  1.00  0.00     0.029 A 
ATOM     63  C   UNL A   1      44.802  30.881  28.697  1.00  0.00     0.049 A 
ATOM     64  H   UNL A   1      44.612  28.876  28.072  1.00  0.00     0.167 HD
ATOM     65  C   UNL A   1      47.067  30.274  27.896  1.00  0.00     0.074 A 
ATOM     66  C   UNL A   1      48.443  30.587  27.569  1.00  0.00     0.031 C 
ATOM     67  C   UNL A   1      46.188  31.161  28.421  1.00  0.00     0.034 A 
BRANCH  54  68
ATOM     68  C   UNL A   1      40.461  28.936  29.080  1.00  0.00     0.023 A 
ATOM     69  C   UNL A   1      39.518  29.259  28.082  1.00  0.00     0.012 A 
ATOM     70  C   UNL A   1      40.038  28.818  30.418  1.00  0.00     0.148 A 
ATOM     71  C   UNL A   1      38.185  29.495  28.413  1.00  0.00     0.002 A 
ATOM     72  C   UNL A   1      38.699  29.014  30.734  1.00  0.00     0.091 A 
ATOM     73  F   UNL A   1      40.953  28.535  31.357  1.00  0.00    -0.205 F 
ATOM     74  C   UNL A   1      37.774  29.364  29.736  1.00  0.00     0.022 A 
BRANCH  72  75
ATOM     75  S   UNL A   1      38.058  28.796  32.399  1.00  0.00     0.127 S 
ATOM     76  O   UNL A   1      38.894  29.723  33.161  1.00  0.00    -0.237 OA
ATOM     77  O   UNL A   1      36.664  29.214  32.252  1.00  0.00    -0.237 OA
ATOM     78  O   UNL A   1      38.238  27.386  32.711  1.00  0.00    -0.744 OA
ENDBRANCH  72  75
ENDBRANCH  54  68
BRANCH  55  79
ATOM     79  C   UNL A   1      49.758  26.857  26.089  1.00  0.00     0.023 A 
ATOM     80  C   UNL A   1      50.653  26.214  26.966  1.00  0.00     0.012 A 
ATOM     81  C   UNL A   1      50.184  27.174  24.785  1.00  0.00     0.148 A 
ATOM     82  C   UNL A   1      51.955  25.917  26.565  1.00  0.00     0.002 A 
ATOM     83  C   UNL A   1      51.468  26.828  24.374  1.00  0.00     0.091 A 
ATOM     84  F   UNL A   1      49.325  27.800  23.968  1.00  0.00    -0.205 F 
ATOM     85  C   UNL A   1      52.359  26.214  25.267  1.00  0.00     0.022 A 
BRANCH  83  86
ATOM     86  S   UNL A   1      52.030  27.057  22.682  1.00  0.00     0.127 S 
ATOM     87  O   UNL A   1      52.450  28.455  22.693  1.00  0.00    -0.237 OA
ATOM     88  O   UNL A   1      53.120  26.086  22.588  1.00  0.00    -0.237 OA
ATOM     89  O   UNL A   1      50.880  26.745  21.845  1.00  0.00    -0.744 OA
ENDBRANCH  83  86
ENDBRANCH  55  79
BRANCH  67  90
ATOM     90  C   UNL A   1      46.684  32.555  28.701  1.00  0.00     0.023 A 
ATOM     91  C   UNL A   1      47.247  32.852  29.958  1.00  0.00     0.012 A 
ATOM     92  C   UNL A   1      46.671  33.543  27.696  1.00  0.00     0.148 A 
ATOM     93  C   UNL A   1      47.769  34.119  30.218  1.00  0.00     0.002 A 
ATOM     94  C   UNL A   1      47.233  34.789  27.949  1.00  0.00     0.091 A 
ATOM     95  F   UNL A   1      46.112  33.246  26.514  1.00  0.00    -0.205 F 
ATOM     96  C   UNL A   1      47.773  35.081  29.212  1.00  0.00     0.022 A 
BRANCH  94  97
ATOM     97  S   UNL A   1      47.365  36.058  26.685  1.00  0.00     0.127 S 
ATOM     98  O   UNL A   1      48.119  37.099  27.384  1.00  0.00    -0.237 OA
ATOM     99  O   UNL A   1      48.108  35.372  25.629  1.00  0.00    -0.237 OA
ATOM    100  O   UNL A   1      45.997  36.410  26.327  1.00  0.00    -0.744 OA
ENDBRANCH  94  97
ENDBRANCH  67  90
ENDBRANCH  41  42
ENDBRANCH  33  36
ENDBRANCH  31  32
ENDBRANCH   1  31
TORSDOF 17
ENDMDL
MODEL 2
REMARK VINA RESULT:     -12.5      0.456      7.488
REMARK SMILES COc1cc2c(cc1OC)[C@H](C(=O)NCCCCNC(=O)c1ccc(-c3c4nc(c(-c5cccc(S(=O)(=O)[O-])c5F)c5ccc([nH]5)c(-c5cccc(S(=O)(=O)[O-])c5F)c5nc(c(-c6cccc(S(=O)(=O)[O-])c6F)c6ccc3[nH]6)C=C5)C=C4)cc1)[C@H](c1cccc(Cl)c1)N(C)C2=O
REMARK SMILES IDX 17 1 16 2 15 3 14 4 12 5 13 6 11 8 3 9 4 10 8 11 5 12 7 13
REMARK SMILES IDX 6 14 95 15 93 16 96 17 85 18 94 19 2 20 1 21 9 22 10 23
REMARK SMILES IDX 86 24 87 25 92 26 88 27 90 28 89 29 91 30 18 31 19 32 20 33
REMARK SMILES IDX 21 35 22 36 23 37 84 38 24 39 83 40 25 41 26 42 27 43 77 44
REMARK SMILES IDX 28 45 82 46 76 47 78 48 29 49 81 50 75 51 74 52 30 54 62 55
REMARK SMILES IDX 42 56 61 57 43 58 46 59 60 60 79 61 44 62 45 63 59 65 80 66
REMARK SMILES IDX 47 67 31 68 32 69 40 70 33 71 35 72 41 73 34 74 36 75 37 76
REMARK SMILES IDX 38 77 39 78 63 79 64 80 72 81 65 82 67 83 73 84 66 85 68 86
REMARK SMILES IDX 69 87 70 88 71 89 48 90 49 91 57 92 50 93 52 94 58 95 51 96
REMARK SMILES IDX 53 97 54 98 55 99 56 100
REMARK H PARENT 14 7 19 34 78 53 46 64
REMARK Flexibility Score: inf
ROOT
ATOM      1  C   UNL A   1      39.396  21.646  25.752  1.00  0.00     0.023 C 
ENDROOT
BRANCH   1   2
ATOM      2  C   UNL A   1      39.142  23.001  26.394  1.00  0.00     0.023 C 
BRANCH   2   3
ATOM      3  C   UNL A   1      37.946  23.788  25.881  1.00  0.00     0.116 C 
BRANCH   3   4
ATOM      4  N   UNL A   1      37.317  23.321  24.660  1.00  0.00    -0.355 N 
ATOM      5  C   UNL A   1      36.022  23.470  24.248  1.00  0.00     0.230 C 
ATOM      6  O   UNL A   1      35.801  23.364  23.036  1.00  0.00    -0.274 OA
ATOM      7  H   UNL A   1      37.905  22.828  24.042  1.00  0.00     0.163 HD
BRANCH   5   8
ATOM      8  C   UNL A   1      34.860  23.755  25.202  1.00  0.00     0.136 C 
ATOM      9  C   UNL A   1      31.729  26.344  23.702  1.00  0.00     0.161 A 
ATOM     10  C   UNL A   1      31.512  25.516  24.816  1.00  0.00     0.064 A 
ATOM     11  C   UNL A   1      33.017  26.444  23.166  1.00  0.00     0.161 A 
ATOM     12  C   UNL A   1      32.550  24.731  25.341  1.00  0.00     0.048 A 
ATOM     13  C   UNL A   1      34.046  25.665  23.712  1.00  0.00     0.056 A 
ATOM     14  C   UNL A   1      33.804  24.730  24.725  1.00  0.00    -0.016 A 
ATOM     15  C   UNL A   1      32.304  23.902  26.560  1.00  0.00     0.254 C 
ATOM     16  N   UNL A   1      33.220  22.889  26.842  1.00  0.00    -0.333 N 
ATOM     17  O   UNL A   1      31.313  24.126  27.251  1.00  0.00    -0.269 OA
ATOM     18  C   UNL A   1      34.246  22.485  25.858  1.00  0.00     0.132 C 
ATOM     19  C   UNL A   1      32.985  22.030  27.989  1.00  0.00     0.147 C 
BRANCH   9  20
ATOM     20  O   UNL A   1      30.695  26.980  23.071  1.00  0.00    -0.493 OA
ATOM     21  C   UNL A   1      30.487  28.337  23.440  1.00  0.00     0.278 C 
ENDBRANCH   9  20
BRANCH  11  22
ATOM     22  O   UNL A   1      33.461  27.204  22.119  1.00  0.00    -0.493 OA
ATOM     23  C   UNL A   1      34.027  28.479  22.370  1.00  0.00     0.278 C 
ENDBRANCH  11  22
BRANCH  18  24
ATOM     24  C   UNL A   1      33.710  21.385  24.932  1.00  0.00    -0.023 A 
ATOM     25  C   UNL A   1      32.741  21.703  23.962  1.00  0.00     0.006 A 
ATOM     26  C   UNL A   1      34.116  20.039  25.034  1.00  0.00     0.026 A 
ATOM     27  C   UNL A   1      32.151  20.702  23.178  1.00  0.00     0.002 A 
ATOM     28  C   UNL A   1      33.524  19.046  24.252  1.00  0.00     0.041 A 
ATOM     29  C   UNL A   1      32.531  19.370  23.335  1.00  0.00     0.020 A 
ATOM     30  Cl  UNL A   1      34.005  17.406  24.453  1.00  0.00    -0.084 Cl
ENDBRANCH  18  24
ENDBRANCH   5   8
ENDBRANCH   3   4
ENDBRANCH   2   3
ENDBRANCH   1   2
BRANCH   1  31
ATOM     31  C   UNL A   1      39.691  20.497  26.706  1.00  0.00     0.116 C 
BRANCH  31  32
ATOM     32  N   UNL A   1      40.602  19.492  26.171  1.00  0.00    -0.352 N 
ATOM     33  C   UNL A   1      41.945  19.575  25.882  1.00  0.00     0.251 C 
ATOM     34  H   UNL A   1      40.192  18.616  25.989  1.00  0.00     0.163 HD
ATOM     35  O   UNL A   1      42.525  18.615  25.379  1.00  0.00    -0.269 OA
BRANCH  33  36
ATOM     36  C   UNL A   1      42.675  20.837  26.126  1.00  0.00     0.039 A 
ATOM     37  C   UNL A   1      43.005  21.649  25.038  1.00  0.00     0.014 A 
ATOM     38  C   UNL A   1      42.969  21.251  27.425  1.00  0.00     0.014 A 
ATOM     39  C   UNL A   1      43.515  22.930  25.264  1.00  0.00     0.010 A 
ATOM     40  C   UNL A   1      43.379  22.561  27.650  1.00  0.00     0.010 A 
ATOM     41  C   UNL A   1      43.642  23.422  26.573  1.00  0.00    -0.014 A 
BRANCH  41  42
ATOM     42  C   UNL A   1      44.001  24.839  26.848  1.00  0.00     0.031 A 
ATOM     43  C   UNL A   1      45.423  25.305  26.687  1.00  0.00     0.074 A 
ATOM     44  C   UNL A   1      43.075  25.673  27.364  1.00  0.00     0.049 A 
ATOM     45  N   UNL A   1      45.949  26.465  26.987  1.00  0.00    -0.248 NA
ATOM     46  C   UNL A   1      46.387  24.331  26.151  1.00  0.00     0.031 C 
ATOM     47  C   UNL A   1      41.683  25.320  27.656  1.00  0.00     0.029 A 
ATOM     48  N   UNL A   1      43.172  26.983  27.766  1.00  0.00    -0.354 N 
ATOM     49  C   UNL A   1      47.307  26.345  26.721  1.00  0.00     0.074 A 
ATOM     50  C   UNL A   1      47.531  24.989  26.269  1.00  0.00     0.031 C 
ATOM     51  C   UNL A   1      41.057  26.387  28.178  1.00  0.00     0.029 A 
ATOM     52  C   UNL A   1      42.005  27.489  28.291  1.00  0.00     0.049 A 
ATOM     53  H   UNL A   1      44.000  27.510  27.686  1.00  0.00     0.167 HD
ATOM     54  C   UNL A   1      48.277  27.286  26.807  1.00  0.00     0.034 A 
ATOM     55  C   UNL A   1      41.730  28.702  28.810  1.00  0.00     0.034 A 
ATOM     56  C   UNL A   1      48.043  28.651  27.192  1.00  0.00     0.049 A 
ATOM     57  C   UNL A   1      42.814  29.746  28.847  1.00  0.00     0.074 A 
ATOM     58  C   UNL A   1      48.938  29.705  27.211  1.00  0.00     0.029 A 
ATOM     59  N   UNL A   1      46.824  29.153  27.623  1.00  0.00    -0.354 N 
ATOM     60  N   UNL A   1      44.055  29.659  28.435  1.00  0.00    -0.248 NA
ATOM     61  C   UNL A   1      42.451  31.063  29.392  1.00  0.00     0.031 C 
ATOM     62  C   UNL A   1      48.263  30.844  27.662  1.00  0.00     0.029 A 
ATOM     63  C   UNL A   1      46.945  30.500  27.916  1.00  0.00     0.049 A 
ATOM     64  H   UNL A   1      45.996  28.628  27.709  1.00  0.00     0.167 HD
ATOM     65  C   UNL A   1      44.613  30.917  28.640  1.00  0.00     0.074 A 
ATOM     66  C   UNL A   1      43.567  31.753  29.193  1.00  0.00     0.031 C 
ATOM     67  C   UNL A   1      45.881  31.335  28.410  1.00  0.00     0.034 A 
BRANCH  54  68
ATOM     68  C   UNL A   1      49.672  26.886  26.404  1.00  0.00     0.023 A 
ATOM     69  C   UNL A   1      50.458  26.134  27.301  1.00  0.00     0.012 A 
ATOM     70  C   UNL A   1      50.188  27.209  25.134  1.00  0.00     0.148 A 
ATOM     71  C   UNL A   1      51.750  25.740  26.955  1.00  0.00     0.002 A 
ATOM     72  C   UNL A   1      51.461  26.778  24.781  1.00  0.00     0.091 A 
ATOM     73  F   UNL A   1      49.435  27.947  24.305  1.00  0.00    -0.205 F 
ATOM     74  C   UNL A   1      52.247  26.053  25.694  1.00  0.00     0.022 A 
BRANCH  72  75
ATOM     75  S   UNL A   1      52.162  27.069  23.153  1.00  0.00     0.127 S 
ATOM     76  O   UNL A   1      53.159  26.004  23.065  1.00  0.00    -0.237 OA
ATOM     77  O   UNL A   1      51.002  26.891  22.279  1.00  0.00    -0.237 OA
ATOM     78  O   UNL A   1      52.691  28.425  23.186  1.00  0.00    -0.744 OA
ENDBRANCH  72  75
ENDBRANCH  54  68
BRANCH  55  79
ATOM     79  C   UNL A   1      40.346  29.023  29.262  1.00  0.00     0.023 A 
ATOM     80  C   UNL A   1      39.391  29.422  28.307  1.00  0.00     0.012 A 
ATOM     81  C   UNL A   1      39.959  28.907  30.611  1.00  0.00     0.148 A 
ATOM     82  C   UNL A   1      38.085  29.726  28.688  1.00  0.00     0.002 A 
ATOM     83  C   UNL A   1      38.641  29.163  30.977  1.00  0.00     0.091 A 
ATOM     84  F   UNL A   1      40.885  28.542  31.509  1.00  0.00    -0.205 F 
ATOM     85  C   UNL A   1      37.707  29.587  30.020  1.00  0.00     0.022 A 
BRANCH  83  86
ATOM     86  S   UNL A   1      38.037  28.886  32.647  1.00  0.00     0.127 S 
ATOM     87  O   UNL A   1      38.922  29.741  33.431  1.00  0.00    -0.237 OA
ATOM     88  O   UNL A   1      36.653  29.352  32.553  1.00  0.00    -0.237 OA
ATOM     89  O   UNL A   1      38.169  27.453  32.875  1.00  0.00    -0.744 OA
ENDBRANCH  83  86
ENDBRANCH  55  79
BRANCH  67  90
ATOM     90  C   UNL A   1      46.214  32.768  28.730  1.00  0.00     0.023 A 
ATOM     91  C   UNL A   1      46.861  33.076  29.943  1.00  0.00     0.012 A 
ATOM     92  C   UNL A   1      45.965  33.794  27.797  1.00  0.00     0.148 A 
ATOM     93  C   UNL A   1      47.234  34.388  30.233  1.00  0.00     0.002 A 
ATOM     94  C   UNL A   1      46.380  35.092  28.074  1.00  0.00     0.091 A 
ATOM     95  F   UNL A   1      45.331  33.483  26.657  1.00  0.00    -0.205 F 
ATOM     96  C   UNL A   1      47.006  35.391  29.295  1.00  0.00     0.022 A 
BRANCH  94  97
ATOM     97  S   UNL A   1      46.211  36.429  26.887  1.00  0.00     0.127 S 
ATOM     98  O   UNL A   1      46.862  37.535  27.589  1.00  0.00    -0.237 OA
ATOM     99  O   UNL A   1      46.950  35.919  25.733  1.00  0.00    -0.237 OA
ATOM    100  O   UNL A   1      44.779  36.586  26.663  1.00  0.00    -0.744 OA
ENDBRANCH  94  97
ENDBRANCH  67  90
ENDBRANCH  41  42
ENDBRANCH  33  36
ENDBRANCH  31  32
ENDBRANCH   1  31
TORSDOF 17
ENDMDL
MODEL 3
REMARK VINA RESULT:     -12.4      6.056     11.823
REMARK SMILES COc1cc2c(cc1OC)[C@H](C(=O)NCCCCNC(=O)c1ccc(-c3c4nc(c(-c5cccc(S(=O)(=O)[O-])c5F)c5ccc([nH]5)c(-c5cccc(S(=O)(=O)[O-])c5F)c5nc(c(-c6cccc(S(=O)(=O)[O-])c6F)c6ccc3[nH]6)C=C5)C=C4)cc1)[C@H](c1cccc(Cl)c1)N(C)C2=O
REMARK SMILES IDX 17 1 16 2 15 3 14 4 12 5 13 6 11 8 3 9 4 10 8 11 5 12 7 13
REMARK SMILES IDX 6 14 95 15 93 16 96 17 85 18 94 19 2 20 1 21 9 22 10 23
REMARK SMILES IDX 86 24 87 25 92 26 88 27 90 28 89 29 91 30 18 31 19 32 20 33
REMARK SMILES IDX 21 35 22 36 23 37 84 38 24 39 83 40 25 41 26 42 27 43 77 44
REMARK SMILES IDX 28 45 82 46 76 47 78 48 29 49 81 50 75 51 74 52 30 54 62 55
REMARK SMILES IDX 42 56 61 57 43 58 46 59 60 60 79 61 44 62 45 63 59 65 80 66
REMARK SMILES IDX 47 67 31 68 32 69 40 70 33 71 35 72 41 73 34 74 36 75 37 76
REMARK SMILES IDX 38 77 39 78 63 79 64 80 72 81 65 82 67 83 73 84 66 85 68 86
REMARK SMILES IDX 69 87 70 88 71 89 48 90 49 91 57 92 50 93 52 94 58 95 51 96
REMARK SMILES IDX 53 97 54 98 55 99 56 100
REMARK H PARENT 14 7 19 34 78 53 46 64
REMARK Flexibility Score: inf
ROOT
ATOM      1  C   UNL A   1      33.455  31.460  27.914  1.00  0.00     0.023 C 
ENDROOT
BRANCH   1   2
ATOM      2  C   UNL A   1      34.671  30.552  28.013  1.00  0.00     0.023 C 
BRANCH   2   3
ATOM      3  C   UNL A   1      34.468  29.094  27.632  1.00  0.00     0.116 C 
BRANCH   3   4
ATOM      4  N   UNL A   1      33.107  28.594  27.616  1.00  0.00    -0.355 N 
ATOM      5  C   UNL A   1      32.562  27.606  26.843  1.00  0.00     0.230 C 
ATOM      6  O   UNL A   1      31.529  27.070  27.260  1.00  0.00    -0.274 OA
ATOM      7  H   UNL A   1      32.489  29.026  28.250  1.00  0.00     0.163 HD
BRANCH   5   8
ATOM      8  C   UNL A   1      33.164  27.146  25.513  1.00  0.00     0.136 C 
ATOM      9  C   UNL A   1      33.211  22.876  24.795  1.00  0.00     0.161 A 
ATOM     10  C   UNL A   1      33.367  23.790  23.739  1.00  0.00     0.064 A 
ATOM     11  C   UNL A   1      33.191  23.350  26.111  1.00  0.00     0.161 A 
ATOM     12  C   UNL A   1      33.421  25.170  23.986  1.00  0.00     0.048 A 
ATOM     13  C   UNL A   1      33.262  24.730  26.340  1.00  0.00     0.056 A 
ATOM     14  C   UNL A   1      33.270  25.653  25.287  1.00  0.00    -0.016 A 
ATOM     15  C   UNL A   1      33.643  26.113  22.848  1.00  0.00     0.254 C 
ATOM     16  N   UNL A   1      33.344  27.459  23.063  1.00  0.00    -0.333 N 
ATOM     17  O   UNL A   1      34.058  25.679  21.776  1.00  0.00    -0.269 OA
ATOM     18  C   UNL A   1      32.612  27.900  24.269  1.00  0.00     0.132 C 
ATOM     19  C   UNL A   1      33.499  28.396  21.965  1.00  0.00     0.147 C 
BRANCH   9  20
ATOM     20  O   UNL A   1      32.983  21.547  24.563  1.00  0.00    -0.493 OA
ATOM     21  C   UNL A   1      32.213  21.244  23.408  1.00  0.00     0.278 C 
ENDBRANCH   9  20
BRANCH  11  22
ATOM     22  O   UNL A   1      33.085  22.649  27.280  1.00  0.00    -0.493 OA
ATOM     23  C   UNL A   1      33.985  21.586  27.544  1.00  0.00     0.278 C 
ENDBRANCH  11  22
BRANCH  18  24
ATOM     24  C   UNL A   1      31.097  27.872  24.026  1.00  0.00    -0.023 A 
ATOM     25  C   UNL A   1      30.392  26.662  24.159  1.00  0.00     0.006 A 
ATOM     26  C   UNL A   1      30.369  29.011  23.625  1.00  0.00     0.026 A 
ATOM     27  C   UNL A   1      29.031  26.580  23.835  1.00  0.00     0.002 A 
ATOM     28  C   UNL A   1      29.014  28.924  23.302  1.00  0.00     0.041 A 
ATOM     29  C   UNL A   1      28.345  27.709  23.390  1.00  0.00     0.020 A 
ATOM     30  Cl  UNL A   1      28.179  30.327  22.757  1.00  0.00    -0.084 Cl
ENDBRANCH  18  24
ENDBRANCH   5   8
ENDBRANCH   3   4
ENDBRANCH   2   3
ENDBRANCH   1   2
BRANCH   1  31
ATOM     31  C   UNL A   1      33.628  32.723  27.082  1.00  0.00     0.116 C 
BRANCH  31  32
ATOM     32  N   UNL A   1      32.914  33.884  27.599  1.00  0.00    -0.352 N 
ATOM     33  C   UNL A   1      33.178  34.673  28.696  1.00  0.00     0.251 C 
ATOM     34  H   UNL A   1      32.119  34.147  27.082  1.00  0.00     0.163 HD
ATOM     35  O   UNL A   1      32.412  35.585  28.995  1.00  0.00    -0.269 OA
BRANCH  33  36
ATOM     36  C   UNL A   1      34.355  34.387  29.543  1.00  0.00     0.039 A 
ATOM     37  C   UNL A   1      34.158  33.836  30.812  1.00  0.00     0.014 A 
ATOM     38  C   UNL A   1      35.648  34.592  29.062  1.00  0.00     0.014 A 
ATOM     39  C   UNL A   1      35.257  33.378  31.544  1.00  0.00     0.010 A 
ATOM     40  C   UNL A   1      36.728  34.044  29.744  1.00  0.00     0.010 A 
ATOM     41  C   UNL A   1      36.545  33.416  30.986  1.00  0.00    -0.014 A 
BRANCH  41  42
ATOM     42  C   UNL A   1      37.707  32.770  31.651  1.00  0.00     0.031 A 
ATOM     43  C   UNL A   1      38.413  31.616  30.991  1.00  0.00     0.074 A 
ATOM     44  C   UNL A   1      38.048  33.138  32.903  1.00  0.00     0.049 A 
ATOM     45  N   UNL A   1      39.366  30.854  31.462  1.00  0.00    -0.248 NA
ATOM     46  C   UNL A   1      37.966  31.248  29.637  1.00  0.00     0.031 C 
ATOM     47  C   UNL A   1      37.386  34.180  33.692  1.00  0.00     0.029 A 
ATOM     48  N   UNL A   1      39.017  32.653  33.748  1.00  0.00    -0.354 N 
ATOM     49  C   UNL A   1      39.600  29.893  30.487  1.00  0.00     0.074 A 
ATOM     50  C   UNL A   1      38.665  30.145  29.413  1.00  0.00     0.031 C 
ATOM     51  C   UNL A   1      37.973  34.263  34.897  1.00  0.00     0.029 A 
ATOM     52  C   UNL A   1      39.030  33.261  34.983  1.00  0.00     0.049 A 
ATOM     53  H   UNL A   1      39.644  31.938  33.494  1.00  0.00     0.167 HD
ATOM     54  C   UNL A   1      40.532  28.911  30.467  1.00  0.00     0.034 A 
ATOM     55  C   UNL A   1      39.801  33.035  36.064  1.00  0.00     0.034 A 
ATOM     56  C   UNL A   1      41.505  28.702  31.504  1.00  0.00     0.049 A 
ATOM     57  C   UNL A   1      40.864  31.972  35.997  1.00  0.00     0.074 A 
ATOM     58  C   UNL A   1      42.555  27.803  31.530  1.00  0.00     0.029 A 
ATOM     59  N   UNL A   1      41.550  29.404  32.699  1.00  0.00    -0.354 N 
ATOM     60  N   UNL A   1      41.176  31.181  34.999  1.00  0.00    -0.248 NA
ATOM     61  C   UNL A   1      41.700  31.789  37.193  1.00  0.00     0.031 C 
ATOM     62  C   UNL A   1      43.231  27.955  32.746  1.00  0.00     0.029 A 
ATOM     63  C   UNL A   1      42.605  28.955  33.472  1.00  0.00     0.049 A 
ATOM     64  H   UNL A   1      40.922  30.117  32.959  1.00  0.00     0.167 HD
ATOM     65  C   UNL A   1      42.264  30.431  35.433  1.00  0.00     0.074 A 
ATOM     66  C   UNL A   1      42.570  30.877  36.777  1.00  0.00     0.031 C 
ATOM     67  C   UNL A   1      42.935  29.449  34.785  1.00  0.00     0.034 A 
BRANCH  54  68
ATOM     68  C   UNL A   1      40.591  28.033  29.244  1.00  0.00     0.023 A 
ATOM     69  C   UNL A   1      39.702  26.945  29.134  1.00  0.00     0.012 A 
ATOM     70  C   UNL A   1      41.485  28.305  28.191  1.00  0.00     0.148 A 
ATOM     71  C   UNL A   1      39.725  26.119  28.012  1.00  0.00     0.002 A 
ATOM     72  C   UNL A   1      41.474  27.501  27.057  1.00  0.00     0.091 A 
ATOM     73  F   UNL A   1      42.341  29.329  28.324  1.00  0.00    -0.205 F 
ATOM     74  C   UNL A   1      40.603  26.402  26.971  1.00  0.00     0.022 A 
BRANCH  72  75
ATOM     75  S   UNL A   1      42.517  27.828  25.631  1.00  0.00     0.127 S 
ATOM     76  O   UNL A   1      42.276  26.643  24.811  1.00  0.00    -0.237 OA
ATOM     77  O   UNL A   1      41.940  29.064  25.101  1.00  0.00    -0.237 OA
ATOM     78  O   UNL A   1      43.869  27.968  26.153  1.00  0.00    -0.744 OA
ENDBRANCH  72  75
ENDBRANCH  54  68
BRANCH  55  79
ATOM     79  C   UNL A   1      39.652  33.888  37.278  1.00  0.00     0.023 A 
ATOM     80  C   UNL A   1      40.174  35.197  37.261  1.00  0.00     0.012 A 
ATOM     81  C   UNL A   1      38.977  33.434  38.427  1.00  0.00     0.148 A 
ATOM     82  C   UNL A   1      40.051  36.028  38.374  1.00  0.00     0.002 A 
ATOM     83  C   UNL A   1      38.813  34.287  39.515  1.00  0.00     0.091 A 
ATOM     84  F   UNL A   1      38.500  32.182  38.432  1.00  0.00    -0.205 F 
ATOM     85  C   UNL A   1      39.363  35.577  39.496  1.00  0.00     0.022 A 
BRANCH  83  86
ATOM     86  S   UNL A   1      37.830  33.834  40.950  1.00  0.00     0.127 S 
ATOM     87  O   UNL A   1      37.603  35.132  41.578  1.00  0.00    -0.237 OA
ATOM     88  O   UNL A   1      36.647  33.233  40.332  1.00  0.00    -0.237 OA
ATOM     89  O   UNL A   1      38.650  32.896  41.703  1.00  0.00    -0.744 OA
ENDBRANCH  83  86
ENDBRANCH  55  79
BRANCH  67  90
ATOM     90  C   UNL A   1      44.087  28.796  35.503  1.00  0.00     0.023 A 
ATOM     91  C   UNL A   1      45.386  29.320  35.352  1.00  0.00     0.012 A 
ATOM     92  C   UNL A   1      43.870  27.724  36.392  1.00  0.00     0.148 A 
ATOM     93  C   UNL A   1      46.457  28.771  36.055  1.00  0.00     0.002 A 
ATOM     94  C   UNL A   1      44.936  27.211  37.122  1.00  0.00     0.091 A 
ATOM     95  F   UNL A   1      42.630  27.228  36.506  1.00  0.00    -0.205 F 
ATOM     96  C   UNL A   1      46.230  27.728  36.948  1.00  0.00     0.022 A 
BRANCH  94  97
ATOM     97  S   UNL A   1      44.722  25.929  38.362  1.00  0.00     0.127 S 
ATOM     98  O   UNL A   1      43.910  24.949  37.641  1.00  0.00    -0.237 OA
ATOM     99  O   UNL A   1      46.099  25.510  38.619  1.00  0.00    -0.237 OA
ATOM    100  O   UNL A   1      44.068  26.573  39.494  1.00  0.00    -0.744 OA
ENDBRANCH  94  97
ENDBRANCH  67  90
ENDBRANCH  41  42
ENDBRANCH  33  36
ENDBRANCH  31  32
ENDBRANCH   1  31
TORSDOF 17
ENDMDL
