MODEL 1
REMARK VINA RESULT:     -12.4      0.000      0.000
REMARK SMILES Nc1ccc(C(=O)N2Cc3nc[nH]c3C[C@H]2C(=O)NCCCCNC(=O)c2ccc(-c3c4nc(c(-c5cccc(S(=O)(=O)[O-])c5F)c5ccc([nH]5)c(-c5cccc(S(=O)(=O)[O-])c5F)c5nc(c(-c6cccc(S(=O)(=O)[O-])c6F)c6ccc3[nH]6)C=C5)C=C4)cc2)cc1
REMARK SMILES IDX 21 1 20 2 19 3 17 4 18 5 16 7 8 8 9 9 10 10 15 11 11 12
REMARK SMILES IDX 14 13 12 14 13 15 6 17 7 18 5 19 2 20 3 21 91 22 4 23 90 24
REMARK SMILES IDX 1 25 22 28 23 29 24 30 25 31 26 33 27 34 28 35 89 36 29 37
REMARK SMILES IDX 88 38 30 39 31 40 32 41 82 42 33 43 87 44 81 45 83 46 34 47
REMARK SMILES IDX 86 48 80 49 79 50 35 52 67 53 47 54 66 55 48 56 51 57 65 58
REMARK SMILES IDX 84 59 49 60 50 61 64 63 85 64 52 65 36 66 37 67 45 68 38 69
REMARK SMILES IDX 40 70 46 71 39 72 41 73 42 74 43 75 44 76 68 77 69 78 77 79
REMARK SMILES IDX 70 80 72 81 78 82 71 83 73 84 74 85 75 86 76 87 53 88 54 89
REMARK SMILES IDX 62 90 55 91 57 92 63 93 56 94 58 95 59 96 60 97 61 98
REMARK H PARENT 19 6 13 16 1 26 1 27 24 32 83 51 51 62
REMARK Flexibility Score: inf
ROOT
ATOM      1  C   UNL A   1      36.993  21.123  24.509  1.00  0.00     0.023 C 
ENDROOT
BRANCH   1   2
ATOM      2  C   UNL A   1      37.160  22.439  25.268  1.00  0.00     0.116 C 
BRANCH   2   3
ATOM      3  N   UNL A   1      36.299  22.582  26.422  1.00  0.00    -0.354 N 
ATOM      4  C   UNL A   1      34.959  22.756  26.560  1.00  0.00     0.243 C 
ATOM      5  O   UNL A   1      34.514  22.520  27.691  1.00  0.00    -0.273 OA
ATOM      6  H   UNL A   1      36.782  22.546  27.280  1.00  0.00     0.163 HD
BRANCH   4   7
ATOM      7  C   UNL A   1      33.966  23.210  25.454  1.00  0.00     0.181 C 
ATOM      8  N   UNL A   1      32.487  23.063  25.719  1.00  0.00    -0.320 N 
ATOM      9  C   UNL A   1      31.679  24.220  26.163  1.00  0.00     0.178 C 
ATOM     10  C   UNL A   1      32.395  25.511  26.028  1.00  0.00     0.081 A 
ATOM     11  C   UNL A   1      34.399  24.566  24.819  1.00  0.00     0.091 C 
ATOM     12  N   UNL A   1      32.029  26.673  26.658  1.00  0.00    -0.240 NA
ATOM     13  C   UNL A   1      33.614  25.665  25.417  1.00  0.00     0.042 A 
ATOM     14  C   UNL A   1      33.013  27.516  26.423  1.00  0.00     0.197 A 
ATOM     15  N   UNL A   1      33.991  26.957  25.641  1.00  0.00    -0.348 N 
ATOM     16  H   UNL A   1      34.805  27.399  25.308  1.00  0.00     0.167 HD
BRANCH   8  17
ATOM     17  C   UNL A   1      31.738  21.904  25.460  1.00  0.00     0.254 C 
ATOM     18  O   UNL A   1      30.545  21.821  25.760  1.00  0.00    -0.269 OA
BRANCH  17  19
ATOM     19  C   UNL A   1      32.338  20.684  24.859  1.00  0.00     0.040 A 
ATOM     20  C   UNL A   1      33.187  18.239  23.723  1.00  0.00     0.031 A 
ATOM     21  C   UNL A   1      32.536  19.197  22.943  1.00  0.00     0.026 A 
ATOM     22  C   UNL A   1      33.342  18.487  25.086  1.00  0.00     0.026 A 
ATOM     23  C   UNL A   1      32.132  20.420  23.499  1.00  0.00     0.016 A 
ATOM     24  C   UNL A   1      32.896  19.686  25.654  1.00  0.00     0.016 A 
BRANCH  20  25
ATOM     25  N   UNL A   1      33.506  16.992  23.203  1.00  0.00    -0.399 N 
ATOM     26  H   UNL A   1      32.986  16.624  22.453  1.00  0.00     0.156 HD
ATOM     27  H   UNL A   1      34.253  16.477  23.583  1.00  0.00     0.156 HD
ENDBRANCH  20  25
ENDBRANCH  17  19
ENDBRANCH   8  17
ENDBRANCH   4   7
ENDBRANCH   2   3
ENDBRANCH   1   2
BRANCH   1  28
ATOM     28  C   UNL A   1      37.826  19.944  25.035  1.00  0.00     0.023 C 
BRANCH  28  29
ATOM     29  C   UNL A   1      39.099  20.314  25.796  1.00  0.00     0.116 C 
BRANCH  29  30
ATOM     30  N   UNL A   1      40.124  19.269  25.792  1.00  0.00    -0.352 N 
ATOM     31  C   UNL A   1      41.498  19.446  25.872  1.00  0.00     0.251 C 
ATOM     32  H   UNL A   1      39.803  18.340  25.724  1.00  0.00     0.163 HD
ATOM     33  O   UNL A   1      42.280  18.608  25.468  1.00  0.00    -0.269 OA
BRANCH  31  34
ATOM     34  C   UNL A   1      41.982  20.698  26.483  1.00  0.00     0.039 A 
ATOM     35  C   UNL A   1      42.254  21.826  25.707  1.00  0.00     0.014 A 
ATOM     36  C   UNL A   1      42.038  20.745  27.875  1.00  0.00     0.014 A 
ATOM     37  C   UNL A   1      42.479  23.041  26.351  1.00  0.00     0.010 A 
ATOM     38  C   UNL A   1      42.134  21.966  28.501  1.00  0.00     0.010 A 
ATOM     39  C   UNL A   1      42.381  23.118  27.751  1.00  0.00    -0.014 A 
BRANCH  39  40
ATOM     40  C   UNL A   1      42.410  24.422  28.417  1.00  0.00     0.031 A 
ATOM     41  C   UNL A   1      41.211  25.289  28.215  1.00  0.00     0.074 A 
ATOM     42  C   UNL A   1      43.344  24.779  29.325  1.00  0.00     0.049 A 
ATOM     43  N   UNL A   1      41.154  26.418  27.588  1.00  0.00    -0.248 NA
ATOM     44  C   UNL A   1      39.903  24.805  28.682  1.00  0.00     0.031 C 
ATOM     45  C   UNL A   1      44.418  23.958  29.898  1.00  0.00     0.029 A 
ATOM     46  N   UNL A   1      43.430  25.929  30.047  1.00  0.00    -0.354 N 
ATOM     47  C   UNL A   1      39.857  26.898  27.768  1.00  0.00     0.074 A 
ATOM     48  C   UNL A   1      39.096  25.794  28.293  1.00  0.00     0.031 C 
ATOM     49  C   UNL A   1      44.848  24.521  31.046  1.00  0.00     0.029 A 
ATOM     50  C   UNL A   1      44.225  25.823  31.181  1.00  0.00     0.049 A 
ATOM     51  H   UNL A   1      42.970  26.761  29.790  1.00  0.00     0.167 HD
ATOM     52  C   UNL A   1      39.569  28.228  27.680  1.00  0.00     0.034 A 
ATOM     53  C   UNL A   1      44.333  26.725  32.185  1.00  0.00     0.034 A 
ATOM     54  C   UNL A   1      40.647  28.965  27.069  1.00  0.00     0.049 A 
ATOM     55  C   UNL A   1      43.916  28.035  31.640  1.00  0.00     0.074 A 
ATOM     56  C   UNL A   1      41.333  28.887  25.872  1.00  0.00     0.029 A 
ATOM     57  N   UNL A   1      41.429  29.736  27.894  1.00  0.00    -0.354 N 
ATOM     58  N   UNL A   1      44.579  28.669  30.712  1.00  0.00    -0.248 NA
ATOM     59  C   UNL A   1      42.538  28.452  31.823  1.00  0.00     0.031 C 
ATOM     60  C   UNL A   1      42.690  29.160  26.217  1.00  0.00     0.029 A 
ATOM     61  C   UNL A   1      42.732  29.452  27.583  1.00  0.00     0.049 A 
ATOM     62  H   UNL A   1      41.114  30.371  28.578  1.00  0.00     0.167 HD
ATOM     63  C   UNL A   1      43.594  29.214  29.899  1.00  0.00     0.074 A 
ATOM     64  C   UNL A   1      42.371  29.153  30.698  1.00  0.00     0.031 C 
ATOM     65  C   UNL A   1      43.796  29.394  28.559  1.00  0.00     0.034 A 
BRANCH  52  66
ATOM     66  C   UNL A   1      38.478  28.950  28.444  1.00  0.00     0.023 A 
ATOM     67  C   UNL A   1      37.666  29.854  27.718  1.00  0.00     0.012 A 
ATOM     68  C   UNL A   1      38.394  29.010  29.852  1.00  0.00     0.148 A 
ATOM     69  C   UNL A   1      36.867  30.809  28.358  1.00  0.00     0.002 A 
ATOM     70  C   UNL A   1      37.537  29.906  30.484  1.00  0.00     0.091 A 
ATOM     71  F   UNL A   1      39.239  28.301  30.604  1.00  0.00    -0.205 F 
ATOM     72  C   UNL A   1      36.798  30.832  29.744  1.00  0.00     0.022 A 
BRANCH  70  73
ATOM     73  S   UNL A   1      37.367  29.935  32.273  1.00  0.00     0.127 S 
ATOM     74  O   UNL A   1      38.599  30.608  32.671  1.00  0.00    -0.237 OA
ATOM     75  O   UNL A   1      36.146  30.721  32.448  1.00  0.00    -0.237 OA
ATOM     76  O   UNL A   1      37.237  28.538  32.668  1.00  0.00    -0.744 OA
ENDBRANCH  70  73
ENDBRANCH  52  66
BRANCH  53  77
ATOM     77  C   UNL A   1      44.562  26.488  33.625  1.00  0.00     0.023 A 
ATOM     78  C   UNL A   1      45.849  26.659  34.169  1.00  0.00     0.012 A 
ATOM     79  C   UNL A   1      43.474  26.352  34.518  1.00  0.00     0.148 A 
ATOM     80  C   UNL A   1      46.043  26.724  35.554  1.00  0.00     0.002 A 
ATOM     81  C   UNL A   1      43.673  26.405  35.893  1.00  0.00     0.091 A 
ATOM     82  F   UNL A   1      42.234  26.264  34.017  1.00  0.00    -0.205 F 
ATOM     83  C   UNL A   1      44.955  26.604  36.417  1.00  0.00     0.022 A 
BRANCH  81  84
ATOM     84  S   UNL A   1      42.308  26.258  37.054  1.00  0.00     0.127 S 
ATOM     85  O   UNL A   1      41.834  24.896  36.798  1.00  0.00    -0.237 OA
ATOM     86  O   UNL A   1      42.979  26.445  38.336  1.00  0.00    -0.237 OA
ATOM     87  O   UNL A   1      41.358  27.296  36.671  1.00  0.00    -0.744 OA
ENDBRANCH  81  84
ENDBRANCH  53  77
BRANCH  65  88
ATOM     88  C   UNL A   1      45.191  29.227  28.006  1.00  0.00     0.023 A 
ATOM     89  C   UNL A   1      46.155  30.256  28.074  1.00  0.00     0.012 A 
ATOM     90  C   UNL A   1      45.599  27.946  27.593  1.00  0.00     0.148 A 
ATOM     91  C   UNL A   1      47.485  30.019  27.717  1.00  0.00     0.002 A 
ATOM     92  C   UNL A   1      46.933  27.702  27.285  1.00  0.00     0.091 A 
ATOM     93  F   UNL A   1      44.675  26.974  27.539  1.00  0.00    -0.205 F 
ATOM     94  C   UNL A   1      47.877  28.738  27.337  1.00  0.00     0.022 A 
BRANCH  92  95
ATOM     95  S   UNL A   1      47.523  26.048  26.921  1.00  0.00     0.127 S 
ATOM     96  O   UNL A   1      46.830  25.745  25.670  1.00  0.00    -0.237 OA
ATOM     97  O   UNL A   1      48.967  26.250  26.785  1.00  0.00    -0.237 OA
ATOM     98  O   UNL A   1      47.145  25.227  28.065  1.00  0.00    -0.744 OA
ENDBRANCH  92  95
ENDBRANCH  65  88
ENDBRANCH  39  40
ENDBRANCH  31  34
ENDBRANCH  29  30
ENDBRANCH  28  29
ENDBRANCH   1  28
TORSDOF 17
ENDMDL
MODEL 2
REMARK VINA RESULT:     -11.8      3.054      7.791
REMARK SMILES Nc1ccc(C(=O)N2Cc3nc[nH]c3C[C@H]2C(=O)NCCCCNC(=O)c2ccc(-c3c4nc(c(-c5cccc(S(=O)(=O)[O-])c5F)c5ccc([nH]5)c(-c5cccc(S(=O)(=O)[O-])c5F)c5nc(c(-c6cccc(S(=O)(=O)[O-])c6F)c6ccc3[nH]6)C=C5)C=C4)cc2)cc1
REMARK SMILES IDX 21 1 20 2 19 3 17 4 18 5 16 7 8 8 9 9 10 10 15 11 11 12
REMARK SMILES IDX 14 13 12 14 13 15 6 17 7 18 5 19 2 20 3 21 91 22 4 23 90 24
REMARK SMILES IDX 1 25 22 28 23 29 24 30 25 31 26 33 27 34 28 35 89 36 29 37
REMARK SMILES IDX 88 38 30 39 31 40 32 41 82 42 33 43 87 44 81 45 83 46 34 47
REMARK SMILES IDX 86 48 80 49 79 50 35 52 67 53 47 54 66 55 48 56 51 57 65 58
REMARK SMILES IDX 84 59 49 60 50 61 64 63 85 64 52 65 36 66 37 67 45 68 38 69
REMARK SMILES IDX 40 70 46 71 39 72 41 73 42 74 43 75 44 76 68 77 69 78 77 79
REMARK SMILES IDX 70 80 72 81 78 82 71 83 73 84 74 85 75 86 76 87 53 88 54 89
REMARK SMILES IDX 62 90 55 91 57 92 63 93 56 94 58 95 59 96 60 97 61 98
REMARK H PARENT 19 6 13 16 1 26 1 27 24 32 83 51 51 62
REMARK Flexibility Score: inf
ROOT
ATOM      1  C   UNL A   1      34.980  30.655  27.295  1.00  0.00     0.023 C 
ENDROOT
BRANCH   1   2
ATOM      2  C   UNL A   1      34.574  29.182  27.347  1.00  0.00     0.116 C 
BRANCH   2   3
ATOM      3  N   UNL A   1      33.176  28.952  27.636  1.00  0.00    -0.354 N 
ATOM      4  C   UNL A   1      32.290  28.007  27.224  1.00  0.00     0.243 C 
ATOM      5  O   UNL A   1      31.264  27.917  27.911  1.00  0.00    -0.273 OA
ATOM      6  H   UNL A   1      32.788  29.612  28.256  1.00  0.00     0.163 HD
BRANCH   4   7
ATOM      7  C   UNL A   1      32.450  27.059  26.003  1.00  0.00     0.181 C 
ATOM      8  N   UNL A   1      31.485  25.905  25.866  1.00  0.00    -0.320 N 
ATOM      9  C   UNL A   1      30.321  25.995  24.958  1.00  0.00     0.178 C 
ATOM     10  C   UNL A   1      30.391  27.159  24.043  1.00  0.00     0.081 A 
ATOM     11  C   UNL A   1      32.728  27.855  24.693  1.00  0.00     0.091 C 
ATOM     12  N   UNL A   1      29.323  27.668  23.349  1.00  0.00    -0.240 NA
ATOM     13  C   UNL A   1      31.477  27.989  23.920  1.00  0.00     0.042 A 
ATOM     14  C   UNL A   1      29.764  28.787  22.811  1.00  0.00     0.197 A 
ATOM     15  N   UNL A   1      31.085  29.010  23.105  1.00  0.00    -0.348 N 
ATOM     16  H   UNL A   1      31.641  29.759  22.790  1.00  0.00     0.167 HD
BRANCH   8  17
ATOM     17  C   UNL A   1      31.657  24.643  26.457  1.00  0.00     0.254 C 
ATOM     18  O   UNL A   1      30.828  24.174  27.240  1.00  0.00    -0.269 OA
BRANCH  17  19
ATOM     19  C   UNL A   1      32.868  23.812  26.225  1.00  0.00     0.040 A 
ATOM     20  C   UNL A   1      35.228  22.262  26.096  1.00  0.00     0.031 A 
ATOM     21  C   UNL A   1      34.045  21.713  26.593  1.00  0.00     0.026 A 
ATOM     22  C   UNL A   1      35.235  23.609  25.736  1.00  0.00     0.026 A 
ATOM     23  C   UNL A   1      32.867  22.473  26.639  1.00  0.00     0.016 A 
ATOM     24  C   UNL A   1      34.073  24.384  25.826  1.00  0.00     0.016 A 
BRANCH  20  25
ATOM     25  N   UNL A   1      36.418  21.547  26.133  1.00  0.00    -0.399 N 
ATOM     26  H   UNL A   1      36.534  20.820  26.786  1.00  0.00     0.156 HD
ATOM     27  H   UNL A   1      37.144  21.767  25.507  1.00  0.00     0.156 HD
ENDBRANCH  20  25
ENDBRANCH  17  19
ENDBRANCH   8  17
ENDBRANCH   4   7
ENDBRANCH   2   3
ENDBRANCH   1   2
BRANCH   1  28
ATOM     28  C   UNL A   1      34.016  31.633  27.985  1.00  0.00     0.023 C 
BRANCH  28  29
ATOM     29  C   UNL A   1      34.651  32.894  28.570  1.00  0.00     0.116 C 
BRANCH  29  30
ATOM     30  N   UNL A   1      34.607  32.963  30.031  1.00  0.00    -0.352 N 
ATOM     31  C   UNL A   1      35.278  32.142  30.927  1.00  0.00     0.251 C 
ATOM     32  H   UNL A   1      34.039  33.667  30.421  1.00  0.00     0.163 HD
ATOM     33  O   UNL A   1      34.899  31.991  32.071  1.00  0.00    -0.269 OA
BRANCH  31  34
ATOM     34  C   UNL A   1      36.492  31.461  30.437  1.00  0.00     0.039 A 
ATOM     35  C   UNL A   1      37.635  32.181  30.086  1.00  0.00     0.014 A 
ATOM     36  C   UNL A   1      36.489  30.068  30.458  1.00  0.00     0.014 A 
ATOM     37  C   UNL A   1      38.819  31.482  29.857  1.00  0.00     0.010 A 
ATOM     38  C   UNL A   1      37.685  29.394  30.356  1.00  0.00     0.010 A 
ATOM     39  C   UNL A   1      38.852  30.088  30.031  1.00  0.00    -0.014 A 
BRANCH  39  40
ATOM     40  C   UNL A   1      40.131  29.376  29.996  1.00  0.00     0.031 A 
ATOM     41  C   UNL A   1      40.748  29.068  31.321  1.00  0.00     0.074 A 
ATOM     42  C   UNL A   1      40.657  28.835  28.875  1.00  0.00     0.049 A 
ATOM     43  N   UNL A   1      41.848  29.543  31.804  1.00  0.00    -0.248 NA
ATOM     44  C   UNL A   1      40.013  28.206  32.258  1.00  0.00     0.031 C 
ATOM     45  C   UNL A   1      40.058  28.748  27.537  1.00  0.00     0.029 A 
ATOM     46  N   UNL A   1      41.796  28.102  28.740  1.00  0.00    -0.354 N 
ATOM     47  C   UNL A   1      42.063  28.875  33.009  1.00  0.00     0.074 A 
ATOM     48  C   UNL A   1      40.827  28.202  33.315  1.00  0.00     0.031 C 
ATOM     49  C   UNL A   1      40.685  27.788  26.827  1.00  0.00     0.029 A 
ATOM     50  C   UNL A   1      41.838  27.338  27.580  1.00  0.00     0.049 A 
ATOM     51  H   UNL A   1      42.524  28.113  29.403  1.00  0.00     0.167 HD
ATOM     52  C   UNL A   1      43.312  28.749  33.544  1.00  0.00     0.034 A 
ATOM     53  C   UNL A   1      42.735  26.371  27.278  1.00  0.00     0.034 A 
ATOM     54  C   UNL A   1      44.251  29.644  32.914  1.00  0.00     0.049 A 
ATOM     55  C   UNL A   1      43.944  26.626  28.093  1.00  0.00     0.074 A 
ATOM     56  C   UNL A   1      44.318  31.009  32.710  1.00  0.00     0.029 A 
ATOM     57  N   UNL A   1      45.153  29.094  32.037  1.00  0.00    -0.354 N 
ATOM     58  N   UNL A   1      44.702  27.676  27.940  1.00  0.00    -0.248 NA
ATOM     59  C   UNL A   1      44.080  25.932  29.360  1.00  0.00     0.031 C 
ATOM     60  C   UNL A   1      44.850  31.150  31.394  1.00  0.00     0.029 A 
ATOM     61  C   UNL A   1      45.133  29.870  30.910  1.00  0.00     0.049 A 
ATOM     62  H   UNL A   1      45.709  28.295  32.190  1.00  0.00     0.167 HD
ATOM     63  C   UNL A   1      45.050  28.039  29.234  1.00  0.00     0.074 A 
ATOM     64  C   UNL A   1      44.744  26.865  30.049  1.00  0.00     0.031 C 
ATOM     65  C   UNL A   1      45.277  29.344  29.571  1.00  0.00     0.034 A 
BRANCH  52  66
ATOM     66  C   UNL A   1      43.800  27.592  34.392  1.00  0.00     0.023 A 
ATOM     67  C   UNL A   1      44.551  27.907  35.549  1.00  0.00     0.012 A 
ATOM     68  C   UNL A   1      43.812  26.244  33.973  1.00  0.00     0.148 A 
ATOM     69  C   UNL A   1      45.325  26.947  36.212  1.00  0.00     0.002 A 
ATOM     70  C   UNL A   1      44.518  25.277  34.682  1.00  0.00     0.091 A 
ATOM     71  F   UNL A   1      43.257  25.899  32.808  1.00  0.00    -0.205 F 
ATOM     72  C   UNL A   1      45.304  25.628  35.781  1.00  0.00     0.022 A 
BRANCH  70  73
ATOM     73  S   UNL A   1      44.475  23.546  34.200  1.00  0.00     0.127 S 
ATOM     74  O   UNL A   1      45.385  22.950  35.174  1.00  0.00    -0.237 OA
ATOM     75  O   UNL A   1      43.063  23.215  34.386  1.00  0.00    -0.237 OA
ATOM     76  O   UNL A   1      44.913  23.524  32.810  1.00  0.00    -0.744 OA
ENDBRANCH  70  73
ENDBRANCH  52  66
BRANCH  53  77
ATOM     77  C   UNL A   1      42.537  25.130  26.501  1.00  0.00     0.023 A 
ATOM     78  C   UNL A   1      43.438  24.792  25.474  1.00  0.00     0.012 A 
ATOM     79  C   UNL A   1      41.620  24.144  26.934  1.00  0.00     0.148 A 
ATOM     80  C   UNL A   1      43.449  23.507  24.919  1.00  0.00     0.002 A 
ATOM     81  C   UNL A   1      41.627  22.872  26.371  1.00  0.00     0.091 A 
ATOM     82  F   UNL A   1      40.807  24.425  27.961  1.00  0.00    -0.205 F 
ATOM     83  C   UNL A   1      42.549  22.545  25.372  1.00  0.00     0.022 A 
BRANCH  81  84
ATOM     84  S   UNL A   1      40.490  21.590  26.916  1.00  0.00     0.127 S 
ATOM     85  O   UNL A   1      40.792  21.502  28.346  1.00  0.00    -0.237 OA
ATOM     86  O   UNL A   1      39.194  22.179  26.595  1.00  0.00    -0.237 OA
ATOM     87  O   UNL A   1      40.857  20.398  26.159  1.00  0.00    -0.744 OA
ENDBRANCH  81  84
ENDBRANCH  53  77
BRANCH  65  88
ATOM     88  C   UNL A   1      45.391  30.369  28.468  1.00  0.00     0.023 A 
ATOM     89  C   UNL A   1      44.258  30.923  27.835  1.00  0.00     0.012 A 
ATOM     90  C   UNL A   1      46.653  30.931  28.204  1.00  0.00     0.148 A 
ATOM     91  C   UNL A   1      44.382  31.993  26.945  1.00  0.00     0.002 A 
ATOM     92  C   UNL A   1      46.768  32.026  27.355  1.00  0.00     0.091 A 
ATOM     93  F   UNL A   1      47.724  30.401  28.816  1.00  0.00    -0.205 F 
ATOM     94  C   UNL A   1      45.636  32.555  26.717  1.00  0.00     0.022 A 
BRANCH  92  95
ATOM     95  S   UNL A   1      48.331  32.876  27.127  1.00  0.00     0.127 S 
ATOM     96  O   UNL A   1      47.944  34.009  26.290  1.00  0.00    -0.237 OA
ATOM     97  O   UNL A   1      48.703  33.229  28.499  1.00  0.00    -0.237 OA
ATOM     98  O   UNL A   1      49.225  31.908  26.502  1.00  0.00    -0.744 OA
ENDBRANCH  92  95
ENDBRANCH  65  88
ENDBRANCH  39  40
ENDBRANCH  31  34
ENDBRANCH  29  30
ENDBRANCH  28  29
ENDBRANCH   1  28
TORSDOF 17
ENDMDL
MODEL 3
REMARK VINA RESULT:     -11.8      1.434      3.211
REMARK SMILES Nc1ccc(C(=O)N2Cc3nc[nH]c3C[C@H]2C(=O)NCCCCNC(=O)c2ccc(-c3c4nc(c(-c5cccc(S(=O)(=O)[O-])c5F)c5ccc([nH]5)c(-c5cccc(S(=O)(=O)[O-])c5F)c5nc(c(-c6cccc(S(=O)(=O)[O-])c6F)c6ccc3[nH]6)C=C5)C=C4)cc2)cc1
REMARK SMILES IDX 21 1 20 2 19 3 17 4 18 5 16 7 8 8 9 9 10 10 15 11 11 12
REMARK SMILES IDX 14 13 12 14 13 15 6 17 7 18 5 19 2 20 3 21 91 22 4 23 90 24
REMARK SMILES IDX 1 25 22 28 23 29 24 30 25 31 26 33 27 34 28 35 89 36 29 37
REMARK SMILES IDX 88 38 30 39 31 40 32 41 82 42 33 43 87 44 81 45 83 46 34 47
REMARK SMILES IDX 86 48 80 49 79 50 35 52 67 53 47 54 66 55 48 56 51 57 65 58
REMARK SMILES IDX 84 59 49 60 50 61 64 63 85 64 52 65 36 66 37 67 45 68 38 69
REMARK SMILES IDX 40 70 46 71 39 72 41 73 42 74 43 75 44 76 68 77 69 78 77 79
REMARK SMILES IDX 70 80 72 81 78 82 71 83 73 84 74 85 75 86 76 87 53 88 54 89
REMARK SMILES IDX 62 90 55 91 57 92 63 93 56 94 58 95 59 96 60 97 61 98
REMARK H PARENT 19 6 13 16 1 26 1 27 24 32 83 51 51 62
REMARK Flexibility Score: inf
ROOT
ATOM      1  C   UNL A   1      37.057  21.323  24.285  1.00  0.00     0.023 C 
ENDROOT
BRANCH   1   2
ATOM      2  C   UNL A   1      35.727  21.759  24.900  1.00  0.00     0.116 C 
BRANCH   2   3
ATOM      3  N   UNL A   1      35.657  23.160  25.254  1.00  0.00    -0.354 N 
ATOM      4  C   UNL A   1      34.622  24.031  25.382  1.00  0.00     0.243 C 
ATOM      5  O   UNL A   1      34.884  25.067  26.008  1.00  0.00    -0.273 OA
ATOM      6  H   UNL A   1      36.536  23.563  25.440  1.00  0.00     0.163 HD
BRANCH   4   7
ATOM      7  C   UNL A   1      33.182  23.844  24.829  1.00  0.00     0.181 C 
ATOM      8  N   UNL A   1      33.007  23.678  23.338  1.00  0.00    -0.320 N 
ATOM      9  C   UNL A   1      32.828  22.336  22.742  1.00  0.00     0.178 C 
ATOM     10  C   UNL A   1      32.558  21.286  23.753  1.00  0.00     0.081 A 
ATOM     11  C   UNL A   1      32.352  22.864  25.711  1.00  0.00     0.091 C 
ATOM     12  N   UNL A   1      32.684  19.939  23.527  1.00  0.00    -0.240 NA
ATOM     13  C   UNL A   1      32.337  21.527  25.085  1.00  0.00     0.042 A 
ATOM     14  C   UNL A   1      32.534  19.377  24.709  1.00  0.00     0.197 A 
ATOM     15  N   UNL A   1      32.287  20.305  25.690  1.00  0.00    -0.348 N 
ATOM     16  H   UNL A   1      32.110  20.124  26.641  1.00  0.00     0.167 HD
BRANCH   8  17
ATOM     17  C   UNL A   1      32.872  24.735  22.425  1.00  0.00     0.254 C 
ATOM     18  O   UNL A   1      33.215  24.623  21.244  1.00  0.00    -0.269 OA
BRANCH  17  19
ATOM     19  C   UNL A   1      32.362  26.074  22.822  1.00  0.00     0.040 A 
ATOM     20  C   UNL A   1      31.209  28.606  23.320  1.00  0.00     0.031 A 
ATOM     21  C   UNL A   1      30.507  27.436  23.615  1.00  0.00     0.026 A 
ATOM     22  C   UNL A   1      32.457  28.495  22.709  1.00  0.00     0.026 A 
ATOM     23  C   UNL A   1      31.085  26.177  23.389  1.00  0.00     0.016 A 
ATOM     24  C   UNL A   1      33.016  27.241  22.437  1.00  0.00     0.016 A 
BRANCH  20  25
ATOM     25  N   UNL A   1      30.610  29.851  23.455  1.00  0.00    -0.399 N 
ATOM     26  H   UNL A   1      30.455  30.411  22.660  1.00  0.00     0.156 HD
ATOM     27  H   UNL A   1      30.339  30.173  24.344  1.00  0.00     0.156 HD
ENDBRANCH  20  25
ENDBRANCH  17  19
ENDBRANCH   8  17
ENDBRANCH   4   7
ENDBRANCH   2   3
ENDBRANCH   1   2
BRANCH   1  28
ATOM     28  C   UNL A   1      37.734  20.119  24.957  1.00  0.00     0.023 C 
BRANCH  28  29
ATOM     29  C   UNL A   1      38.985  20.430  25.778  1.00  0.00     0.116 C 
BRANCH  29  30
ATOM     30  N   UNL A   1      39.971  19.347  25.800  1.00  0.00    -0.352 N 
ATOM     31  C   UNL A   1      41.348  19.473  25.924  1.00  0.00     0.251 C 
ATOM     32  H   UNL A   1      39.618  18.431  25.717  1.00  0.00     0.163 HD
ATOM     33  O   UNL A   1      42.110  18.609  25.540  1.00  0.00    -0.269 OA
BRANCH  31  34
ATOM     34  C   UNL A   1      41.858  20.704  26.557  1.00  0.00     0.039 A 
ATOM     35  C   UNL A   1      42.263  21.798  25.791  1.00  0.00     0.014 A 
ATOM     36  C   UNL A   1      41.801  20.772  27.948  1.00  0.00     0.014 A 
ATOM     37  C   UNL A   1      42.511  23.009  26.436  1.00  0.00     0.010 A 
ATOM     38  C   UNL A   1      41.923  21.997  28.563  1.00  0.00     0.010 A 
ATOM     39  C   UNL A   1      42.303  23.117  27.822  1.00  0.00    -0.014 A 
BRANCH  39  40
ATOM     40  C   UNL A   1      42.359  24.429  28.470  1.00  0.00     0.031 A 
ATOM     41  C   UNL A   1      41.171  25.311  28.272  1.00  0.00     0.074 A 
ATOM     42  C   UNL A   1      43.309  24.783  29.364  1.00  0.00     0.049 A 
ATOM     43  N   UNL A   1      41.125  26.433  27.631  1.00  0.00    -0.248 NA
ATOM     44  C   UNL A   1      39.862  24.853  28.760  1.00  0.00     0.031 C 
ATOM     45  C   UNL A   1      44.378  23.953  29.935  1.00  0.00     0.029 A 
ATOM     46  N   UNL A   1      43.421  25.941  30.070  1.00  0.00    -0.354 N 
ATOM     47  C   UNL A   1      39.837  26.935  27.820  1.00  0.00     0.074 A 
ATOM     48  C   UNL A   1      39.065  25.850  28.368  1.00  0.00     0.031 C 
ATOM     49  C   UNL A   1      44.829  24.524  31.070  1.00  0.00     0.029 A 
ATOM     50  C   UNL A   1      44.228  25.836  31.196  1.00  0.00     0.049 A 
ATOM     51  H   UNL A   1      42.971  26.776  29.807  1.00  0.00     0.167 HD
ATOM     52  C   UNL A   1      39.568  28.268  27.718  1.00  0.00     0.034 A 
ATOM     53  C   UNL A   1      44.361  26.749  32.187  1.00  0.00     0.034 A 
ATOM     54  C   UNL A   1      40.650  28.981  27.085  1.00  0.00     0.049 A 
ATOM     55  C   UNL A   1      43.958  28.059  31.631  1.00  0.00     0.074 A 
ATOM     56  C   UNL A   1      41.321  28.877  25.882  1.00  0.00     0.029 A 
ATOM     57  N   UNL A   1      41.453  29.750  27.891  1.00  0.00    -0.354 N 
ATOM     58  N   UNL A   1      44.619  28.671  30.687  1.00  0.00    -0.248 NA
ATOM     59  C   UNL A   1      42.588  28.499  31.824  1.00  0.00     0.031 C 
ATOM     60  C   UNL A   1      42.686  29.135  26.207  1.00  0.00     0.029 A 
ATOM     61  C   UNL A   1      42.747  29.443  27.569  1.00  0.00     0.049 A 
ATOM     62  H   UNL A   1      41.156  30.398  28.571  1.00  0.00     0.167 HD
ATOM     63  C   UNL A   1      43.633  29.221  29.879  1.00  0.00     0.074 A 
ATOM     64  C   UNL A   1      42.419  29.188  30.692  1.00  0.00     0.031 C 
ATOM     65  C   UNL A   1      43.822  29.380  28.534  1.00  0.00     0.034 A 
BRANCH  52  66
ATOM     66  C   UNL A   1      38.497  29.016  28.485  1.00  0.00     0.023 A 
ATOM     67  C   UNL A   1      37.685  29.918  27.756  1.00  0.00     0.012 A 
ATOM     68  C   UNL A   1      38.434  29.100  29.894  1.00  0.00     0.148 A 
ATOM     69  C   UNL A   1      36.908  30.893  28.392  1.00  0.00     0.002 A 
ATOM     70  C   UNL A   1      37.597  30.018  30.522  1.00  0.00     0.091 A 
ATOM     71  F   UNL A   1      39.281  28.393  30.646  1.00  0.00    -0.205 F 
ATOM     72  C   UNL A   1      36.859  30.940  29.778  1.00  0.00     0.022 A 
BRANCH  70  73
ATOM     73  S   UNL A   1      37.453  30.078  32.313  1.00  0.00     0.127 S 
ATOM     74  O   UNL A   1      38.796  30.502  32.699  1.00  0.00    -0.237 OA
ATOM     75  O   UNL A   1      36.407  31.084  32.498  1.00  0.00    -0.237 OA
ATOM     76  O   UNL A   1      37.062  28.732  32.712  1.00  0.00    -0.744 OA
ENDBRANCH  70  73
ENDBRANCH  52  66
BRANCH  53  77
ATOM     77  C   UNL A   1      44.603  26.527  33.627  1.00  0.00     0.023 A 
ATOM     78  C   UNL A   1      45.893  26.713  34.160  1.00  0.00     0.012 A 
ATOM     79  C   UNL A   1      43.523  26.389  34.530  1.00  0.00     0.148 A 
ATOM     80  C   UNL A   1      46.097  26.793  35.542  1.00  0.00     0.002 A 
ATOM     81  C   UNL A   1      43.732  26.456  35.903  1.00  0.00     0.091 A 
ATOM     82  F   UNL A   1      42.281  26.286  34.039  1.00  0.00    -0.205 F 
ATOM     83  C   UNL A   1      45.017  26.671  36.414  1.00  0.00     0.022 A 
BRANCH  81  84
ATOM     84  S   UNL A   1      42.378  26.307  37.076  1.00  0.00     0.127 S 
ATOM     85  O   UNL A   1      41.863  24.969  36.779  1.00  0.00    -0.237 OA
ATOM     86  O   UNL A   1      43.069  26.431  38.355  1.00  0.00    -0.237 OA
ATOM     87  O   UNL A   1      41.453  27.385  36.741  1.00  0.00    -0.744 OA
ENDBRANCH  81  84
ENDBRANCH  53  77
BRANCH  65  88
ATOM     88  C   UNL A   1      45.208  29.185  27.967  1.00  0.00     0.023 A 
ATOM     89  C   UNL A   1      46.184  30.205  27.998  1.00  0.00     0.012 A 
ATOM     90  C   UNL A   1      45.597  27.891  27.579  1.00  0.00     0.148 A 
ATOM     91  C   UNL A   1      47.506  29.945  27.630  1.00  0.00     0.002 A 
ATOM     92  C   UNL A   1      46.924  27.625  27.260  1.00  0.00     0.091 A 
ATOM     93  F   UNL A   1      44.662  26.928  27.559  1.00  0.00    -0.205 F 
ATOM     94  C   UNL A   1      47.880  28.652  27.275  1.00  0.00     0.022 A 
BRANCH  92  95
ATOM     95  S   UNL A   1      47.491  25.956  26.926  1.00  0.00     0.127 S 
ATOM     96  O   UNL A   1      47.374  25.325  28.239  1.00  0.00    -0.237 OA
ATOM     97  O   UNL A   1      46.524  25.486  25.933  1.00  0.00    -0.237 OA
ATOM     98  O   UNL A   1      48.849  26.091  26.412  1.00  0.00    -0.744 OA
ENDBRANCH  92  95
ENDBRANCH  65  88
ENDBRANCH  39  40
ENDBRANCH  31  34
ENDBRANCH  29  30
ENDBRANCH  28  29
ENDBRANCH   1  28
TORSDOF 17
ENDMDL
