MODEL 1
REMARK VINA RESULT:     -12.5      0.000      0.000
REMARK SMILES Cc1c(NCc2ccccn2)cccc1C(=O)N1CCOC[C@@H]1CC(=O)NCCCCNC(=O)c1ccc(-c2c3nc(c(-c4cccc(S(=O)(=O)[O-])c4F)c4ccc([nH]4)c(-c4cccc(S(=O)(=O)[O-])c4F)c4nc(c(-c5cccc(S(=O)(=O)[O-])c5F)c5ccc2[nH]5)C=C4)C=C3)cc1
REMARK SMILES IDX 28 1 27 2 25 3 26 4 24 6 23 7 18 8 19 9 20 10 22 11 21 12
REMARK SMILES IDX 16 13 17 14 15 15 1 16 2 17 3 18 12 19 14 20 13 21 4 22 5 24
REMARK SMILES IDX 6 25 7 26 11 27 8 28 10 29 9 30 29 31 30 32 31 33 32 34
REMARK SMILES IDX 33 35 34 37 35 38 36 39 97 40 37 41 96 42 38 43 39 44 40 45
REMARK SMILES IDX 90 46 41 47 95 48 89 49 91 50 42 51 94 52 88 53 87 54 43 56
REMARK SMILES IDX 75 57 55 58 74 59 56 60 59 61 73 62 92 63 57 64 58 65 72 67
REMARK SMILES IDX 93 68 60 69 44 70 45 71 53 72 46 73 48 74 54 75 47 76 49 77
REMARK SMILES IDX 50 78 51 79 52 80 76 81 77 82 85 83 78 84 80 85 86 86 79 87
REMARK SMILES IDX 81 88 82 89 83 90 84 91 61 92 62 93 70 94 63 95 65 96 71 97
REMARK SMILES IDX 64 98 66 99 67 100 68 101 69 102
REMARK H PARENT 27 5 4 23 32 36 91 55 59 66
REMARK Flexibility Score: inf
ROOT
ATOM      1  C   UNL A   1      34.548  30.500  27.533  1.00  0.00     0.116 C 
ENDROOT
BRANCH   1   2
ATOM      2  N   UNL A   1      33.132  30.583  27.608  1.00  0.00    -0.356 N 
ATOM      3  C   UNL A   1      32.404  30.394  26.468  1.00  0.00     0.222 C 
ATOM      4  O   UNL A   1      31.428  31.109  26.256  1.00  0.00    -0.275 OA
ATOM      5  H   UNL A   1      32.684  30.772  28.465  1.00  0.00     0.163 HD
BRANCH   3   6
ATOM      6  C   UNL A   1      32.834  29.255  25.531  1.00  0.00     0.127 C 
BRANCH   6   7
ATOM      7  C   UNL A   1      31.834  28.524  24.591  1.00  0.00     0.120 C 
ATOM      8  N   UNL A   1      31.399  27.035  24.680  1.00  0.00    -0.331 N 
ATOM      9  C   UNL A   1      30.248  26.846  23.779  1.00  0.00     0.148 C 
ATOM     10  C   UNL A   1      30.527  27.327  22.339  1.00  0.00     0.181 C 
ATOM     11  C   UNL A   1      32.186  28.823  23.107  1.00  0.00     0.185 C 
ATOM     12  O   UNL A   1      31.014  28.672  22.290  1.00  0.00    -0.377 OA
BRANCH   8  13
ATOM     13  C   UNL A   1      31.344  26.226  25.857  1.00  0.00     0.254 C 
ATOM     14  O   UNL A   1      30.524  26.496  26.735  1.00  0.00    -0.269 OA
BRANCH  13  15
ATOM     15  C   UNL A   1      32.505  25.130  26.208  1.00  0.00     0.045 A 
ATOM     16  C   UNL A   1      30.818  22.946  26.956  1.00  0.00     0.047 C 
ATOM     17  C   UNL A   1      32.116  23.378  26.365  1.00  0.00    -0.015 A 
ATOM     18  C   UNL A   1      33.116  22.084  25.580  1.00  0.00     0.038 A 
ATOM     19  C   UNL A   1      34.473  22.569  24.487  1.00  0.00     0.026 A 
ATOM     20  C   UNL A   1      34.009  25.600  25.315  1.00  0.00     0.014 A 
ATOM     21  C   UNL A   1      34.967  24.364  24.400  1.00  0.00     0.003 A 
BRANCH  18  22
ATOM     22  N   UNL A   1      32.722  20.751  25.726  1.00  0.00    -0.379 N 
ATOM     23  H   UNL A   1      32.679  20.343  26.621  1.00  0.00     0.160 HD
BRANCH  22  24
ATOM     24  C   UNL A   1      32.370  19.966  24.546  1.00  0.00     0.169 C 
BRANCH  24  25
ATOM     25  C   UNL A   1      32.841  18.515  24.639  1.00  0.00     0.059 A 
ATOM     26  C   UNL A   1      33.734  17.968  23.714  1.00  0.00     0.026 A 
ATOM     27  N   UNL A   1      32.311  17.761  25.641  1.00  0.00    -0.259 NA
ATOM     28  C   UNL A   1      34.093  16.626  23.814  1.00  0.00     0.004 A 
ATOM     29  C   UNL A   1      32.648  16.452  25.688  1.00  0.00     0.111 A 
ATOM     30  C   UNL A   1      33.529  15.845  24.812  1.00  0.00     0.020 A 
ENDBRANCH  24  25
ENDBRANCH  22  24
ENDBRANCH  18  22
ENDBRANCH  13  15
ENDBRANCH   8  13
ENDBRANCH   6   7
ENDBRANCH   3   6
ENDBRANCH   1   2
BRANCH   1  31
ATOM     31  C   UNL A   1      35.076  31.943  27.663  1.00  0.00     0.023 C 
BRANCH  31  32
ATOM     32  C   UNL A   1      36.254  32.145  28.587  1.00  0.00     0.023 C 
BRANCH  32  33
ATOM     33  C   UNL A   1      35.772  31.602  30.065  1.00  0.00     0.116 C 
BRANCH  33  34
ATOM     34  N   UNL A   1      34.453  32.292  31.504  1.00  0.00    -0.352 N 
ATOM     35  C   UNL A   1      34.317  33.105  32.841  1.00  0.00     0.251 C 
ATOM     36  H   UNL A   1      33.550  31.992  31.247  1.00  0.00     0.163 HD
ATOM     37  O   UNL A   1      33.196  32.986  33.361  1.00  0.00    -0.269 OA
BRANCH  35  38
ATOM     38  C   UNL A   1      35.334  34.102  33.587  1.00  0.00     0.039 A 
ATOM     39  C   UNL A   1      36.020  34.990  32.771  1.00  0.00     0.014 A 
ATOM     40  C   UNL A   1      36.017  33.888  34.773  1.00  0.00     0.014 A 
ATOM     41  C   UNL A   1      37.416  34.928  32.707  1.00  0.00     0.010 A 
ATOM     42  C   UNL A   1      37.376  33.644  34.671  1.00  0.00     0.010 A 
ATOM     43  C   UNL A   1      38.044  34.004  33.501  1.00  0.00    -0.014 A 
BRANCH  43  44
ATOM     44  C   UNL A   1      39.374  33.441  33.321  1.00  0.00     0.031 A 
ATOM     45  C   UNL A   1      39.402  32.125  32.663  1.00  0.00     0.074 A 
ATOM     46  C   UNL A   1      40.503  34.177  33.510  1.00  0.00     0.049 A 
ATOM     47  N   UNL A   1      40.474  31.506  32.352  1.00  0.00    -0.248 NA
ATOM     48  C   UNL A   1      38.191  31.393  32.295  1.00  0.00     0.031 C 
ATOM     49  C   UNL A   1      41.820  33.995  32.886  1.00  0.00     0.029 A 
ATOM     50  N   UNL A   1      40.734  35.222  34.399  1.00  0.00    -0.354 N 
ATOM     51  C   UNL A   1      40.130  30.431  31.566  1.00  0.00     0.074 A 
ATOM     52  C   UNL A   1      38.696  30.373  31.599  1.00  0.00     0.031 C 
ATOM     53  C   UNL A   1      42.743  34.721  33.541  1.00  0.00     0.029 A 
ATOM     54  C   UNL A   1      42.106  35.269  34.719  1.00  0.00     0.049 A 
ATOM     55  H   UNL A   1      40.046  35.833  34.749  1.00  0.00     0.167 HD
ATOM     56  C   UNL A   1      41.144  29.798  30.924  1.00  0.00     0.034 A 
ATOM     57  C   UNL A   1      42.519  35.025  36.004  1.00  0.00     0.034 A 
ATOM     58  C   UNL A   1      42.430  30.247  31.499  1.00  0.00     0.049 A 
ATOM     59  C   UNL A   1      43.153  33.643  36.163  1.00  0.00     0.074 A 
ATOM     60  C   UNL A   1      43.414  31.153  31.145  1.00  0.00     0.029 A 
ATOM     61  N   UNL A   1      42.622  30.007  32.850  1.00  0.00    -0.354 N 
ATOM     62  N   UNL A   1      43.414  32.836  35.166  1.00  0.00    -0.248 NA
ATOM     63  C   UNL A   1      43.509  33.042  37.448  1.00  0.00     0.031 C 
ATOM     64  C   UNL A   1      44.173  31.464  32.325  1.00  0.00     0.029 A 
ATOM     65  C   UNL A   1      43.686  30.708  33.380  1.00  0.00     0.049 A 
ATOM     66  H   UNL A   1      42.056  29.398  33.379  1.00  0.00     0.167 HD
ATOM     67  C   UNL A   1      43.796  31.605  35.630  1.00  0.00     0.074 A 
ATOM     68  C   UNL A   1      43.864  31.797  37.074  1.00  0.00     0.031 C 
ATOM     69  C   UNL A   1      43.985  30.523  34.802  1.00  0.00     0.034 A 
BRANCH  56  70
ATOM     70  C   UNL A   1      41.024  28.875  29.729  1.00  0.00     0.023 A 
ATOM     71  C   UNL A   1      40.181  27.756  29.901  1.00  0.00     0.012 A 
ATOM     72  C   UNL A   1      41.726  28.936  28.495  1.00  0.00     0.148 A 
ATOM     73  C   UNL A   1      40.069  26.741  28.946  1.00  0.00     0.002 A 
ATOM     74  C   UNL A   1      41.597  27.933  27.527  1.00  0.00     0.091 A 
ATOM     75  F   UNL A   1      42.564  29.941  28.243  1.00  0.00    -0.205 F 
ATOM     76  C   UNL A   1      40.779  26.827  27.759  1.00  0.00     0.022 A 
BRANCH  74  77
ATOM     77  S   UNL A   1      42.482  27.958  25.952  1.00  0.00     0.127 S 
ATOM     78  O   UNL A   1      42.375  29.366  25.565  1.00  0.00    -0.237 OA
ATOM     79  O   UNL A   1      43.827  27.539  26.342  1.00  0.00    -0.237 OA
ATOM     80  O   UNL A   1      41.786  27.033  25.067  1.00  0.00    -0.744 OA
ENDBRANCH  74  77
ENDBRANCH  56  70
BRANCH  57  81
ATOM     81  C   UNL A   1      41.636  35.756  36.973  1.00  0.00     0.023 A 
ATOM     82  C   UNL A   1      40.520  35.010  37.438  1.00  0.00     0.012 A 
ATOM     83  C   UNL A   1      42.159  36.768  37.793  1.00  0.00     0.148 A 
ATOM     84  C   UNL A   1      40.152  35.056  38.784  1.00  0.00     0.002 A 
ATOM     85  C   UNL A   1      41.750  36.844  39.123  1.00  0.00     0.091 A 
ATOM     86  F   UNL A   1      43.104  37.575  37.295  1.00  0.00    -0.205 F 
ATOM     87  C   UNL A   1      40.815  35.929  39.640  1.00  0.00     0.022 A 
BRANCH  85  88
ATOM     88  S   UNL A   1      42.481  38.034  40.252  1.00  0.00     0.127 S 
ATOM     89  O   UNL A   1      41.834  39.277  39.848  1.00  0.00    -0.237 OA
ATOM     90  O   UNL A   1      42.056  37.545  41.560  1.00  0.00    -0.237 OA
ATOM     91  O   UNL A   1      43.915  37.959  40.008  1.00  0.00    -0.744 OA
ENDBRANCH  85  88
ENDBRANCH  57  81
BRANCH  69  92
ATOM     92  C   UNL A   1      44.429  29.145  35.288  1.00  0.00     0.023 A 
ATOM     93  C   UNL A   1      45.790  28.799  35.336  1.00  0.00     0.012 A 
ATOM     94  C   UNL A   1      43.513  28.104  35.615  1.00  0.00     0.148 A 
ATOM     95  C   UNL A   1      46.221  27.556  35.818  1.00  0.00     0.002 A 
ATOM     96  C   UNL A   1      43.937  26.852  36.036  1.00  0.00     0.091 A 
ATOM     97  F   UNL A   1      42.199  28.298  35.524  1.00  0.00    -0.205 F 
ATOM     98  C   UNL A   1      45.296  26.586  36.180  1.00  0.00     0.022 A 
BRANCH  96  99
ATOM     99  S   UNL A   1      42.782  25.507  36.359  1.00  0.00     0.127 S 
ATOM    100  O   UNL A   1      42.347  25.821  37.721  1.00  0.00    -0.237 OA
ATOM    101  O   UNL A   1      41.772  25.729  35.326  1.00  0.00    -0.237 OA
ATOM    102  O   UNL A   1      43.537  24.270  36.230  1.00  0.00    -0.744 OA
ENDBRANCH  96  99
ENDBRANCH  69  92
ENDBRANCH  43  44
ENDBRANCH  35  38
ENDBRANCH  33  34
ENDBRANCH  32  33
ENDBRANCH  31  32
ENDBRANCH   1  31
TORSDOF 20
ENDMDL
MODEL 2
REMARK VINA RESULT:     -12.1      5.495     11.506
REMARK SMILES Cc1c(NCc2ccccn2)cccc1C(=O)N1CCOC[C@@H]1CC(=O)NCCCCNC(=O)c1ccc(-c2c3nc(c(-c4cccc(S(=O)(=O)[O-])c4F)c4ccc([nH]4)c(-c4cccc(S(=O)(=O)[O-])c4F)c4nc(c(-c5cccc(S(=O)(=O)[O-])c5F)c5ccc2[nH]5)C=C4)C=C3)cc1
REMARK SMILES IDX 28 1 27 2 25 3 26 4 24 6 23 7 18 8 19 9 20 10 22 11 21 12
REMARK SMILES IDX 16 13 17 14 15 15 1 16 2 17 3 18 12 19 14 20 13 21 4 22 5 24
REMARK SMILES IDX 6 25 7 26 11 27 8 28 10 29 9 30 29 31 30 32 31 33 32 34
REMARK SMILES IDX 33 35 34 37 35 38 36 39 97 40 37 41 96 42 38 43 39 44 40 45
REMARK SMILES IDX 90 46 41 47 95 48 89 49 91 50 42 51 94 52 88 53 87 54 43 56
REMARK SMILES IDX 75 57 55 58 74 59 56 60 59 61 73 62 92 63 57 64 58 65 72 67
REMARK SMILES IDX 93 68 60 69 44 70 45 71 53 72 46 73 48 74 54 75 47 76 49 77
REMARK SMILES IDX 50 78 51 79 52 80 76 81 77 82 85 83 78 84 80 85 86 86 79 87
REMARK SMILES IDX 81 88 82 89 83 90 84 91 61 92 62 93 70 94 63 95 65 96 71 97
REMARK SMILES IDX 64 98 66 99 67 100 68 101 69 102
REMARK H PARENT 27 5 4 23 32 36 91 55 59 66
REMARK Flexibility Score: inf
ROOT
ATOM      1  C   UNL A   1      37.077  32.186  34.077  1.00  0.00     0.116 C 
ENDROOT
BRANCH   1   2
ATOM      2  N   UNL A   1      37.486  32.999  32.986  1.00  0.00    -0.356 N 
ATOM      3  C   UNL A   1      36.806  32.900  31.805  1.00  0.00     0.222 C 
ATOM      4  O   UNL A   1      37.436  32.921  30.750  1.00  0.00    -0.275 OA
ATOM      5  H   UNL A   1      38.243  33.622  33.080  1.00  0.00     0.163 HD
BRANCH   3   6
ATOM      6  C   UNL A   1      35.275  32.809  31.873  1.00  0.00     0.127 C 
BRANCH   6   7
ATOM      7  C   UNL A   1      34.345  33.860  31.203  1.00  0.00     0.120 C 
ATOM      8  N   UNL A   1      34.301  34.230  29.695  1.00  0.00    -0.331 N 
ATOM      9  C   UNL A   1      33.102  35.056  29.467  1.00  0.00     0.148 C 
ATOM     10  C   UNL A   1      33.025  36.277  30.409  1.00  0.00     0.181 C 
ATOM     11  C   UNL A   1      34.375  35.187  32.013  1.00  0.00     0.185 C 
ATOM     12  O   UNL A   1      33.159  35.919  31.789  1.00  0.00    -0.377 OA
BRANCH   8  13
ATOM     13  C   UNL A   1      34.630  33.382  28.593  1.00  0.00     0.254 C 
ATOM     14  O   UNL A   1      35.201  33.862  27.614  1.00  0.00    -0.269 OA
BRANCH  13  15
ATOM     15  C   UNL A   1      34.035  31.865  28.462  1.00  0.00     0.045 A 
ATOM     16  C   UNL A   1      31.741  32.443  26.856  1.00  0.00     0.047 C 
ATOM     17  C   UNL A   1      32.793  31.454  27.222  1.00  0.00    -0.015 A 
ATOM     18  C   UNL A   1      32.915  29.978  26.174  1.00  0.00     0.038 A 
ATOM     19  C   UNL A   1      34.400  28.951  26.276  1.00  0.00     0.026 A 
ATOM     20  C   UNL A   1      35.396  30.702  28.732  1.00  0.00     0.014 A 
ATOM     21  C   UNL A   1      35.641  29.288  27.627  1.00  0.00     0.003 A 
BRANCH  18  22
ATOM     22  N   UNL A   1      31.924  29.755  25.214  1.00  0.00    -0.379 N 
ATOM     23  H   UNL A   1      30.997  30.041  25.384  1.00  0.00     0.160 HD
BRANCH  22  24
ATOM     24  C   UNL A   1      32.268  29.099  23.956  1.00  0.00     0.169 C 
BRANCH  24  25
ATOM     25  C   UNL A   1      31.594  27.737  23.796  1.00  0.00     0.059 A 
ATOM     26  C   UNL A   1      30.649  27.268  24.712  1.00  0.00     0.026 A 
ATOM     27  N   UNL A   1      31.990  26.977  22.738  1.00  0.00    -0.259 NA
ATOM     28  C   UNL A   1      30.101  25.998  24.547  1.00  0.00     0.004 A 
ATOM     29  C   UNL A   1      31.469  25.733  22.627  1.00  0.00     0.111 A 
ATOM     30  C   UNL A   1      30.528  25.206  23.492  1.00  0.00     0.020 A 
ENDBRANCH  24  25
ENDBRANCH  22  24
ENDBRANCH  18  22
ENDBRANCH  13  15
ENDBRANCH   8  13
ENDBRANCH   6   7
ENDBRANCH   3   6
ENDBRANCH   1   2
BRANCH   1  31
ATOM     31  C   UNL A   1      37.776  30.825  33.891  1.00  0.00     0.023 C 
BRANCH  31  32
ATOM     32  C   UNL A   1      39.284  30.826  33.995  1.00  0.00     0.023 C 
BRANCH  32  33
ATOM     33  C   UNL A   1      39.842  30.358  32.519  1.00  0.00     0.116 C 
BRANCH  33  34
ATOM     34  N   UNL A   1      39.190  30.620  30.572  1.00  0.00    -0.352 N 
ATOM     35  C   UNL A   1      39.080  29.959  29.151  1.00  0.00     0.251 C 
ATOM     36  H   UNL A   1      38.786  31.517  30.512  1.00  0.00     0.163 HD
ATOM     37  O   UNL A   1      38.741  30.767  28.272  1.00  0.00    -0.269 OA
BRANCH  35  38
ATOM     38  C   UNL A   1      39.254  28.434  28.673  1.00  0.00     0.039 A 
ATOM     39  C   UNL A   1      39.502  27.508  29.676  1.00  0.00     0.014 A 
ATOM     40  C   UNL A   1      39.710  27.974  27.449  1.00  0.00     0.014 A 
ATOM     41  C   UNL A   1      40.701  26.789  29.666  1.00  0.00     0.010 A 
ATOM     42  C   UNL A   1      40.983  27.428  27.426  1.00  0.00     0.010 A 
ATOM     43  C   UNL A   1      41.563  27.010  28.624  1.00  0.00    -0.014 A 
BRANCH  43  44
ATOM     44  C   UNL A   1      42.994  26.752  28.589  1.00  0.00     0.031 A 
ATOM     45  C   UNL A   1      43.836  27.958  28.539  1.00  0.00     0.074 A 
ATOM     46  C   UNL A   1      43.515  25.520  28.841  1.00  0.00     0.049 A 
ATOM     47  N   UNL A   1      45.112  27.940  28.577  1.00  0.00    -0.248 NA
ATOM     48  C   UNL A   1      43.286  29.309  28.441  1.00  0.00     0.031 C 
ATOM     49  C   UNL A   1      44.840  25.186  29.377  1.00  0.00     0.029 A 
ATOM     50  N   UNL A   1      42.974  24.266  28.575  1.00  0.00    -0.354 N 
ATOM     51  C   UNL A   1      45.551  29.234  28.732  1.00  0.00     0.074 A 
ATOM     52  C   UNL A   1      44.382  30.055  28.592  1.00  0.00     0.031 C 
ATOM     53  C   UNL A   1      45.090  23.876  29.203  1.00  0.00     0.029 A 
ATOM     54  C   UNL A   1      44.018  23.335  28.397  1.00  0.00     0.049 A 
ATOM     55  H   UNL A   1      42.012  24.060  28.520  1.00  0.00     0.167 HD
ATOM     56  C   UNL A   1      46.859  29.398  29.050  1.00  0.00     0.034 A 
ATOM     57  C   UNL A   1      44.198  22.732  27.178  1.00  0.00     0.034 A 
ATOM     58  C   UNL A   1      47.569  28.120  28.836  1.00  0.00     0.049 A 
ATOM     59  C   UNL A   1      45.394  23.302  26.413  1.00  0.00     0.074 A 
ATOM     60  C   UNL A   1      48.003  27.079  29.636  1.00  0.00     0.029 A 
ATOM     61  N   UNL A   1      47.549  27.609  27.547  1.00  0.00    -0.354 N 
ATOM     62  N   UNL A   1      46.246  24.159  26.917  1.00  0.00    -0.248 NA
ATOM     63  C   UNL A   1      45.709  22.986  25.021  1.00  0.00     0.031 C 
ATOM     64  C   UNL A   1      48.211  25.932  28.794  1.00  0.00     0.029 A 
ATOM     65  C   UNL A   1      47.957  26.291  27.480  1.00  0.00     0.049 A 
ATOM     66  H   UNL A   1      47.272  28.131  26.760  1.00  0.00     0.167 HD
ATOM     67  C   UNL A   1      47.087  24.630  25.943  1.00  0.00     0.074 A 
ATOM     68  C   UNL A   1      46.723  23.839  24.773  1.00  0.00     0.031 C 
ATOM     69  C   UNL A   1      47.981  25.652  26.162  1.00  0.00     0.034 A 
BRANCH  56  70
ATOM     70  C   UNL A   1      47.498  30.635  29.649  1.00  0.00     0.023 A 
ATOM     71  C   UNL A   1      47.613  31.745  28.786  1.00  0.00     0.012 A 
ATOM     72  C   UNL A   1      48.084  30.788  30.934  1.00  0.00     0.148 A 
ATOM     73  C   UNL A   1      48.297  32.911  29.142  1.00  0.00     0.002 A 
ATOM     74  C   UNL A   1      48.749  31.963  31.302  1.00  0.00     0.091 A 
ATOM     75  F   UNL A   1      48.049  29.790  31.817  1.00  0.00    -0.205 F 
ATOM     76  C   UNL A   1      48.868  33.021  30.399  1.00  0.00     0.022 A 
BRANCH  74  77
ATOM     77  S   UNL A   1      49.525  32.199  32.917  1.00  0.00     0.127 S 
ATOM     78  O   UNL A   1      48.370  32.175  33.816  1.00  0.00    -0.237 OA
ATOM     79  O   UNL A   1      50.395  31.029  33.019  1.00  0.00    -0.237 OA
ATOM     80  O   UNL A   1      50.223  33.477  32.863  1.00  0.00    -0.744 OA
ENDBRANCH  74  77
ENDBRANCH  56  70
BRANCH  57  81
ATOM     81  C   UNL A   1      42.875  22.286  26.627  1.00  0.00     0.023 A 
ATOM     82  C   UNL A   1      42.516  20.951  26.954  1.00  0.00     0.012 A 
ATOM     83  C   UNL A   1      41.855  23.217  26.377  1.00  0.00     0.148 A 
ATOM     84  C   UNL A   1      41.207  20.644  27.327  1.00  0.00     0.002 A 
ATOM     85  C   UNL A   1      40.540  22.887  26.704  1.00  0.00     0.091 A 
ATOM     86  F   UNL A   1      42.188  24.429  25.916  1.00  0.00    -0.205 F 
ATOM     87  C   UNL A   1      40.232  21.635  27.265  1.00  0.00     0.022 A 
BRANCH  85  88
ATOM     88  S   UNL A   1      39.213  24.085  26.529  1.00  0.00     0.127 S 
ATOM     89  O   UNL A   1      38.954  24.459  27.914  1.00  0.00    -0.237 OA
ATOM     90  O   UNL A   1      39.835  25.144  25.739  1.00  0.00    -0.237 OA
ATOM     91  O   UNL A   1      38.140  23.369  25.855  1.00  0.00    -0.744 OA
ENDBRANCH  85  88
ENDBRANCH  57  81
BRANCH  69  92
ATOM     92  C   UNL A   1      48.944  26.184  25.103  1.00  0.00     0.023 A 
ATOM     93  C   UNL A   1      50.332  26.188  25.325  1.00  0.00     0.012 A 
ATOM     94  C   UNL A   1      48.508  26.797  23.894  1.00  0.00     0.148 A 
ATOM     95  C   UNL A   1      51.235  26.632  24.350  1.00  0.00     0.002 A 
ATOM     96  C   UNL A   1      49.399  27.292  22.953  1.00  0.00     0.091 A 
ATOM     97  F   UNL A   1      47.210  26.921  23.622  1.00  0.00    -0.205 F 
ATOM     98  C   UNL A   1      50.771  27.173  23.158  1.00  0.00     0.022 A 
BRANCH  96  99
ATOM     99  S   UNL A   1      48.846  28.151  21.468  1.00  0.00     0.127 S 
ATOM    100  O   UNL A   1      49.915  29.135  21.289  1.00  0.00    -0.237 OA
ATOM    101  O   UNL A   1      48.838  27.069  20.486  1.00  0.00    -0.237 OA
ATOM    102  O   UNL A   1      47.541  28.717  21.775  1.00  0.00    -0.744 OA
ENDBRANCH  96  99
ENDBRANCH  69  92
ENDBRANCH  43  44
ENDBRANCH  35  38
ENDBRANCH  33  34
ENDBRANCH  32  33
ENDBRANCH  31  32
ENDBRANCH   1  31
TORSDOF 20
ENDMDL
MODEL 3
REMARK VINA RESULT:     -12.0      1.768      2.318
REMARK SMILES Cc1c(NCc2ccccn2)cccc1C(=O)N1CCOC[C@@H]1CC(=O)NCCCCNC(=O)c1ccc(-c2c3nc(c(-c4cccc(S(=O)(=O)[O-])c4F)c4ccc([nH]4)c(-c4cccc(S(=O)(=O)[O-])c4F)c4nc(c(-c5cccc(S(=O)(=O)[O-])c5F)c5ccc2[nH]5)C=C4)C=C3)cc1
REMARK SMILES IDX 28 1 27 2 25 3 26 4 24 6 23 7 18 8 19 9 20 10 22 11 21 12
REMARK SMILES IDX 16 13 17 14 15 15 1 16 2 17 3 18 12 19 14 20 13 21 4 22 5 24
REMARK SMILES IDX 6 25 7 26 11 27 8 28 10 29 9 30 29 31 30 32 31 33 32 34
REMARK SMILES IDX 33 35 34 37 35 38 36 39 97 40 37 41 96 42 38 43 39 44 40 45
REMARK SMILES IDX 90 46 41 47 95 48 89 49 91 50 42 51 94 52 88 53 87 54 43 56
REMARK SMILES IDX 75 57 55 58 74 59 56 60 59 61 73 62 92 63 57 64 58 65 72 67
REMARK SMILES IDX 93 68 60 69 44 70 45 71 53 72 46 73 48 74 54 75 47 76 49 77
REMARK SMILES IDX 50 78 51 79 52 80 76 81 77 82 85 83 78 84 80 85 86 86 79 87
REMARK SMILES IDX 81 88 82 89 83 90 84 91 61 92 62 93 70 94 63 95 65 96 71 97
REMARK SMILES IDX 64 98 66 99 67 100 68 101 69 102
REMARK H PARENT 27 5 4 23 32 36 91 55 59 66
REMARK Flexibility Score: inf
ROOT
ATOM      1  C   UNL A   1      34.441  29.593  27.154  1.00  0.00     0.116 C 
ENDROOT
BRANCH   1   2
ATOM      2  N   UNL A   1      33.507  28.618  27.592  1.00  0.00    -0.356 N 
ATOM      3  C   UNL A   1      32.294  28.546  26.969  1.00  0.00     0.222 C 
ATOM      4  O   UNL A   1      31.284  28.355  27.643  1.00  0.00    -0.275 OA
ATOM      5  H   UNL A   1      33.729  28.004  28.331  1.00  0.00     0.163 HD
BRANCH   3   6
ATOM      6  C   UNL A   1      32.274  28.670  25.438  1.00  0.00     0.127 C 
BRANCH   6   7
ATOM      7  C   UNL A   1      30.957  28.622  24.613  1.00  0.00     0.120 C 
ATOM      8  N   UNL A   1      30.257  27.350  24.058  1.00  0.00    -0.331 N 
ATOM      9  C   UNL A   1      28.917  27.741  23.587  1.00  0.00     0.148 C 
ATOM     10  C   UNL A   1      28.950  28.917  22.588  1.00  0.00     0.181 C 
ATOM     11  C   UNL A   1      31.012  29.668  23.464  1.00  0.00     0.185 C 
ATOM     12  O   UNL A   1      29.678  30.045  23.087  1.00  0.00    -0.377 OA
BRANCH   8  13
ATOM     13  C   UNL A   1      30.310  26.033  24.609  1.00  0.00     0.254 C 
ATOM     14  O   UNL A   1      29.388  25.644  25.327  1.00  0.00    -0.269 OA
BRANCH  13  15
ATOM     15  C   UNL A   1      31.668  25.125  24.552  1.00  0.00     0.045 A 
ATOM     16  C   UNL A   1      31.094  23.361  26.728  1.00  0.00     0.047 C 
ATOM     17  C   UNL A   1      31.771  23.546  25.413  1.00  0.00    -0.015 A 
ATOM     18  C   UNL A   1      32.434  22.050  24.630  1.00  0.00     0.038 A 
ATOM     19  C   UNL A   1      32.884  22.105  22.878  1.00  0.00     0.026 A 
ATOM     20  C   UNL A   1      32.348  25.236  22.877  1.00  0.00     0.014 A 
ATOM     21  C   UNL A   1      32.896  23.749  21.999  1.00  0.00     0.003 A 
BRANCH  18  22
ATOM     22  N   UNL A   1      32.444  20.858  25.360  1.00  0.00    -0.379 N 
ATOM     23  H   UNL A   1      31.696  20.223  25.280  1.00  0.00     0.160 HD
BRANCH  22  24
ATOM     24  C   UNL A   1      33.568  20.558  26.242  1.00  0.00     0.169 C 
BRANCH  24  25
ATOM     25  C   UNL A   1      34.811  21.387  25.919  1.00  0.00     0.059 A 
ATOM     26  C   UNL A   1      35.010  22.660  26.460  1.00  0.00     0.026 A 
ATOM     27  N   UNL A   1      35.698  20.846  25.040  1.00  0.00    -0.259 NA
ATOM     28  C   UNL A   1      36.136  23.395  26.095  1.00  0.00     0.004 A 
ATOM     29  C   UNL A   1      36.761  21.599  24.675  1.00  0.00     0.111 A 
ATOM     30  C   UNL A   1      37.025  22.862  25.172  1.00  0.00     0.020 A 
ENDBRANCH  24  25
ENDBRANCH  22  24
ENDBRANCH  18  22
ENDBRANCH  13  15
ENDBRANCH   8  13
ENDBRANCH   6   7
ENDBRANCH   3   6
ENDBRANCH   1   2
BRANCH   1  31
ATOM     31  C   UNL A   1      34.023  30.923  27.813  1.00  0.00     0.023 C 
BRANCH  31  32
ATOM     32  C   UNL A   1      35.058  32.025  27.814  1.00  0.00     0.023 C 
BRANCH  32  33
ATOM     33  C   UNL A   1      35.401  32.325  29.396  1.00  0.00     0.116 C 
BRANCH  33  34
ATOM     34  N   UNL A   1      34.261  32.743  31.073  1.00  0.00    -0.352 N 
ATOM     35  C   UNL A   1      34.290  33.292  32.545  1.00  0.00     0.251 C 
ATOM     36  H   UNL A   1      33.328  32.504  30.865  1.00  0.00     0.163 HD
ATOM     37  O   UNL A   1      33.227  33.087  33.153  1.00  0.00    -0.269 OA
BRANCH  35  38
ATOM     38  C   UNL A   1      35.408  34.121  33.348  1.00  0.00     0.039 A 
ATOM     39  C   UNL A   1      36.274  34.880  32.573  1.00  0.00     0.014 A 
ATOM     40  C   UNL A   1      35.978  33.814  34.573  1.00  0.00     0.014 A 
ATOM     41  C   UNL A   1      37.643  34.595  32.592  1.00  0.00     0.010 A 
ATOM     42  C   UNL A   1      37.285  33.355  34.552  1.00  0.00     0.010 A 
ATOM     43  C   UNL A   1      38.068  33.591  33.422  1.00  0.00    -0.014 A 
BRANCH  43  44
ATOM     44  C   UNL A   1      39.299  32.821  33.322  1.00  0.00     0.031 A 
ATOM     45  C   UNL A   1      39.174  31.554  32.585  1.00  0.00     0.074 A 
ATOM     46  C   UNL A   1      40.510  33.346  33.654  1.00  0.00     0.049 A 
ATOM     47  N   UNL A   1      40.155  30.778  32.329  1.00  0.00    -0.248 NA
ATOM     48  C   UNL A   1      37.901  31.055  32.068  1.00  0.00     0.031 C 
ATOM     49  C   UNL A   1      41.833  32.975  33.137  1.00  0.00     0.029 A 
ATOM     50  N   UNL A   1      40.822  34.292  34.625  1.00  0.00    -0.354 N 
ATOM     51  C   UNL A   1      39.717  29.816  31.449  1.00  0.00     0.074 A 
ATOM     52  C   UNL A   1      38.297  30.000  31.354  1.00  0.00     0.031 C 
ATOM     53  C   UNL A   1      42.795  33.502  33.914  1.00  0.00     0.029 A 
ATOM     54  C   UNL A   1      42.147  34.091  35.065  1.00  0.00     0.049 A 
ATOM     55  H   UNL A   1      40.213  34.993  34.954  1.00  0.00     0.167 HD
ATOM     56  C   UNL A   1      40.670  29.054  30.857  1.00  0.00     0.034 A 
ATOM     57  C   UNL A   1      42.390  33.718  36.363  1.00  0.00     0.034 A 
ATOM     58  C   UNL A   1      41.952  29.251  31.569  1.00  0.00     0.049 A 
ATOM     59  C   UNL A   1      42.770  32.243  36.487  1.00  0.00     0.074 A 
ATOM     60  C   UNL A   1      43.099  29.993  31.360  1.00  0.00     0.029 A 
ATOM     61  N   UNL A   1      41.971  28.915  32.913  1.00  0.00    -0.354 N 
ATOM     62  N   UNL A   1      42.990  31.453  35.466  1.00  0.00    -0.248 NA
ATOM     63  C   UNL A   1      42.898  31.528  37.756  1.00  0.00     0.031 C 
ATOM     64  C   UNL A   1      43.783  30.113  32.618  1.00  0.00     0.029 A 
ATOM     65  C   UNL A   1      43.080  29.400  33.577  1.00  0.00     0.049 A 
ATOM     66  H   UNL A   1      41.266  28.386  33.351  1.00  0.00     0.167 HD
ATOM     67  C   UNL A   1      43.119  30.154  35.881  1.00  0.00     0.074 A 
ATOM     68  C   UNL A   1      43.079  30.260  37.335  1.00  0.00     0.031 C 
ATOM     69  C   UNL A   1      43.207  29.098  35.005  1.00  0.00     0.034 A 
BRANCH  56  70
ATOM     70  C   UNL A   1      40.516  28.224  29.599  1.00  0.00     0.023 A 
ATOM     71  C   UNL A   1      39.557  27.190  29.660  1.00  0.00     0.012 A 
ATOM     72  C   UNL A   1      41.280  28.288  28.403  1.00  0.00     0.148 A 
ATOM     73  C   UNL A   1      39.390  26.254  28.636  1.00  0.00     0.002 A 
ATOM     74  C   UNL A   1      41.098  27.367  27.366  1.00  0.00     0.091 A 
ATOM     75  F   UNL A   1      42.227  29.214  28.254  1.00  0.00    -0.205 F 
ATOM     76  C   UNL A   1      40.162  26.339  27.488  1.00  0.00     0.022 A 
BRANCH  74  77
ATOM     77  S   UNL A   1      42.056  27.396  25.834  1.00  0.00     0.127 S 
ATOM     78  O   UNL A   1      41.751  28.729  25.310  1.00  0.00    -0.237 OA
ATOM     79  O   UNL A   1      43.426  27.237  26.319  1.00  0.00    -0.237 OA
ATOM     80  O   UNL A   1      41.566  26.297  25.013  1.00  0.00    -0.744 OA
ENDBRANCH  74  77
ENDBRANCH  56  70
BRANCH  57  81
ATOM     81  C   UNL A   1      41.549  34.539  37.297  1.00  0.00     0.023 A 
ATOM     82  C   UNL A   1      40.458  33.842  37.882  1.00  0.00     0.012 A 
ATOM     83  C   UNL A   1      42.106  35.625  37.992  1.00  0.00     0.148 A 
ATOM     84  C   UNL A   1      40.152  34.017  39.233  1.00  0.00     0.002 A 
ATOM     85  C   UNL A   1      41.757  35.828  39.326  1.00  0.00     0.091 A 
ATOM     86  F   UNL A   1      43.024  36.379  37.375  1.00  0.00    -0.205 F 
ATOM     87  C   UNL A   1      40.850  34.967  39.970  1.00  0.00     0.022 A 
BRANCH  85  88
ATOM     88  S   UNL A   1      42.535  37.120  40.301  1.00  0.00     0.127 S 
ATOM     89  O   UNL A   1      43.952  36.822  40.129  1.00  0.00    -0.237 OA
ATOM     90  O   UNL A   1      42.103  38.340  39.626  1.00  0.00    -0.237 OA
ATOM     91  O   UNL A   1      42.011  36.948  41.648  1.00  0.00    -0.744 OA
ENDBRANCH  85  88
ENDBRANCH  57  81
BRANCH  69  92
ATOM     92  C   UNL A   1      43.371  27.642  35.438  1.00  0.00     0.023 A 
ATOM     93  C   UNL A   1      42.622  27.117  36.505  1.00  0.00     0.012 A 
ATOM     94  C   UNL A   1      44.346  26.769  34.876  1.00  0.00     0.148 A 
ATOM     95  C   UNL A   1      42.726  25.774  36.891  1.00  0.00     0.002 A 
ATOM     96  C   UNL A   1      44.492  25.455  35.297  1.00  0.00     0.091 A 
ATOM     97  F   UNL A   1      45.166  27.191  33.915  1.00  0.00    -0.205 F 
ATOM     98  C   UNL A   1      43.652  24.939  36.279  1.00  0.00     0.022 A 
BRANCH  96  99
ATOM     99  S   UNL A   1      45.787  24.380  34.652  1.00  0.00     0.127 S 
ATOM    100  O   UNL A   1      46.992  25.116  35.037  1.00  0.00    -0.237 OA
ATOM    101  O   UNL A   1      45.552  23.150  35.406  1.00  0.00    -0.237 OA
ATOM    102  O   UNL A   1      45.567  24.277  33.218  1.00  0.00    -0.744 OA
ENDBRANCH  96  99
ENDBRANCH  69  92
ENDBRANCH  43  44
ENDBRANCH  35  38
ENDBRANCH  33  34
ENDBRANCH  32  33
ENDBRANCH  31  32
ENDBRANCH   1  31
TORSDOF 20
ENDMDL
