MODEL 1
REMARK VINA RESULT:     -10.9      0.000      0.000
REMARK SMILES CC[C@@H]1CCC[C@](CCCCCO)(C(=O)NCCCCNC(=O)c2ccc(-c3c4nc(c(-c5cccc(S(=O)(=O)[O-])c5F)c5ccc([nH]5)c(-c5cccc(S(=O)(=O)[O-])c5F)c5nc(c(-c6cccc(S(=O)(=O)[O-])c6F)c6ccc3[nH]6)C=C5)C=C4)cc2)C1
REMARK SMILES IDX 17 1 16 2 14 3 15 4 7 6 3 7 4 8 87 9 5 10 6 11 2 12 1 13
REMARK SMILES IDX 8 14 9 15 10 16 11 17 12 18 13 19 18 21 19 22 20 23 21 24
REMARK SMILES IDX 22 25 23 27 24 28 25 29 86 30 26 31 85 32 27 33 28 34 29 35
REMARK SMILES IDX 79 36 30 37 84 38 78 39 80 40 31 41 83 42 77 43 76 44 32 46
REMARK SMILES IDX 64 47 44 48 63 49 45 50 48 51 62 52 81 53 46 54 47 55 61 57
REMARK SMILES IDX 82 58 49 59 33 60 34 61 42 62 35 63 37 64 43 65 36 66 38 67
REMARK SMILES IDX 39 68 40 69 41 70 65 71 66 72 74 73 67 74 69 75 75 76 68 77
REMARK SMILES IDX 70 78 71 79 72 80 73 81 50 82 51 83 59 84 52 85 54 86 60 87
REMARK SMILES IDX 53 88 55 89 56 90 57 91 58 92
REMARK H PARENT 16 5 13 20 21 26 80 45 48 56
REMARK Flexibility Score: inf
ROOT
ATOM      1  C   UNL A   1      32.086  26.530  26.441  1.00  0.00     0.116 C 
ENDROOT
BRANCH   1   2
ATOM      2  N   UNL A   1      31.481  25.296  26.872  1.00  0.00    -0.356 N 
ATOM      3  C   UNL A   1      31.498  24.027  26.414  1.00  0.00     0.226 C 
ATOM      4  O   UNL A   1      30.908  23.232  27.162  1.00  0.00    -0.274 OA
ATOM      5  H   UNL A   1      30.933  25.402  27.684  1.00  0.00     0.163 HD
BRANCH   3   6
ATOM      6  C   UNL A   1      32.233  23.503  25.134  1.00  0.00     0.049 C 
ATOM      7  C   UNL A   1      32.765  21.059  24.220  1.00  0.00    -0.010 C 
ATOM      8  C   UNL A   1      34.261  21.345  24.408  1.00  0.00     0.003 C 
ATOM      9  C   UNL A   1      31.919  21.940  25.165  1.00  0.00     0.020 C 
ATOM     10  C   UNL A   1      34.579  22.836  24.360  1.00  0.00     0.001 C 
ATOM     11  C   UNL A   1      33.750  23.609  25.382  1.00  0.00     0.017 C 
BRANCH   7  12
ATOM     12  C   UNL A   1      32.486  19.556  24.436  1.00  0.00     0.000 C 
ATOM     13  C   UNL A   1      33.745  18.722  24.628  1.00  0.00     0.004 C 
ENDBRANCH   7  12
BRANCH   6  14
ATOM     14  C   UNL A   1      31.696  23.998  23.751  1.00  0.00     0.017 C 
BRANCH  14  15
ATOM     15  C   UNL A   1      32.345  24.926  22.692  1.00  0.00     0.001 C 
BRANCH  15  16
ATOM     16  C   UNL A   1      32.218  26.449  22.674  1.00  0.00     0.002 C 
BRANCH  16  17
ATOM     17  C   UNL A   1      33.488  27.166  22.200  1.00  0.00     0.028 C 
BRANCH  17  18
ATOM     18  C   UNL A   1      33.531  28.653  22.552  1.00  0.00     0.156 C 
BRANCH  18  19
ATOM     19  O   UNL A   1      34.629  28.941  23.404  1.00  0.00    -0.396 OA
ATOM     20  H   UNL A   1      35.056  29.763  23.116  1.00  0.00     0.210 HD
ENDBRANCH  18  19
ENDBRANCH  17  18
ENDBRANCH  16  17
ENDBRANCH  15  16
ENDBRANCH  14  15
ENDBRANCH   6  14
ENDBRANCH   3   6
ENDBRANCH   1   2
BRANCH   1  21
ATOM     21  C   UNL A   1      31.047  27.550  25.971  1.00  0.00     0.023 C 
BRANCH  21  22
ATOM     22  C   UNL A   1      31.611  28.925  25.618  1.00  0.00     0.023 C 
BRANCH  22  23
ATOM     23  C   UNL A   1      32.552  29.523  26.659  1.00  0.00     0.116 C 
BRANCH  23  24
ATOM     24  N   UNL A   1      32.377  30.955  26.882  1.00  0.00    -0.352 N 
ATOM     25  C   UNL A   1      33.303  31.839  27.392  1.00  0.00     0.251 C 
ATOM     26  H   UNL A   1      31.500  31.331  26.642  1.00  0.00     0.163 HD
ATOM     27  O   UNL A   1      33.012  33.018  27.578  1.00  0.00    -0.269 OA
BRANCH  25  28
ATOM     28  C   UNL A   1      34.634  31.319  27.765  1.00  0.00     0.039 A 
ATOM     29  C   UNL A   1      35.664  32.225  28.031  1.00  0.00     0.014 A 
ATOM     30  C   UNL A   1      34.812  29.952  27.986  1.00  0.00     0.014 A 
ATOM     31  C   UNL A   1      36.844  31.764  28.621  1.00  0.00     0.010 A 
ATOM     32  C   UNL A   1      35.951  29.511  28.647  1.00  0.00     0.010 A 
ATOM     33  C   UNL A   1      36.973  30.414  28.984  1.00  0.00    -0.014 A 
BRANCH  33  34
ATOM     34  C   UNL A   1      38.141  29.922  29.758  1.00  0.00     0.031 A 
ATOM     35  C   UNL A   1      38.367  30.395  31.166  1.00  0.00     0.074 A 
ATOM     36  C   UNL A   1      39.067  29.153  29.148  1.00  0.00     0.049 A 
ATOM     37  N   UNL A   1      39.368  30.145  31.969  1.00  0.00    -0.248 NA
ATOM     38  C   UNL A   1      37.354  31.299  31.737  1.00  0.00     0.031 C 
ATOM     39  C   UNL A   1      39.018  28.709  27.753  1.00  0.00     0.029 A 
ATOM     40  N   UNL A   1      40.246  28.627  29.618  1.00  0.00    -0.354 N 
ATOM     41  C   UNL A   1      39.135  30.902  33.111  1.00  0.00     0.074 A 
ATOM     42  C   UNL A   1      37.912  31.640  32.888  1.00  0.00     0.031 C 
ATOM     43  C   UNL A   1      40.105  27.968  27.486  1.00  0.00     0.029 A 
ATOM     44  C   UNL A   1      40.940  27.898  28.680  1.00  0.00     0.049 A 
ATOM     45  H   UNL A   1      40.564  28.761  30.540  1.00  0.00     0.167 HD
ATOM     46  C   UNL A   1      39.854  30.950  34.257  1.00  0.00     0.034 A 
ATOM     47  C   UNL A   1      42.112  27.239  28.777  1.00  0.00     0.034 A 
ATOM     48  C   UNL A   1      41.017  30.147  34.509  1.00  0.00     0.049 A 
ATOM     49  C   UNL A   1      42.842  27.237  30.093  1.00  0.00     0.074 A 
ATOM     50  C   UNL A   1      41.736  30.018  35.684  1.00  0.00     0.029 A 
ATOM     51  N   UNL A   1      41.631  29.330  33.573  1.00  0.00    -0.354 N 
ATOM     52  N   UNL A   1      42.504  27.807  31.224  1.00  0.00    -0.248 NA
ATOM     53  C   UNL A   1      44.095  26.470  30.157  1.00  0.00     0.031 C 
ATOM     54  C   UNL A   1      42.787  29.123  35.457  1.00  0.00     0.029 A 
ATOM     55  C   UNL A   1      42.722  28.695  34.140  1.00  0.00     0.049 A 
ATOM     56  H   UNL A   1      41.334  29.218  32.640  1.00  0.00     0.167 HD
ATOM     57  C   UNL A   1      43.481  27.439  32.143  1.00  0.00     0.074 A 
ATOM     58  C   UNL A   1      44.416  26.583  31.439  1.00  0.00     0.031 C 
ATOM     59  C   UNL A   1      43.602  27.793  33.445  1.00  0.00     0.034 A 
BRANCH  46  60
ATOM     60  C   UNL A   1      39.349  31.847  35.355  1.00  0.00     0.023 A 
ATOM     61  C   UNL A   1      38.405  31.346  36.275  1.00  0.00     0.012 A 
ATOM     62  C   UNL A   1      39.827  33.163  35.500  1.00  0.00     0.148 A 
ATOM     63  C   UNL A   1      37.916  32.154  37.301  1.00  0.00     0.002 A 
ATOM     64  C   UNL A   1      39.363  33.950  36.549  1.00  0.00     0.091 A 
ATOM     65  F   UNL A   1      40.701  33.632  34.599  1.00  0.00    -0.205 F 
ATOM     66  C   UNL A   1      38.402  33.450  37.444  1.00  0.00     0.022 A 
BRANCH  64  67
ATOM     67  S   UNL A   1      39.988  35.607  36.848  1.00  0.00     0.127 S 
ATOM     68  O   UNL A   1      39.299  35.964  38.086  1.00  0.00    -0.237 OA
ATOM     69  O   UNL A   1      41.427  35.379  36.995  1.00  0.00    -0.237 OA
ATOM     70  O   UNL A   1      39.622  36.381  35.670  1.00  0.00    -0.744 OA
ENDBRANCH  64  67
ENDBRANCH  46  60
BRANCH  47  71
ATOM     71  C   UNL A   1      42.609  26.433  27.626  1.00  0.00     0.023 A 
ATOM     72  C   UNL A   1      43.528  27.022  26.735  1.00  0.00     0.012 A 
ATOM     73  C   UNL A   1      42.219  25.096  27.427  1.00  0.00     0.148 A 
ATOM     74  C   UNL A   1      44.029  26.302  25.649  1.00  0.00     0.002 A 
ATOM     75  C   UNL A   1      42.759  24.369  26.370  1.00  0.00     0.091 A 
ATOM     76  F   UNL A   1      41.333  24.557  28.276  1.00  0.00    -0.205 F 
ATOM     77  C   UNL A   1      43.653  24.975  25.473  1.00  0.00     0.022 A 
BRANCH  75  78
ATOM     78  S   UNL A   1      42.425  22.618  26.141  1.00  0.00     0.127 S 
ATOM     79  O   UNL A   1      40.966  22.596  26.082  1.00  0.00    -0.237 OA
ATOM     80  O   UNL A   1      43.098  22.341  24.870  1.00  0.00    -0.237 OA
ATOM     81  O   UNL A   1      43.028  21.956  27.291  1.00  0.00    -0.744 OA
ENDBRANCH  75  78
ENDBRANCH  47  71
BRANCH  59  82
ATOM     82  C   UNL A   1      44.770  27.237  34.215  1.00  0.00     0.023 A 
ATOM     83  C   UNL A   1      45.991  27.938  34.222  1.00  0.00     0.012 A 
ATOM     84  C   UNL A   1      44.632  26.076  35.000  1.00  0.00     0.148 A 
ATOM     85  C   UNL A   1      47.065  27.480  34.984  1.00  0.00     0.002 A 
ATOM     86  C   UNL A   1      45.692  25.648  35.788  1.00  0.00     0.091 A 
ATOM     87  F   UNL A   1      43.467  25.409  34.960  1.00  0.00    -0.205 F 
ATOM     88  C   UNL A   1      46.912  26.344  35.777  1.00  0.00     0.022 A 
BRANCH  86  89
ATOM     89  S   UNL A   1      45.543  24.249  36.907  1.00  0.00     0.127 S 
ATOM     90  O   UNL A   1      46.884  24.183  37.484  1.00  0.00    -0.237 OA
ATOM     91  O   UNL A   1      44.501  24.695  37.833  1.00  0.00    -0.237 OA
ATOM     92  O   UNL A   1      45.157  23.119  36.071  1.00  0.00    -0.744 OA
ENDBRANCH  86  89
ENDBRANCH  59  82
ENDBRANCH  33  34
ENDBRANCH  25  28
ENDBRANCH  23  24
ENDBRANCH  22  23
ENDBRANCH  21  22
ENDBRANCH   1  21
TORSDOF 21
ENDMDL
MODEL 2
REMARK VINA RESULT:     -10.7      1.639      2.737
REMARK SMILES CC[C@@H]1CCC[C@](CCCCCO)(C(=O)NCCCCNC(=O)c2ccc(-c3c4nc(c(-c5cccc(S(=O)(=O)[O-])c5F)c5ccc([nH]5)c(-c5cccc(S(=O)(=O)[O-])c5F)c5nc(c(-c6cccc(S(=O)(=O)[O-])c6F)c6ccc3[nH]6)C=C5)C=C4)cc2)C1
REMARK SMILES IDX 17 1 16 2 14 3 15 4 7 6 3 7 4 8 87 9 5 10 6 11 2 12 1 13
REMARK SMILES IDX 8 14 9 15 10 16 11 17 12 18 13 19 18 21 19 22 20 23 21 24
REMARK SMILES IDX 22 25 23 27 24 28 25 29 86 30 26 31 85 32 27 33 28 34 29 35
REMARK SMILES IDX 79 36 30 37 84 38 78 39 80 40 31 41 83 42 77 43 76 44 32 46
REMARK SMILES IDX 64 47 44 48 63 49 45 50 48 51 62 52 81 53 46 54 47 55 61 57
REMARK SMILES IDX 82 58 49 59 33 60 34 61 42 62 35 63 37 64 43 65 36 66 38 67
REMARK SMILES IDX 39 68 40 69 41 70 65 71 66 72 74 73 67 74 69 75 75 76 68 77
REMARK SMILES IDX 70 78 71 79 72 80 73 81 50 82 51 83 59 84 52 85 54 86 60 87
REMARK SMILES IDX 53 88 55 89 56 90 57 91 58 92
REMARK H PARENT 16 5 13 20 21 26 80 45 48 56
REMARK Flexibility Score: inf
ROOT
ATOM      1  C   UNL A   1      33.120  28.510  24.503  1.00  0.00     0.116 C 
ENDROOT
BRANCH   1   2
ATOM      2  N   UNL A   1      33.438  28.059  23.172  1.00  0.00    -0.356 N 
ATOM      3  C   UNL A   1      33.438  26.856  22.560  1.00  0.00     0.226 C 
ATOM      4  O   UNL A   1      33.687  26.929  21.347  1.00  0.00    -0.274 OA
ATOM      5  H   UNL A   1      33.715  28.792  22.576  1.00  0.00     0.163 HD
BRANCH   3   6
ATOM      6  C   UNL A   1      33.087  25.475  23.209  1.00  0.00     0.049 C 
ATOM      7  C   UNL A   1      34.378  23.893  24.918  1.00  0.00    -0.010 C 
ATOM      8  C   UNL A   1      34.485  22.833  23.813  1.00  0.00     0.003 C 
ATOM      9  C   UNL A   1      34.230  25.303  24.307  1.00  0.00     0.020 C 
ATOM     10  C   UNL A   1      33.384  22.972  22.765  1.00  0.00     0.001 C 
ATOM     11  C   UNL A   1      33.369  24.376  22.166  1.00  0.00     0.017 C 
BRANCH   7  12
ATOM     12  C   UNL A   1      35.601  23.800  25.855  1.00  0.00     0.000 C 
ATOM     13  C   UNL A   1      36.925  23.646  25.119  1.00  0.00     0.004 C 
ENDBRANCH   7  12
BRANCH   6  14
ATOM     14  C   UNL A   1      31.742  25.382  24.002  1.00  0.00     0.017 C 
BRANCH  14  15
ATOM     15  C   UNL A   1      31.468  25.409  25.528  1.00  0.00     0.001 C 
BRANCH  15  16
ATOM     16  C   UNL A   1      30.255  24.773  26.206  1.00  0.00     0.002 C 
BRANCH  16  17
ATOM     17  C   UNL A   1      30.519  23.362  26.744  1.00  0.00     0.028 C 
BRANCH  17  18
ATOM     18  C   UNL A   1      31.082  22.395  25.704  1.00  0.00     0.156 C 
BRANCH  18  19
ATOM     19  O   UNL A   1      32.117  21.597  26.260  1.00  0.00    -0.396 OA
ATOM     20  H   UNL A   1      32.476  21.010  25.577  1.00  0.00     0.210 HD
ENDBRANCH  18  19
ENDBRANCH  17  18
ENDBRANCH  16  17
ENDBRANCH  15  16
ENDBRANCH  14  15
ENDBRANCH   6  14
ENDBRANCH   3   6
ENDBRANCH   1   2
BRANCH   1  21
ATOM     21  C   UNL A   1      31.795  29.272  24.554  1.00  0.00     0.023 C 
BRANCH  21  22
ATOM     22  C   UNL A   1      31.547  30.044  25.850  1.00  0.00     0.023 C 
BRANCH  22  23
ATOM     23  C   UNL A   1      32.801  30.578  26.533  1.00  0.00     0.116 C 
BRANCH  23  24
ATOM     24  N   UNL A   1      32.684  31.944  27.035  1.00  0.00    -0.352 N 
ATOM     25  C   UNL A   1      33.629  32.659  27.737  1.00  0.00     0.251 C 
ATOM     26  H   UNL A   1      31.834  32.405  26.850  1.00  0.00     0.163 HD
ATOM     27  O   UNL A   1      33.385  33.790  28.148  1.00  0.00    -0.269 OA
BRANCH  25  28
ATOM     28  C   UNL A   1      34.920  32.006  28.035  1.00  0.00     0.039 A 
ATOM     29  C   UNL A   1      36.042  32.804  28.272  1.00  0.00     0.014 A 
ATOM     30  C   UNL A   1      34.976  30.623  28.217  1.00  0.00     0.014 A 
ATOM     31  C   UNL A   1      37.199  32.218  28.796  1.00  0.00     0.010 A 
ATOM     32  C   UNL A   1      36.097  30.059  28.814  1.00  0.00     0.010 A 
ATOM     33  C   UNL A   1      37.214  30.852  29.122  1.00  0.00    -0.014 A 
BRANCH  33  34
ATOM     34  C   UNL A   1      38.364  30.233  29.829  1.00  0.00     0.031 A 
ATOM     35  C   UNL A   1      38.707  30.657  31.229  1.00  0.00     0.074 A 
ATOM     36  C   UNL A   1      39.174  29.384  29.163  1.00  0.00     0.049 A 
ATOM     37  N   UNL A   1      39.717  30.294  31.975  1.00  0.00    -0.248 NA
ATOM     38  C   UNL A   1      37.821  31.649  31.861  1.00  0.00     0.031 C 
ATOM     39  C   UNL A   1      39.010  28.971  27.767  1.00  0.00     0.029 A 
ATOM     40  N   UNL A   1      40.316  28.734  29.566  1.00  0.00    -0.354 N 
ATOM     41  C   UNL A   1      39.620  31.052  33.136  1.00  0.00     0.074 A 
ATOM     42  C   UNL A   1      38.469  31.913  32.985  1.00  0.00     0.031 C 
ATOM     43  C   UNL A   1      40.001  28.127  27.436  1.00  0.00     0.029 A 
ATOM     44  C   UNL A   1      40.885  27.954  28.585  1.00  0.00     0.049 A 
ATOM     45  H   UNL A   1      40.692  28.820  30.471  1.00  0.00     0.167 HD
ATOM     46  C   UNL A   1      40.397  31.008  34.245  1.00  0.00     0.034 A 
ATOM     47  C   UNL A   1      41.986  27.179  28.613  1.00  0.00     0.034 A 
ATOM     48  C   UNL A   1      41.484  30.087  34.427  1.00  0.00     0.049 A 
ATOM     49  C   UNL A   1      42.778  27.080  29.889  1.00  0.00     0.074 A 
ATOM     50  C   UNL A   1      42.244  29.867  35.561  1.00  0.00     0.029 A 
ATOM     51  N   UNL A   1      41.963  29.228  33.450  1.00  0.00    -0.354 N 
ATOM     52  N   UNL A   1      42.558  27.664  31.042  1.00  0.00    -0.248 NA
ATOM     53  C   UNL A   1      43.948  26.190  29.880  1.00  0.00     0.031 C 
ATOM     54  C   UNL A   1      43.186  28.874  35.270  1.00  0.00     0.029 A 
ATOM     55  C   UNL A   1      43.011  28.477  33.953  1.00  0.00     0.049 A 
ATOM     56  H   UNL A   1      41.610  29.162  32.534  1.00  0.00     0.167 HD
ATOM     57  C   UNL A   1      43.537  27.183  31.905  1.00  0.00     0.074 A 
ATOM     58  C   UNL A   1      44.343  26.249  31.145  1.00  0.00     0.031 C 
ATOM     59  C   UNL A   1      43.759  27.502  33.204  1.00  0.00     0.034 A 
BRANCH  46  60
ATOM     60  C   UNL A   1      40.042  31.933  35.377  1.00  0.00     0.023 A 
ATOM     61  C   UNL A   1      40.725  33.159  35.506  1.00  0.00     0.012 A 
ATOM     62  C   UNL A   1      39.018  31.611  36.288  1.00  0.00     0.148 A 
ATOM     63  C   UNL A   1      40.421  34.036  36.546  1.00  0.00     0.002 A 
ATOM     64  C   UNL A   1      38.694  32.508  37.301  1.00  0.00     0.091 A 
ATOM     65  F   UNL A   1      38.400  30.428  36.170  1.00  0.00    -0.205 F 
ATOM     66  C   UNL A   1      39.400  33.715  37.437  1.00  0.00     0.022 A 
BRANCH  64  67
ATOM     67  S   UNL A   1      37.346  32.206  38.448  1.00  0.00     0.127 S 
ATOM     68  O   UNL A   1      37.875  32.777  39.685  1.00  0.00    -0.237 OA
ATOM     69  O   UNL A   1      36.246  32.965  37.849  1.00  0.00    -0.237 OA
ATOM     70  O   UNL A   1      37.148  30.763  38.448  1.00  0.00    -0.744 OA
ENDBRANCH  64  67
ENDBRANCH  46  60
BRANCH  47  71
ATOM     71  C   UNL A   1      42.340  26.345  27.429  1.00  0.00     0.023 A 
ATOM     72  C   UNL A   1      43.067  26.938  26.378  1.00  0.00     0.012 A 
ATOM     73  C   UNL A   1      42.004  24.982  27.347  1.00  0.00     0.148 A 
ATOM     74  C   UNL A   1      43.431  26.195  25.254  1.00  0.00     0.002 A 
ATOM     75  C   UNL A   1      42.410  24.235  26.246  1.00  0.00     0.091 A 
ATOM     76  F   UNL A   1      41.299  24.438  28.350  1.00  0.00    -0.205 F 
ATOM     77  C   UNL A   1      43.111  24.842  25.193  1.00  0.00     0.022 A 
BRANCH  75  78
ATOM     78  S   UNL A   1      42.149  22.459  26.143  1.00  0.00     0.127 S 
ATOM     79  O   UNL A   1      42.916  22.112  24.949  1.00  0.00    -0.237 OA
ATOM     80  O   UNL A   1      42.727  21.990  27.404  1.00  0.00    -0.237 OA
ATOM     81  O   UNL A   1      40.706  22.285  26.048  1.00  0.00    -0.744 OA
ENDBRANCH  75  78
ENDBRANCH  47  71
BRANCH  59  82
ATOM     82  C   UNL A   1      44.901  26.818  33.906  1.00  0.00     0.023 A 
ATOM     83  C   UNL A   1      46.166  27.436  33.932  1.00  0.00     0.012 A 
ATOM     84  C   UNL A   1      44.701  25.616  34.611  1.00  0.00     0.148 A 
ATOM     85  C   UNL A   1      47.221  26.856  34.636  1.00  0.00     0.002 A 
ATOM     86  C   UNL A   1      45.745  25.066  35.343  1.00  0.00     0.091 A 
ATOM     87  F   UNL A   1      43.494  25.031  34.552  1.00  0.00    -0.205 F 
ATOM     88  C   UNL A   1      47.008  25.680  35.351  1.00  0.00     0.022 A 
BRANCH  86  89
ATOM     89  S   UNL A   1      45.524  23.603  36.364  1.00  0.00     0.127 S 
ATOM     90  O   UNL A   1      44.819  24.151  37.521  1.00  0.00    -0.237 OA
ATOM     91  O   UNL A   1      44.711  22.739  35.507  1.00  0.00    -0.237 OA
ATOM     92  O   UNL A   1      46.866  23.098  36.622  1.00  0.00    -0.744 OA
ENDBRANCH  86  89
ENDBRANCH  59  82
ENDBRANCH  33  34
ENDBRANCH  25  28
ENDBRANCH  23  24
ENDBRANCH  22  23
ENDBRANCH  21  22
ENDBRANCH   1  21
TORSDOF 21
ENDMDL
MODEL 3
REMARK VINA RESULT:     -10.7      1.789      8.102
REMARK SMILES CC[C@@H]1CCC[C@](CCCCCO)(C(=O)NCCCCNC(=O)c2ccc(-c3c4nc(c(-c5cccc(S(=O)(=O)[O-])c5F)c5ccc([nH]5)c(-c5cccc(S(=O)(=O)[O-])c5F)c5nc(c(-c6cccc(S(=O)(=O)[O-])c6F)c6ccc3[nH]6)C=C5)C=C4)cc2)C1
REMARK SMILES IDX 17 1 16 2 14 3 15 4 7 6 3 7 4 8 87 9 5 10 6 11 2 12 1 13
REMARK SMILES IDX 8 14 9 15 10 16 11 17 12 18 13 19 18 21 19 22 20 23 21 24
REMARK SMILES IDX 22 25 23 27 24 28 25 29 86 30 26 31 85 32 27 33 28 34 29 35
REMARK SMILES IDX 79 36 30 37 84 38 78 39 80 40 31 41 83 42 77 43 76 44 32 46
REMARK SMILES IDX 64 47 44 48 63 49 45 50 48 51 62 52 81 53 46 54 47 55 61 57
REMARK SMILES IDX 82 58 49 59 33 60 34 61 42 62 35 63 37 64 43 65 36 66 38 67
REMARK SMILES IDX 39 68 40 69 41 70 65 71 66 72 74 73 67 74 69 75 75 76 68 77
REMARK SMILES IDX 70 78 71 79 72 80 73 81 50 82 51 83 59 84 52 85 54 86 60 87
REMARK SMILES IDX 53 88 55 89 56 90 57 91 58 92
REMARK H PARENT 16 5 13 20 21 26 80 45 48 56
REMARK Flexibility Score: inf
ROOT
ATOM      1  C   UNL A   1      32.651  27.752  24.279  1.00  0.00     0.116 C 
ENDROOT
BRANCH   1   2
ATOM      2  N   UNL A   1      33.111  27.138  23.060  1.00  0.00    -0.356 N 
ATOM      3  C   UNL A   1      33.466  25.883  22.712  1.00  0.00     0.226 C 
ATOM      4  O   UNL A   1      33.708  25.765  21.501  1.00  0.00    -0.274 OA
ATOM      5  H   UNL A   1      33.181  27.776  22.313  1.00  0.00     0.163 HD
BRANCH   3   6
ATOM      6  C   UNL A   1      33.508  24.628  23.647  1.00  0.00     0.049 C 
ATOM      7  C   UNL A   1      31.906  23.759  25.588  1.00  0.00    -0.010 C 
ATOM      8  C   UNL A   1      33.048  23.978  26.591  1.00  0.00     0.003 C 
ATOM      9  C   UNL A   1      32.080  24.672  24.356  1.00  0.00     0.020 C 
ATOM     10  C   UNL A   1      34.422  23.918  25.929  1.00  0.00     0.001 C 
ATOM     11  C   UNL A   1      34.521  24.910  24.774  1.00  0.00     0.017 C 
BRANCH   7  12
ATOM     12  C   UNL A   1      30.547  23.987  26.283  1.00  0.00     0.000 C 
ATOM     13  C   UNL A   1      29.998  22.748  26.977  1.00  0.00     0.004 C 
ENDBRANCH   7  12
BRANCH   6  14
ATOM     14  C   UNL A   1      33.576  23.226  22.956  1.00  0.00     0.017 C 
BRANCH  14  15
ATOM     15  C   UNL A   1      32.455  22.204  22.638  1.00  0.00     0.001 C 
BRANCH  15  16
ATOM     16  C   UNL A   1      32.358  20.802  23.240  1.00  0.00     0.002 C 
BRANCH  16  17
ATOM     17  C   UNL A   1      33.352  20.552  24.379  1.00  0.00     0.028 C 
BRANCH  17  18
ATOM     18  C   UNL A   1      32.695  20.297  25.734  1.00  0.00     0.156 C 
BRANCH  18  19
ATOM     19  O   UNL A   1      33.073  19.030  26.251  1.00  0.00    -0.396 OA
ATOM     20  H   UNL A   1      32.281  18.540  26.519  1.00  0.00     0.210 HD
ENDBRANCH  18  19
ENDBRANCH  17  18
ENDBRANCH  16  17
ENDBRANCH  15  16
ENDBRANCH  14  15
ENDBRANCH   6  14
ENDBRANCH   3   6
ENDBRANCH   1   2
BRANCH   1  21
ATOM     21  C   UNL A   1      32.547  29.273  24.156  1.00  0.00     0.023 C 
BRANCH  21  22
ATOM     22  C   UNL A   1      31.709  29.950  25.240  1.00  0.00     0.023 C 
BRANCH  22  23
ATOM     23  C   UNL A   1      32.486  30.386  26.478  1.00  0.00     0.116 C 
BRANCH  23  24
ATOM     24  N   UNL A   1      32.256  31.770  26.881  1.00  0.00    -0.352 N 
ATOM     25  C   UNL A   1      33.135  32.606  27.536  1.00  0.00     0.251 C 
ATOM     26  H   UNL A   1      31.375  32.149  26.661  1.00  0.00     0.163 HD
ATOM     27  O   UNL A   1      32.798  33.740  27.864  1.00  0.00    -0.269 OA
BRANCH  25  28
ATOM     28  C   UNL A   1      34.471  32.080  27.884  1.00  0.00     0.039 A 
ATOM     29  C   UNL A   1      35.549  32.965  27.952  1.00  0.00     0.014 A 
ATOM     30  C   UNL A   1      34.614  30.748  28.279  1.00  0.00     0.014 A 
ATOM     31  C   UNL A   1      36.753  32.534  28.518  1.00  0.00     0.010 A 
ATOM     32  C   UNL A   1      35.783  30.348  28.915  1.00  0.00     0.010 A 
ATOM     33  C   UNL A   1      36.859  31.240  29.054  1.00  0.00    -0.014 A 
BRANCH  33  34
ATOM     34  C   UNL A   1      38.063  30.804  29.806  1.00  0.00     0.031 A 
ATOM     35  C   UNL A   1      39.033  29.840  29.185  1.00  0.00     0.074 A 
ATOM     36  C   UNL A   1      38.214  31.178  31.094  1.00  0.00     0.049 A 
ATOM     37  N   UNL A   1      40.091  29.282  29.711  1.00  0.00    -0.248 NA
ATOM     38  C   UNL A   1      38.757  29.415  27.802  1.00  0.00     0.031 C 
ATOM     39  C   UNL A   1      37.288  32.028  31.847  1.00  0.00     0.029 A 
ATOM     40  N   UNL A   1      39.191  30.867  32.008  1.00  0.00    -0.354 N 
ATOM     41  C   UNL A   1      40.573  28.402  28.749  1.00  0.00     0.074 A 
ATOM     42  C   UNL A   1      39.676  28.480  27.617  1.00  0.00     0.031 C 
ATOM     43  C   UNL A   1      37.749  32.184  33.098  1.00  0.00     0.029 A 
ATOM     44  C   UNL A   1      38.990  31.430  33.247  1.00  0.00     0.049 A 
ATOM     45  H   UNL A   1      39.962  30.293  31.796  1.00  0.00     0.167 HD
ATOM     46  C   UNL A   1      41.682  27.627  28.788  1.00  0.00     0.034 A 
ATOM     47  C   UNL A   1      39.728  31.356  34.372  1.00  0.00     0.034 A 
ATOM     48  C   UNL A   1      42.618  27.620  29.877  1.00  0.00     0.049 A 
ATOM     49  C   UNL A   1      41.005  30.559  34.357  1.00  0.00     0.074 A 
ATOM     50  C   UNL A   1      43.841  26.977  29.957  1.00  0.00     0.029 A 
ATOM     51  N   UNL A   1      42.440  28.293  31.076  1.00  0.00    -0.354 N 
ATOM     52  N   UNL A   1      41.542  29.884  33.370  1.00  0.00    -0.248 NA
ATOM     53  C   UNL A   1      41.794  30.543  35.597  1.00  0.00     0.031 C 
ATOM     54  C   UNL A   1      44.402  27.261  31.207  1.00  0.00     0.029 A 
ATOM     55  C   UNL A   1      43.528  28.081  31.904  1.00  0.00     0.049 A 
ATOM     56  H   UNL A   1      41.655  28.842  31.304  1.00  0.00     0.167 HD
ATOM     57  C   UNL A   1      42.750  29.394  33.857  1.00  0.00     0.074 A 
ATOM     58  C   UNL A   1      42.871  29.863  35.223  1.00  0.00     0.031 C 
ATOM     59  C   UNL A   1      43.665  28.612  33.235  1.00  0.00     0.034 A 
BRANCH  46  60
ATOM     60  C   UNL A   1      41.981  26.782  27.580  1.00  0.00     0.023 A 
ATOM     61  C   UNL A   1      42.570  27.381  26.447  1.00  0.00     0.012 A 
ATOM     62  C   UNL A   1      41.714  25.400  27.572  1.00  0.00     0.148 A 
ATOM     63  C   UNL A   1      42.856  26.625  25.312  1.00  0.00     0.002 A 
ATOM     64  C   UNL A   1      42.038  24.645  26.449  1.00  0.00     0.091 A 
ATOM     65  F   UNL A   1      41.126  24.852  28.644  1.00  0.00    -0.205 F 
ATOM     66  C   UNL A   1      42.599  25.257  25.316  1.00  0.00     0.022 A 
BRANCH  64  67
ATOM     67  S   UNL A   1      41.805  22.865  26.396  1.00  0.00     0.127 S 
ATOM     68  O   UNL A   1      42.475  22.515  25.145  1.00  0.00    -0.237 OA
ATOM     69  O   UNL A   1      42.503  22.420  27.605  1.00  0.00    -0.237 OA
ATOM     70  O   UNL A   1      40.365  22.657  26.426  1.00  0.00    -0.744 OA
ENDBRANCH  64  67
ENDBRANCH  46  60
BRANCH  47  71
ATOM     71  C   UNL A   1      39.339  32.150  35.572  1.00  0.00     0.023 A 
ATOM     72  C   UNL A   1      39.763  33.491  35.662  1.00  0.00     0.012 A 
ATOM     73  C   UNL A   1      38.533  31.615  36.593  1.00  0.00     0.148 A 
ATOM     74  C   UNL A   1      39.414  34.277  36.761  1.00  0.00     0.002 A 
ATOM     75  C   UNL A   1      38.149  32.418  37.663  1.00  0.00     0.091 A 
ATOM     76  F   UNL A   1      38.151  30.333  36.497  1.00  0.00    -0.205 F 
ATOM     77  C   UNL A   1      38.600  33.744  37.755  1.00  0.00     0.022 A 
BRANCH  75  78
ATOM     78  S   UNL A   1      37.001  31.851  38.923  1.00  0.00     0.127 S 
ATOM     79  O   UNL A   1      37.672  32.269  40.151  1.00  0.00    -0.237 OA
ATOM     80  O   UNL A   1      35.788  32.605  38.596  1.00  0.00    -0.237 OA
ATOM     81  O   UNL A   1      36.881  30.414  38.719  1.00  0.00    -0.744 OA
ENDBRANCH  75  78
ENDBRANCH  47  71
BRANCH  59  82
ATOM     82  C   UNL A   1      44.898  28.229  34.008  1.00  0.00     0.023 A 
ATOM     83  C   UNL A   1      46.015  29.088  33.998  1.00  0.00     0.012 A 
ATOM     84  C   UNL A   1      44.919  27.072  34.811  1.00  0.00     0.148 A 
ATOM     85  C   UNL A   1      47.143  28.789  34.763  1.00  0.00     0.002 A 
ATOM     86  C   UNL A   1      46.029  26.803  35.601  1.00  0.00     0.091 A 
ATOM     87  F   UNL A   1      43.854  26.255  34.786  1.00  0.00    -0.205 F 
ATOM     88  C   UNL A   1      47.145  27.655  35.573  1.00  0.00     0.022 A 
BRANCH  86  89
ATOM     89  S   UNL A   1      46.071  25.414  36.741  1.00  0.00     0.127 S 
ATOM     90  O   UNL A   1      44.847  25.622  37.511  1.00  0.00    -0.237 OA
ATOM     91  O   UNL A   1      46.034  24.262  35.837  1.00  0.00    -0.237 OA
ATOM     92  O   UNL A   1      47.317  25.552  37.483  1.00  0.00    -0.744 OA
ENDBRANCH  86  89
ENDBRANCH  59  82
ENDBRANCH  33  34
ENDBRANCH  25  28
ENDBRANCH  23  24
ENDBRANCH  22  23
ENDBRANCH  21  22
ENDBRANCH   1  21
TORSDOF 21
ENDMDL
