MODEL 1
REMARK VINA RESULT:     -11.6      0.000      0.000
REMARK SMILES CC[C@](C)(NC(=O)N1Cc2ccccc2C1)C(=O)NCCCCNC(=O)c1ccc(-c2c3nc(c(-c4cccc(S(=O)(=O)[O-])c4F)c4ccc([nH]4)c(-c4cccc(S(=O)(=O)[O-])c4F)c4nc(c(-c5cccc(S(=O)(=O)[O-])c5F)c5ccc2[nH]5)C=C4)C=C3)cc1
REMARK SMILES IDX 22 1 21 2 20 3 19 4 17 5 18 6 3 8 4 9 2 10 1 11 5 12 6 13
REMARK SMILES IDX 7 15 8 16 9 17 16 18 10 19 15 20 11 21 14 22 12 23 13 24
REMARK SMILES IDX 23 25 24 26 25 27 26 29 27 30 28 31 89 32 29 33 88 34 30 35
REMARK SMILES IDX 31 36 32 37 82 38 33 39 87 40 81 41 83 42 34 43 86 44 80 45
REMARK SMILES IDX 79 46 35 48 67 49 47 50 66 51 48 52 51 53 65 54 84 55 49 56
REMARK SMILES IDX 50 57 64 59 85 60 52 61 36 62 37 63 45 64 38 65 40 66 46 67
REMARK SMILES IDX 39 68 41 69 42 70 43 71 44 72 68 73 69 74 77 75 70 76 72 77
REMARK SMILES IDX 78 78 71 79 73 80 74 81 75 82 76 83 53 84 54 85 62 86 55 87
REMARK SMILES IDX 57 88 63 89 56 90 58 91 59 92 60 93 61 94
REMARK H PARENT 19 7 5 14 24 28 83 47 51 58
REMARK Flexibility Score: inf
ROOT
ATOM      1  C   UNL A   1      34.089  27.944  26.182  1.00  0.00     0.023 C 
ENDROOT
BRANCH   1   2
ATOM      2  C   UNL A   1      33.980  28.682  24.850  1.00  0.00     0.023 C 
BRANCH   2   3
ATOM      3  C   UNL A   1      32.677  28.585  24.051  1.00  0.00     0.116 C 
BRANCH   3   4
ATOM      4  N   UNL A   1      32.615  27.652  22.938  1.00  0.00    -0.354 N 
ATOM      5  C   UNL A   1      31.792  26.599  22.634  1.00  0.00     0.245 C 
ATOM      6  O   UNL A   1      31.902  26.134  21.493  1.00  0.00    -0.272 OA
ATOM      7  H   UNL A   1      33.311  27.810  22.259  1.00  0.00     0.163 HD
BRANCH   5   8
ATOM      8  C   UNL A   1      30.707  26.063  23.609  1.00  0.00     0.117 C 
ATOM      9  C   UNL A   1      30.249  24.624  23.297  1.00  0.00     0.045 C 
BRANCH   8  10
ATOM     10  C   UNL A   1      29.470  27.003  23.407  1.00  0.00     0.035 C 
ATOM     11  C   UNL A   1      28.162  26.488  24.017  1.00  0.00     0.007 C 
ENDBRANCH   8  10
BRANCH   8  12
ATOM     12  N   UNL A   1      31.145  26.095  25.025  1.00  0.00    -0.324 N 
ATOM     13  C   UNL A   1      31.873  25.266  25.816  1.00  0.00     0.318 C 
ATOM     14  H   UNL A   1      30.839  26.901  25.500  1.00  0.00     0.166 HD
ATOM     15  O   UNL A   1      31.652  25.381  27.027  1.00  0.00    -0.249 OA
ATOM     16  N   UNL A   1      32.815  24.408  25.349  1.00  0.00    -0.316 N 
ATOM     17  C   UNL A   1      33.624  23.628  26.309  1.00  0.00     0.157 C 
ATOM     18  C   UNL A   1      33.365  24.267  24.007  1.00  0.00     0.157 C 
ATOM     19  C   UNL A   1      34.787  23.129  25.503  1.00  0.00    -0.023 A 
ATOM     20  C   UNL A   1      34.630  23.508  24.172  1.00  0.00    -0.023 A 
ATOM     21  C   UNL A   1      35.928  22.456  25.899  1.00  0.00     0.006 A 
ATOM     22  C   UNL A   1      35.602  23.275  23.212  1.00  0.00     0.006 A 
ATOM     23  C   UNL A   1      36.920  22.202  24.940  1.00  0.00     0.000 A 
ATOM     24  C   UNL A   1      36.763  22.618  23.607  1.00  0.00     0.000 A 
ENDBRANCH   8  12
ENDBRANCH   5   8
ENDBRANCH   3   4
ENDBRANCH   2   3
ENDBRANCH   1   2
BRANCH   1  25
ATOM     25  C   UNL A   1      33.349  28.558  27.356  1.00  0.00     0.116 C 
BRANCH  25  26
ATOM     26  N   UNL A   1      33.425  30.009  27.359  1.00  0.00    -0.352 N 
ATOM     27  C   UNL A   1      34.414  30.829  27.841  1.00  0.00     0.251 C 
ATOM     28  H   UNL A   1      32.654  30.472  26.957  1.00  0.00     0.163 HD
ATOM     29  O   UNL A   1      34.216  32.040  27.904  1.00  0.00    -0.269 OA
BRANCH  27  30
ATOM     30  C   UNL A   1      35.703  30.263  28.301  1.00  0.00     0.039 A 
ATOM     31  C   UNL A   1      36.794  30.282  27.427  1.00  0.00     0.014 A 
ATOM     32  C   UNL A   1      35.836  29.695  29.570  1.00  0.00     0.014 A 
ATOM     33  C   UNL A   1      38.027  29.771  27.842  1.00  0.00     0.010 A 
ATOM     34  C   UNL A   1      37.083  29.257  30.009  1.00  0.00     0.010 A 
ATOM     35  C   UNL A   1      38.189  29.275  29.145  1.00  0.00    -0.014 A 
BRANCH  35  36
ATOM     36  C   UNL A   1      39.500  28.761  29.620  1.00  0.00     0.031 A 
ATOM     37  C   UNL A   1      40.240  29.475  30.719  1.00  0.00     0.074 A 
ATOM     38  C   UNL A   1      40.062  27.700  29.008  1.00  0.00     0.049 A 
ATOM     39  N   UNL A   1      41.418  29.216  31.225  1.00  0.00    -0.248 NA
ATOM     40  C   UNL A   1      39.582  30.653  31.311  1.00  0.00     0.031 C 
ATOM     41  C   UNL A   1      39.484  26.972  27.877  1.00  0.00     0.029 A 
ATOM     42  N   UNL A   1      41.261  27.069  29.231  1.00  0.00    -0.354 N 
ATOM     43  C   UNL A   1      41.658  30.212  32.164  1.00  0.00     0.074 A 
ATOM     44  C   UNL A   1      40.519  31.103  32.133  1.00  0.00     0.031 C 
ATOM     45  C   UNL A   1      40.327  25.995  27.505  1.00  0.00     0.029 A 
ATOM     46  C   UNL A   1      41.518  26.045  28.349  1.00  0.00     0.049 A 
ATOM     47  H   UNL A   1      41.878  27.326  29.954  1.00  0.00     0.167 HD
ATOM     48  C   UNL A   1      42.714  30.356  33.000  1.00  0.00     0.034 A 
ATOM     49  C   UNL A   1      42.594  25.244  28.227  1.00  0.00     0.034 A 
ATOM     50  C   UNL A   1      43.824  29.443  33.059  1.00  0.00     0.049 A 
ATOM     51  C   UNL A   1      43.734  25.396  29.197  1.00  0.00     0.074 A 
ATOM     52  C   UNL A   1      44.901  29.454  33.927  1.00  0.00     0.029 A 
ATOM     53  N   UNL A   1      44.003  28.359  32.214  1.00  0.00    -0.354 N 
ATOM     54  N   UNL A   1      43.870  26.250  30.182  1.00  0.00    -0.248 NA
ATOM     55  C   UNL A   1      44.852  24.450  29.064  1.00  0.00     0.031 C 
ATOM     56  C   UNL A   1      45.743  28.388  33.593  1.00  0.00     0.029 A 
ATOM     57  C   UNL A   1      45.176  27.697  32.535  1.00  0.00     0.049 A 
ATOM     58  H   UNL A   1      43.386  28.098  31.493  1.00  0.00     0.167 HD
ATOM     59  C   UNL A   1      45.068  25.924  30.807  1.00  0.00     0.074 A 
ATOM     60  C   UNL A   1      45.608  24.779  30.103  1.00  0.00     0.031 C 
ATOM     61  C   UNL A   1      45.675  26.527  31.860  1.00  0.00     0.034 A 
BRANCH  48  62
ATOM     62  C   UNL A   1      42.691  31.515  33.964  1.00  0.00     0.023 A 
ATOM     63  C   UNL A   1      43.273  32.743  33.586  1.00  0.00     0.012 A 
ATOM     64  C   UNL A   1      42.047  31.411  35.212  1.00  0.00     0.148 A 
ATOM     65  C   UNL A   1      43.250  33.837  34.449  1.00  0.00     0.002 A 
ATOM     66  C   UNL A   1      41.987  32.520  36.049  1.00  0.00     0.091 A 
ATOM     67  F   UNL A   1      41.516  30.232  35.563  1.00  0.00    -0.205 F 
ATOM     68  C   UNL A   1      42.599  33.730  35.675  1.00  0.00     0.022 A 
BRANCH  66  69
ATOM     69  S   UNL A   1      41.105  32.511  37.613  1.00  0.00     0.127 S 
ATOM     70  O   UNL A   1      41.946  31.631  38.422  1.00  0.00    -0.237 OA
ATOM     71  O   UNL A   1      41.148  33.920  38.000  1.00  0.00    -0.237 OA
ATOM     72  O   UNL A   1      39.771  32.003  37.318  1.00  0.00    -0.744 OA
ENDBRANCH  66  69
ENDBRANCH  48  62
BRANCH  49  73
ATOM     73  C   UNL A   1      42.614  24.184  27.180  1.00  0.00     0.023 A 
ATOM     74  C   UNL A   1      43.283  24.422  25.963  1.00  0.00     0.012 A 
ATOM     75  C   UNL A   1      42.003  22.933  27.395  1.00  0.00     0.148 A 
ATOM     76  C   UNL A   1      43.315  23.446  24.966  1.00  0.00     0.002 A 
ATOM     77  C   UNL A   1      42.088  21.945  26.420  1.00  0.00     0.091 A 
ATOM     78  F   UNL A   1      41.361  22.730  28.554  1.00  0.00    -0.205 F 
ATOM     79  C   UNL A   1      42.727  22.205  25.198  1.00  0.00     0.022 A 
BRANCH  77  80
ATOM     80  S   UNL A   1      41.477  20.277  26.687  1.00  0.00     0.127 S 
ATOM     81  O   UNL A   1      40.052  20.511  26.901  1.00  0.00    -0.237 OA
ATOM     82  O   UNL A   1      41.812  19.626  25.420  1.00  0.00    -0.237 OA
ATOM     83  O   UNL A   1      42.215  19.766  27.836  1.00  0.00    -0.744 OA
ENDBRANCH  77  80
ENDBRANCH  49  73
BRANCH  61  84
ATOM     84  C   UNL A   1      46.977  25.945  32.344  1.00  0.00     0.023 A 
ATOM     85  C   UNL A   1      48.196  26.419  31.821  1.00  0.00     0.012 A 
ATOM     86  C   UNL A   1      46.994  24.983  33.373  1.00  0.00     0.148 A 
ATOM     87  C   UNL A   1      49.411  25.922  32.292  1.00  0.00     0.002 A 
ATOM     88  C   UNL A   1      48.209  24.527  33.872  1.00  0.00     0.091 A 
ATOM     89  F   UNL A   1      45.823  24.531  33.846  1.00  0.00    -0.205 F 
ATOM     90  C   UNL A   1      49.417  24.986  33.323  1.00  0.00     0.022 A 
BRANCH  88  91
ATOM     91  S   UNL A   1      48.316  23.397  35.264  1.00  0.00     0.127 S 
ATOM     92  O   UNL A   1      49.762  23.273  35.437  1.00  0.00    -0.237 OA
ATOM     93  O   UNL A   1      47.636  24.143  36.323  1.00  0.00    -0.237 OA
ATOM     94  O   UNL A   1      47.630  22.181  34.847  1.00  0.00    -0.744 OA
ENDBRANCH  88  91
ENDBRANCH  61  84
ENDBRANCH  35  36
ENDBRANCH  27  30
ENDBRANCH  25  26
ENDBRANCH   1  25
TORSDOF 16
ENDMDL
MODEL 2
REMARK VINA RESULT:     -11.6      2.191      4.145
REMARK SMILES CC[C@](C)(NC(=O)N1Cc2ccccc2C1)C(=O)NCCCCNC(=O)c1ccc(-c2c3nc(c(-c4cccc(S(=O)(=O)[O-])c4F)c4ccc([nH]4)c(-c4cccc(S(=O)(=O)[O-])c4F)c4nc(c(-c5cccc(S(=O)(=O)[O-])c5F)c5ccc2[nH]5)C=C4)C=C3)cc1
REMARK SMILES IDX 22 1 21 2 20 3 19 4 17 5 18 6 3 8 4 9 2 10 1 11 5 12 6 13
REMARK SMILES IDX 7 15 8 16 9 17 16 18 10 19 15 20 11 21 14 22 12 23 13 24
REMARK SMILES IDX 23 25 24 26 25 27 26 29 27 30 28 31 89 32 29 33 88 34 30 35
REMARK SMILES IDX 31 36 32 37 82 38 33 39 87 40 81 41 83 42 34 43 86 44 80 45
REMARK SMILES IDX 79 46 35 48 67 49 47 50 66 51 48 52 51 53 65 54 84 55 49 56
REMARK SMILES IDX 50 57 64 59 85 60 52 61 36 62 37 63 45 64 38 65 40 66 46 67
REMARK SMILES IDX 39 68 41 69 42 70 43 71 44 72 68 73 69 74 77 75 70 76 72 77
REMARK SMILES IDX 78 78 71 79 73 80 74 81 75 82 76 83 53 84 54 85 62 86 55 87
REMARK SMILES IDX 57 88 63 89 56 90 58 91 59 92 60 93 61 94
REMARK H PARENT 19 7 5 14 24 28 83 47 51 58
REMARK Flexibility Score: inf
ROOT
ATOM      1  C   UNL A   1      31.622  29.002  26.131  1.00  0.00     0.023 C 
ENDROOT
BRANCH   1   2
ATOM      2  C   UNL A   1      31.856  27.821  27.069  1.00  0.00     0.023 C 
BRANCH   2   3
ATOM      3  C   UNL A   1      32.522  26.555  26.519  1.00  0.00     0.116 C 
BRANCH   3   4
ATOM      4  N   UNL A   1      31.692  25.578  25.832  1.00  0.00    -0.354 N 
ATOM      5  C   UNL A   1      31.850  24.849  24.684  1.00  0.00     0.245 C 
ATOM      6  O   UNL A   1      31.018  23.953  24.490  1.00  0.00    -0.272 OA
ATOM      7  H   UNL A   1      30.837  25.405  26.289  1.00  0.00     0.163 HD
BRANCH   5   8
ATOM      8  C   UNL A   1      33.047  25.045  23.713  1.00  0.00     0.117 C 
ATOM      9  C   UNL A   1      32.736  24.643  22.256  1.00  0.00     0.045 C 
BRANCH   8  10
ATOM     10  C   UNL A   1      34.165  24.081  24.236  1.00  0.00     0.035 C 
ATOM     11  C   UNL A   1      34.928  23.325  23.144  1.00  0.00     0.007 C 
ENDBRANCH   8  10
BRANCH   8  12
ATOM     12  N   UNL A   1      33.544  26.441  23.694  1.00  0.00    -0.324 N 
ATOM     13  C   UNL A   1      33.118  27.598  23.124  1.00  0.00     0.318 C 
ATOM     14  H   UNL A   1      34.372  26.557  24.214  1.00  0.00     0.166 HD
ATOM     15  O   UNL A   1      34.004  28.441  22.941  1.00  0.00    -0.249 OA
ATOM     16  N   UNL A   1      31.821  27.858  22.819  1.00  0.00    -0.316 N 
ATOM     17  C   UNL A   1      31.453  29.192  22.299  1.00  0.00     0.157 C 
ATOM     18  C   UNL A   1      30.619  27.100  23.136  1.00  0.00     0.157 C 
ATOM     19  C   UNL A   1      29.963  29.262  22.463  1.00  0.00    -0.023 A 
ATOM     20  C   UNL A   1      29.490  28.047  22.952  1.00  0.00    -0.023 A 
ATOM     21  C   UNL A   1      29.089  30.315  22.267  1.00  0.00     0.006 A 
ATOM     22  C   UNL A   1      28.162  27.851  23.299  1.00  0.00     0.006 A 
ATOM     23  C   UNL A   1      27.740  30.134  22.604  1.00  0.00     0.000 A 
ATOM     24  C   UNL A   1      27.281  28.913  23.126  1.00  0.00     0.000 A 
ENDBRANCH   8  12
ENDBRANCH   5   8
ENDBRANCH   3   4
ENDBRANCH   2   3
ENDBRANCH   1   2
BRANCH   1  25
ATOM     25  C   UNL A   1      32.819  29.894  25.859  1.00  0.00     0.116 C 
BRANCH  25  26
ATOM     26  N   UNL A   1      32.591  31.268  26.272  1.00  0.00    -0.352 N 
ATOM     27  C   UNL A   1      33.224  32.004  27.242  1.00  0.00     0.251 C 
ATOM     28  H   UNL A   1      31.877  31.740  25.785  1.00  0.00     0.163 HD
ATOM     29  O   UNL A   1      32.771  33.102  27.557  1.00  0.00    -0.269 OA
BRANCH  27  30
ATOM     30  C   UNL A   1      34.431  31.477  27.918  1.00  0.00     0.039 A 
ATOM     31  C   UNL A   1      35.533  32.322  28.080  1.00  0.00     0.014 A 
ATOM     32  C   UNL A   1      34.493  30.156  28.369  1.00  0.00     0.014 A 
ATOM     33  C   UNL A   1      36.678  31.855  28.732  1.00  0.00     0.010 A 
ATOM     34  C   UNL A   1      35.604  29.717  29.086  1.00  0.00     0.010 A 
ATOM     35  C   UNL A   1      36.715  30.555  29.261  1.00  0.00    -0.014 A 
BRANCH  35  36
ATOM     36  C   UNL A   1      37.908  30.051  29.990  1.00  0.00     0.031 A 
ATOM     37  C   UNL A   1      38.214  30.549  31.377  1.00  0.00     0.074 A 
ATOM     38  C   UNL A   1      38.759  29.207  29.374  1.00  0.00     0.049 A 
ATOM     39  N   UNL A   1      39.236  30.275  32.146  1.00  0.00    -0.248 NA
ATOM     40  C   UNL A   1      37.262  31.504  31.969  1.00  0.00     0.031 C 
ATOM     41  C   UNL A   1      38.617  28.713  28.003  1.00  0.00     0.029 A 
ATOM     42  N   UNL A   1      39.929  28.637  29.812  1.00  0.00    -0.354 N 
ATOM     43  C   UNL A   1      39.070  31.045  33.291  1.00  0.00     0.074 A 
ATOM     44  C   UNL A   1      37.868  31.827  33.102  1.00  0.00     0.031 C 
ATOM     45  C   UNL A   1      39.658  27.917  27.711  1.00  0.00     0.029 A 
ATOM     46  C   UNL A   1      40.557  27.866  28.861  1.00  0.00     0.049 A 
ATOM     47  H   UNL A   1      40.285  28.769  30.720  1.00  0.00     0.167 HD
ATOM     48  C   UNL A   1      39.829  31.075  34.412  1.00  0.00     0.034 A 
ATOM     49  C   UNL A   1      41.727  27.202  28.906  1.00  0.00     0.034 A 
ATOM     50  C   UNL A   1      40.999  30.264  34.615  1.00  0.00     0.049 A 
ATOM     51  C   UNL A   1      42.529  27.217  30.179  1.00  0.00     0.074 A 
ATOM     52  C   UNL A   1      41.788  30.160  35.746  1.00  0.00     0.029 A 
ATOM     53  N   UNL A   1      41.551  29.420  33.664  1.00  0.00    -0.354 N 
ATOM     54  N   UNL A   1      42.272  27.829  31.309  1.00  0.00    -0.248 NA
ATOM     55  C   UNL A   1      43.764  26.417  30.198  1.00  0.00     0.031 C 
ATOM     56  C   UNL A   1      42.831  29.268  35.472  1.00  0.00     0.029 A 
ATOM     57  C   UNL A   1      42.675  28.796  34.179  1.00  0.00     0.049 A 
ATOM     58  H   UNL A   1      41.196  29.284  32.756  1.00  0.00     0.167 HD
ATOM     59  C   UNL A   1      43.290  27.464  32.182  1.00  0.00     0.074 A 
ATOM     60  C   UNL A   1      44.156  26.557  31.457  1.00  0.00     0.031 C 
ATOM     61  C   UNL A   1      43.498  27.855  33.464  1.00  0.00     0.034 A 
BRANCH  48  62
ATOM     62  C   UNL A   1      39.383  31.977  35.535  1.00  0.00     0.023 A 
ATOM     63  C   UNL A   1      38.509  31.475  36.522  1.00  0.00     0.012 A 
ATOM     64  C   UNL A   1      39.867  33.295  35.647  1.00  0.00     0.148 A 
ATOM     65  C   UNL A   1      38.096  32.280  37.583  1.00  0.00     0.002 A 
ATOM     66  C   UNL A   1      39.487  34.077  36.732  1.00  0.00     0.091 A 
ATOM     67  F   UNL A   1      40.681  33.762  34.691  1.00  0.00    -0.205 F 
ATOM     68  C   UNL A   1      38.591  33.576  37.693  1.00  0.00     0.022 A 
BRANCH  66  69
ATOM     69  S   UNL A   1      40.131  35.731  37.011  1.00  0.00     0.127 S 
ATOM     70  O   UNL A   1      41.571  35.485  37.049  1.00  0.00    -0.237 OA
ATOM     71  O   UNL A   1      39.665  36.446  35.823  1.00  0.00    -0.237 OA
ATOM     72  O   UNL A   1      39.541  36.185  38.263  1.00  0.00    -0.744 OA
ENDBRANCH  66  69
ENDBRANCH  48  62
BRANCH  49  73
ATOM     73  C   UNL A   1      42.180  26.415  27.724  1.00  0.00     0.023 A 
ATOM     74  C   UNL A   1      43.015  27.020  26.765  1.00  0.00     0.012 A 
ATOM     75  C   UNL A   1      41.813  25.065  27.561  1.00  0.00     0.148 A 
ATOM     76  C   UNL A   1      43.451  26.306  25.649  1.00  0.00     0.002 A 
ATOM     77  C   UNL A   1      42.298  24.342  26.476  1.00  0.00     0.091 A 
ATOM     78  F   UNL A   1      41.008  24.510  28.478  1.00  0.00    -0.205 F 
ATOM     79  C   UNL A   1      43.101  24.965  25.510  1.00  0.00     0.022 A 
BRANCH  77  80
ATOM     80  S   UNL A   1      42.008  22.579  26.290  1.00  0.00     0.127 S 
ATOM     81  O   UNL A   1      42.663  22.301  25.015  1.00  0.00    -0.237 OA
ATOM     82  O   UNL A   1      42.688  22.034  27.465  1.00  0.00    -0.237 OA
ATOM     83  O   UNL A   1      40.559  22.414  26.307  1.00  0.00    -0.744 OA
ENDBRANCH  77  80
ENDBRANCH  49  73
BRANCH  61  84
ATOM     84  C   UNL A   1      44.689  27.282  34.186  1.00  0.00     0.023 A 
ATOM     85  C   UNL A   1      45.926  27.953  34.142  1.00  0.00     0.012 A 
ATOM     86  C   UNL A   1      44.560  26.119  34.972  1.00  0.00     0.148 A 
ATOM     87  C   UNL A   1      47.027  27.458  34.842  1.00  0.00     0.002 A 
ATOM     88  C   UNL A   1      45.647  25.659  35.706  1.00  0.00     0.091 A 
ATOM     89  F   UNL A   1      43.379  25.485  34.986  1.00  0.00    -0.205 F 
ATOM     90  C   UNL A   1      46.884  26.319  35.631  1.00  0.00     0.022 A 
BRANCH  88  91
ATOM     91  S   UNL A   1      45.530  24.258  36.825  1.00  0.00     0.127 S 
ATOM     92  O   UNL A   1      46.894  24.177  37.344  1.00  0.00    -0.237 OA
ATOM     93  O   UNL A   1      44.535  24.718  37.794  1.00  0.00    -0.237 OA
ATOM     94  O   UNL A   1      45.103  23.129  36.010  1.00  0.00    -0.744 OA
ENDBRANCH  88  91
ENDBRANCH  61  84
ENDBRANCH  35  36
ENDBRANCH  27  30
ENDBRANCH  25  26
ENDBRANCH   1  25
TORSDOF 16
ENDMDL
MODEL 3
REMARK VINA RESULT:     -11.5      3.460      8.715
REMARK SMILES CC[C@](C)(NC(=O)N1Cc2ccccc2C1)C(=O)NCCCCNC(=O)c1ccc(-c2c3nc(c(-c4cccc(S(=O)(=O)[O-])c4F)c4ccc([nH]4)c(-c4cccc(S(=O)(=O)[O-])c4F)c4nc(c(-c5cccc(S(=O)(=O)[O-])c5F)c5ccc2[nH]5)C=C4)C=C3)cc1
REMARK SMILES IDX 22 1 21 2 20 3 19 4 17 5 18 6 3 8 4 9 2 10 1 11 5 12 6 13
REMARK SMILES IDX 7 15 8 16 9 17 16 18 10 19 15 20 11 21 14 22 12 23 13 24
REMARK SMILES IDX 23 25 24 26 25 27 26 29 27 30 28 31 89 32 29 33 88 34 30 35
REMARK SMILES IDX 31 36 32 37 82 38 33 39 87 40 81 41 83 42 34 43 86 44 80 45
REMARK SMILES IDX 79 46 35 48 67 49 47 50 66 51 48 52 51 53 65 54 84 55 49 56
REMARK SMILES IDX 50 57 64 59 85 60 52 61 36 62 37 63 45 64 38 65 40 66 46 67
REMARK SMILES IDX 39 68 41 69 42 70 43 71 44 72 68 73 69 74 77 75 70 76 72 77
REMARK SMILES IDX 78 78 71 79 73 80 74 81 75 82 76 83 53 84 54 85 62 86 55 87
REMARK SMILES IDX 57 88 63 89 56 90 58 91 59 92 60 93 61 94
REMARK H PARENT 19 7 5 14 24 28 83 47 51 58
REMARK Flexibility Score: inf
ROOT
ATOM      1  C   UNL A   1      31.585  32.085  26.909  1.00  0.00     0.023 C 
ENDROOT
BRANCH   1   2
ATOM      2  C   UNL A   1      31.769  30.594  26.637  1.00  0.00     0.023 C 
BRANCH   2   3
ATOM      3  C   UNL A   1      31.447  30.047  25.243  1.00  0.00     0.116 C 
BRANCH   3   4
ATOM      4  N   UNL A   1      32.548  29.609  24.400  1.00  0.00    -0.354 N 
ATOM      5  C   UNL A   1      32.641  28.732  23.352  1.00  0.00     0.245 C 
ATOM      6  O   UNL A   1      33.710  28.741  22.729  1.00  0.00    -0.272 OA
ATOM      7  H   UNL A   1      33.407  30.032  24.631  1.00  0.00     0.163 HD
BRANCH   5   8
ATOM      8  C   UNL A   1      31.459  27.836  22.889  1.00  0.00     0.117 C 
ATOM      9  C   UNL A   1      30.286  28.626  22.274  1.00  0.00     0.045 C 
BRANCH   8  10
ATOM     10  C   UNL A   1      30.928  27.147  24.192  1.00  0.00     0.035 C 
ATOM     11  C   UNL A   1      29.500  26.602  24.098  1.00  0.00     0.007 C 
ENDBRANCH   8  10
BRANCH   8  12
ATOM     12  N   UNL A   1      31.872  26.810  21.902  1.00  0.00    -0.324 N 
ATOM     13  C   UNL A   1      32.855  25.875  21.855  1.00  0.00     0.318 C 
ATOM     14  H   UNL A   1      31.305  26.804  21.098  1.00  0.00     0.166 HD
ATOM     15  O   UNL A   1      33.177  25.520  20.715  1.00  0.00    -0.249 OA
ATOM     16  N   UNL A   1      33.421  25.314  22.955  1.00  0.00    -0.316 N 
ATOM     17  C   UNL A   1      34.408  24.227  22.787  1.00  0.00     0.157 C 
ATOM     18  C   UNL A   1      33.051  25.436  24.358  1.00  0.00     0.157 C 
ATOM     19  C   UNL A   1      34.503  23.592  24.143  1.00  0.00    -0.023 A 
ATOM     20  C   UNL A   1      33.709  24.296  25.045  1.00  0.00    -0.023 A 
ATOM     21  C   UNL A   1      35.171  22.453  24.554  1.00  0.00     0.006 A 
ATOM     22  C   UNL A   1      33.520  23.879  26.353  1.00  0.00     0.006 A 
ATOM     23  C   UNL A   1      34.998  22.019  25.877  1.00  0.00     0.000 A 
ATOM     24  C   UNL A   1      34.170  22.722  26.768  1.00  0.00     0.000 A 
ENDBRANCH   8  12
ENDBRANCH   5   8
ENDBRANCH   3   4
ENDBRANCH   2   3
ENDBRANCH   1   2
BRANCH   1  25
ATOM     25  C   UNL A   1      32.849  32.884  27.163  1.00  0.00     0.116 C 
BRANCH  25  26
ATOM     26  N   UNL A   1      32.568  34.218  27.666  1.00  0.00    -0.352 N 
ATOM     27  C   UNL A   1      33.114  34.878  28.739  1.00  0.00     0.251 C 
ATOM     28  H   UNL A   1      31.888  34.722  27.165  1.00  0.00     0.163 HD
ATOM     29  O   UNL A   1      32.621  35.941  29.107  1.00  0.00    -0.269 OA
BRANCH  27  30
ATOM     30  C   UNL A   1      34.273  34.308  29.463  1.00  0.00     0.039 A 
ATOM     31  C   UNL A   1      34.037  33.502  30.581  1.00  0.00     0.014 A 
ATOM     32  C   UNL A   1      35.585  34.579  29.064  1.00  0.00     0.014 A 
ATOM     33  C   UNL A   1      35.113  32.936  31.271  1.00  0.00     0.010 A 
ATOM     34  C   UNL A   1      36.651  33.953  29.704  1.00  0.00     0.010 A 
ATOM     35  C   UNL A   1      36.429  33.138  30.825  1.00  0.00    -0.014 A 
BRANCH  35  36
ATOM     36  C   UNL A   1      37.585  32.515  31.521  1.00  0.00     0.031 A 
ATOM     37  C   UNL A   1      38.325  31.369  30.884  1.00  0.00     0.074 A 
ATOM     38  C   UNL A   1      37.919  32.927  32.759  1.00  0.00     0.049 A 
ATOM     39  N   UNL A   1      39.315  30.660  31.360  1.00  0.00    -0.248 NA
ATOM     40  C   UNL A   1      37.875  30.945  29.547  1.00  0.00     0.031 C 
ATOM     41  C   UNL A   1      37.230  33.973  33.518  1.00  0.00     0.029 A 
ATOM     42  N   UNL A   1      38.905  32.495  33.612  1.00  0.00    -0.354 N 
ATOM     43  C   UNL A   1      39.583  29.688  30.403  1.00  0.00     0.074 A 
ATOM     44  C   UNL A   1      38.626  29.875  29.334  1.00  0.00     0.031 C 
ATOM     45  C   UNL A   1      37.812  34.101  34.721  1.00  0.00     0.029 A 
ATOM     46  C   UNL A   1      38.895  33.128  34.833  1.00  0.00     0.049 A 
ATOM     47  H   UNL A   1      39.557  31.797  33.371  1.00  0.00     0.167 HD
ATOM     48  C   UNL A   1      40.556  28.746  30.397  1.00  0.00     0.034 A 
ATOM     49  C   UNL A   1      39.664  32.940  35.923  1.00  0.00     0.034 A 
ATOM     50  C   UNL A   1      41.533  28.592  31.440  1.00  0.00     0.049 A 
ATOM     51  C   UNL A   1      40.767  31.918  35.874  1.00  0.00     0.074 A 
ATOM     52  C   UNL A   1      42.609  27.724  31.489  1.00  0.00     0.029 A 
ATOM     53  N   UNL A   1      41.552  29.317  32.621  1.00  0.00    -0.354 N 
ATOM     54  N   UNL A   1      41.103  31.114  34.894  1.00  0.00    -0.248 NA
ATOM     55  C   UNL A   1      41.622  31.802  37.064  1.00  0.00     0.031 C 
ATOM     56  C   UNL A   1      43.267  27.911  32.710  1.00  0.00     0.029 A 
ATOM     57  C   UNL A   1      42.616  28.914  33.409  1.00  0.00     0.049 A 
ATOM     58  H   UNL A   1      40.903  30.017  32.863  1.00  0.00     0.167 HD
ATOM     59  C   UNL A   1      42.226  30.423  35.335  1.00  0.00     0.074 A 
ATOM     60  C   UNL A   1      42.527  30.921  36.662  1.00  0.00     0.031 C 
ATOM     61  C   UNL A   1      42.935  29.454  34.705  1.00  0.00     0.034 A 
BRANCH  48  62
ATOM     62  C   UNL A   1      40.650  27.844  29.192  1.00  0.00     0.023 A 
ATOM     63  C   UNL A   1      39.796  26.726  29.095  1.00  0.00     0.012 A 
ATOM     64  C   UNL A   1      41.535  28.131  28.135  1.00  0.00     0.148 A 
ATOM     65  C   UNL A   1      39.847  25.886  27.984  1.00  0.00     0.002 A 
ATOM     66  C   UNL A   1      41.548  27.315  27.009  1.00  0.00     0.091 A 
ATOM     67  F   UNL A   1      42.352  29.186  28.251  1.00  0.00    -0.205 F 
ATOM     68  C   UNL A   1      40.714  26.185  26.937  1.00  0.00     0.022 A 
BRANCH  66  69
ATOM     69  S   UNL A   1      42.570  27.658  25.572  1.00  0.00     0.127 S 
ATOM     70  O   UNL A   1      41.977  28.898  25.077  1.00  0.00    -0.237 OA
ATOM     71  O   UNL A   1      43.897  27.812  26.168  1.00  0.00    -0.237 OA
ATOM     72  O   UNL A   1      42.429  26.503  24.695  1.00  0.00    -0.744 OA
ENDBRANCH  66  69
ENDBRANCH  48  62
BRANCH  49  73
ATOM     73  C   UNL A   1      39.455  33.784  37.133  1.00  0.00     0.023 A 
ATOM     74  C   UNL A   1      39.908  35.118  37.136  1.00  0.00     0.012 A 
ATOM     75  C   UNL A   1      38.784  33.284  38.266  1.00  0.00     0.148 A 
ATOM     76  C   UNL A   1      39.726  35.929  38.257  1.00  0.00     0.002 A 
ATOM     77  C   UNL A   1      38.556  34.115  39.358  1.00  0.00     0.091 A 
ATOM     78  F   UNL A   1      38.372  32.009  38.249  1.00  0.00    -0.205 F 
ATOM     79  C   UNL A   1      39.041  35.431  39.363  1.00  0.00     0.022 A 
BRANCH  77  80
ATOM     80  S   UNL A   1      37.569  33.600  40.767  1.00  0.00     0.127 S 
ATOM     81  O   UNL A   1      38.436  32.605  41.393  1.00  0.00    -0.237 OA
ATOM     82  O   UNL A   1      37.428  34.851  41.512  1.00  0.00    -0.237 OA
ATOM     83  O   UNL A   1      36.321  33.091  40.210  1.00  0.00    -0.744 OA
ENDBRANCH  77  80
ENDBRANCH  49  73
BRANCH  61  84
ATOM     84  C   UNL A   1      44.131  28.884  35.422  1.00  0.00     0.023 A 
ATOM     85  C   UNL A   1      45.407  29.443  35.212  1.00  0.00     0.012 A 
ATOM     86  C   UNL A   1      43.977  27.845  36.361  1.00  0.00     0.148 A 
ATOM     87  C   UNL A   1      46.517  28.954  35.903  1.00  0.00     0.002 A 
ATOM     88  C   UNL A   1      45.078  27.397  37.081  1.00  0.00     0.091 A 
ATOM     89  F   UNL A   1      42.757  27.315  36.533  1.00  0.00    -0.205 F 
ATOM     90  C   UNL A   1      46.350  27.941  36.843  1.00  0.00     0.022 A 
BRANCH  88  91
ATOM     91  S   UNL A   1      44.942  26.165  38.381  1.00  0.00     0.127 S 
ATOM     92  O   UNL A   1      44.473  24.997  37.637  1.00  0.00    -0.237 OA
ATOM     93  O   UNL A   1      46.320  26.069  38.863  1.00  0.00    -0.237 OA
ATOM     94  O   UNL A   1      44.000  26.707  39.351  1.00  0.00    -0.744 OA
ENDBRANCH  88  91
ENDBRANCH  61  84
ENDBRANCH  35  36
ENDBRANCH  27  30
ENDBRANCH  25  26
ENDBRANCH   1  25
TORSDOF 16
ENDMDL
