MODEL 1
REMARK VINA RESULT:     -11.9      0.000      0.000
REMARK SMILES O=C(NCCCCNC(=O)[C@@H]1CCC(=O)N(CCCOC2CCCCC2)[C@H]1c1ccco1)c1ccc(-c2c3nc(c(-c4cccc(S(=O)(=O)[O-])c4F)c4ccc([nH]4)c(-c4cccc(S(=O)(=O)[O-])c4F)c4nc(c(-c5cccc(S(=O)(=O)[O-])c5F)c5ccc2[nH]5)C=C4)C=C3)cc1
REMARK SMILES IDX 6 1 5 2 4 3 3 4 1 5 2 6 33 8 34 9 95 10 35 11 94 12 36 13
REMARK SMILES IDX 37 14 38 15 88 16 39 17 93 18 87 19 89 20 40 21 92 22 86 23
REMARK SMILES IDX 85 24 41 26 73 27 53 28 72 29 54 30 57 31 71 32 90 33 55 34
REMARK SMILES IDX 56 35 70 37 91 38 58 39 42 40 43 41 51 42 44 43 46 44 52 45
REMARK SMILES IDX 45 46 47 47 48 48 49 49 50 50 74 51 75 52 83 53 76 54 78 55
REMARK SMILES IDX 84 56 77 57 79 58 80 59 81 60 82 61 59 62 60 63 68 64 61 65
REMARK SMILES IDX 63 66 69 67 62 68 64 69 65 70 66 71 67 72 7 73 8 74 9 75
REMARK SMILES IDX 10 77 11 78 12 79 27 80 13 81 16 82 14 83 15 84 28 85 29 86
REMARK SMILES IDX 32 87 30 88 31 89 17 90 18 91 19 92 20 93 21 94 22 95 26 96
REMARK SMILES IDX 23 97 25 98 24 99
REMARK H PARENT 3 7 89 25 57 36 8 76
REMARK Flexibility Score: inf
ROOT
ATOM      1  C   UNL A   1      32.860  29.982  26.610  1.00  0.00     0.023 C 
ENDROOT
BRANCH   1   2
ATOM      2  C   UNL A   1      32.265  31.276  27.153  1.00  0.00     0.023 C 
BRANCH   2   3
ATOM      3  C   UNL A   1      33.281  32.335  27.565  1.00  0.00     0.116 C 
BRANCH   3   4
ATOM      4  N   UNL A   1      32.744  33.681  27.731  1.00  0.00    -0.352 N 
ATOM      5  O   UNL A   1      32.633  35.742  28.668  1.00  0.00    -0.269 OA
ATOM      6  C   UNL A   1      33.189  34.663  28.600  1.00  0.00     0.251 C 
ATOM      7  H   UNL A   1      31.981  33.919  27.158  1.00  0.00     0.163 HD
BRANCH   6   8
ATOM      8  C   UNL A   1      34.331  34.326  29.477  1.00  0.00     0.039 A 
ATOM      9  C   UNL A   1      35.625  34.596  29.039  1.00  0.00     0.014 A 
ATOM     10  C   UNL A   1      34.110  33.599  30.650  1.00  0.00     0.014 A 
ATOM     11  C   UNL A   1      36.689  33.953  29.649  1.00  0.00     0.010 A 
ATOM     12  C   UNL A   1      35.201  33.060  31.339  1.00  0.00     0.010 A 
ATOM     13  C   UNL A   1      36.496  33.187  30.814  1.00  0.00    -0.014 A 
BRANCH  13  14
ATOM     14  C   UNL A   1      37.693  32.601  31.473  1.00  0.00     0.031 A 
ATOM     15  C   UNL A   1      38.160  33.046  32.833  1.00  0.00     0.074 A 
ATOM     16  C   UNL A   1      38.322  31.592  30.839  1.00  0.00     0.049 A 
ATOM     17  N   UNL A   1      39.141  32.570  33.557  1.00  0.00    -0.248 NA
ATOM     18  C   UNL A   1      37.452  34.174  33.463  1.00  0.00     0.031 C 
ATOM     19  C   UNL A   1      37.988  31.115  29.492  1.00  0.00     0.029 A 
ATOM     20  N   UNL A   1      39.339  30.765  31.236  1.00  0.00    -0.354 N 
ATOM     21  C   UNL A   1      39.203  33.360  34.698  1.00  0.00     0.074 A 
ATOM     22  C   UNL A   1      38.157  34.353  34.575  1.00  0.00     0.031 C 
ATOM     23  C   UNL A   1      38.730  30.039  29.207  1.00  0.00     0.029 A 
ATOM     24  C   UNL A   1      39.649  29.797  30.311  1.00  0.00     0.049 A 
ATOM     25  H   UNL A   1      39.802  30.855  32.101  1.00  0.00     0.167 HD
ATOM     26  C   UNL A   1      40.046  33.258  35.754  1.00  0.00     0.034 A 
ATOM     27  C   UNL A   1      40.580  28.825  30.334  1.00  0.00     0.034 A 
ATOM     28  C   UNL A   1      41.055  32.237  35.885  1.00  0.00     0.049 A 
ATOM     29  C   UNL A   1      41.447  28.693  31.549  1.00  0.00     0.074 A 
ATOM     30  C   UNL A   1      41.942  32.032  36.928  1.00  0.00     0.029 A 
ATOM     31  N   UNL A   1      41.308  31.246  34.949  1.00  0.00    -0.354 N 
ATOM     32  N   UNL A   1      41.427  29.402  32.652  1.00  0.00    -0.248 NA
ATOM     33  C   UNL A   1      42.449  27.621  31.532  1.00  0.00     0.031 C 
ATOM     34  C   UNL A   1      42.733  30.919  36.621  1.00  0.00     0.029 A 
ATOM     35  C   UNL A   1      42.331  30.423  35.392  1.00  0.00     0.049 A 
ATOM     36  H   UNL A   1      40.830  31.142  34.094  1.00  0.00     0.167 HD
ATOM     37  C   UNL A   1      42.417  28.865  33.462  1.00  0.00     0.074 A 
ATOM     38  C   UNL A   1      42.978  27.737  32.743  1.00  0.00     0.031 C 
ATOM     39  C   UNL A   1      42.849  29.286  34.675  1.00  0.00     0.034 A 
BRANCH  26  40
ATOM     40  C   UNL A   1      39.889  34.244  36.886  1.00  0.00     0.023 A 
ATOM     41  C   UNL A   1      40.228  35.596  36.678  1.00  0.00     0.012 A 
ATOM     42  C   UNL A   1      39.326  33.856  38.119  1.00  0.00     0.148 A 
ATOM     43  C   UNL A   1      40.026  36.543  37.682  1.00  0.00     0.002 A 
ATOM     44  C   UNL A   1      39.094  34.811  39.103  1.00  0.00     0.091 A 
ATOM     45  F   UNL A   1      39.027  32.562  38.306  1.00  0.00    -0.205 F 
ATOM     46  C   UNL A   1      39.450  36.153  38.889  1.00  0.00     0.022 A 
BRANCH  44  47
ATOM     47  S   UNL A   1      38.289  34.426  40.664  1.00  0.00     0.127 S 
ATOM     48  O   UNL A   1      37.178  33.584  40.223  1.00  0.00    -0.237 OA
ATOM     49  O   UNL A   1      39.343  33.713  41.387  1.00  0.00    -0.237 OA
ATOM     50  O   UNL A   1      37.913  35.705  41.247  1.00  0.00    -0.744 OA
ENDBRANCH  44  47
ENDBRANCH  26  40
BRANCH  27  51
ATOM     51  C   UNL A   1      40.700  27.898  29.174  1.00  0.00     0.023 A 
ATOM     52  C   UNL A   1      39.805  26.820  29.043  1.00  0.00     0.012 A 
ATOM     53  C   UNL A   1      41.644  28.133  28.155  1.00  0.00     0.148 A 
ATOM     54  C   UNL A   1      39.859  25.985  27.926  1.00  0.00     0.002 A 
ATOM     55  C   UNL A   1      41.642  27.344  27.012  1.00  0.00     0.091 A 
ATOM     56  F   UNL A   1      42.506  29.149  28.304  1.00  0.00    -0.205 F 
ATOM     57  C   UNL A   1      40.764  26.258  26.903  1.00  0.00     0.022 A 
BRANCH  55  58
ATOM     58  S   UNL A   1      42.651  27.769  25.588  1.00  0.00     0.127 S 
ATOM     59  O   UNL A   1      43.971  27.927  26.189  1.00  0.00    -0.237 OA
ATOM     60  O   UNL A   1      42.499  26.589  24.733  1.00  0.00    -0.237 OA
ATOM     61  O   UNL A   1      42.040  28.974  25.042  1.00  0.00    -0.744 OA
ENDBRANCH  55  58
ENDBRANCH  27  51
BRANCH  39  62
ATOM     62  C   UNL A   1      43.991  28.524  35.288  1.00  0.00     0.023 A 
ATOM     63  C   UNL A   1      45.310  28.807  34.877  1.00  0.00     0.012 A 
ATOM     64  C   UNL A   1      43.768  27.553  36.281  1.00  0.00     0.148 A 
ATOM     65  C   UNL A   1      46.386  28.106  35.416  1.00  0.00     0.002 A 
ATOM     66  C   UNL A   1      44.851  26.888  36.845  1.00  0.00     0.091 A 
ATOM     67  F   UNL A   1      42.506  27.280  36.640  1.00  0.00    -0.205 F 
ATOM     68  C   UNL A   1      46.158  27.153  36.406  1.00  0.00     0.022 A 
BRANCH  66  69
ATOM     69  S   UNL A   1      44.648  25.702  38.179  1.00  0.00     0.127 S 
ATOM     70  O   UNL A   1      43.831  24.671  37.541  1.00  0.00    -0.237 OA
ATOM     71  O   UNL A   1      46.027  25.302  38.458  1.00  0.00    -0.237 OA
ATOM     72  O   UNL A   1      44.007  26.436  39.262  1.00  0.00    -0.744 OA
ENDBRANCH  66  69
ENDBRANCH  39  62
ENDBRANCH  13  14
ENDBRANCH   6   8
ENDBRANCH   3   4
ENDBRANCH   2   3
ENDBRANCH   1   2
BRANCH   1  73
ATOM     73  C   UNL A   1      31.955  29.201  25.662  1.00  0.00     0.116 C 
BRANCH  73  74
ATOM     74  N   UNL A   1      31.554  27.928  26.219  1.00  0.00    -0.356 N 
ATOM     75  C   UNL A   1      32.064  26.682  26.184  1.00  0.00     0.225 C 
ATOM     76  H   UNL A   1      30.720  27.986  26.741  1.00  0.00     0.163 HD
ATOM     77  O   UNL A   1      31.468  25.859  26.896  1.00  0.00    -0.275 OA
BRANCH  75  78
ATOM     78  C   UNL A   1      33.293  26.198  25.408  1.00  0.00     0.109 C 
ATOM     79  C   UNL A   1      33.960  26.952  24.278  1.00  0.00     0.026 C 
ATOM     80  C   UNL A   1      33.056  24.735  24.980  1.00  0.00     0.164 C 
ATOM     81  C   UNL A   1      33.324  26.749  22.919  1.00  0.00     0.101 C 
ATOM     82  N   UNL A   1      32.328  24.592  23.712  1.00  0.00    -0.332 N 
ATOM     83  C   UNL A   1      32.471  25.517  22.689  1.00  0.00     0.223 C 
ATOM     84  O   UNL A   1      31.893  25.405  21.604  1.00  0.00    -0.275 OA
BRANCH  80  85
ATOM     85  C   UNL A   1      34.351  23.971  24.928  1.00  0.00     0.127 A 
ATOM     86  C   UNL A   1      35.232  23.575  25.916  1.00  0.00     0.048 A 
ATOM     87  O   UNL A   1      34.810  23.561  23.710  1.00  0.00    -0.467 OA
ATOM     88  C   UNL A   1      36.272  22.872  25.265  1.00  0.00     0.042 A 
ATOM     89  C   UNL A   1      35.964  22.884  23.925  1.00  0.00     0.195 A 
ENDBRANCH  80  85
BRANCH  82  90
ATOM     90  C   UNL A   1      31.386  23.470  23.490  1.00  0.00     0.122 C 
BRANCH  90  91
ATOM     91  C   UNL A   1      31.876  22.199  22.780  1.00  0.00     0.050 C 
BRANCH  91  92
ATOM     92  C   UNL A   1      32.210  20.946  23.603  1.00  0.00     0.162 C 
BRANCH  92  93
ATOM     93  O   UNL A   1      32.520  19.772  22.860  1.00  0.00    -0.378 OA
BRANCH  93  94
ATOM     94  C   UNL A   1      32.539  18.480  23.481  1.00  0.00     0.118 C 
ATOM     95  C   UNL A   1      33.520  17.444  22.916  1.00  0.00     0.032 C 
ATOM     96  C   UNL A   1      32.624  18.694  24.994  1.00  0.00     0.032 C 
ATOM     97  C   UNL A   1      33.754  16.221  23.798  1.00  0.00     0.003 C 
ATOM     98  C   UNL A   1      32.757  17.390  25.766  1.00  0.00     0.003 C 
ATOM     99  C   UNL A   1      33.949  16.591  25.263  1.00  0.00     0.000 C 
ENDBRANCH  93  94
ENDBRANCH  92  93
ENDBRANCH  91  92
ENDBRANCH  90  91
ENDBRANCH  82  90
ENDBRANCH  75  78
ENDBRANCH  73  74
ENDBRANCH   1  73
TORSDOF 20
ENDMDL
MODEL 2
REMARK VINA RESULT:     -11.8      1.598      8.087
REMARK SMILES O=C(NCCCCNC(=O)[C@@H]1CCC(=O)N(CCCOC2CCCCC2)[C@H]1c1ccco1)c1ccc(-c2c3nc(c(-c4cccc(S(=O)(=O)[O-])c4F)c4ccc([nH]4)c(-c4cccc(S(=O)(=O)[O-])c4F)c4nc(c(-c5cccc(S(=O)(=O)[O-])c5F)c5ccc2[nH]5)C=C4)C=C3)cc1
REMARK SMILES IDX 6 1 5 2 4 3 3 4 1 5 2 6 33 8 34 9 95 10 35 11 94 12 36 13
REMARK SMILES IDX 37 14 38 15 88 16 39 17 93 18 87 19 89 20 40 21 92 22 86 23
REMARK SMILES IDX 85 24 41 26 73 27 53 28 72 29 54 30 57 31 71 32 90 33 55 34
REMARK SMILES IDX 56 35 70 37 91 38 58 39 42 40 43 41 51 42 44 43 46 44 52 45
REMARK SMILES IDX 45 46 47 47 48 48 49 49 50 50 74 51 75 52 83 53 76 54 78 55
REMARK SMILES IDX 84 56 77 57 79 58 80 59 81 60 82 61 59 62 60 63 68 64 61 65
REMARK SMILES IDX 63 66 69 67 62 68 64 69 65 70 66 71 67 72 7 73 8 74 9 75
REMARK SMILES IDX 10 77 11 78 12 79 27 80 13 81 16 82 14 83 15 84 28 85 29 86
REMARK SMILES IDX 32 87 30 88 31 89 17 90 18 91 19 92 20 93 21 94 22 95 26 96
REMARK SMILES IDX 23 97 25 98 24 99
REMARK H PARENT 3 7 89 25 57 36 8 76
REMARK Flexibility Score: inf
ROOT
ATOM      1  C   UNL A   1      34.841  30.764  27.636  1.00  0.00     0.023 C 
ENDROOT
BRANCH   1   2
ATOM      2  C   UNL A   1      33.684  31.748  27.755  1.00  0.00     0.023 C 
BRANCH   2   3
ATOM      3  C   UNL A   1      33.988  33.167  27.292  1.00  0.00     0.116 C 
BRANCH   3   4
ATOM      4  N   UNL A   1      33.146  34.206  27.874  1.00  0.00    -0.352 N 
ATOM      5  O   UNL A   1      32.455  35.599  29.523  1.00  0.00    -0.269 OA
ATOM      6  C   UNL A   1      33.243  34.757  29.141  1.00  0.00     0.251 C 
ATOM      7  H   UNL A   1      32.428  34.557  27.300  1.00  0.00     0.163 HD
BRANCH   6   8
ATOM      8  C   UNL A   1      34.310  34.239  30.025  1.00  0.00     0.039 A 
ATOM      9  C   UNL A   1      35.640  34.520  29.719  1.00  0.00     0.014 A 
ATOM     10  C   UNL A   1      33.985  33.348  31.051  1.00  0.00     0.014 A 
ATOM     11  C   UNL A   1      36.638  33.745  30.286  1.00  0.00     0.010 A 
ATOM     12  C   UNL A   1      35.009  32.662  31.714  1.00  0.00     0.010 A 
ATOM     13  C   UNL A   1      36.340  32.815  31.300  1.00  0.00    -0.014 A 
BRANCH  13  14
ATOM     14  C   UNL A   1      37.469  32.084  31.932  1.00  0.00     0.031 A 
ATOM     15  C   UNL A   1      38.251  31.027  31.201  1.00  0.00     0.074 A 
ATOM     16  C   UNL A   1      37.826  32.448  33.180  1.00  0.00     0.049 A 
ATOM     17  N   UNL A   1      39.306  30.364  31.605  1.00  0.00    -0.248 NA
ATOM     18  C   UNL A   1      37.795  30.650  29.852  1.00  0.00     0.031 C 
ATOM     19  C   UNL A   1      37.104  33.423  34.004  1.00  0.00     0.029 A 
ATOM     20  N   UNL A   1      38.887  32.078  33.963  1.00  0.00    -0.354 N 
ATOM     21  C   UNL A   1      39.612  29.464  30.591  1.00  0.00     0.074 A 
ATOM     22  C   UNL A   1      38.630  29.663  29.546  1.00  0.00     0.031 C 
ATOM     23  C   UNL A   1      37.780  33.630  35.140  1.00  0.00     0.029 A 
ATOM     24  C   UNL A   1      38.937  32.745  35.165  1.00  0.00     0.049 A 
ATOM     25  H   UNL A   1      39.550  31.403  33.692  1.00  0.00     0.167 HD
ATOM     26  C   UNL A   1      40.625  28.565  30.533  1.00  0.00     0.034 A 
ATOM     27  C   UNL A   1      39.807  32.650  36.187  1.00  0.00     0.034 A 
ATOM     28  C   UNL A   1      41.622  28.407  31.562  1.00  0.00     0.049 A 
ATOM     29  C   UNL A   1      40.958  31.700  36.061  1.00  0.00     0.074 A 
ATOM     30  C   UNL A   1      42.703  27.543  31.588  1.00  0.00     0.029 A 
ATOM     31  N   UNL A   1      41.666  29.132  32.743  1.00  0.00    -0.354 N 
ATOM     32  N   UNL A   1      41.273  30.921  35.054  1.00  0.00    -0.248 NA
ATOM     33  C   UNL A   1      41.882  31.626  37.199  1.00  0.00     0.031 C 
ATOM     34  C   UNL A   1      43.399  27.743  32.785  1.00  0.00     0.029 A 
ATOM     35  C   UNL A   1      42.759  28.742  33.501  1.00  0.00     0.049 A 
ATOM     36  H   UNL A   1      41.017  29.824  33.005  1.00  0.00     0.167 HD
ATOM     37  C   UNL A   1      42.431  30.259  35.437  1.00  0.00     0.074 A 
ATOM     38  C   UNL A   1      42.790  30.772  36.746  1.00  0.00     0.031 C 
ATOM     39  C   UNL A   1      43.116  29.290  34.784  1.00  0.00     0.034 A 
BRANCH  26  40
ATOM     40  C   UNL A   1      40.746  27.708  29.297  1.00  0.00     0.023 A 
ATOM     41  C   UNL A   1      39.931  26.565  29.165  1.00  0.00     0.012 A 
ATOM     42  C   UNL A   1      41.592  28.079  28.233  1.00  0.00     0.148 A 
ATOM     43  C   UNL A   1      39.969  25.795  28.002  1.00  0.00     0.002 A 
ATOM     44  C   UNL A   1      41.598  27.327  27.062  1.00  0.00     0.091 A 
ATOM     45  F   UNL A   1      42.373  29.159  28.383  1.00  0.00    -0.205 F 
ATOM     46  C   UNL A   1      40.793  26.182  26.948  1.00  0.00     0.022 A 
BRANCH  44  47
ATOM     47  S   UNL A   1      42.568  27.782  25.618  1.00  0.00     0.127 S 
ATOM     48  O   UNL A   1      42.364  26.624  24.749  1.00  0.00    -0.237 OA
ATOM     49  O   UNL A   1      41.901  29.005  25.170  1.00  0.00    -0.237 OA
ATOM     50  O   UNL A   1      43.930  27.975  26.096  1.00  0.00    -0.744 OA
ENDBRANCH  44  47
ENDBRANCH  26  40
BRANCH  27  51
ATOM     51  C   UNL A   1      39.619  33.507  37.391  1.00  0.00     0.023 A 
ATOM     52  C   UNL A   1      40.134  34.816  37.407  1.00  0.00     0.012 A 
ATOM     53  C   UNL A   1      38.856  33.058  38.487  1.00  0.00     0.148 A 
ATOM     54  C   UNL A   1      39.905  35.656  38.498  1.00  0.00     0.002 A 
ATOM     55  C   UNL A   1      38.570  33.923  39.534  1.00  0.00     0.091 A 
ATOM     56  F   UNL A   1      38.392  31.800  38.470  1.00  0.00    -0.205 F 
ATOM     57  C   UNL A   1      39.108  35.216  39.552  1.00  0.00     0.022 A 
BRANCH  55  58
ATOM     58  S   UNL A   1      37.395  33.473  40.817  1.00  0.00     0.127 S 
ATOM     59  O   UNL A   1      38.123  32.439  41.545  1.00  0.00    -0.237 OA
ATOM     60  O   UNL A   1      37.225  34.734  41.543  1.00  0.00    -0.237 OA
ATOM     61  O   UNL A   1      36.203  33.041  40.099  1.00  0.00    -0.744 OA
ENDBRANCH  55  58
ENDBRANCH  27  51
BRANCH  39  62
ATOM     62  C   UNL A   1      44.317  28.720  35.488  1.00  0.00     0.023 A 
ATOM     63  C   UNL A   1      45.601  29.201  35.161  1.00  0.00     0.012 A 
ATOM     64  C   UNL A   1      44.178  27.736  36.483  1.00  0.00     0.148 A 
ATOM     65  C   UNL A   1      46.732  28.681  35.786  1.00  0.00     0.002 A 
ATOM     66  C   UNL A   1      45.308  27.252  37.132  1.00  0.00     0.091 A 
ATOM     67  F   UNL A   1      42.950  27.273  36.761  1.00  0.00    -0.205 F 
ATOM     68  C   UNL A   1      46.586  27.714  36.777  1.00  0.00     0.022 A 
BRANCH  66  69
ATOM     69  S   UNL A   1      45.198  26.062  38.472  1.00  0.00     0.127 S 
ATOM     70  O   UNL A   1      44.728  24.867  37.774  1.00  0.00    -0.237 OA
ATOM     71  O   UNL A   1      46.581  25.989  38.944  1.00  0.00    -0.237 OA
ATOM     72  O   UNL A   1      44.267  26.639  39.434  1.00  0.00    -0.744 OA
ENDBRANCH  66  69
ENDBRANCH  39  62
ENDBRANCH  13  14
ENDBRANCH   6   8
ENDBRANCH   3   4
ENDBRANCH   2   3
ENDBRANCH   1   2
BRANCH   1  73
ATOM     73  C   UNL A   1      34.445  29.340  27.258  1.00  0.00     0.116 C 
BRANCH  73  74
ATOM     74  N   UNL A   1      34.473  29.128  25.828  1.00  0.00    -0.356 N 
ATOM     75  C   UNL A   1      33.529  29.038  24.871  1.00  0.00     0.225 C 
ATOM     76  H   UNL A   1      35.387  29.027  25.476  1.00  0.00     0.163 HD
ATOM     77  O   UNL A   1      33.973  28.958  23.715  1.00  0.00    -0.275 OA
BRANCH  75  78
ATOM     78  C   UNL A   1      32.009  29.062  25.053  1.00  0.00     0.109 C 
ATOM     79  C   UNL A   1      31.271  28.537  26.265  1.00  0.00     0.026 C 
ATOM     80  C   UNL A   1      31.353  28.508  23.772  1.00  0.00     0.164 C 
ATOM     81  C   UNL A   1      31.000  27.048  26.245  1.00  0.00     0.101 C 
ATOM     82  N   UNL A   1      31.224  27.044  23.750  1.00  0.00    -0.332 N 
ATOM     83  C   UNL A   1      31.008  26.321  24.915  1.00  0.00     0.223 C 
ATOM     84  O   UNL A   1      30.867  25.095  24.921  1.00  0.00    -0.275 OA
BRANCH  80  85
ATOM     85  C   UNL A   1      30.018  29.154  23.524  1.00  0.00     0.127 A 
ATOM     86  C   UNL A   1      29.551  30.432  23.762  1.00  0.00     0.048 A 
ATOM     87  O   UNL A   1      29.028  28.398  22.966  1.00  0.00    -0.467 OA
ATOM     88  C   UNL A   1      28.212  30.460  23.308  1.00  0.00     0.042 A 
ATOM     89  C   UNL A   1      27.945  29.200  22.825  1.00  0.00     0.195 A 
ENDBRANCH  80  85
BRANCH  82  90
ATOM     90  C   UNL A   1      31.350  26.280  22.488  1.00  0.00     0.122 C 
BRANCH  90  91
ATOM     91  C   UNL A   1      32.708  26.219  21.772  1.00  0.00     0.050 C 
BRANCH  91  92
ATOM     92  C   UNL A   1      33.861  25.413  22.390  1.00  0.00     0.162 C 
BRANCH  92  93
ATOM     93  O   UNL A   1      33.516  24.149  22.944  1.00  0.00    -0.378 OA
BRANCH  93  94
ATOM     94  C   UNL A   1      34.384  23.477  23.866  1.00  0.00     0.118 C 
ATOM     95  C   UNL A   1      34.753  24.224  25.154  1.00  0.00     0.032 C 
ATOM     96  C   UNL A   1      33.834  22.063  24.073  1.00  0.00     0.032 C 
ATOM     97  C   UNL A   1      35.384  23.365  26.246  1.00  0.00     0.003 C 
ATOM     98  C   UNL A   1      34.612  21.277  25.117  1.00  0.00     0.003 C 
ATOM     99  C   UNL A   1      34.660  22.038  26.432  1.00  0.00     0.000 C 
ENDBRANCH  93  94
ENDBRANCH  92  93
ENDBRANCH  91  92
ENDBRANCH  90  91
ENDBRANCH  82  90
ENDBRANCH  75  78
ENDBRANCH  73  74
ENDBRANCH   1  73
TORSDOF 20
ENDMDL
MODEL 3
REMARK VINA RESULT:     -11.8      5.845     10.288
REMARK SMILES O=C(NCCCCNC(=O)[C@@H]1CCC(=O)N(CCCOC2CCCCC2)[C@H]1c1ccco1)c1ccc(-c2c3nc(c(-c4cccc(S(=O)(=O)[O-])c4F)c4ccc([nH]4)c(-c4cccc(S(=O)(=O)[O-])c4F)c4nc(c(-c5cccc(S(=O)(=O)[O-])c5F)c5ccc2[nH]5)C=C4)C=C3)cc1
REMARK SMILES IDX 6 1 5 2 4 3 3 4 1 5 2 6 33 8 34 9 95 10 35 11 94 12 36 13
REMARK SMILES IDX 37 14 38 15 88 16 39 17 93 18 87 19 89 20 40 21 92 22 86 23
REMARK SMILES IDX 85 24 41 26 73 27 53 28 72 29 54 30 57 31 71 32 90 33 55 34
REMARK SMILES IDX 56 35 70 37 91 38 58 39 42 40 43 41 51 42 44 43 46 44 52 45
REMARK SMILES IDX 45 46 47 47 48 48 49 49 50 50 74 51 75 52 83 53 76 54 78 55
REMARK SMILES IDX 84 56 77 57 79 58 80 59 81 60 82 61 59 62 60 63 68 64 61 65
REMARK SMILES IDX 63 66 69 67 62 68 64 69 65 70 66 71 67 72 7 73 8 74 9 75
REMARK SMILES IDX 10 77 11 78 12 79 27 80 13 81 16 82 14 83 15 84 28 85 29 86
REMARK SMILES IDX 32 87 30 88 31 89 17 90 18 91 19 92 20 93 21 94 22 95 26 96
REMARK SMILES IDX 23 97 25 98 24 99
REMARK H PARENT 3 7 89 25 57 36 8 76
REMARK Flexibility Score: inf
ROOT
ATOM      1  C   UNL A   1      39.752  22.884  26.705  1.00  0.00     0.023 C 
ENDROOT
BRANCH   1   2
ATOM      2  C   UNL A   1      39.705  21.430  26.248  1.00  0.00     0.023 C 
BRANCH   2   3
ATOM      3  C   UNL A   1      40.499  20.455  27.106  1.00  0.00     0.116 C 
BRANCH   3   4
ATOM      4  N   UNL A   1      41.259  19.452  26.368  1.00  0.00    -0.352 N 
ATOM      5  O   UNL A   1      43.024  18.694  25.165  1.00  0.00    -0.269 OA
ATOM      6  C   UNL A   1      42.508  19.601  25.787  1.00  0.00     0.251 C 
ATOM      7  H   UNL A   1      40.838  18.568  26.274  1.00  0.00     0.163 HD
BRANCH   6   8
ATOM      8  C   UNL A   1      43.158  20.924  25.907  1.00  0.00     0.039 A 
ATOM      9  C   UNL A   1      43.630  21.336  27.151  1.00  0.00     0.014 A 
ATOM     10  C   UNL A   1      43.144  21.802  24.821  1.00  0.00     0.014 A 
ATOM     11  C   UNL A   1      43.877  22.682  27.364  1.00  0.00     0.010 A 
ATOM     12  C   UNL A   1      43.523  23.135  25.011  1.00  0.00     0.010 A 
ATOM     13  C   UNL A   1      43.841  23.599  26.297  1.00  0.00    -0.014 A 
BRANCH  13  14
ATOM     14  C   UNL A   1      44.209  25.012  26.575  1.00  0.00     0.031 A 
ATOM     15  C   UNL A   1      43.250  25.981  27.212  1.00  0.00     0.074 A 
ATOM     16  C   UNL A   1      45.472  25.393  26.298  1.00  0.00     0.049 A 
ATOM     17  N   UNL A   1      43.463  27.219  27.580  1.00  0.00    -0.248 NA
ATOM     18  C   UNL A   1      41.875  25.517  27.462  1.00  0.00     0.031 C 
ATOM     19  C   UNL A   1      46.470  24.552  25.629  1.00  0.00     0.029 A 
ATOM     20  N   UNL A   1      46.147  26.554  26.566  1.00  0.00    -0.354 N 
ATOM     21  C   UNL A   1      42.249  27.698  28.057  1.00  0.00     0.074 A 
ATOM     22  C   UNL A   1      41.296  26.615  27.935  1.00  0.00     0.031 C 
ATOM     23  C   UNL A   1      47.644  25.192  25.605  1.00  0.00     0.029 A 
ATOM     24  C   UNL A   1      47.467  26.518  26.181  1.00  0.00     0.049 A 
ATOM     25  H   UNL A   1      45.730  27.336  26.992  1.00  0.00     0.167 HD
ATOM     26  C   UNL A   1      41.961  28.922  28.562  1.00  0.00     0.034 A 
ATOM     27  C   UNL A   1      48.432  27.452  26.265  1.00  0.00     0.034 A 
ATOM     28  C   UNL A   1      42.929  29.978  28.720  1.00  0.00     0.049 A 
ATOM     29  C   UNL A   1      48.100  28.770  26.896  1.00  0.00     0.074 A 
ATOM     30  C   UNL A   1      42.743  31.246  29.244  1.00  0.00     0.029 A 
ATOM     31  N   UNL A   1      44.266  29.889  28.362  1.00  0.00    -0.354 N 
ATOM     32  N   UNL A   1      46.965  29.167  27.418  1.00  0.00    -0.248 NA
ATOM     33  C   UNL A   1      49.181  29.760  26.967  1.00  0.00     0.031 C 
ATOM     34  C   UNL A   1      43.967  31.924  29.200  1.00  0.00     0.029 A 
ATOM     35  C   UNL A   1      44.918  31.075  28.660  1.00  0.00     0.049 A 
ATOM     36  H   UNL A   1      44.690  29.099  27.955  1.00  0.00     0.167 HD
ATOM     37  C   UNL A   1      47.191  30.456  27.877  1.00  0.00     0.074 A 
ATOM     38  C   UNL A   1      48.588  30.750  27.620  1.00  0.00     0.031 C 
ATOM     39  C   UNL A   1      46.316  31.333  28.428  1.00  0.00     0.034 A 
BRANCH  26  40
ATOM     40  C   UNL A   1      40.551  29.184  29.032  1.00  0.00     0.023 A 
ATOM     41  C   UNL A   1      39.569  29.567  28.096  1.00  0.00     0.012 A 
ATOM     42  C   UNL A   1      40.176  28.964  30.374  1.00  0.00     0.148 A 
ATOM     43  C   UNL A   1      38.242  29.745  28.489  1.00  0.00     0.002 A 
ATOM     44  C   UNL A   1      38.845  29.108  30.751  1.00  0.00     0.091 A 
ATOM     45  F   UNL A   1      41.127  28.619  31.254  1.00  0.00    -0.205 F 
ATOM     46  C   UNL A   1      37.879  29.505  29.812  1.00  0.00     0.022 A 
BRANCH  44  47
ATOM     47  S   UNL A   1      38.261  28.753  32.414  1.00  0.00     0.127 S 
ATOM     48  O   UNL A   1      39.054  29.687  33.211  1.00  0.00    -0.237 OA
ATOM     49  O   UNL A   1      36.839  29.087  32.319  1.00  0.00    -0.237 OA
ATOM     50  O   UNL A   1      38.538  27.342  32.642  1.00  0.00    -0.744 OA
ENDBRANCH  44  47
ENDBRANCH  26  40
BRANCH  27  51
ATOM     51  C   UNL A   1      49.799  27.141  25.761  1.00  0.00     0.023 A 
ATOM     52  C   UNL A   1      50.717  26.473  26.592  1.00  0.00     0.012 A 
ATOM     53  C   UNL A   1      50.162  27.428  24.430  1.00  0.00     0.148 A 
ATOM     54  C   UNL A   1      51.976  26.111  26.111  1.00  0.00     0.002 A 
ATOM     55  C   UNL A   1      51.387  26.998  23.937  1.00  0.00     0.091 A 
ATOM     56  F   UNL A   1      49.287  28.086  23.657  1.00  0.00    -0.205 F 
ATOM     57  C   UNL A   1      52.304  26.356  24.780  1.00  0.00     0.022 A 
BRANCH  55  58
ATOM     58  S   UNL A   1      51.778  27.117  22.188  1.00  0.00     0.127 S 
ATOM     59  O   UNL A   1      52.124  28.528  22.051  1.00  0.00    -0.237 OA
ATOM     60  O   UNL A   1      52.904  26.190  22.054  1.00  0.00    -0.237 OA
ATOM     61  O   UNL A   1      50.569  26.678  21.503  1.00  0.00    -0.744 OA
ENDBRANCH  55  58
ENDBRANCH  27  51
BRANCH  39  62
ATOM     62  C   UNL A   1      46.853  32.693  28.777  1.00  0.00     0.023 A 
ATOM     63  C   UNL A   1      47.385  32.915  30.064  1.00  0.00     0.012 A 
ATOM     64  C   UNL A   1      46.857  33.738  27.836  1.00  0.00     0.148 A 
ATOM     65  C   UNL A   1      47.875  34.170  30.420  1.00  0.00     0.002 A 
ATOM     66  C   UNL A   1      47.386  34.975  28.185  1.00  0.00     0.091 A 
ATOM     67  F   UNL A   1      46.323  33.514  26.626  1.00  0.00    -0.205 F 
ATOM     68  C   UNL A   1      47.884  35.196  29.479  1.00  0.00     0.022 A 
BRANCH  66  69
ATOM     69  S   UNL A   1      47.505  36.325  27.007  1.00  0.00     0.127 S 
ATOM     70  O   UNL A   1      46.105  36.718  26.859  1.00  0.00    -0.237 OA
ATOM     71  O   UNL A   1      48.339  37.294  27.720  1.00  0.00    -0.237 OA
ATOM     72  O   UNL A   1      48.131  35.756  25.820  1.00  0.00    -0.744 OA
ENDBRANCH  66  69
ENDBRANCH  39  62
ENDBRANCH  13  14
ENDBRANCH   6   8
ENDBRANCH   3   4
ENDBRANCH   2   3
ENDBRANCH   1   2
BRANCH   1  73
ATOM     73  C   UNL A   1      38.520  23.714  26.353  1.00  0.00     0.116 C 
BRANCH  73  74
ATOM     74  N   UNL A   1      37.728  23.097  25.313  1.00  0.00    -0.356 N 
ATOM     75  C   UNL A   1      36.407  23.009  25.061  1.00  0.00     0.225 C 
ATOM     76  H   UNL A   1      38.277  22.636  24.637  1.00  0.00     0.163 HD
ATOM     77  O   UNL A   1      36.122  22.471  23.980  1.00  0.00    -0.275 OA
BRANCH  75  78
ATOM     78  C   UNL A   1      35.255  23.526  25.929  1.00  0.00     0.109 C 
ATOM     79  C   UNL A   1      34.696  22.816  27.142  1.00  0.00     0.026 C 
ATOM     80  C   UNL A   1      34.098  23.950  25.002  1.00  0.00     0.164 C 
ATOM     81  C   UNL A   1      33.664  21.752  26.834  1.00  0.00     0.101 C 
ATOM     82  N   UNL A   1      33.191  22.853  24.634  1.00  0.00    -0.332 N 
ATOM     83  C   UNL A   1      32.929  21.809  25.509  1.00  0.00     0.223 C 
ATOM     84  O   UNL A   1      32.151  20.891  25.236  1.00  0.00    -0.275 OA
BRANCH  80  85
ATOM     85  C   UNL A   1      33.320  25.092  25.597  1.00  0.00     0.127 A 
ATOM     86  C   UNL A   1      33.670  26.397  25.887  1.00  0.00     0.048 A 
ATOM     87  O   UNL A   1      32.019  24.875  25.946  1.00  0.00    -0.467 OA
ATOM     88  C   UNL A   1      32.514  27.010  26.424  1.00  0.00     0.042 A 
ATOM     89  C   UNL A   1      31.535  26.045  26.431  1.00  0.00     0.195 A 
ENDBRANCH  80  85
BRANCH  82  90
ATOM     90  C   UNL A   1      32.549  22.803  23.301  1.00  0.00     0.122 C 
BRANCH  90  91
ATOM     91  C   UNL A   1      33.271  23.409  22.088  1.00  0.00     0.050 C 
BRANCH  91  92
ATOM     92  C   UNL A   1      32.823  24.768  21.533  1.00  0.00     0.162 C 
BRANCH  92  93
ATOM     93  O   UNL A   1      31.612  25.295  22.064  1.00  0.00    -0.378 OA
BRANCH  93  94
ATOM     94  C   UNL A   1      31.602  26.490  22.855  1.00  0.00     0.118 C 
ATOM     95  C   UNL A   1      32.639  27.567  22.513  1.00  0.00     0.032 C 
ATOM     96  C   UNL A   1      30.155  26.984  22.929  1.00  0.00     0.032 C 
ATOM     97  C   UNL A   1      32.384  28.937  23.135  1.00  0.00     0.003 C 
ATOM     98  C   UNL A   1      30.024  28.313  23.659  1.00  0.00     0.003 C 
ATOM     99  C   UNL A   1      30.925  29.361  23.026  1.00  0.00     0.000 C 
ENDBRANCH  93  94
ENDBRANCH  92  93
ENDBRANCH  91  92
ENDBRANCH  90  91
ENDBRANCH  82  90
ENDBRANCH  75  78
ENDBRANCH  73  74
ENDBRANCH   1  73
TORSDOF 20
ENDMDL
