MODEL 1
REMARK VINA RESULT:     -12.9      0.000      0.000
REMARK SMILES Cc1cc(Cl)c2c(c1)C=C(C(=O)NCCCCNC(=O)c1ccc(-c3c4nc(c(-c5cccc(S(=O)(=O)[O-])c5F)c5ccc([nH]5)c(-c5cccc(S(=O)(=O)[O-])c5F)c5nc(c(-c6cccc(S(=O)(=O)[O-])c6F)c6ccc3[nH]6)C=C5)C=C4)cc1)[C@@H](C(F)(F)F)O2
REMARK SMILES IDX 16 1 15 2 14 3 13 4 11 5 12 6 10 8 1 9 2 10 3 11 8 12 4 13
REMARK SMILES IDX 7 14 5 15 6 16 9 17 89 18 84 19 85 20 86 21 87 22 88 23
REMARK SMILES IDX 17 24 18 25 19 26 20 28 21 29 22 30 83 31 23 32 82 33 24 34
REMARK SMILES IDX 25 35 26 36 76 37 27 38 81 39 75 40 77 41 28 42 80 43 74 44
REMARK SMILES IDX 73 45 29 47 61 48 41 49 60 50 42 51 45 52 59 53 78 54 43 55
REMARK SMILES IDX 44 56 58 58 79 59 46 60 30 61 31 62 39 63 32 64 34 65 40 66
REMARK SMILES IDX 33 67 35 68 36 69 37 70 38 71 62 72 63 73 71 74 64 75 66 76
REMARK SMILES IDX 72 77 65 78 67 79 68 80 69 81 70 82 47 83 48 84 56 85 49 86
REMARK SMILES IDX 51 87 57 88 50 89 52 90 53 91 54 92 55 93
REMARK H PARENT 13 7 18 27 77 46 45 57
REMARK Flexibility Score: inf
ROOT
ATOM      1  C   UNL A   1      33.423  28.804  24.216  1.00  0.00     0.023 C 
ENDROOT
BRANCH   1   2
ATOM      2  C   UNL A   1      32.449  28.954  23.044  1.00  0.00     0.023 C 
BRANCH   2   3
ATOM      3  C   UNL A   1      31.625  27.703  22.756  1.00  0.00     0.116 C 
BRANCH   3   4
ATOM      4  N   UNL A   1      32.245  26.864  21.747  1.00  0.00    -0.352 N 
ATOM      5  C   UNL A   1      32.906  25.684  21.713  1.00  0.00     0.251 C 
ATOM      6  O   UNL A   1      33.274  25.317  20.592  1.00  0.00    -0.270 OA
ATOM      7  H   UNL A   1      32.161  27.258  20.848  1.00  0.00     0.163 HD
BRANCH   5   8
ATOM      8  C   UNL A   1      33.209  24.828  22.900  1.00  0.00     0.067 C 
ATOM      9  C   UNL A   1      37.553  20.892  24.875  1.00  0.00     0.044 C 
ATOM     10  C   UNL A   1      36.313  21.729  24.974  1.00  0.00    -0.049 A 
ATOM     11  C   UNL A   1      35.524  21.713  26.129  1.00  0.00     0.028 A 
ATOM     12  C   UNL A   1      35.929  22.541  23.898  1.00  0.00     0.015 A 
ATOM     13  C   UNL A   1      34.375  22.503  26.209  1.00  0.00     0.084 A 
ATOM     14  C   UNL A   1      34.776  23.332  23.974  1.00  0.00     0.019 A 
ATOM     15  Cl  UNL A   1      33.443  22.452  27.663  1.00  0.00    -0.080 Cl
ATOM     16  C   UNL A   1      33.995  23.309  25.131  1.00  0.00     0.146 A 
ATOM     17  C   UNL A   1      34.405  24.212  22.874  1.00  0.00     0.025 C 
ATOM     18  O   UNL A   1      32.888  24.099  25.267  1.00  0.00    -0.474 OA
ATOM     19  C   UNL A   1      32.269  24.594  24.048  1.00  0.00     0.314 C 
BRANCH  19  20
ATOM     20  C   UNL A   1      31.091  23.674  23.673  1.00  0.00     0.429 C 
ATOM     21  F   UNL A   1      31.485  22.746  22.764  1.00  0.00    -0.167 F 
ATOM     22  F   UNL A   1      30.605  22.989  24.734  1.00  0.00    -0.167 F 
ATOM     23  F   UNL A   1      30.055  24.355  23.134  1.00  0.00    -0.167 F 
ENDBRANCH  19  20
ENDBRANCH   5   8
ENDBRANCH   3   4
ENDBRANCH   2   3
ENDBRANCH   1   2
BRANCH   1  24
ATOM     24  C   UNL A   1      32.799  28.910  25.607  1.00  0.00     0.116 C 
BRANCH  24  25
ATOM     25  N   UNL A   1      32.319  30.247  25.930  1.00  0.00    -0.352 N 
ATOM     26  C   UNL A   1      32.872  31.166  26.787  1.00  0.00     0.251 C 
ATOM     27  H   UNL A   1      31.492  30.527  25.476  1.00  0.00     0.163 HD
ATOM     28  O   UNL A   1      32.294  32.222  27.024  1.00  0.00    -0.269 OA
BRANCH  26  29
ATOM     29  C   UNL A   1      34.155  30.850  27.444  1.00  0.00     0.039 A 
ATOM     30  C   UNL A   1      35.088  31.872  27.628  1.00  0.00     0.014 A 
ATOM     31  C   UNL A   1      34.407  29.558  27.914  1.00  0.00     0.014 A 
ATOM     32  C   UNL A   1      36.259  31.611  28.340  1.00  0.00     0.010 A 
ATOM     33  C   UNL A   1      35.544  29.316  28.675  1.00  0.00     0.010 A 
ATOM     34  C   UNL A   1      36.482  30.337  28.890  1.00  0.00    -0.014 A 
BRANCH  34  35
ATOM     35  C   UNL A   1      37.702  30.045  29.680  1.00  0.00     0.031 A 
ATOM     36  C   UNL A   1      38.754  29.135  29.112  1.00  0.00     0.074 A 
ATOM     37  C   UNL A   1      37.824  30.533  30.928  1.00  0.00     0.049 A 
ATOM     38  N   UNL A   1      39.856  28.704  29.667  1.00  0.00    -0.248 NA
ATOM     39  C   UNL A   1      38.525  28.620  27.752  1.00  0.00     0.031 C 
ATOM     40  C   UNL A   1      36.837  31.375  31.607  1.00  0.00     0.029 A 
ATOM     41  N   UNL A   1      38.821  30.377  31.857  1.00  0.00    -0.354 N 
ATOM     42  C   UNL A   1      40.436  27.850  28.738  1.00  0.00     0.074 A 
ATOM     43  C   UNL A   1      39.546  27.790  27.600  1.00  0.00     0.031 C 
ATOM     44  C   UNL A   1      37.285  31.669  32.839  1.00  0.00     0.029 A 
ATOM     45  C   UNL A   1      38.576  31.020  33.047  1.00  0.00     0.049 A 
ATOM     46  H   UNL A   1      39.637  29.852  31.687  1.00  0.00     0.167 HD
ATOM     47  C   UNL A   1      41.625  27.207  28.807  1.00  0.00     0.034 A 
ATOM     48  C   UNL A   1      39.311  31.082  34.175  1.00  0.00     0.034 A 
ATOM     49  C   UNL A   1      42.532  27.315  29.916  1.00  0.00     0.049 A 
ATOM     50  C   UNL A   1      40.641  30.376  34.216  1.00  0.00     0.074 A 
ATOM     51  C   UNL A   1      43.793  26.763  30.052  1.00  0.00     0.029 A 
ATOM     52  N   UNL A   1      42.277  28.024  31.079  1.00  0.00    -0.354 N 
ATOM     53  N   UNL A   1      41.238  29.686  33.275  1.00  0.00    -0.248 NA
ATOM     54  C   UNL A   1      41.411  30.482  35.464  1.00  0.00     0.031 C 
ATOM     55  C   UNL A   1      44.299  27.135  31.301  1.00  0.00     0.029 A 
ATOM     56  C   UNL A   1      43.355  27.923  31.942  1.00  0.00     0.049 A 
ATOM     57  H   UNL A   1      41.451  28.527  31.265  1.00  0.00     0.167 HD
ATOM     58  C   UNL A   1      42.461  29.291  33.808  1.00  0.00     0.074 A 
ATOM     59  C   UNL A   1      42.531  29.847  35.144  1.00  0.00     0.031 C 
ATOM     60  C   UNL A   1      43.426  28.520  33.251  1.00  0.00     0.034 A 
BRANCH  47  61
ATOM     61  C   UNL A   1      42.048  26.394  27.612  1.00  0.00     0.023 A 
ATOM     62  C   UNL A   1      42.797  27.017  26.591  1.00  0.00     0.012 A 
ATOM     63  C   UNL A   1      41.758  25.021  27.519  1.00  0.00     0.148 A 
ATOM     64  C   UNL A   1      43.227  26.292  25.483  1.00  0.00     0.002 A 
ATOM     65  C   UNL A   1      42.225  24.294  26.429  1.00  0.00     0.091 A 
ATOM     66  F   UNL A   1      41.024  24.454  28.487  1.00  0.00    -0.205 F 
ATOM     67  C   UNL A   1      42.949  24.929  25.407  1.00  0.00     0.022 A 
BRANCH  65  68
ATOM     68  S   UNL A   1      41.985  22.521  26.269  1.00  0.00     0.127 S 
ATOM     69  O   UNL A   1      42.662  22.245  25.003  1.00  0.00    -0.237 OA
ATOM     70  O   UNL A   1      42.675  22.009  27.454  1.00  0.00    -0.237 OA
ATOM     71  O   UNL A   1      40.544  22.310  26.266  1.00  0.00    -0.744 OA
ENDBRANCH  65  68
ENDBRANCH  47  61
BRANCH  48  72
ATOM     72  C   UNL A   1      38.844  31.915  35.319  1.00  0.00     0.023 A 
ATOM     73  C   UNL A   1      38.923  33.318  35.217  1.00  0.00     0.012 A 
ATOM     74  C   UNL A   1      38.278  31.341  36.475  1.00  0.00     0.148 A 
ATOM     75  C   UNL A   1      38.466  34.134  36.252  1.00  0.00     0.002 A 
ATOM     76  C   UNL A   1      37.775  32.162  37.479  1.00  0.00     0.091 A 
ATOM     77  F   UNL A   1      38.225  30.004  36.559  1.00  0.00    -0.205 F 
ATOM     78  C   UNL A   1      37.881  33.557  37.376  1.00  0.00     0.022 A 
BRANCH  76  79
ATOM     79  S   UNL A   1      36.886  31.513  38.899  1.00  0.00     0.127 S 
ATOM     80  O   UNL A   1      36.652  30.129  38.499  1.00  0.00    -0.237 OA
ATOM     81  O   UNL A   1      37.864  31.688  39.975  1.00  0.00    -0.237 OA
ATOM     82  O   UNL A   1      35.698  32.345  39.031  1.00  0.00    -0.744 OA
ENDBRANCH  76  79
ENDBRANCH  48  72
BRANCH  60  83
ATOM     83  C   UNL A   1      44.643  28.213  34.083  1.00  0.00     0.023 A 
ATOM     84  C   UNL A   1      45.734  29.105  34.061  1.00  0.00     0.012 A 
ATOM     85  C   UNL A   1      44.669  27.110  34.959  1.00  0.00     0.148 A 
ATOM     86  C   UNL A   1      46.841  28.893  34.880  1.00  0.00     0.002 A 
ATOM     87  C   UNL A   1      45.757  26.929  35.805  1.00  0.00     0.091 A 
ATOM     88  F   UNL A   1      43.631  26.260  34.951  1.00  0.00    -0.205 F 
ATOM     89  C   UNL A   1      46.847  27.814  35.762  1.00  0.00     0.022 A 
BRANCH  87  90
ATOM     90  S   UNL A   1      45.802  25.625  37.042  1.00  0.00     0.127 S 
ATOM     91  O   UNL A   1      45.821  24.425  36.209  1.00  0.00    -0.237 OA
ATOM     92  O   UNL A   1      47.057  25.899  37.744  1.00  0.00    -0.237 OA
ATOM     93  O   UNL A   1      44.607  25.810  37.854  1.00  0.00    -0.744 OA
ENDBRANCH  87  90
ENDBRANCH  60  83
ENDBRANCH  34  35
ENDBRANCH  26  29
ENDBRANCH  24  25
ENDBRANCH   1  24
TORSDOF 15
ENDMDL
MODEL 2
REMARK VINA RESULT:     -12.8      1.958      2.285
REMARK SMILES Cc1cc(Cl)c2c(c1)C=C(C(=O)NCCCCNC(=O)c1ccc(-c3c4nc(c(-c5cccc(S(=O)(=O)[O-])c5F)c5ccc([nH]5)c(-c5cccc(S(=O)(=O)[O-])c5F)c5nc(c(-c6cccc(S(=O)(=O)[O-])c6F)c6ccc3[nH]6)C=C5)C=C4)cc1)[C@@H](C(F)(F)F)O2
REMARK SMILES IDX 16 1 15 2 14 3 13 4 11 5 12 6 10 8 1 9 2 10 3 11 8 12 4 13
REMARK SMILES IDX 7 14 5 15 6 16 9 17 89 18 84 19 85 20 86 21 87 22 88 23
REMARK SMILES IDX 17 24 18 25 19 26 20 28 21 29 22 30 83 31 23 32 82 33 24 34
REMARK SMILES IDX 25 35 26 36 76 37 27 38 81 39 75 40 77 41 28 42 80 43 74 44
REMARK SMILES IDX 73 45 29 47 61 48 41 49 60 50 42 51 45 52 59 53 78 54 43 55
REMARK SMILES IDX 44 56 58 58 79 59 46 60 30 61 31 62 39 63 32 64 34 65 40 66
REMARK SMILES IDX 33 67 35 68 36 69 37 70 38 71 62 72 63 73 71 74 64 75 66 76
REMARK SMILES IDX 72 77 65 78 67 79 68 80 69 81 70 82 47 83 48 84 56 85 49 86
REMARK SMILES IDX 51 87 57 88 50 89 52 90 53 91 54 92 55 93
REMARK H PARENT 13 7 18 27 77 46 45 57
REMARK Flexibility Score: inf
ROOT
ATOM      1  C   UNL A   1      32.302  28.599  24.156  1.00  0.00     0.023 C 
ENDROOT
BRANCH   1   2
ATOM      2  C   UNL A   1      31.307  27.623  24.790  1.00  0.00     0.023 C 
BRANCH   2   3
ATOM      3  C   UNL A   1      31.074  26.355  23.975  1.00  0.00     0.116 C 
BRANCH   3   4
ATOM      4  N   UNL A   1      31.906  26.312  22.786  1.00  0.00    -0.352 N 
ATOM      5  C   UNL A   1      32.909  25.538  22.310  1.00  0.00     0.251 C 
ATOM      6  O   UNL A   1      33.350  25.866  21.204  1.00  0.00    -0.270 OA
ATOM      7  H   UNL A   1      31.681  27.038  22.161  1.00  0.00     0.163 HD
BRANCH   5   8
ATOM      8  C   UNL A   1      33.495  24.355  23.010  1.00  0.00     0.067 C 
ATOM      9  C   UNL A   1      32.175  18.414  24.115  1.00  0.00     0.044 C 
ATOM     10  C   UNL A   1      33.012  19.658  24.125  1.00  0.00    -0.049 A 
ATOM     11  C   UNL A   1      34.272  19.673  24.733  1.00  0.00     0.028 A 
ATOM     12  C   UNL A   1      32.531  20.829  23.523  1.00  0.00     0.015 A 
ATOM     13  C   UNL A   1      35.042  20.838  24.729  1.00  0.00     0.084 A 
ATOM     14  C   UNL A   1      33.300  21.999  23.520  1.00  0.00     0.019 A 
ATOM     15  Cl  UNL A   1      36.595  20.798  25.485  1.00  0.00    -0.080 Cl
ATOM     16  C   UNL A   1      34.556  22.005  24.130  1.00  0.00     0.146 A 
ATOM     17  C   UNL A   1      32.821  23.202  22.851  1.00  0.00     0.025 C 
ATOM     18  O   UNL A   1      35.359  23.110  24.110  1.00  0.00    -0.474 OA
ATOM     19  C   UNL A   1      34.720  24.395  23.878  1.00  0.00     0.314 C 
BRANCH  19  20
ATOM     20  C   UNL A   1      34.464  25.080  25.235  1.00  0.00     0.429 C 
ATOM     21  F   UNL A   1      35.438  24.755  26.122  1.00  0.00    -0.167 F 
ATOM     22  F   UNL A   1      34.460  26.429  25.146  1.00  0.00    -0.167 F 
ATOM     23  F   UNL A   1      33.281  24.716  25.781  1.00  0.00    -0.167 F 
ENDBRANCH  19  20
ENDBRANCH   5   8
ENDBRANCH   3   4
ENDBRANCH   2   3
ENDBRANCH   1   2
BRANCH   1  24
ATOM     24  C   UNL A   1      33.193  29.359  25.139  1.00  0.00     0.116 C 
BRANCH  24  25
ATOM     25  N   UNL A   1      32.535  30.503  25.757  1.00  0.00    -0.352 N 
ATOM     26  C   UNL A   1      32.940  31.231  26.849  1.00  0.00     0.251 C 
ATOM     27  H   UNL A   1      31.692  30.790  25.339  1.00  0.00     0.163 HD
ATOM     28  O   UNL A   1      32.224  32.115  27.307  1.00  0.00    -0.269 OA
BRANCH  26  29
ATOM     29  C   UNL A   1      34.235  30.912  27.481  1.00  0.00     0.039 A 
ATOM     30  C   UNL A   1      35.171  31.933  27.655  1.00  0.00     0.014 A 
ATOM     31  C   UNL A   1      34.496  29.617  27.938  1.00  0.00     0.014 A 
ATOM     32  C   UNL A   1      36.354  31.668  28.345  1.00  0.00     0.010 A 
ATOM     33  C   UNL A   1      35.646  29.370  28.678  1.00  0.00     0.010 A 
ATOM     34  C   UNL A   1      36.587  30.391  28.883  1.00  0.00    -0.014 A 
BRANCH  34  35
ATOM     35  C   UNL A   1      37.820  30.094  29.649  1.00  0.00     0.031 A 
ATOM     36  C   UNL A   1      38.846  29.159  29.074  1.00  0.00     0.074 A 
ATOM     37  C   UNL A   1      37.979  30.602  30.886  1.00  0.00     0.049 A 
ATOM     38  N   UNL A   1      39.954  28.721  29.611  1.00  0.00    -0.248 NA
ATOM     39  C   UNL A   1      38.578  28.624  27.728  1.00  0.00     0.031 C 
ATOM     40  C   UNL A   1      37.020  31.470  31.573  1.00  0.00     0.029 A 
ATOM     41  N   UNL A   1      38.995  30.447  31.794  1.00  0.00    -0.354 N 
ATOM     42  C   UNL A   1      40.500  27.843  28.684  1.00  0.00     0.074 A 
ATOM     43  C   UNL A   1      39.583  27.776  27.568  1.00  0.00     0.031 C 
ATOM     44  C   UNL A   1      37.500  31.779  32.788  1.00  0.00     0.029 A 
ATOM     45  C   UNL A   1      38.786  31.114  32.978  1.00  0.00     0.049 A 
ATOM     46  H   UNL A   1      39.799  29.907  31.614  1.00  0.00     0.167 HD
ATOM     47  C   UNL A   1      41.681  27.184  28.737  1.00  0.00     0.034 A 
ATOM     48  C   UNL A   1      39.548  31.184  34.087  1.00  0.00     0.034 A 
ATOM     49  C   UNL A   1      42.615  27.297  29.822  1.00  0.00     0.049 A 
ATOM     50  C   UNL A   1      40.869  30.460  34.110  1.00  0.00     0.074 A 
ATOM     51  C   UNL A   1      43.871  26.729  29.939  1.00  0.00     0.029 A 
ATOM     52  N   UNL A   1      42.397  28.030  30.978  1.00  0.00    -0.354 N 
ATOM     53  N   UNL A   1      41.434  29.745  33.168  1.00  0.00    -0.248 NA
ATOM     54  C   UNL A   1      41.669  30.576  35.338  1.00  0.00     0.031 C 
ATOM     55  C   UNL A   1      44.411  27.115  31.170  1.00  0.00     0.029 A 
ATOM     56  C   UNL A   1      43.494  27.928  31.818  1.00  0.00     0.049 A 
ATOM     57  H   UNL A   1      41.583  28.549  31.174  1.00  0.00     0.167 HD
ATOM     58  C   UNL A   1      42.663  29.341  33.679  1.00  0.00     0.074 A 
ATOM     59  C   UNL A   1      42.772  29.919  35.003  1.00  0.00     0.031 C 
ATOM     60  C   UNL A   1      43.603  28.546  33.114  1.00  0.00     0.034 A 
BRANCH  47  61
ATOM     61  C   UNL A   1      42.064  26.344  27.547  1.00  0.00     0.023 A 
ATOM     62  C   UNL A   1      42.748  26.951  26.473  1.00  0.00     0.012 A 
ATOM     63  C   UNL A   1      41.801  24.963  27.508  1.00  0.00     0.148 A 
ATOM     64  C   UNL A   1      43.141  26.202  25.366  1.00  0.00     0.002 A 
ATOM     65  C   UNL A   1      42.232  24.213  26.418  1.00  0.00     0.091 A 
ATOM     66  F   UNL A   1      41.129  24.410  28.527  1.00  0.00    -0.205 F 
ATOM     67  C   UNL A   1      42.891  24.833  25.344  1.00  0.00     0.022 A 
BRANCH  65  68
ATOM     68  S   UNL A   1      42.025  22.432  26.323  1.00  0.00     0.127 S 
ATOM     69  O   UNL A   1      40.568  22.306  26.280  1.00  0.00    -0.237 OA
ATOM     70  O   UNL A   1      42.701  22.110  25.066  1.00  0.00    -0.237 OA
ATOM     71  O   UNL A   1      42.664  21.889  27.513  1.00  0.00    -0.744 OA
ENDBRANCH  65  68
ENDBRANCH  47  61
BRANCH  48  72
ATOM     72  C   UNL A   1      39.120  32.044  35.227  1.00  0.00     0.023 A 
ATOM     73  C   UNL A   1      38.243  31.512  36.191  1.00  0.00     0.012 A 
ATOM     74  C   UNL A   1      39.611  33.355  35.394  1.00  0.00     0.148 A 
ATOM     75  C   UNL A   1      37.845  32.274  37.290  1.00  0.00     0.002 A 
ATOM     76  C   UNL A   1      39.253  34.089  36.519  1.00  0.00     0.091 A 
ATOM     77  F   UNL A   1      40.434  33.849  34.458  1.00  0.00    -0.205 F 
ATOM     78  C   UNL A   1      38.360  33.556  37.461  1.00  0.00     0.022 A 
BRANCH  76  79
ATOM     79  S   UNL A   1      39.969  35.695  36.891  1.00  0.00     0.127 S 
ATOM     80  O   UNL A   1      39.307  36.035  38.147  1.00  0.00    -0.237 OA
ATOM     81  O   UNL A   1      41.392  35.370  37.012  1.00  0.00    -0.237 OA
ATOM     82  O   UNL A   1      39.644  36.542  35.752  1.00  0.00    -0.744 OA
ENDBRANCH  76  79
ENDBRANCH  48  72
BRANCH  60  83
ATOM     83  C   UNL A   1      44.835  28.236  33.923  1.00  0.00     0.023 A 
ATOM     84  C   UNL A   1      45.918  29.138  33.901  1.00  0.00     0.012 A 
ATOM     85  C   UNL A   1      44.883  27.118  34.779  1.00  0.00     0.148 A 
ATOM     86  C   UNL A   1      47.038  28.921  34.701  1.00  0.00     0.002 A 
ATOM     87  C   UNL A   1      45.985  26.932  35.607  1.00  0.00     0.091 A 
ATOM     88  F   UNL A   1      43.853  26.259  34.771  1.00  0.00    -0.205 F 
ATOM     89  C   UNL A   1      47.066  27.827  35.563  1.00  0.00     0.022 A 
BRANCH  87  90
ATOM     90  S   UNL A   1      46.059  25.607  36.820  1.00  0.00     0.127 S 
ATOM     91  O   UNL A   1      47.349  25.859  37.457  1.00  0.00    -0.237 OA
ATOM     92  O   UNL A   1      44.897  25.889  37.664  1.00  0.00    -0.237 OA
ATOM     93  O   UNL A   1      45.963  24.369  36.059  1.00  0.00    -0.744 OA
ENDBRANCH  87  90
ENDBRANCH  60  83
ENDBRANCH  34  35
ENDBRANCH  26  29
ENDBRANCH  24  25
ENDBRANCH   1  24
TORSDOF 15
ENDMDL
MODEL 3
REMARK VINA RESULT:     -12.8      2.461      7.943
REMARK SMILES Cc1cc(Cl)c2c(c1)C=C(C(=O)NCCCCNC(=O)c1ccc(-c3c4nc(c(-c5cccc(S(=O)(=O)[O-])c5F)c5ccc([nH]5)c(-c5cccc(S(=O)(=O)[O-])c5F)c5nc(c(-c6cccc(S(=O)(=O)[O-])c6F)c6ccc3[nH]6)C=C5)C=C4)cc1)[C@@H](C(F)(F)F)O2
REMARK SMILES IDX 16 1 15 2 14 3 13 4 11 5 12 6 10 8 1 9 2 10 3 11 8 12 4 13
REMARK SMILES IDX 7 14 5 15 6 16 9 17 89 18 84 19 85 20 86 21 87 22 88 23
REMARK SMILES IDX 17 24 18 25 19 26 20 28 21 29 22 30 83 31 23 32 82 33 24 34
REMARK SMILES IDX 25 35 26 36 76 37 27 38 81 39 75 40 77 41 28 42 80 43 74 44
REMARK SMILES IDX 73 45 29 47 61 48 41 49 60 50 42 51 45 52 59 53 78 54 43 55
REMARK SMILES IDX 44 56 58 58 79 59 46 60 30 61 31 62 39 63 32 64 34 65 40 66
REMARK SMILES IDX 33 67 35 68 36 69 37 70 38 71 62 72 63 73 71 74 64 75 66 76
REMARK SMILES IDX 72 77 65 78 67 79 68 80 69 81 70 82 47 83 48 84 56 85 49 86
REMARK SMILES IDX 51 87 57 88 50 89 52 90 53 91 54 92 55 93
REMARK H PARENT 13 7 18 27 77 46 45 57
REMARK Flexibility Score: inf
ROOT
ATOM      1  C   UNL A   1      33.886  28.159  24.935  1.00  0.00     0.023 C 
ENDROOT
BRANCH   1   2
ATOM      2  C   UNL A   1      32.481  28.567  24.484  1.00  0.00     0.023 C 
BRANCH   2   3
ATOM      3  C   UNL A   1      31.628  27.408  23.980  1.00  0.00     0.116 C 
BRANCH   3   4
ATOM      4  N   UNL A   1      30.874  26.781  25.050  1.00  0.00    -0.352 N 
ATOM      5  C   UNL A   1      30.917  25.618  25.738  1.00  0.00     0.251 C 
ATOM      6  O   UNL A   1      30.051  25.486  26.609  1.00  0.00    -0.270 OA
ATOM      7  H   UNL A   1      30.135  27.356  25.356  1.00  0.00     0.163 HD
BRANCH   5   8
ATOM      8  C   UNL A   1      31.910  24.521  25.522  1.00  0.00     0.067 C 
ATOM      9  C   UNL A   1      37.990  23.511  26.047  1.00  0.00     0.044 C 
ATOM     10  C   UNL A   1      36.556  23.151  25.796  1.00  0.00    -0.049 A 
ATOM     11  C   UNL A   1      36.196  21.854  25.414  1.00  0.00     0.028 A 
ATOM     12  C   UNL A   1      35.556  24.122  25.940  1.00  0.00     0.015 A 
ATOM     13  C   UNL A   1      34.855  21.533  25.190  1.00  0.00     0.084 A 
ATOM     14  C   UNL A   1      34.211  23.803  25.713  1.00  0.00     0.019 A 
ATOM     15  Cl  UNL A   1      34.466  19.913  24.730  1.00  0.00    -0.080 Cl
ATOM     16  C   UNL A   1      33.861  22.507  25.332  1.00  0.00     0.146 A 
ATOM     17  C   UNL A   1      33.167  24.800  25.911  1.00  0.00     0.025 C 
ATOM     18  O   UNL A   1      32.558  22.139  25.146  1.00  0.00    -0.474 OA
ATOM     19  C   UNL A   1      31.598  23.199  24.882  1.00  0.00     0.314 C 
BRANCH  19  20
ATOM     20  C   UNL A   1      31.381  23.313  23.361  1.00  0.00     0.429 C 
ATOM     21  F   UNL A   1      30.107  23.695  23.090  1.00  0.00    -0.167 F 
ATOM     22  F   UNL A   1      32.188  24.233  22.785  1.00  0.00    -0.167 F 
ATOM     23  F   UNL A   1      31.597  22.141  22.720  1.00  0.00    -0.167 F 
ENDBRANCH  19  20
ENDBRANCH   5   8
ENDBRANCH   3   4
ENDBRANCH   2   3
ENDBRANCH   1   2
BRANCH   1  24
ATOM     24  C   UNL A   1      34.207  28.424  26.406  1.00  0.00     0.116 C 
BRANCH  24  25
ATOM     25  N   UNL A   1      33.777  29.737  26.869  1.00  0.00    -0.352 N 
ATOM     26  C   UNL A   1      34.427  30.594  27.722  1.00  0.00     0.251 C 
ATOM     27  H   UNL A   1      32.909  30.049  26.526  1.00  0.00     0.163 HD
ATOM     28  O   UNL A   1      33.888  31.633  28.090  1.00  0.00    -0.269 OA
BRANCH  26  29
ATOM     29  C   UNL A   1      35.770  30.232  28.215  1.00  0.00     0.039 A 
ATOM     30  C   UNL A   1      35.887  29.613  29.461  1.00  0.00     0.014 A 
ATOM     31  C   UNL A   1      36.898  30.465  27.423  1.00  0.00     0.014 A 
ATOM     32  C   UNL A   1      37.137  29.170  29.891  1.00  0.00     0.010 A 
ATOM     33  C   UNL A   1      38.132  29.969  27.827  1.00  0.00     0.010 A 
ATOM     34  C   UNL A   1      38.264  29.323  29.065  1.00  0.00    -0.014 A 
BRANCH  34  35
ATOM     35  C   UNL A   1      39.597  28.831  29.486  1.00  0.00     0.031 A 
ATOM     36  C   UNL A   1      40.350  29.554  30.567  1.00  0.00     0.074 A 
ATOM     37  C   UNL A   1      40.158  27.788  28.846  1.00  0.00     0.049 A 
ATOM     38  N   UNL A   1      41.549  29.323  31.030  1.00  0.00    -0.248 NA
ATOM     39  C   UNL A   1      39.674  30.704  31.192  1.00  0.00     0.031 C 
ATOM     40  C   UNL A   1      39.548  27.048  27.739  1.00  0.00     0.029 A 
ATOM     41  N   UNL A   1      41.375  27.180  29.021  1.00  0.00    -0.354 N 
ATOM     42  C   UNL A   1      41.783  30.311  31.978  1.00  0.00     0.074 A 
ATOM     43  C   UNL A   1      40.619  31.169  31.996  1.00  0.00     0.031 C 
ATOM     44  C   UNL A   1      40.390  26.079  27.342  1.00  0.00     0.029 A 
ATOM     45  C   UNL A   1      41.607  26.143  28.147  1.00  0.00     0.049 A 
ATOM     46  H   UNL A   1      42.023  27.460  29.707  1.00  0.00     0.167 HD
ATOM     47  C   UNL A   1      42.853  30.466  32.792  1.00  0.00     0.034 A 
ATOM     48  C   UNL A   1      42.676  25.334  28.016  1.00  0.00     0.034 A 
ATOM     49  C   UNL A   1      43.983  29.579  32.809  1.00  0.00     0.049 A 
ATOM     50  C   UNL A   1      43.844  25.513  28.950  1.00  0.00     0.074 A 
ATOM     51  C   UNL A   1      45.084  29.605  33.646  1.00  0.00     0.029 A 
ATOM     52  N   UNL A   1      44.156  28.503  31.952  1.00  0.00    -0.354 N 
ATOM     53  N   UNL A   1      43.989  26.367  29.935  1.00  0.00    -0.248 NA
ATOM     54  C   UNL A   1      44.982  24.600  28.775  1.00  0.00     0.031 C 
ATOM     55  C   UNL A   1      45.926  28.548  33.291  1.00  0.00     0.029 A 
ATOM     56  C   UNL A   1      45.348  27.859  32.236  1.00  0.00     0.049 A 
ATOM     57  H   UNL A   1      43.524  28.236  31.246  1.00  0.00     0.167 HD
ATOM     58  C   UNL A   1      45.224  26.083  30.508  1.00  0.00     0.074 A 
ATOM     59  C   UNL A   1      45.771  24.957  29.780  1.00  0.00     0.031 C 
ATOM     60  C   UNL A   1      45.857  26.711  31.529  1.00  0.00     0.034 A 
BRANCH  47  61
ATOM     61  C   UNL A   1      42.813  31.594  33.788  1.00  0.00     0.023 A 
ATOM     62  C   UNL A   1      43.295  32.863  33.405  1.00  0.00     0.012 A 
ATOM     63  C   UNL A   1      42.258  31.422  35.070  1.00  0.00     0.148 A 
ATOM     64  C   UNL A   1      43.251  33.937  34.291  1.00  0.00     0.002 A 
ATOM     65  C   UNL A   1      42.181  32.509  35.935  1.00  0.00     0.091 A 
ATOM     66  F   UNL A   1      41.828  30.203  35.423  1.00  0.00    -0.205 F 
ATOM     67  C   UNL A   1      42.685  33.762  35.551  1.00  0.00     0.022 A 
BRANCH  65  68
ATOM     68  S   UNL A   1      41.407  32.408  37.552  1.00  0.00     0.127 S 
ATOM     69  O   UNL A   1      41.492  33.796  38.007  1.00  0.00    -0.237 OA
ATOM     70  O   UNL A   1      40.054  31.959  37.220  1.00  0.00    -0.237 OA
ATOM     71  O   UNL A   1      42.195  31.451  38.316  1.00  0.00    -0.744 OA
ENDBRANCH  65  68
ENDBRANCH  47  61
BRANCH  48  72
ATOM     72  C   UNL A   1      42.649  24.226  27.019  1.00  0.00     0.023 A 
ATOM     73  C   UNL A   1      43.352  24.380  25.808  1.00  0.00     0.012 A 
ATOM     74  C   UNL A   1      41.985  23.011  27.277  1.00  0.00     0.148 A 
ATOM     75  C   UNL A   1      43.379  23.354  24.864  1.00  0.00     0.002 A 
ATOM     76  C   UNL A   1      42.060  21.972  26.355  1.00  0.00     0.091 A 
ATOM     77  F   UNL A   1      41.309  22.889  28.428  1.00  0.00    -0.205 F 
ATOM     78  C   UNL A   1      42.745  22.146  25.143  1.00  0.00     0.022 A 
BRANCH  76  79
ATOM     79  S   UNL A   1      41.388  20.338  26.686  1.00  0.00     0.127 S 
ATOM     80  O   UNL A   1      39.966  20.626  26.842  1.00  0.00    -0.237 OA
ATOM     81  O   UNL A   1      41.742  19.613  25.465  1.00  0.00    -0.237 OA
ATOM     82  O   UNL A   1      42.075  19.867  27.881  1.00  0.00    -0.744 OA
ENDBRANCH  76  79
ENDBRANCH  48  72
BRANCH  60  83
ATOM     83  C   UNL A   1      47.222  26.211  31.920  1.00  0.00     0.023 A 
ATOM     84  C   UNL A   1      48.358  26.730  31.266  1.00  0.00     0.012 A 
ATOM     85  C   UNL A   1      47.391  25.315  32.993  1.00  0.00     0.148 A 
ATOM     86  C   UNL A   1      49.639  26.348  31.660  1.00  0.00     0.002 A 
ATOM     87  C   UNL A   1      48.673  24.973  33.410  1.00  0.00     0.091 A 
ATOM     88  F   UNL A   1      46.298  24.816  33.590  1.00  0.00    -0.205 F 
ATOM     89  C   UNL A   1      49.797  25.482  32.740  1.00  0.00     0.022 A 
BRANCH  87  90
ATOM     90  S   UNL A   1      48.968  23.944  34.854  1.00  0.00     0.127 S 
ATOM     91  O   UNL A   1      50.425  23.986  34.955  1.00  0.00    -0.237 OA
ATOM     92  O   UNL A   1      48.262  24.673  35.909  1.00  0.00    -0.237 OA
ATOM     93  O   UNL A   1      48.395  22.644  34.537  1.00  0.00    -0.744 OA
ENDBRANCH  87  90
ENDBRANCH  60  83
ENDBRANCH  34  35
ENDBRANCH  26  29
ENDBRANCH  24  25
ENDBRANCH   1  24
TORSDOF 15
ENDMDL
