MODEL 1
REMARK VINA RESULT:     -12.8      0.000      0.000
REMARK SMILES O=C(NCCCCNC(=O)[C@H](CO)NC(=O)[C@H](Cc1c[nH]c2ccccc12)NC(=O)c1ccc(F)cc1)c1ccc(-c2c3nc(c(-c4cccc(S(=O)(=O)[O-])c4F)c4ccc([nH]4)c(-c4cccc(S(=O)(=O)[O-])c4F)c4nc(c(-c5cccc(S(=O)(=O)[O-])c5F)c5ccc2[nH]5)C=C4)C=C3)cc1
REMARK SMILES IDX 6 1 5 2 4 3 3 4 1 5 2 6 38 8 39 9 100 10 40 11 99 12 41 13
REMARK SMILES IDX 42 14 43 15 93 16 44 17 98 18 92 19 94 20 45 21 97 22 91 23
REMARK SMILES IDX 90 24 46 26 78 27 58 28 77 29 59 30 62 31 76 32 95 33 60 34
REMARK SMILES IDX 61 35 75 37 96 38 63 39 47 40 48 41 56 42 49 43 51 44 57 45
REMARK SMILES IDX 50 46 52 47 53 48 54 49 55 50 79 51 80 52 88 53 81 54 83 55
REMARK SMILES IDX 89 56 82 57 84 58 85 59 86 60 87 61 64 62 65 63 73 64 66 65
REMARK SMILES IDX 68 66 74 67 67 68 69 69 70 70 71 71 72 72 7 73 8 74 9 75
REMARK SMILES IDX 10 77 11 78 14 79 15 80 16 82 17 83 28 84 29 85 30 87 31 88
REMARK SMILES IDX 32 89 37 90 33 91 36 92 34 93 35 94 18 95 19 96 20 97 27 98
REMARK SMILES IDX 21 99 22 100 26 101 23 103 25 104 24 105 12 106 13 107
REMARK H PARENT 3 7 94 25 62 36 8 76 14 81 28 86 21 102 13 108
REMARK Flexibility Score: inf
ROOT
ATOM      1  C   UNL A   1      30.677  32.032  26.135  1.00  0.00     0.023 C 
ENDROOT
BRANCH   1   2
ATOM      2  C   UNL A   1      31.484  33.321  26.212  1.00  0.00     0.023 C 
BRANCH   2   3
ATOM      3  C   UNL A   1      32.578  33.364  27.262  1.00  0.00     0.116 C 
BRANCH   3   4
ATOM      4  N   UNL A   1      32.589  34.537  28.124  1.00  0.00    -0.352 N 
ATOM      5  O   UNL A   1      33.585  35.854  29.706  1.00  0.00    -0.269 OA
ATOM      6  C   UNL A   1      33.599  34.841  29.022  1.00  0.00     0.251 C 
ATOM      7  H   UNL A   1      31.827  35.157  28.066  1.00  0.00     0.163 HD
BRANCH   6   8
ATOM      8  C   UNL A   1      34.685  33.843  29.120  1.00  0.00     0.039 A 
ATOM      9  C   UNL A   1      34.446  32.693  29.875  1.00  0.00     0.014 A 
ATOM     10  C   UNL A   1      35.983  34.230  28.778  1.00  0.00     0.014 A 
ATOM     11  C   UNL A   1      35.526  32.029  30.442  1.00  0.00     0.010 A 
ATOM     12  C   UNL A   1      37.065  33.505  29.284  1.00  0.00     0.010 A 
ATOM     13  C   UNL A   1      36.846  32.439  30.170  1.00  0.00    -0.014 A 
BRANCH  13  14
ATOM     14  C   UNL A   1      37.979  31.721  30.807  1.00  0.00     0.031 A 
ATOM     15  C   UNL A   1      38.366  31.962  32.242  1.00  0.00     0.074 A 
ATOM     16  C   UNL A   1      38.646  30.812  30.071  1.00  0.00     0.049 A 
ATOM     17  N   UNL A   1      39.339  31.420  32.929  1.00  0.00    -0.248 NA
ATOM     18  C   UNL A   1      37.569  32.934  33.008  1.00  0.00     0.031 C 
ATOM     19  C   UNL A   1      38.362  30.511  28.667  1.00  0.00     0.029 A 
ATOM     20  N   UNL A   1      39.679  29.973  30.391  1.00  0.00    -0.354 N 
ATOM     21  C   UNL A   1      39.306  32.016  34.184  1.00  0.00     0.074 A 
ATOM     22  C   UNL A   1      38.206  32.955  34.173  1.00  0.00     0.031 C 
ATOM     23  C   UNL A   1      39.168  29.523  28.259  1.00  0.00     0.029 A 
ATOM     24  C   UNL A   1      40.072  29.168  29.348  1.00  0.00     0.049 A 
ATOM     25  H   UNL A   1      40.100  29.947  31.281  1.00  0.00     0.167 HD
ATOM     26  C   UNL A   1      40.115  31.790  35.248  1.00  0.00     0.034 A 
ATOM     27  C   UNL A   1      41.060  28.257  29.263  1.00  0.00     0.034 A 
ATOM     28  C   UNL A   1      41.172  30.812  35.267  1.00  0.00     0.049 A 
ATOM     29  C   UNL A   1      41.915  28.002  30.466  1.00  0.00     0.074 A 
ATOM     30  C   UNL A   1      42.019  30.483  36.311  1.00  0.00     0.029 A 
ATOM     31  N   UNL A   1      41.523  30.000  34.198  1.00  0.00    -0.354 N 
ATOM     32  N   UNL A   1      41.823  28.531  31.663  1.00  0.00    -0.248 NA
ATOM     33  C   UNL A   1      42.998  27.023  30.319  1.00  0.00     0.031 C 
ATOM     34  C   UNL A   1      42.883  29.473  35.874  1.00  0.00     0.029 A 
ATOM     35  C   UNL A   1      42.572  29.171  34.558  1.00  0.00     0.049 A 
ATOM     36  H   UNL A   1      41.089  30.011  33.315  1.00  0.00     0.167 HD
ATOM     37  C   UNL A   1      42.839  27.954  32.412  1.00  0.00     0.074 A 
ATOM     38  C   UNL A   1      43.510  27.005  31.545  1.00  0.00     0.031 C 
ATOM     39  C   UNL A   1      43.203  28.209  33.692  1.00  0.00     0.034 A 
BRANCH  26  40
ATOM     40  C   UNL A   1      39.875  32.574  36.513  1.00  0.00     0.023 A 
ATOM     41  C   UNL A   1      40.577  33.778  36.723  1.00  0.00     0.012 A 
ATOM     42  C   UNL A   1      38.873  32.189  37.427  1.00  0.00     0.148 A 
ATOM     43  C   UNL A   1      40.291  34.582  37.825  1.00  0.00     0.002 A 
ATOM     44  C   UNL A   1      38.572  33.013  38.507  1.00  0.00     0.091 A 
ATOM     45  F   UNL A   1      38.232  31.030  37.222  1.00  0.00    -0.205 F 
ATOM     46  C   UNL A   1      39.281  34.208  38.709  1.00  0.00     0.022 A 
BRANCH  44  47
ATOM     47  S   UNL A   1      37.237  32.651  39.655  1.00  0.00     0.127 S 
ATOM     48  O   UNL A   1      36.069  32.714  38.778  1.00  0.00    -0.237 OA
ATOM     49  O   UNL A   1      37.580  31.305  40.119  1.00  0.00    -0.237 OA
ATOM     50  O   UNL A   1      37.306  33.680  40.683  1.00  0.00    -0.744 OA
ENDBRANCH  44  47
ENDBRANCH  26  40
BRANCH  27  51
ATOM     51  C   UNL A   1      41.224  27.499  27.993  1.00  0.00     0.023 A 
ATOM     52  C   UNL A   1      41.900  28.102  26.915  1.00  0.00     0.012 A 
ATOM     53  C   UNL A   1      40.855  26.143  27.901  1.00  0.00     0.148 A 
ATOM     54  C   UNL A   1      42.215  27.362  25.775  1.00  0.00     0.002 A 
ATOM     55  C   UNL A   1      41.238  25.394  26.795  1.00  0.00     0.091 A 
ATOM     56  F   UNL A   1      40.187  25.594  28.926  1.00  0.00    -0.205 F 
ATOM     57  C   UNL A   1      41.907  26.004  25.725  1.00  0.00     0.022 A 
BRANCH  55  58
ATOM     58  S   UNL A   1      41.057  23.606  26.767  1.00  0.00     0.127 S 
ATOM     59  O   UNL A   1      41.879  23.237  25.619  1.00  0.00    -0.237 OA
ATOM     60  O   UNL A   1      41.603  23.217  28.068  1.00  0.00    -0.237 OA
ATOM     61  O   UNL A   1      39.624  23.372  26.635  1.00  0.00    -0.744 OA
ENDBRANCH  55  58
ENDBRANCH  27  51
BRANCH  39  62
ATOM     62  C   UNL A   1      44.395  27.469  34.232  1.00  0.00     0.023 A 
ATOM     63  C   UNL A   1      45.676  28.036  34.081  1.00  0.00     0.012 A 
ATOM     64  C   UNL A   1      44.245  26.270  34.953  1.00  0.00     0.148 A 
ATOM     65  C   UNL A   1      46.795  27.411  34.628  1.00  0.00     0.002 A 
ATOM     66  C   UNL A   1      45.362  25.670  35.524  1.00  0.00     0.091 A 
ATOM     67  F   UNL A   1      43.020  25.737  35.064  1.00  0.00    -0.205 F 
ATOM     68  C   UNL A   1      46.637  26.235  35.358  1.00  0.00     0.022 A 
BRANCH  66  69
ATOM     69  S   UNL A   1      45.235  24.196  36.543  1.00  0.00     0.127 S 
ATOM     70  O   UNL A   1      44.434  24.677  37.667  1.00  0.00    -0.237 OA
ATOM     71  O   UNL A   1      44.542  23.259  35.658  1.00  0.00    -0.237 OA
ATOM     72  O   UNL A   1      46.605  23.817  36.862  1.00  0.00    -0.744 OA
ENDBRANCH  66  69
ENDBRANCH  39  62
ENDBRANCH  13  14
ENDBRANCH   6   8
ENDBRANCH   3   4
ENDBRANCH   2   3
ENDBRANCH   1   2
BRANCH   1  73
ATOM     73  C   UNL A   1      31.481  30.733  26.022  1.00  0.00     0.116 C 
BRANCH  73  74
ATOM     74  N   UNL A   1      31.242  30.004  24.785  1.00  0.00    -0.354 N 
ATOM     75  C   UNL A   1      31.627  28.770  24.329  1.00  0.00     0.244 C 
ATOM     76  H   UNL A   1      30.686  30.501  24.142  1.00  0.00     0.163 HD
ATOM     77  O   UNL A   1      30.849  28.255  23.509  1.00  0.00    -0.273 OA
BRANCH  75  78
ATOM     78  C   UNL A   1      33.167  27.983  24.744  1.00  0.00     0.197 C 
BRANCH  78  79
ATOM     79  N   UNL A   1      33.497  27.570  23.172  1.00  0.00    -0.340 N 
ATOM     80  C   UNL A   1      33.430  26.455  22.405  1.00  0.00     0.243 C 
ATOM     81  H   UNL A   1      33.832  28.342  22.659  1.00  0.00     0.164 HD
ATOM     82  O   UNL A   1      33.717  26.573  21.211  1.00  0.00    -0.273 OA
BRANCH  80  83
ATOM     83  C   UNL A   1      32.939  25.130  23.013  1.00  0.00     0.176 C 
BRANCH  83  84
ATOM     84  N   UNL A   1      31.623  25.347  23.626  1.00  0.00    -0.340 N 
ATOM     85  C   UNL A   1      31.151  24.945  24.845  1.00  0.00     0.251 C 
ATOM     86  H   UNL A   1      30.985  25.858  23.077  1.00  0.00     0.164 HD
ATOM     87  O   UNL A   1      30.013  25.247  25.198  1.00  0.00    -0.269 OA
BRANCH  85  88
ATOM     88  C   UNL A   1      31.964  24.071  25.713  1.00  0.00     0.040 A 
ATOM     89  C   UNL A   1      31.506  22.818  26.139  1.00  0.00     0.017 A 
ATOM     90  C   UNL A   1      33.252  24.504  26.049  1.00  0.00     0.017 A 
ATOM     91  C   UNL A   1      32.316  22.028  26.956  1.00  0.00     0.040 A 
ATOM     92  C   UNL A   1      34.061  23.707  26.858  1.00  0.00     0.040 A 
ATOM     93  C   UNL A   1      33.582  22.482  27.312  1.00  0.00     0.123 A 
ATOM     94  F   UNL A   1      34.360  21.722  28.094  1.00  0.00    -0.207 F 
ENDBRANCH  85  88
ENDBRANCH  83  84
BRANCH  83  95
ATOM     95  C   UNL A   1      32.865  24.050  21.934  1.00  0.00     0.072 C 
BRANCH  95  96
ATOM     96  C   UNL A   1      33.155  22.738  22.561  1.00  0.00    -0.020 A 
ATOM     97  C   UNL A   1      32.048  21.345  22.766  1.00  0.00     0.087 A 
ATOM     98  C   UNL A   1      34.772  22.374  23.599  1.00  0.00     0.003 A 
ATOM     99  N   UNL A   1      32.844  20.163  23.967  1.00  0.00    -0.361 N 
ATOM    100  C   UNL A   1      34.541  20.793  24.398  1.00  0.00     0.046 A 
ATOM    101  C   UNL A   1      36.026  22.983  23.739  1.00  0.00     0.010 A 
ATOM    102  H   UNL A   1      32.434  19.340  24.317  1.00  0.00     0.166 HD
ATOM    103  C   UNL A   1      35.645  20.182  24.985  1.00  0.00     0.026 A 
ATOM    104  C   UNL A   1      37.015  22.241  24.419  1.00  0.00     0.001 A 
ATOM    105  C   UNL A   1      36.841  20.936  24.980  1.00  0.00     0.002 A 
ENDBRANCH  95  96
ENDBRANCH  83  95
ENDBRANCH  80  83
ENDBRANCH  78  79
BRANCH  78 106
ATOM    106  C   UNL A   1      34.627  28.474  26.415  1.00  0.00     0.191 C 
BRANCH 106 107
ATOM    107  O   UNL A   1      35.190  29.931  26.776  1.00  0.00    -0.394 OA
ATOM    108  H   UNL A   1      34.528  30.601  26.538  1.00  0.00     0.210 HD
ENDBRANCH 106 107
ENDBRANCH  78 106
ENDBRANCH  75  78
ENDBRANCH  73  74
ENDBRANCH   1  73
TORSDOF 22
ENDMDL
MODEL 2
REMARK VINA RESULT:     -12.4      0.312      7.116
REMARK SMILES O=C(NCCCCNC(=O)[C@H](CO)NC(=O)[C@H](Cc1c[nH]c2ccccc12)NC(=O)c1ccc(F)cc1)c1ccc(-c2c3nc(c(-c4cccc(S(=O)(=O)[O-])c4F)c4ccc([nH]4)c(-c4cccc(S(=O)(=O)[O-])c4F)c4nc(c(-c5cccc(S(=O)(=O)[O-])c5F)c5ccc2[nH]5)C=C4)C=C3)cc1
REMARK SMILES IDX 6 1 5 2 4 3 3 4 1 5 2 6 38 8 39 9 100 10 40 11 99 12 41 13
REMARK SMILES IDX 42 14 43 15 93 16 44 17 98 18 92 19 94 20 45 21 97 22 91 23
REMARK SMILES IDX 90 24 46 26 78 27 58 28 77 29 59 30 62 31 76 32 95 33 60 34
REMARK SMILES IDX 61 35 75 37 96 38 63 39 47 40 48 41 56 42 49 43 51 44 57 45
REMARK SMILES IDX 50 46 52 47 53 48 54 49 55 50 79 51 80 52 88 53 81 54 83 55
REMARK SMILES IDX 89 56 82 57 84 58 85 59 86 60 87 61 64 62 65 63 73 64 66 65
REMARK SMILES IDX 68 66 74 67 67 68 69 69 70 70 71 71 72 72 7 73 8 74 9 75
REMARK SMILES IDX 10 77 11 78 14 79 15 80 16 82 17 83 28 84 29 85 30 87 31 88
REMARK SMILES IDX 32 89 37 90 33 91 36 92 34 93 35 94 18 95 19 96 20 97 27 98
REMARK SMILES IDX 21 99 22 100 26 101 23 103 25 104 24 105 12 106 13 107
REMARK H PARENT 3 7 94 25 62 36 8 76 14 81 28 86 21 102 13 108
REMARK Flexibility Score: inf
ROOT
ATOM      1  C   UNL A   1      30.713  32.197  26.196  1.00  0.00     0.023 C 
ENDROOT
BRANCH   1   2
ATOM      2  C   UNL A   1      31.686  33.366  26.277  1.00  0.00     0.023 C 
BRANCH   2   3
ATOM      3  C   UNL A   1      32.720  33.302  27.385  1.00  0.00     0.116 C 
BRANCH   3   4
ATOM      4  N   UNL A   1      32.750  34.437  28.295  1.00  0.00    -0.352 N 
ATOM      5  O   UNL A   1      33.770  35.673  29.927  1.00  0.00    -0.269 OA
ATOM      6  C   UNL A   1      33.767  34.689  29.201  1.00  0.00     0.251 C 
ATOM      7  H   UNL A   1      31.997  35.070  28.266  1.00  0.00     0.163 HD
BRANCH   6   8
ATOM      8  C   UNL A   1      34.840  33.673  29.252  1.00  0.00     0.039 A 
ATOM      9  C   UNL A   1      34.609  32.521  30.008  1.00  0.00     0.014 A 
ATOM     10  C   UNL A   1      36.131  34.041  28.866  1.00  0.00     0.014 A 
ATOM     11  C   UNL A   1      35.698  31.836  30.531  1.00  0.00     0.010 A 
ATOM     12  C   UNL A   1      37.217  33.295  29.328  1.00  0.00     0.010 A 
ATOM     13  C   UNL A   1      37.013  32.226  30.214  1.00  0.00    -0.014 A 
BRANCH  13  14
ATOM     14  C   UNL A   1      38.157  31.484  30.804  1.00  0.00     0.031 A 
ATOM     15  C   UNL A   1      38.928  30.457  30.018  1.00  0.00     0.074 A 
ATOM     16  C   UNL A   1      38.514  31.775  32.069  1.00  0.00     0.049 A 
ATOM     17  N   UNL A   1      39.939  29.722  30.404  1.00  0.00    -0.248 NA
ATOM     18  C   UNL A   1      38.517  30.218  28.625  1.00  0.00     0.031 C 
ATOM     19  C   UNL A   1      37.826  32.744  32.925  1.00  0.00     0.029 A 
ATOM     20  N   UNL A   1      39.536  31.306  32.850  1.00  0.00    -0.354 N 
ATOM     21  C   UNL A   1      40.253  28.899  29.328  1.00  0.00     0.074 A 
ATOM     22  C   UNL A   1      39.334  29.235  28.263  1.00  0.00     0.031 C 
ATOM     23  C   UNL A   1      38.473  32.832  34.094  1.00  0.00     0.029 A 
ATOM     24  C   UNL A   1      39.576  31.878  34.099  1.00  0.00     0.049 A 
ATOM     25  H   UNL A   1      40.181  30.625  32.546  1.00  0.00     0.167 HD
ATOM     26  C   UNL A   1      41.226  27.961  29.239  1.00  0.00     0.034 A 
ATOM     27  C   UNL A   1      40.395  31.653  35.144  1.00  0.00     0.034 A 
ATOM     28  C   UNL A   1      42.172  27.674  30.286  1.00  0.00     0.049 A 
ATOM     29  C   UNL A   1      41.485  30.635  35.003  1.00  0.00     0.074 A 
ATOM     30  C   UNL A   1      43.220  26.769  30.274  1.00  0.00     0.029 A 
ATOM     31  N   UNL A   1      42.195  28.293  31.528  1.00  0.00    -0.354 N 
ATOM     32  N   UNL A   1      41.804  29.916  33.954  1.00  0.00    -0.248 NA
ATOM     33  C   UNL A   1      42.334  30.401  36.178  1.00  0.00     0.031 C 
ATOM     34  C   UNL A   1      43.874  26.838  31.508  1.00  0.00     0.029 A 
ATOM     35  C   UNL A   1      43.237  27.789  32.289  1.00  0.00     0.049 A 
ATOM     36  H   UNL A   1      41.564  28.987  31.824  1.00  0.00     0.167 HD
ATOM     37  C   UNL A   1      42.888  29.141  34.341  1.00  0.00     0.074 A 
ATOM     38  C   UNL A   1      43.196  29.506  35.710  1.00  0.00     0.031 C 
ATOM     39  C   UNL A   1      43.549  28.189  33.636  1.00  0.00     0.034 A 
BRANCH  26  40
ATOM     40  C   UNL A   1      41.366  27.190  27.950  1.00  0.00     0.023 A 
ATOM     41  C   UNL A   1      41.917  27.829  26.822  1.00  0.00     0.012 A 
ATOM     42  C   UNL A   1      41.075  25.813  27.893  1.00  0.00     0.148 A 
ATOM     43  C   UNL A   1      42.168  27.110  25.653  1.00  0.00     0.002 A 
ATOM     44  C   UNL A   1      41.358  25.096  26.734  1.00  0.00     0.091 A 
ATOM     45  F   UNL A   1      40.532  25.227  28.970  1.00  0.00    -0.205 F 
ATOM     46  C   UNL A   1      41.902  25.744  25.613  1.00  0.00     0.022 A 
BRANCH  44  47
ATOM     47  S   UNL A   1      41.119  23.318  26.614  1.00  0.00     0.127 S 
ATOM     48  O   UNL A   1      41.626  22.866  27.909  1.00  0.00    -0.237 OA
ATOM     49  O   UNL A   1      39.667  23.208  26.456  1.00  0.00    -0.237 OA
ATOM     50  O   UNL A   1      41.887  22.891  25.454  1.00  0.00    -0.744 OA
ENDBRANCH  44  47
ENDBRANCH  26  40
BRANCH  27  51
ATOM     51  C   UNL A   1      40.218  32.468  36.377  1.00  0.00     0.023 A 
ATOM     52  C   UNL A   1      40.933  33.673  36.514  1.00  0.00     0.012 A 
ATOM     53  C   UNL A   1      39.240  32.136  37.334  1.00  0.00     0.148 A 
ATOM     54  C   UNL A   1      40.665  34.537  37.576  1.00  0.00     0.002 A 
ATOM     55  C   UNL A   1      38.928  33.036  38.346  1.00  0.00     0.091 A 
ATOM     56  F   UNL A   1      38.589  30.970  37.204  1.00  0.00    -0.205 F 
ATOM     57  C   UNL A   1      39.648  34.231  38.477  1.00  0.00     0.022 A 
BRANCH  55  58
ATOM     58  S   UNL A   1      37.494  32.796  39.403  1.00  0.00     0.127 S 
ATOM     59  O   UNL A   1      37.787  31.508  40.023  1.00  0.00    -0.237 OA
ATOM     60  O   UNL A   1      37.574  33.947  40.304  1.00  0.00    -0.237 OA
ATOM     61  O   UNL A   1      36.349  32.832  38.502  1.00  0.00    -0.744 OA
ENDBRANCH  55  58
ENDBRANCH  27  51
BRANCH  39  62
ATOM     62  C   UNL A   1      44.658  27.457  34.337  1.00  0.00     0.023 A 
ATOM     63  C   UNL A   1      45.948  28.023  34.351  1.00  0.00     0.012 A 
ATOM     64  C   UNL A   1      44.413  26.265  35.045  1.00  0.00     0.148 A 
ATOM     65  C   UNL A   1      46.984  27.404  35.047  1.00  0.00     0.002 A 
ATOM     66  C   UNL A   1      45.444  25.672  35.765  1.00  0.00     0.091 A 
ATOM     67  F   UNL A   1      43.183  25.732  34.998  1.00  0.00    -0.205 F 
ATOM     68  C   UNL A   1      46.730  26.236  35.763  1.00  0.00     0.022 A 
BRANCH  66  69
ATOM     69  S   UNL A   1      45.182  24.209  36.774  1.00  0.00     0.127 S 
ATOM     70  O   UNL A   1      44.385  23.370  35.882  1.00  0.00    -0.237 OA
ATOM     71  O   UNL A   1      46.547  23.733  37.001  1.00  0.00    -0.237 OA
ATOM     72  O   UNL A   1      44.503  24.675  37.976  1.00  0.00    -0.744 OA
ENDBRANCH  66  69
ENDBRANCH  39  62
ENDBRANCH  13  14
ENDBRANCH   6   8
ENDBRANCH   3   4
ENDBRANCH   2   3
ENDBRANCH   1   2
BRANCH   1  73
ATOM     73  C   UNL A   1      31.334  30.797  26.182  1.00  0.00     0.116 C 
BRANCH  73  74
ATOM     74  N   UNL A   1      31.146  30.088  24.925  1.00  0.00    -0.354 N 
ATOM     75  C   UNL A   1      31.572  28.871  24.457  1.00  0.00     0.244 C 
ATOM     76  H   UNL A   1      30.598  30.585  24.276  1.00  0.00     0.163 HD
ATOM     77  O   UNL A   1      30.829  28.356  23.605  1.00  0.00    -0.273 OA
BRANCH  75  78
ATOM     78  C   UNL A   1      33.117  28.110  24.900  1.00  0.00     0.197 C 
BRANCH  78  79
ATOM     79  N   UNL A   1      33.506  27.746  23.329  1.00  0.00    -0.340 N 
ATOM     80  C   UNL A   1      33.515  26.643  22.542  1.00  0.00     0.243 C 
ATOM     81  H   UNL A   1      33.811  28.544  22.839  1.00  0.00     0.164 HD
ATOM     82  O   UNL A   1      33.823  26.799  21.357  1.00  0.00    -0.273 OA
BRANCH  80  83
ATOM     83  C   UNL A   1      33.082  25.283  23.113  1.00  0.00     0.176 C 
BRANCH  83  84
ATOM     84  N   UNL A   1      31.778  25.437  23.769  1.00  0.00    -0.340 N 
ATOM     85  C   UNL A   1      31.349  24.969  24.981  1.00  0.00     0.251 C 
ATOM     86  H   UNL A   1      31.112  25.954  23.260  1.00  0.00     0.164 HD
ATOM     87  O   UNL A   1      30.214  25.224  25.376  1.00  0.00    -0.269 OA
BRANCH  85  88
ATOM     88  C   UNL A   1      32.208  24.080  25.788  1.00  0.00     0.040 A 
ATOM     89  C   UNL A   1      33.519  24.431  26.131  1.00  0.00     0.017 A 
ATOM     90  C   UNL A   1      31.646  22.891  26.266  1.00  0.00     0.017 A 
ATOM     91  C   UNL A   1      34.289  23.556  26.900  1.00  0.00     0.040 A 
ATOM     92  C   UNL A   1      32.416  22.024  27.042  1.00  0.00     0.040 A 
ATOM     93  C   UNL A   1      33.732  22.360  27.343  1.00  0.00     0.123 A 
ATOM     94  F   UNL A   1      34.471  21.522  28.082  1.00  0.00    -0.207 F 
ENDBRANCH  85  88
ENDBRANCH  83  84
BRANCH  83  95
ATOM     95  C   UNL A   1      33.011  24.241  21.998  1.00  0.00     0.072 C 
BRANCH  95  96
ATOM     96  C   UNL A   1      33.225  22.899  22.594  1.00  0.00    -0.020 A 
ATOM     97  C   UNL A   1      32.035  21.574  22.786  1.00  0.00     0.087 A 
ATOM     98  C   UNL A   1      34.830  22.412  23.600  1.00  0.00     0.003 A 
ATOM     99  N   UNL A   1      32.771  20.319  23.951  1.00  0.00    -0.361 N 
ATOM    100  C   UNL A   1      34.510  20.832  24.370  1.00  0.00     0.046 A 
ATOM    101  C   UNL A   1      36.121  22.937  23.734  1.00  0.00     0.010 A 
ATOM    102  H   UNL A   1      32.314  19.516  24.289  1.00  0.00     0.166 HD
ATOM    103  C   UNL A   1      35.581  20.140  24.927  1.00  0.00     0.026 A 
ATOM    104  C   UNL A   1      37.070  22.120  24.384  1.00  0.00     0.001 A 
ATOM    105  C   UNL A   1      36.822  20.817  24.921  1.00  0.00     0.002 A 
ENDBRANCH  95  96
ENDBRANCH  83  95
ENDBRANCH  80  83
ENDBRANCH  78  79
BRANCH  78 106
ATOM    106  C   UNL A   1      34.513  28.594  26.628  1.00  0.00     0.191 C 
BRANCH 106 107
ATOM    107  O   UNL A   1      35.583  29.786  26.668  1.00  0.00    -0.394 OA
ATOM    108  H   UNL A   1      36.473  29.418  26.791  1.00  0.00     0.210 HD
ENDBRANCH 106 107
ENDBRANCH  78 106
ENDBRANCH  75  78
ENDBRANCH  73  74
ENDBRANCH   1  73
TORSDOF 22
ENDMDL
MODEL 3
REMARK VINA RESULT:     -11.3      2.069      7.432
REMARK SMILES O=C(NCCCCNC(=O)[C@H](CO)NC(=O)[C@H](Cc1c[nH]c2ccccc12)NC(=O)c1ccc(F)cc1)c1ccc(-c2c3nc(c(-c4cccc(S(=O)(=O)[O-])c4F)c4ccc([nH]4)c(-c4cccc(S(=O)(=O)[O-])c4F)c4nc(c(-c5cccc(S(=O)(=O)[O-])c5F)c5ccc2[nH]5)C=C4)C=C3)cc1
REMARK SMILES IDX 6 1 5 2 4 3 3 4 1 5 2 6 38 8 39 9 100 10 40 11 99 12 41 13
REMARK SMILES IDX 42 14 43 15 93 16 44 17 98 18 92 19 94 20 45 21 97 22 91 23
REMARK SMILES IDX 90 24 46 26 78 27 58 28 77 29 59 30 62 31 76 32 95 33 60 34
REMARK SMILES IDX 61 35 75 37 96 38 63 39 47 40 48 41 56 42 49 43 51 44 57 45
REMARK SMILES IDX 50 46 52 47 53 48 54 49 55 50 79 51 80 52 88 53 81 54 83 55
REMARK SMILES IDX 89 56 82 57 84 58 85 59 86 60 87 61 64 62 65 63 73 64 66 65
REMARK SMILES IDX 68 66 74 67 67 68 69 69 70 70 71 71 72 72 7 73 8 74 9 75
REMARK SMILES IDX 10 77 11 78 14 79 15 80 16 82 17 83 28 84 29 85 30 87 31 88
REMARK SMILES IDX 32 89 37 90 33 91 36 92 34 93 35 94 18 95 19 96 20 97 27 98
REMARK SMILES IDX 21 99 22 100 26 101 23 103 25 104 24 105 12 106 13 107
REMARK H PARENT 3 7 94 25 62 36 8 76 14 81 28 86 21 102 13 108
REMARK Flexibility Score: inf
ROOT
ATOM      1  C   UNL A   1      31.966  32.599  26.914  1.00  0.00     0.023 C 
ENDROOT
BRANCH   1   2
ATOM      2  C   UNL A   1      33.459  32.773  27.160  1.00  0.00     0.023 C 
BRANCH   2   3
ATOM      3  C   UNL A   1      33.992  32.216  28.466  1.00  0.00     0.116 C 
BRANCH   3   4
ATOM      4  N   UNL A   1      34.023  33.141  29.590  1.00  0.00    -0.352 N 
ATOM      5  O   UNL A   1      35.092  34.102  31.367  1.00  0.00    -0.269 OA
ATOM      6  C   UNL A   1      35.095  33.290  30.453  1.00  0.00     0.251 C 
ATOM      7  H   UNL A   1      33.227  33.698  29.747  1.00  0.00     0.163 HD
BRANCH   6   8
ATOM      8  C   UNL A   1      36.237  32.382  30.213  1.00  0.00     0.039 A 
ATOM      9  C   UNL A   1      36.277  31.185  30.931  1.00  0.00     0.014 A 
ATOM     10  C   UNL A   1      37.375  32.890  29.583  1.00  0.00     0.014 A 
ATOM     11  C   UNL A   1      37.509  30.589  31.168  1.00  0.00     0.010 A 
ATOM     12  C   UNL A   1      38.597  32.236  29.757  1.00  0.00     0.010 A 
ATOM     13  C   UNL A   1      38.685  31.118  30.600  1.00  0.00    -0.014 A 
BRANCH  13  14
ATOM     14  C   UNL A   1      39.990  30.469  30.888  1.00  0.00     0.031 A 
ATOM     15  C   UNL A   1      40.551  29.389  30.001  1.00  0.00     0.074 A 
ATOM     16  C   UNL A   1      40.686  30.894  31.959  1.00  0.00     0.049 A 
ATOM     17  N   UNL A   1      41.670  28.722  30.133  1.00  0.00    -0.248 NA
ATOM     18  C   UNL A   1      39.765  29.001  28.819  1.00  0.00     0.031 C 
ATOM     19  C   UNL A   1      40.227  31.924  32.892  1.00  0.00     0.029 A 
ATOM     20  N   UNL A   1      41.916  30.531  32.439  1.00  0.00    -0.354 N 
ATOM     21  C   UNL A   1      41.699  27.805  29.088  1.00  0.00     0.074 A 
ATOM     22  C   UNL A   1      40.492  28.009  28.318  1.00  0.00     0.031 C 
ATOM     23  C   UNL A   1      41.181  32.145  33.804  1.00  0.00     0.029 A 
ATOM     24  C   UNL A   1      42.288  31.226  33.565  1.00  0.00     0.049 A 
ATOM     25  H   UNL A   1      42.479  29.841  32.019  1.00  0.00     0.167 HD
ATOM     26  C   UNL A   1      42.653  26.888  28.797  1.00  0.00     0.034 A 
ATOM     27  C   UNL A   1      43.388  31.128  34.336  1.00  0.00     0.034 A 
ATOM     28  C   UNL A   1      43.879  26.732  29.537  1.00  0.00     0.049 A 
ATOM     29  C   UNL A   1      44.442  30.129  33.968  1.00  0.00     0.074 A 
ATOM     30  C   UNL A   1      44.924  25.858  29.294  1.00  0.00     0.029 A 
ATOM     31  N   UNL A   1      44.230  27.471  30.657  1.00  0.00    -0.354 N 
ATOM     32  N   UNL A   1      44.479  29.318  32.938  1.00  0.00    -0.248 NA
ATOM     33  C   UNL A   1      45.610  30.035  34.853  1.00  0.00     0.031 C 
ATOM     34  C   UNL A   1      45.906  26.066  30.268  1.00  0.00     0.029 A 
ATOM     35  C   UNL A   1      45.475  27.074  31.116  1.00  0.00     0.049 A 
ATOM     36  H   UNL A   1      43.676  28.175  31.065  1.00  0.00     0.167 HD
ATOM     37  C   UNL A   1      45.669  28.613  33.053  1.00  0.00     0.074 A 
ATOM     38  C   UNL A   1      46.344  29.121  34.231  1.00  0.00     0.031 C 
ATOM     39  C   UNL A   1      46.145  27.614  32.270  1.00  0.00     0.034 A 
BRANCH  26  40
ATOM     40  C   UNL A   1      42.452  25.997  27.597  1.00  0.00     0.023 A 
ATOM     41  C   UNL A   1      42.880  26.439  26.330  1.00  0.00     0.012 A 
ATOM     42  C   UNL A   1      41.960  24.684  27.742  1.00  0.00     0.148 A 
ATOM     43  C   UNL A   1      42.815  25.592  25.224  1.00  0.00     0.002 A 
ATOM     44  C   UNL A   1      41.928  23.834  26.641  1.00  0.00     0.091 A 
ATOM     45  F   UNL A   1      41.537  24.289  28.951  1.00  0.00    -0.205 F 
ATOM     46  C   UNL A   1      42.352  24.288  25.381  1.00  0.00     0.022 A 
BRANCH  44  47
ATOM     47  S   UNL A   1      41.418  22.115  26.761  1.00  0.00     0.127 S 
ATOM     48  O   UNL A   1      39.965  22.245  26.859  1.00  0.00    -0.237 OA
ATOM     49  O   UNL A   1      41.896  21.558  25.494  1.00  0.00    -0.237 OA
ATOM     50  O   UNL A   1      42.083  21.584  27.943  1.00  0.00    -0.744 OA
ENDBRANCH  44  47
ENDBRANCH  26  40
BRANCH  27  51
ATOM     51  C   UNL A   1      43.536  32.056  35.490  1.00  0.00     0.023 A 
ATOM     52  C   UNL A   1      44.228  33.268  35.312  1.00  0.00     0.012 A 
ATOM     53  C   UNL A   1      42.868  31.817  36.707  1.00  0.00     0.148 A 
ATOM     54  C   UNL A   1      44.241  34.230  36.323  1.00  0.00     0.002 A 
ATOM     55  C   UNL A   1      42.823  32.809  37.678  1.00  0.00     0.091 A 
ATOM     56  F   UNL A   1      42.237  30.644  36.868  1.00  0.00    -0.205 F 
ATOM     57  C   UNL A   1      43.519  34.012  37.494  1.00  0.00     0.022 A 
BRANCH  55  58
ATOM     58  S   UNL A   1      41.742  32.671  39.107  1.00  0.00     0.127 S 
ATOM     59  O   UNL A   1      41.839  34.006  39.690  1.00  0.00    -0.237 OA
ATOM     60  O   UNL A   1      40.450  32.360  38.493  1.00  0.00    -0.237 OA
ATOM     61  O   UNL A   1      42.297  31.580  39.899  1.00  0.00    -0.744 OA
ENDBRANCH  55  58
ENDBRANCH  27  51
BRANCH  39  62
ATOM     62  C   UNL A   1      47.449  26.984  32.671  1.00  0.00     0.023 A 
ATOM     63  C   UNL A   1      48.655  27.601  32.281  1.00  0.00     0.012 A 
ATOM     64  C   UNL A   1      47.486  25.843  33.494  1.00  0.00     0.148 A 
ATOM     65  C   UNL A   1      49.880  27.081  32.692  1.00  0.00     0.002 A 
ATOM     66  C   UNL A   1      48.712  25.350  33.928  1.00  0.00     0.091 A 
ATOM     67  F   UNL A   1      46.327  25.259  33.834  1.00  0.00    -0.205 F 
ATOM     68  C   UNL A   1      49.909  25.963  33.524  1.00  0.00     0.022 A 
BRANCH  66  69
ATOM     69  S   UNL A   1      48.833  23.961  35.061  1.00  0.00     0.127 S 
ATOM     70  O   UNL A   1      50.278  23.850  35.244  1.00  0.00    -0.237 OA
ATOM     71  O   UNL A   1      48.105  24.447  36.235  1.00  0.00    -0.237 OA
ATOM     72  O   UNL A   1      48.195  22.841  34.382  1.00  0.00    -0.744 OA
ENDBRANCH  66  69
ENDBRANCH  39  62
ENDBRANCH  13  14
ENDBRANCH   6   8
ENDBRANCH   3   4
ENDBRANCH   2   3
ENDBRANCH   1   2
BRANCH   1  73
ATOM     73  C   UNL A   1      31.466  31.159  26.767  1.00  0.00     0.116 C 
BRANCH  73  74
ATOM     74  N   UNL A   1      31.401  30.703  25.386  1.00  0.00    -0.354 N 
ATOM     75  C   UNL A   1      31.810  29.558  24.752  1.00  0.00     0.244 C 
ATOM     76  H   UNL A   1      30.972  31.351  24.782  1.00  0.00     0.163 HD
ATOM     77  O   UNL A   1      31.155  29.266  23.738  1.00  0.00    -0.273 OA
BRANCH  75  78
ATOM     78  C   UNL A   1      33.236  28.605  25.223  1.00  0.00     0.197 C 
BRANCH  78  79
ATOM     79  N   UNL A   1      33.691  28.320  23.654  1.00  0.00    -0.340 N 
ATOM     80  C   UNL A   1      33.601  27.300  22.766  1.00  0.00     0.243 C 
ATOM     81  H   UNL A   1      34.149  29.100  23.264  1.00  0.00     0.164 HD
ATOM     82  O   UNL A   1      34.022  27.507  21.625  1.00  0.00    -0.273 OA
BRANCH  80  83
ATOM     83  C   UNL A   1      32.927  25.980  23.174  1.00  0.00     0.176 C 
BRANCH  83  84
ATOM     84  N   UNL A   1      31.527  26.249  23.524  1.00  0.00    -0.340 N 
ATOM     85  C   UNL A   1      30.786  25.789  24.578  1.00  0.00     0.251 C 
ATOM     86  H   UNL A   1      31.050  26.850  22.907  1.00  0.00     0.164 HD
ATOM     87  O   UNL A   1      29.620  26.150  24.718  1.00  0.00    -0.269 OA
BRANCH  85  88
ATOM     88  C   UNL A   1      31.345  24.789  25.508  1.00  0.00     0.040 A 
ATOM     89  C   UNL A   1      30.647  23.623  25.848  1.00  0.00     0.017 A 
ATOM     90  C   UNL A   1      32.639  25.005  25.995  1.00  0.00     0.017 A 
ATOM     91  C   UNL A   1      31.223  22.706  26.728  1.00  0.00     0.040 A 
ATOM     92  C   UNL A   1      33.214  24.081  26.867  1.00  0.00     0.040 A 
ATOM     93  C   UNL A   1      32.497  22.946  27.234  1.00  0.00     0.123 A 
ATOM     94  F   UNL A   1      33.049  22.065  28.077  1.00  0.00    -0.207 F 
ENDBRANCH  85  88
ENDBRANCH  83  84
BRANCH  83  95
ATOM     95  C   UNL A   1      33.017  24.967  22.033  1.00  0.00     0.072 C 
BRANCH  95  96
ATOM     96  C   UNL A   1      33.188  23.614  22.618  1.00  0.00    -0.020 A 
ATOM     97  C   UNL A   1      31.975  22.301  22.734  1.00  0.00     0.087 A 
ATOM     98  C   UNL A   1      34.738  23.092  23.691  1.00  0.00     0.003 A 
ATOM     99  N   UNL A   1      32.641  21.020  23.913  1.00  0.00    -0.361 N 
ATOM    100  C   UNL A   1      34.364  21.505  24.420  1.00  0.00     0.046 A 
ATOM    101  C   UNL A   1      36.028  23.600  23.893  1.00  0.00     0.010 A 
ATOM    102  H   UNL A   1      32.160  20.218  24.217  1.00  0.00     0.166 HD
ATOM    103  C   UNL A   1      35.399  20.792  25.017  1.00  0.00     0.026 A 
ATOM    104  C   UNL A   1      36.936  22.762  24.574  1.00  0.00     0.001 A 
ATOM    105  C   UNL A   1      36.647  21.454  25.079  1.00  0.00     0.002 A 
ENDBRANCH  95  96
ENDBRANCH  83  95
ENDBRANCH  80  83
ENDBRANCH  78  79
BRANCH  78 106
ATOM    106  C   UNL A   1      34.553  28.805  27.065  1.00  0.00     0.191 C 
BRANCH 106 107
ATOM    107  O   UNL A   1      35.916  29.643  27.161  1.00  0.00    -0.394 OA
ATOM    108  H   UNL A   1      35.717  30.553  27.435  1.00  0.00     0.210 HD
ENDBRANCH 106 107
ENDBRANCH  78 106
ENDBRANCH  75  78
ENDBRANCH  73  74
ENDBRANCH   1  73
TORSDOF 22
ENDMDL
