MODEL 1
REMARK VINA RESULT:     -12.5      0.000      0.000
REMARK SMILES Cc1cc(=O)n(CC(=O)NCCCCNC(=O)c2ccc(-c3c4nc(c(-c5cccc(S(=O)(=O)[O-])c5F)c5ccc([nH]5)c(-c5cccc(S(=O)(=O)[O-])c5F)c5nc(c(-c6cccc(S(=O)(=O)[O-])c6F)c6ccc3[nH]6)C=C5)C=C4)cc2)c(N2CCC(C)CC2)n1
REMARK SMILES IDX 13 1 12 2 11 3 10 4 8 5 9 6 7 8 6 9 1 10 2 11 3 12 89 13
REMARK SMILES IDX 4 14 81 15 5 16 82 17 83 18 88 19 84 20 87 21 85 22 86 23
REMARK SMILES IDX 14 24 15 25 16 26 17 28 18 29 19 30 80 31 20 32 79 33 21 34
REMARK SMILES IDX 22 35 23 36 73 37 24 38 78 39 72 40 74 41 25 42 77 43 71 44
REMARK SMILES IDX 70 45 26 47 58 48 38 49 57 50 39 51 42 52 56 53 75 54 40 55
REMARK SMILES IDX 41 56 55 58 76 59 43 60 27 61 28 62 36 63 29 64 31 65 37 66
REMARK SMILES IDX 30 67 32 68 33 69 34 70 35 71 59 72 60 73 68 74 61 75 63 76
REMARK SMILES IDX 69 77 62 78 64 79 65 80 66 81 67 82 44 83 45 84 53 85 46 86
REMARK SMILES IDX 48 87 54 88 47 89 49 90 50 91 51 92 52 93
REMARK H PARENT 10 7 15 27 74 46 42 57
REMARK Flexibility Score: inf
ROOT
ATOM      1  C   UNL A   1      31.403  29.426  26.853  1.00  0.00     0.023 C 
ENDROOT
BRANCH   1   2
ATOM      2  C   UNL A   1      31.945  28.145  27.484  1.00  0.00     0.023 C 
BRANCH   2   3
ATOM      3  C   UNL A   1      32.191  27.009  26.497  1.00  0.00     0.116 C 
BRANCH   3   4
ATOM      4  N   UNL A   1      31.403  25.834  26.785  1.00  0.00    -0.355 N 
ATOM      5  C   UNL A   1      31.752  24.521  26.636  1.00  0.00     0.240 C 
ATOM      6  O   UNL A   1      31.080  23.688  27.251  1.00  0.00    -0.273 OA
ATOM      7  H   UNL A   1      30.498  25.999  27.134  1.00  0.00     0.163 HD
BRANCH   5   8
ATOM      8  C   UNL A   1      33.040  24.107  25.904  1.00  0.00     0.229 C 
BRANCH   8   9
ATOM      9  N   UNL A   1      32.999  22.782  25.285  1.00  0.00    -0.269 N 
ATOM     10  C   UNL A   1      32.527  18.872  23.818  1.00  0.00     0.067 C 
ATOM     11  C   UNL A   1      32.769  20.246  24.374  1.00  0.00     0.047 A 
ATOM     12  C   UNL A   1      33.386  20.411  25.545  1.00  0.00     0.095 A 
ATOM     13  N   UNL A   1      32.338  21.285  23.595  1.00  0.00    -0.220 NA
ATOM     14  C   UNL A   1      33.571  21.774  26.043  1.00  0.00     0.255 A 
ATOM     15  C   UNL A   1      32.471  22.509  24.027  1.00  0.00     0.209 A 
ATOM     16  O   UNL A   1      34.196  21.945  27.086  1.00  0.00    -0.269 OA
BRANCH  15  17
ATOM     17  N   UNL A   1      32.048  23.531  23.193  1.00  0.00    -0.342 N 
ATOM     18  C   UNL A   1      33.033  24.374  22.504  1.00  0.00     0.120 C 
ATOM     19  C   UNL A   1      30.654  23.970  23.130  1.00  0.00     0.120 C 
ATOM     20  C   UNL A   1      32.884  25.846  22.862  1.00  0.00     0.025 C 
ATOM     21  C   UNL A   1      30.514  25.448  23.495  1.00  0.00     0.025 C 
ATOM     22  C   UNL A   1      31.444  26.310  22.636  1.00  0.00    -0.011 C 
ATOM     23  C   UNL A   1      31.286  27.794  22.950  1.00  0.00     0.008 C 
ENDBRANCH  15  17
ENDBRANCH   8   9
ENDBRANCH   5   8
ENDBRANCH   3   4
ENDBRANCH   2   3
ENDBRANCH   1   2
BRANCH   1  24
ATOM     24  C   UNL A   1      32.460  30.399  26.345  1.00  0.00     0.116 C 
BRANCH  24  25
ATOM     25  N   UNL A   1      32.245  31.778  26.762  1.00  0.00    -0.352 N 
ATOM     26  C   UNL A   1      33.100  32.576  27.490  1.00  0.00     0.251 C 
ATOM     27  H   UNL A   1      31.390  32.186  26.494  1.00  0.00     0.163 HD
ATOM     28  O   UNL A   1      32.766  33.704  27.834  1.00  0.00    -0.269 OA
BRANCH  26  29
ATOM     29  C   UNL A   1      34.407  32.015  27.888  1.00  0.00     0.039 A 
ATOM     30  C   UNL A   1      34.507  30.668  28.244  1.00  0.00     0.014 A 
ATOM     31  C   UNL A   1      35.503  32.871  28.022  1.00  0.00     0.014 A 
ATOM     32  C   UNL A   1      35.655  30.215  28.884  1.00  0.00     0.010 A 
ATOM     33  C   UNL A   1      36.679  32.394  28.602  1.00  0.00     0.010 A 
ATOM     34  C   UNL A   1      36.746  31.077  29.085  1.00  0.00    -0.014 A 
BRANCH  34  35
ATOM     35  C   UNL A   1      37.948  30.584  29.804  1.00  0.00     0.031 A 
ATOM     36  C   UNL A   1      38.198  30.959  31.242  1.00  0.00     0.074 A 
ATOM     37  C   UNL A   1      38.801  29.761  29.163  1.00  0.00     0.049 A 
ATOM     38  N   UNL A   1      39.198  30.621  32.014  1.00  0.00    -0.248 NA
ATOM     39  C   UNL A   1      37.202  31.821  31.900  1.00  0.00     0.031 C 
ATOM     40  C   UNL A   1      38.664  29.326  27.771  1.00  0.00     0.029 A 
ATOM     41  N   UNL A   1      39.939  29.132  29.597  1.00  0.00    -0.354 N 
ATOM     42  C   UNL A   1      38.981  31.263  33.227  1.00  0.00     0.074 A 
ATOM     43  C   UNL A   1      37.746  32.004  33.098  1.00  0.00     0.031 C 
ATOM     44  C   UNL A   1      39.651  28.466  27.480  1.00  0.00     0.029 A 
ATOM     45  C   UNL A   1      40.520  28.329  28.645  1.00  0.00     0.049 A 
ATOM     46  H   UNL A   1      40.306  29.245  30.504  1.00  0.00     0.167 HD
ATOM     47  C   UNL A   1      39.737  31.226  34.349  1.00  0.00     0.034 A 
ATOM     48  C   UNL A   1      41.629  27.567  28.698  1.00  0.00     0.034 A 
ATOM     49  C   UNL A   1      40.930  30.437  34.498  1.00  0.00     0.049 A 
ATOM     50  C   UNL A   1      42.431  27.528  29.965  1.00  0.00     0.074 A 
ATOM     51  C   UNL A   1      41.744  30.319  35.612  1.00  0.00     0.029 A 
ATOM     52  N   UNL A   1      41.471  29.624  33.517  1.00  0.00    -0.354 N 
ATOM     53  N   UNL A   1      42.180  28.106  31.114  1.00  0.00    -0.248 NA
ATOM     54  C   UNL A   1      43.662  26.724  29.950  1.00  0.00     0.031 C 
ATOM     55  C   UNL A   1      42.776  29.426  35.306  1.00  0.00     0.029 A 
ATOM     56  C   UNL A   1      42.602  28.991  34.002  1.00  0.00     0.049 A 
ATOM     57  H   UNL A   1      41.106  29.513  32.610  1.00  0.00     0.167 HD
ATOM     58  C   UNL A   1      43.209  27.721  31.964  1.00  0.00     0.074 A 
ATOM     59  C   UNL A   1      44.079  26.849  31.204  1.00  0.00     0.031 C 
ATOM     60  C   UNL A   1      43.422  28.078  33.252  1.00  0.00     0.034 A 
BRANCH  47  61
ATOM     61  C   UNL A   1      39.286  32.015  35.546  1.00  0.00     0.023 A 
ATOM     62  C   UNL A   1      39.494  33.408  35.567  1.00  0.00     0.012 A 
ATOM     63  C   UNL A   1      38.534  31.408  36.571  1.00  0.00     0.148 A 
ATOM     64  C   UNL A   1      38.957  34.188  36.590  1.00  0.00     0.002 A 
ATOM     65  C   UNL A   1      37.981  32.195  37.574  1.00  0.00     0.091 A 
ATOM     66  F   UNL A   1      38.357  30.079  36.529  1.00  0.00    -0.205 F 
ATOM     67  C   UNL A   1      38.193  33.584  37.586  1.00  0.00     0.022 A 
BRANCH  65  68
ATOM     68  S   UNL A   1      36.935  31.528  38.874  1.00  0.00     0.127 S 
ATOM     69  O   UNL A   1      36.727  30.156  38.411  1.00  0.00    -0.237 OA
ATOM     70  O   UNL A   1      37.793  31.652  40.051  1.00  0.00    -0.237 OA
ATOM     71  O   UNL A   1      35.737  32.357  38.895  1.00  0.00    -0.744 OA
ENDBRANCH  65  68
ENDBRANCH  47  61
BRANCH  48  72
ATOM     72  C   UNL A   1      41.995  26.727  27.528  1.00  0.00     0.023 A 
ATOM     73  C   UNL A   1      42.713  27.311  26.467  1.00  0.00     0.012 A 
ATOM     74  C   UNL A   1      41.706  25.350  27.492  1.00  0.00     0.148 A 
ATOM     75  C   UNL A   1      43.133  26.537  25.386  1.00  0.00     0.002 A 
ATOM     76  C   UNL A   1      42.168  24.576  26.434  1.00  0.00     0.091 A 
ATOM     77  F   UNL A   1      41.006  24.821  28.506  1.00  0.00    -0.205 F 
ATOM     78  C   UNL A   1      42.873  25.169  25.376  1.00  0.00     0.022 A 
BRANCH  76  79
ATOM     79  S   UNL A   1      41.987  22.789  26.405  1.00  0.00     0.127 S 
ATOM     80  O   UNL A   1      40.535  22.636  26.398  1.00  0.00    -0.237 OA
ATOM     81  O   UNL A   1      42.651  22.436  25.151  1.00  0.00    -0.237 OA
ATOM     82  O   UNL A   1      42.672  22.309  27.599  1.00  0.00    -0.744 OA
ENDBRANCH  76  79
ENDBRANCH  48  72
BRANCH  60  83
ATOM     83  C   UNL A   1      44.629  27.515  33.945  1.00  0.00     0.023 A 
ATOM     84  C   UNL A   1      45.827  28.253  33.948  1.00  0.00     0.012 A 
ATOM     85  C   UNL A   1      44.544  26.317  34.679  1.00  0.00     0.148 A 
ATOM     86  C   UNL A   1      46.931  27.802  34.668  1.00  0.00     0.002 A 
ATOM     87  C   UNL A   1      45.640  25.888  35.419  1.00  0.00     0.091 A 
ATOM     88  F   UNL A   1      43.395  25.625  34.645  1.00  0.00    -0.205 F 
ATOM     89  C   UNL A   1      46.834  26.627  35.411  1.00  0.00     0.022 A 
BRANCH  87  90
ATOM     90  S   UNL A   1      45.582  24.427  36.461  1.00  0.00     0.127 S 
ATOM     91  O   UNL A   1      45.484  23.358  35.469  1.00  0.00    -0.237 OA
ATOM     92  O   UNL A   1      46.865  24.493  37.163  1.00  0.00    -0.237 OA
ATOM     93  O   UNL A   1      44.416  24.592  37.319  1.00  0.00    -0.744 OA
ENDBRANCH  87  90
ENDBRANCH  60  83
ENDBRANCH  34  35
ENDBRANCH  26  29
ENDBRANCH  24  25
ENDBRANCH   1  24
TORSDOF 16
ENDMDL
MODEL 2
REMARK VINA RESULT:     -12.4      1.317      1.478
REMARK SMILES Cc1cc(=O)n(CC(=O)NCCCCNC(=O)c2ccc(-c3c4nc(c(-c5cccc(S(=O)(=O)[O-])c5F)c5ccc([nH]5)c(-c5cccc(S(=O)(=O)[O-])c5F)c5nc(c(-c6cccc(S(=O)(=O)[O-])c6F)c6ccc3[nH]6)C=C5)C=C4)cc2)c(N2CCC(C)CC2)n1
REMARK SMILES IDX 13 1 12 2 11 3 10 4 8 5 9 6 7 8 6 9 1 10 2 11 3 12 89 13
REMARK SMILES IDX 4 14 81 15 5 16 82 17 83 18 88 19 84 20 87 21 85 22 86 23
REMARK SMILES IDX 14 24 15 25 16 26 17 28 18 29 19 30 80 31 20 32 79 33 21 34
REMARK SMILES IDX 22 35 23 36 73 37 24 38 78 39 72 40 74 41 25 42 77 43 71 44
REMARK SMILES IDX 70 45 26 47 58 48 38 49 57 50 39 51 42 52 56 53 75 54 40 55
REMARK SMILES IDX 41 56 55 58 76 59 43 60 27 61 28 62 36 63 29 64 31 65 37 66
REMARK SMILES IDX 30 67 32 68 33 69 34 70 35 71 59 72 60 73 68 74 61 75 63 76
REMARK SMILES IDX 69 77 62 78 64 79 65 80 66 81 67 82 44 83 45 84 53 85 46 86
REMARK SMILES IDX 48 87 54 88 47 89 49 90 50 91 51 92 52 93
REMARK H PARENT 10 7 15 27 74 46 42 57
REMARK Flexibility Score: inf
ROOT
ATOM      1  C   UNL A   1      31.405  29.101  26.487  1.00  0.00     0.023 C 
ENDROOT
BRANCH   1   2
ATOM      2  C   UNL A   1      31.867  27.859  27.247  1.00  0.00     0.023 C 
BRANCH   2   3
ATOM      3  C   UNL A   1      32.155  26.649  26.366  1.00  0.00     0.116 C 
BRANCH   3   4
ATOM      4  N   UNL A   1      31.434  25.468  26.779  1.00  0.00    -0.355 N 
ATOM      5  C   UNL A   1      31.826  24.162  26.696  1.00  0.00     0.240 C 
ATOM      6  O   UNL A   1      31.226  23.349  27.406  1.00  0.00    -0.273 OA
ATOM      7  H   UNL A   1      30.545  25.624  27.172  1.00  0.00     0.163 HD
BRANCH   5   8
ATOM      8  C   UNL A   1      33.084  23.746  25.916  1.00  0.00     0.229 C 
BRANCH   8   9
ATOM      9  N   UNL A   1      33.028  22.410  25.322  1.00  0.00    -0.269 N 
ATOM     10  C   UNL A   1      32.509  18.480  23.927  1.00  0.00     0.067 C 
ATOM     11  C   UNL A   1      32.767  19.860  24.458  1.00  0.00     0.047 A 
ATOM     12  C   UNL A   1      33.383  20.039  25.628  1.00  0.00     0.095 A 
ATOM     13  N   UNL A   1      32.353  20.890  23.658  1.00  0.00    -0.220 NA
ATOM     14  C   UNL A   1      33.585  21.409  26.100  1.00  0.00     0.255 A 
ATOM     15  C   UNL A   1      32.501  22.120  24.067  1.00  0.00     0.209 A 
ATOM     16  O   UNL A   1      34.208  21.591  27.143  1.00  0.00    -0.269 OA
BRANCH  15  17
ATOM     17  N   UNL A   1      32.094  23.132  23.213  1.00  0.00    -0.342 N 
ATOM     18  C   UNL A   1      33.092  23.933  22.493  1.00  0.00     0.120 C 
ATOM     19  C   UNL A   1      30.711  23.605  23.154  1.00  0.00     0.120 C 
ATOM     20  C   UNL A   1      32.984  25.417  22.816  1.00  0.00     0.025 C 
ATOM     21  C   UNL A   1      30.611  25.094  23.484  1.00  0.00     0.025 C 
ATOM     22  C   UNL A   1      31.553  25.911  22.594  1.00  0.00    -0.011 C 
ATOM     23  C   UNL A   1      31.436  27.405  22.872  1.00  0.00     0.008 C 
ENDBRANCH  15  17
ENDBRANCH   8   9
ENDBRANCH   5   8
ENDBRANCH   3   4
ENDBRANCH   2   3
ENDBRANCH   1   2
BRANCH   1  24
ATOM     24  C   UNL A   1      32.506  30.090  26.125  1.00  0.00     0.116 C 
BRANCH  24  25
ATOM     25  N   UNL A   1      32.228  31.461  26.533  1.00  0.00    -0.352 N 
ATOM     26  C   UNL A   1      33.030  32.290  27.287  1.00  0.00     0.251 C 
ATOM     27  H   UNL A   1      31.369  31.837  26.237  1.00  0.00     0.163 HD
ATOM     28  O   UNL A   1      32.645  33.405  27.618  1.00  0.00    -0.269 OA
BRANCH  26  29
ATOM     29  C   UNL A   1      34.343  31.777  27.727  1.00  0.00     0.039 A 
ATOM     30  C   UNL A   1      34.508  30.413  27.983  1.00  0.00     0.014 A 
ATOM     31  C   UNL A   1      35.371  32.682  28.001  1.00  0.00     0.014 A 
ATOM     32  C   UNL A   1      35.640  29.978  28.662  1.00  0.00     0.010 A 
ATOM     33  C   UNL A   1      36.537  32.230  28.621  1.00  0.00     0.010 A 
ATOM     34  C   UNL A   1      36.658  30.884  29.004  1.00  0.00    -0.014 A 
BRANCH  34  35
ATOM     35  C   UNL A   1      37.842  30.406  29.762  1.00  0.00     0.031 A 
ATOM     36  C   UNL A   1      38.065  30.823  31.192  1.00  0.00     0.074 A 
ATOM     37  C   UNL A   1      38.702  29.559  29.164  1.00  0.00     0.049 A 
ATOM     38  N   UNL A   1      39.047  30.503  31.995  1.00  0.00    -0.248 NA
ATOM     39  C   UNL A   1      37.062  31.711  31.804  1.00  0.00     0.031 C 
ATOM     40  C   UNL A   1      38.591  29.082  27.783  1.00  0.00     0.029 A 
ATOM     41  N   UNL A   1      39.827  28.936  29.641  1.00  0.00    -0.354 N 
ATOM     42  C   UNL A   1      38.809  31.183  33.183  1.00  0.00     0.074 A 
ATOM     43  C   UNL A   1      37.582  31.927  33.007  1.00  0.00     0.031 C 
ATOM     44  C   UNL A   1      39.578  28.208  27.540  1.00  0.00     0.029 A 
ATOM     45  C   UNL A   1      40.421  28.101  28.726  1.00  0.00     0.049 A 
ATOM     46  H   UNL A   1      40.176  29.075  30.551  1.00  0.00     0.167 HD
ATOM     47  C   UNL A   1      39.542  31.175  34.321  1.00  0.00     0.034 A 
ATOM     48  C   UNL A   1      41.524  27.335  28.825  1.00  0.00     0.034 A 
ATOM     49  C   UNL A   1      40.727  30.385  34.518  1.00  0.00     0.049 A 
ATOM     50  C   UNL A   1      42.300  27.329  30.108  1.00  0.00     0.074 A 
ATOM     51  C   UNL A   1      41.517  30.296  35.652  1.00  0.00     0.029 A 
ATOM     52  N   UNL A   1      41.282  29.539  33.574  1.00  0.00    -0.354 N 
ATOM     53  N   UNL A   1      42.029  27.944  31.233  1.00  0.00    -0.248 NA
ATOM     54  C   UNL A   1      43.526  26.518  30.143  1.00  0.00     0.031 C 
ATOM     55  C   UNL A   1      42.548  29.388  35.395  1.00  0.00     0.029 A 
ATOM     56  C   UNL A   1      42.399  28.914  34.102  1.00  0.00     0.049 A 
ATOM     57  H   UNL A   1      40.935  29.402  32.664  1.00  0.00     0.167 HD
ATOM     58  C   UNL A   1      43.038  27.578  32.116  1.00  0.00     0.074 A 
ATOM     59  C   UNL A   1      43.918  26.678  31.401  1.00  0.00     0.031 C 
ATOM     60  C   UNL A   1      43.227  27.974  33.397  1.00  0.00     0.034 A 
BRANCH  47  61
ATOM     61  C   UNL A   1      39.072  32.004  35.484  1.00  0.00     0.023 A 
ATOM     62  C   UNL A   1      38.212  31.424  36.436  1.00  0.00     0.012 A 
ATOM     63  C   UNL A   1      39.591  33.294  35.709  1.00  0.00     0.148 A 
ATOM     64  C   UNL A   1      37.877  32.116  37.600  1.00  0.00     0.002 A 
ATOM     65  C   UNL A   1      39.273  33.967  36.882  1.00  0.00     0.091 A 
ATOM     66  F   UNL A   1      40.403  33.824  34.782  1.00  0.00    -0.205 F 
ATOM     67  C   UNL A   1      38.415  33.380  37.828  1.00  0.00     0.022 A 
BRANCH  65  68
ATOM     68  S   UNL A   1      39.955  35.576  37.302  1.00  0.00     0.127 S 
ATOM     69  O   UNL A   1      39.235  35.888  38.537  1.00  0.00    -0.237 OA
ATOM     70  O   UNL A   1      41.373  35.270  37.481  1.00  0.00    -0.237 OA
ATOM     71  O   UNL A   1      39.650  36.450  36.177  1.00  0.00    -0.744 OA
ENDBRANCH  65  68
ENDBRANCH  47  61
BRANCH  48  72
ATOM     72  C   UNL A   1      41.908  26.457  27.688  1.00  0.00     0.023 A 
ATOM     73  C   UNL A   1      42.746  26.972  26.681  1.00  0.00     0.012 A 
ATOM     74  C   UNL A   1      41.516  25.106  27.637  1.00  0.00     0.148 A 
ATOM     75  C   UNL A   1      43.183  26.158  25.637  1.00  0.00     0.002 A 
ATOM     76  C   UNL A   1      41.992  24.288  26.619  1.00  0.00     0.091 A 
ATOM     77  F   UNL A   1      40.703  24.644  28.598  1.00  0.00    -0.205 F 
ATOM     78  C   UNL A   1      42.817  24.813  25.614  1.00  0.00     0.022 A 
BRANCH  76  79
ATOM     79  S   UNL A   1      41.674  22.520  26.585  1.00  0.00     0.127 S 
ATOM     80  O   UNL A   1      40.218  22.481  26.495  1.00  0.00    -0.237 OA
ATOM     81  O   UNL A   1      42.379  22.108  25.370  1.00  0.00    -0.237 OA
ATOM     82  O   UNL A   1      42.251  21.997  27.816  1.00  0.00    -0.744 OA
ENDBRANCH  76  79
ENDBRANCH  48  72
BRANCH  60  83
ATOM     83  C   UNL A   1      44.416  27.425  34.131  1.00  0.00     0.023 A 
ATOM     84  C   UNL A   1      45.619  28.155  34.136  1.00  0.00     0.012 A 
ATOM     85  C   UNL A   1      44.309  26.251  34.900  1.00  0.00     0.148 A 
ATOM     86  C   UNL A   1      46.705  27.720  34.892  1.00  0.00     0.002 A 
ATOM     87  C   UNL A   1      45.386  25.838  35.675  1.00  0.00     0.091 A 
ATOM     88  F   UNL A   1      43.156  25.565  34.863  1.00  0.00    -0.205 F 
ATOM     89  C   UNL A   1      46.585  26.569  35.669  1.00  0.00     0.022 A 
BRANCH  87  90
ATOM     90  S   UNL A   1      45.297  24.410  36.760  1.00  0.00     0.127 S 
ATOM     91  O   UNL A   1      44.640  23.425  35.902  1.00  0.00    -0.237 OA
ATOM     92  O   UNL A   1      46.709  24.136  37.032  1.00  0.00    -0.237 OA
ATOM     93  O   UNL A   1      44.531  24.837  37.923  1.00  0.00    -0.744 OA
ENDBRANCH  87  90
ENDBRANCH  60  83
ENDBRANCH  34  35
ENDBRANCH  26  29
ENDBRANCH  24  25
ENDBRANCH   1  24
TORSDOF 16
ENDMDL
MODEL 3
REMARK VINA RESULT:     -12.4      1.348      7.615
REMARK SMILES Cc1cc(=O)n(CC(=O)NCCCCNC(=O)c2ccc(-c3c4nc(c(-c5cccc(S(=O)(=O)[O-])c5F)c5ccc([nH]5)c(-c5cccc(S(=O)(=O)[O-])c5F)c5nc(c(-c6cccc(S(=O)(=O)[O-])c6F)c6ccc3[nH]6)C=C5)C=C4)cc2)c(N2CCC(C)CC2)n1
REMARK SMILES IDX 13 1 12 2 11 3 10 4 8 5 9 6 7 8 6 9 1 10 2 11 3 12 89 13
REMARK SMILES IDX 4 14 81 15 5 16 82 17 83 18 88 19 84 20 87 21 85 22 86 23
REMARK SMILES IDX 14 24 15 25 16 26 17 28 18 29 19 30 80 31 20 32 79 33 21 34
REMARK SMILES IDX 22 35 23 36 73 37 24 38 78 39 72 40 74 41 25 42 77 43 71 44
REMARK SMILES IDX 70 45 26 47 58 48 38 49 57 50 39 51 42 52 56 53 75 54 40 55
REMARK SMILES IDX 41 56 55 58 76 59 43 60 27 61 28 62 36 63 29 64 31 65 37 66
REMARK SMILES IDX 30 67 32 68 33 69 34 70 35 71 59 72 60 73 68 74 61 75 63 76
REMARK SMILES IDX 69 77 62 78 64 79 65 80 66 81 67 82 44 83 45 84 53 85 46 86
REMARK SMILES IDX 48 87 54 88 47 89 49 90 50 91 51 92 52 93
REMARK H PARENT 10 7 15 27 74 46 42 57
REMARK Flexibility Score: inf
ROOT
ATOM      1  C   UNL A   1      31.433  29.056  26.173  1.00  0.00     0.023 C 
ENDROOT
BRANCH   1   2
ATOM      2  C   UNL A   1      31.774  27.937  27.157  1.00  0.00     0.023 C 
BRANCH   2   3
ATOM      3  C   UNL A   1      32.287  26.658  26.506  1.00  0.00     0.116 C 
BRANCH   3   4
ATOM      4  N   UNL A   1      31.457  25.511  26.790  1.00  0.00    -0.355 N 
ATOM      5  C   UNL A   1      31.765  24.187  26.655  1.00  0.00     0.240 C 
ATOM      6  O   UNL A   1      31.058  23.380  27.266  1.00  0.00    -0.273 OA
ATOM      7  H   UNL A   1      30.554  25.708  27.126  1.00  0.00     0.163 HD
BRANCH   5   8
ATOM      8  C   UNL A   1      33.049  23.726  25.944  1.00  0.00     0.229 C 
BRANCH   8   9
ATOM      9  N   UNL A   1      32.977  22.393  25.344  1.00  0.00    -0.269 N 
ATOM     10  C   UNL A   1      32.407  18.478  23.925  1.00  0.00     0.067 C 
ATOM     11  C   UNL A   1      32.682  19.852  24.466  1.00  0.00     0.047 A 
ATOM     12  C   UNL A   1      33.281  20.014  25.647  1.00  0.00     0.095 A 
ATOM     13  N   UNL A   1      32.303  20.892  23.663  1.00  0.00    -0.220 NA
ATOM     14  C   UNL A   1      33.500  21.379  26.129  1.00  0.00     0.255 A 
ATOM     15  C   UNL A   1      32.467  22.118  24.079  1.00  0.00     0.209 A 
ATOM     16  O   UNL A   1      34.108  21.545  27.183  1.00  0.00    -0.269 OA
BRANCH  15  17
ATOM     17  N   UNL A   1      32.095  23.140  23.221  1.00  0.00    -0.342 N 
ATOM     18  C   UNL A   1      33.121  23.920  22.518  1.00  0.00     0.120 C 
ATOM     19  C   UNL A   1      30.724  23.644  23.145  1.00  0.00     0.120 C 
ATOM     20  C   UNL A   1      33.042  25.405  22.842  1.00  0.00     0.025 C 
ATOM     21  C   UNL A   1      30.654  25.135  23.476  1.00  0.00     0.025 C 
ATOM     22  C   UNL A   1      31.626  25.932  22.601  1.00  0.00    -0.011 C 
ATOM     23  C   UNL A   1      31.540  27.428  22.881  1.00  0.00     0.008 C 
ENDBRANCH  15  17
ENDBRANCH   8   9
ENDBRANCH   5   8
ENDBRANCH   3   4
ENDBRANCH   2   3
ENDBRANCH   1   2
BRANCH   1  24
ATOM     24  C   UNL A   1      32.540  30.078  25.941  1.00  0.00     0.116 C 
BRANCH  24  25
ATOM     25  N   UNL A   1      32.219  31.417  26.415  1.00  0.00    -0.352 N 
ATOM     26  C   UNL A   1      32.972  32.215  27.248  1.00  0.00     0.251 C 
ATOM     27  H   UNL A   1      31.365  31.795  26.104  1.00  0.00     0.163 HD
ATOM     28  O   UNL A   1      32.551  33.302  27.625  1.00  0.00    -0.269 OA
BRANCH  26  29
ATOM     29  C   UNL A   1      34.276  31.699  27.713  1.00  0.00     0.039 A 
ATOM     30  C   UNL A   1      34.431  30.337  27.980  1.00  0.00     0.014 A 
ATOM     31  C   UNL A   1      35.302  32.604  28.000  1.00  0.00     0.014 A 
ATOM     32  C   UNL A   1      35.550  29.902  28.680  1.00  0.00     0.010 A 
ATOM     33  C   UNL A   1      36.455  32.150  28.643  1.00  0.00     0.010 A 
ATOM     34  C   UNL A   1      36.566  30.807  29.034  1.00  0.00    -0.014 A 
BRANCH  34  35
ATOM     35  C   UNL A   1      37.735  30.328  29.815  1.00  0.00     0.031 A 
ATOM     36  C   UNL A   1      38.772  29.435  29.187  1.00  0.00     0.074 A 
ATOM     37  C   UNL A   1      37.877  30.735  31.092  1.00  0.00     0.049 A 
ATOM     38  N   UNL A   1      39.847  28.923  29.728  1.00  0.00    -0.248 NA
ATOM     39  C   UNL A   1      38.584  29.067  27.774  1.00  0.00     0.031 C 
ATOM     40  C   UNL A   1      36.939  31.602  31.809  1.00  0.00     0.029 A 
ATOM     41  N   UNL A   1      38.868  30.490  32.007  1.00  0.00    -0.354 N 
ATOM     42  C   UNL A   1      40.436  28.139  28.744  1.00  0.00     0.074 A 
ATOM     43  C   UNL A   1      39.608  28.248  27.564  1.00  0.00     0.031 C 
ATOM     44  C   UNL A   1      37.421  31.852  33.034  1.00  0.00     0.029 A 
ATOM     45  C   UNL A   1      38.674  31.125  33.210  1.00  0.00     0.049 A 
ATOM     46  H   UNL A   1      39.644  29.913  31.820  1.00  0.00     0.167 HD
ATOM     47  C   UNL A   1      41.572  27.406  28.816  1.00  0.00     0.034 A 
ATOM     48  C   UNL A   1      39.417  31.123  34.332  1.00  0.00     0.034 A 
ATOM     49  C   UNL A   1      42.430  27.350  29.969  1.00  0.00     0.049 A 
ATOM     50  C   UNL A   1      40.684  30.320  34.372  1.00  0.00     0.074 A 
ATOM     51  C   UNL A   1      43.617  26.653  30.119  1.00  0.00     0.029 A 
ATOM     52  N   UNL A   1      42.207  28.023  31.157  1.00  0.00    -0.354 N 
ATOM     53  N   UNL A   1      41.244  29.625  33.413  1.00  0.00    -0.248 NA
ATOM     54  C   UNL A   1      41.427  30.310  35.640  1.00  0.00     0.031 C 
ATOM     55  C   UNL A   1      44.117  26.911  31.398  1.00  0.00     0.029 A 
ATOM     56  C   UNL A   1      43.239  27.768  32.043  1.00  0.00     0.049 A 
ATOM     57  H   UNL A   1      41.430  28.597  31.344  1.00  0.00     0.167 HD
ATOM     58  C   UNL A   1      42.416  29.110  33.955  1.00  0.00     0.074 A 
ATOM     59  C   UNL A   1      42.493  29.585  35.321  1.00  0.00     0.031 C 
ATOM     60  C   UNL A   1      43.331  28.298  33.376  1.00  0.00     0.034 A 
BRANCH  47  61
ATOM     61  C   UNL A   1      42.007  26.634  27.602  1.00  0.00     0.023 A 
ATOM     62  C   UNL A   1      42.815  27.268  26.639  1.00  0.00     0.012 A 
ATOM     63  C   UNL A   1      41.740  25.255  27.489  1.00  0.00     0.148 A 
ATOM     64  C   UNL A   1      43.356  26.539  25.580  1.00  0.00     0.002 A 
ATOM     65  C   UNL A   1      42.303  24.531  26.445  1.00  0.00     0.091 A 
ATOM     66  F   UNL A   1      40.962  24.678  28.418  1.00  0.00    -0.205 F 
ATOM     67  C   UNL A   1      43.109  25.171  25.489  1.00  0.00     0.022 A 
BRANCH  65  68
ATOM     68  S   UNL A   1      42.095  22.755  26.264  1.00  0.00     0.127 S 
ATOM     69  O   UNL A   1      40.639  22.632  26.206  1.00  0.00    -0.237 OA
ATOM     70  O   UNL A   1      42.782  22.494  25.000  1.00  0.00    -0.237 OA
ATOM     71  O   UNL A   1      42.715  22.153  27.437  1.00  0.00    -0.744 OA
ENDBRANCH  65  68
ENDBRANCH  47  61
BRANCH  48  72
ATOM     72  C   UNL A   1      39.007  31.971  35.482  1.00  0.00     0.023 A 
ATOM     73  C   UNL A   1      38.169  31.422  36.471  1.00  0.00     0.012 A 
ATOM     74  C   UNL A   1      39.497  33.282  35.641  1.00  0.00     0.148 A 
ATOM     75  C   UNL A   1      37.820  32.165  37.597  1.00  0.00     0.002 A 
ATOM     76  C   UNL A   1      39.183  34.000  36.789  1.00  0.00     0.091 A 
ATOM     77  F   UNL A   1      40.278  33.789  34.678  1.00  0.00    -0.205 F 
ATOM     78  C   UNL A   1      38.337  33.448  37.763  1.00  0.00     0.022 A 
BRANCH  76  79
ATOM     79  S   UNL A   1      39.907  35.606  37.141  1.00  0.00     0.127 S 
ATOM     80  O   UNL A   1      39.211  35.985  38.367  1.00  0.00    -0.237 OA
ATOM     81  O   UNL A   1      41.321  35.271  37.312  1.00  0.00    -0.237 OA
ATOM     82  O   UNL A   1      39.626  36.425  35.969  1.00  0.00    -0.744 OA
ENDBRANCH  76  79
ENDBRANCH  48  72
BRANCH  60  83
ATOM     83  C   UNL A   1      44.517  27.881  34.198  1.00  0.00     0.023 A 
ATOM     84  C   UNL A   1      45.674  28.682  34.191  1.00  0.00     0.012 A 
ATOM     85  C   UNL A   1      44.444  26.765  35.052  1.00  0.00     0.148 A 
ATOM     86  C   UNL A   1      46.750  28.373  35.021  1.00  0.00     0.002 A 
ATOM     87  C   UNL A   1      45.509  26.480  35.899  1.00  0.00     0.091 A 
ATOM     88  F   UNL A   1      43.336  26.010  35.026  1.00  0.00    -0.205 F 
ATOM     89  C   UNL A   1      46.663  27.280  35.881  1.00  0.00     0.022 A 
BRANCH  87  90
ATOM     90  S   UNL A   1      45.456  25.137  37.090  1.00  0.00     0.127 S 
ATOM     91  O   UNL A   1      44.296  25.504  37.900  1.00  0.00    -0.237 OA
ATOM     92  O   UNL A   1      45.257  23.967  36.232  1.00  0.00    -0.237 OA
ATOM     93  O   UNL A   1      46.737  25.165  37.783  1.00  0.00    -0.744 OA
ENDBRANCH  87  90
ENDBRANCH  60  83
ENDBRANCH  34  35
ENDBRANCH  26  29
ENDBRANCH  24  25
ENDBRANCH   1  24
TORSDOF 16
ENDMDL
