MODEL 1
REMARK VINA RESULT:     -10.6      0.000      0.000
REMARK SMILES C[C@H]([NH2+]Cc1ccccc1F)C(=O)NCCCCNC(=O)c1ccc(-c2c3nc(c(-c4cccc(S(=O)(=O)[O-])c4F)c4ccc([nH]4)c(-c4cccc(S(=O)(=O)[O-])c4F)c4nc(c(-c5cccc(S(=O)(=O)[O-])c5F)c5ccc2[nH]5)C=C4)C=C3)cc1
REMARK SMILES IDX 16 1 15 2 14 3 12 4 13 5 2 7 1 8 3 9 4 12 5 13 6 14 10 15
REMARK SMILES IDX 7 16 9 17 11 18 8 19 17 20 18 21 19 22 20 23 21 25 22 26
REMARK SMILES IDX 23 27 84 28 24 29 83 30 25 31 26 32 27 33 77 34 28 35 82 36
REMARK SMILES IDX 76 37 78 38 29 39 81 40 75 41 74 42 30 44 62 45 42 46 61 47
REMARK SMILES IDX 43 48 46 49 60 50 79 51 44 52 45 53 59 55 80 56 47 57 31 58
REMARK SMILES IDX 32 59 40 60 33 61 35 62 41 63 34 64 36 65 37 66 38 67 39 68
REMARK SMILES IDX 63 69 64 70 72 71 65 72 67 73 73 74 66 75 68 76 69 77 70 78
REMARK SMILES IDX 71 79 48 80 49 81 57 82 50 83 52 84 58 85 51 86 53 87 54 88
REMARK SMILES IDX 55 89 56 90
REMARK H PARENT 14 6 3 10 3 11 19 24 78 43 46 54
REMARK Flexibility Score: inf
ROOT
ATOM      1  C   UNL A   1      31.754  27.792  26.878  1.00  0.00     0.023 C 
ENDROOT
BRANCH   1   2
ATOM      2  C   UNL A   1      31.336  26.694  25.903  1.00  0.00     0.116 C 
BRANCH   2   3
ATOM      3  N   UNL A   1      30.637  25.613  26.569  1.00  0.00    -0.351 N 
ATOM      4  C   UNL A   1      30.824  24.262  26.529  1.00  0.00     0.277 C 
ATOM      5  O   UNL A   1      30.082  23.567  27.231  1.00  0.00    -0.268 OA
ATOM      6  H   UNL A   1      29.898  25.904  27.150  1.00  0.00     0.163 HD
BRANCH   4   7
ATOM      7  C   UNL A   1      31.962  23.613  25.713  1.00  0.00     0.269 C 
ATOM      8  C   UNL A   1      31.417  22.988  24.428  1.00  0.00     0.086 C 
BRANCH   7   9
ATOM      9  N   UNL A   1      32.764  22.715  26.561  1.00  0.00    -0.332 N 
ATOM     10  H   UNL A   1      32.879  21.828  26.071  1.00  0.00     0.347 HD
ATOM     11  H   UNL A   1      32.262  22.614  27.442  1.00  0.00     0.347 HD
BRANCH   9  12
ATOM     12  C   UNL A   1      34.085  23.234  26.887  1.00  0.00     0.301 C 
BRANCH  12  13
ATOM     13  C   UNL A   1      35.109  22.790  25.872  1.00  0.00     0.042 A 
ATOM     14  C   UNL A   1      35.670  21.504  25.928  1.00  0.00     0.012 A 
ATOM     15  C   UNL A   1      35.524  23.652  24.851  1.00  0.00     0.132 A 
ATOM     16  C   UNL A   1      36.621  21.103  24.984  1.00  0.00     0.001 A 
ATOM     17  C   UNL A   1      36.481  23.262  23.918  1.00  0.00     0.040 A 
ATOM     18  F   UNL A   1      34.994  24.878  24.746  1.00  0.00    -0.206 F 
ATOM     19  C   UNL A   1      37.030  21.983  23.983  1.00  0.00     0.003 A 
ENDBRANCH  12  13
ENDBRANCH   9  12
ENDBRANCH   7   9
ENDBRANCH   4   7
ENDBRANCH   2   3
ENDBRANCH   1   2
BRANCH   1  20
ATOM     20  C   UNL A   1      33.265  27.970  27.033  1.00  0.00     0.023 C 
BRANCH  20  21
ATOM     21  C   UNL A   1      33.881  29.104  26.219  1.00  0.00     0.116 C 
BRANCH  21  22
ATOM     22  N   UNL A   1      33.762  30.405  26.861  1.00  0.00    -0.352 N 
ATOM     23  C   UNL A   1      34.592  30.988  27.789  1.00  0.00     0.251 C 
ATOM     24  H   UNL A   1      32.979  30.940  26.597  1.00  0.00     0.163 HD
ATOM     25  O   UNL A   1      34.279  32.054  28.310  1.00  0.00    -0.269 OA
BRANCH  23  26
ATOM     26  C   UNL A   1      35.845  30.306  28.179  1.00  0.00     0.039 A 
ATOM     27  C   UNL A   1      36.954  30.399  27.333  1.00  0.00     0.014 A 
ATOM     28  C   UNL A   1      35.935  29.606  29.385  1.00  0.00     0.014 A 
ATOM     29  C   UNL A   1      38.175  29.847  27.732  1.00  0.00     0.010 A 
ATOM     30  C   UNL A   1      37.167  29.117  29.810  1.00  0.00     0.010 A 
ATOM     31  C   UNL A   1      38.300  29.235  28.990  1.00  0.00    -0.014 A 
BRANCH  31  32
ATOM     32  C   UNL A   1      39.612  28.739  29.480  1.00  0.00     0.031 A 
ATOM     33  C   UNL A   1      40.335  29.464  30.582  1.00  0.00     0.074 A 
ATOM     34  C   UNL A   1      40.195  27.687  28.869  1.00  0.00     0.049 A 
ATOM     35  N   UNL A   1      41.515  29.221  31.089  1.00  0.00    -0.248 NA
ATOM     36  C   UNL A   1      39.657  30.630  31.174  1.00  0.00     0.031 C 
ATOM     37  C   UNL A   1      39.630  26.948  27.738  1.00  0.00     0.029 A 
ATOM     38  N   UNL A   1      41.403  27.074  29.096  1.00  0.00    -0.354 N 
ATOM     39  C   UNL A   1      41.735  30.216  32.033  1.00  0.00     0.074 A 
ATOM     40  C   UNL A   1      40.581  31.087  32.007  1.00  0.00     0.031 C 
ATOM     41  C   UNL A   1      40.485  25.979  27.375  1.00  0.00     0.029 A 
ATOM     42  C   UNL A   1      41.670  26.044  28.224  1.00  0.00     0.049 A 
ATOM     43  H   UNL A   1      42.018  27.346  29.814  1.00  0.00     0.167 HD
ATOM     44  C   UNL A   1      42.790  30.372  32.868  1.00  0.00     0.034 A 
ATOM     45  C   UNL A   1      42.750  25.242  28.115  1.00  0.00     0.034 A 
ATOM     46  C   UNL A   1      43.909  29.473  32.930  1.00  0.00     0.049 A 
ATOM     47  C   UNL A   1      43.887  25.409  29.087  1.00  0.00     0.074 A 
ATOM     48  C   UNL A   1      44.981  29.500  33.803  1.00  0.00     0.029 A 
ATOM     49  N   UNL A   1      44.105  28.389  32.089  1.00  0.00    -0.354 N 
ATOM     50  N   UNL A   1      44.008  26.266  30.073  1.00  0.00    -0.248 NA
ATOM     51  C   UNL A   1      45.019  24.481  28.958  1.00  0.00     0.031 C 
ATOM     52  C   UNL A   1      45.834  28.441  33.482  1.00  0.00     0.029 A 
ATOM     53  C   UNL A   1      45.281  27.741  32.420  1.00  0.00     0.049 A 
ATOM     54  H   UNL A   1      43.495  28.119  31.363  1.00  0.00     0.167 HD
ATOM     55  C   UNL A   1      45.211  25.961  30.699  1.00  0.00     0.074 A 
ATOM     56  C   UNL A   1      45.773  24.828  29.994  1.00  0.00     0.031 C 
ATOM     57  C   UNL A   1      45.803  26.577  31.751  1.00  0.00     0.034 A 
BRANCH  44  58
ATOM     58  C   UNL A   1      42.754  31.518  33.846  1.00  0.00     0.023 A 
ATOM     59  C   UNL A   1      43.239  32.779  33.446  1.00  0.00     0.012 A 
ATOM     60  C   UNL A   1      42.152  31.375  35.111  1.00  0.00     0.148 A 
ATOM     61  C   UNL A   1      43.145  33.878  34.298  1.00  0.00     0.002 A 
ATOM     62  C   UNL A   1      42.023  32.485  35.938  1.00  0.00     0.091 A 
ATOM     63  F   UNL A   1      41.715  30.162  35.479  1.00  0.00    -0.205 F 
ATOM     64  C   UNL A   1      42.526  33.734  35.536  1.00  0.00     0.022 A 
BRANCH  62  65
ATOM     65  S   UNL A   1      41.169  32.428  37.518  1.00  0.00     0.127 S 
ATOM     66  O   UNL A   1      42.049  31.556  38.296  1.00  0.00    -0.237 OA
ATOM     67  O   UNL A   1      41.186  33.832  37.927  1.00  0.00    -0.237 OA
ATOM     68  O   UNL A   1      39.845  31.888  37.241  1.00  0.00    -0.744 OA
ENDBRANCH  62  65
ENDBRANCH  44  58
BRANCH  45  69
ATOM     69  C   UNL A   1      42.762  24.157  27.094  1.00  0.00     0.023 A 
ATOM     70  C   UNL A   1      43.502  24.337  25.909  1.00  0.00     0.012 A 
ATOM     71  C   UNL A   1      42.104  22.931  27.313  1.00  0.00     0.148 A 
ATOM     72  C   UNL A   1      43.569  23.325  24.951  1.00  0.00     0.002 A 
ATOM     73  C   UNL A   1      42.221  21.907  26.381  1.00  0.00     0.091 A 
ATOM     74  F   UNL A   1      41.394  22.785  28.441  1.00  0.00    -0.205 F 
ATOM     75  C   UNL A   1      42.939  22.107  25.192  1.00  0.00     0.022 A 
BRANCH  73  76
ATOM     76  S   UNL A   1      41.564  20.259  26.670  1.00  0.00     0.127 S 
ATOM     77  O   UNL A   1      41.952  19.563  25.447  1.00  0.00    -0.237 OA
ATOM     78  O   UNL A   1      42.296  19.851  27.870  1.00  0.00    -0.237 OA
ATOM     79  O   UNL A   1      40.133  20.438  26.873  1.00  0.00    -0.744 OA
ENDBRANCH  73  76
ENDBRANCH  45  69
BRANCH  57  80
ATOM     80  C   UNL A   1      47.122  26.040  32.240  1.00  0.00     0.023 A 
ATOM     81  C   UNL A   1      47.149  25.153  33.334  1.00  0.00     0.012 A 
ATOM     82  C   UNL A   1      48.313  26.309  31.537  1.00  0.00     0.148 A 
ATOM     83  C   UNL A   1      48.344  24.555  33.732  1.00  0.00     0.002 A 
ATOM     84  C   UNL A   1      49.491  25.674  31.909  1.00  0.00     0.091 A 
ATOM     85  F   UNL A   1      48.267  27.169  30.508  1.00  0.00    -0.205 F 
ATOM     86  C   UNL A   1      49.510  24.803  33.012  1.00  0.00     0.022 A 
BRANCH  84  87
ATOM     87  S   UNL A   1      51.018  25.849  30.978  1.00  0.00     0.127 S 
ATOM     88  O   UNL A   1      51.929  24.992  31.738  1.00  0.00    -0.237 OA
ATOM     89  O   UNL A   1      50.643  25.326  29.665  1.00  0.00    -0.237 OA
ATOM     90  O   UNL A   1      51.340  27.270  30.995  1.00  0.00    -0.744 OA
ENDBRANCH  84  87
ENDBRANCH  57  80
ENDBRANCH  31  32
ENDBRANCH  23  26
ENDBRANCH  21  22
ENDBRANCH  20  21
ENDBRANCH   1  20
TORSDOF 17
ENDMDL
MODEL 2
REMARK VINA RESULT:     -10.5      4.907      8.100
REMARK SMILES C[C@H]([NH2+]Cc1ccccc1F)C(=O)NCCCCNC(=O)c1ccc(-c2c3nc(c(-c4cccc(S(=O)(=O)[O-])c4F)c4ccc([nH]4)c(-c4cccc(S(=O)(=O)[O-])c4F)c4nc(c(-c5cccc(S(=O)(=O)[O-])c5F)c5ccc2[nH]5)C=C4)C=C3)cc1
REMARK SMILES IDX 16 1 15 2 14 3 12 4 13 5 2 7 1 8 3 9 4 12 5 13 6 14 10 15
REMARK SMILES IDX 7 16 9 17 11 18 8 19 17 20 18 21 19 22 20 23 21 25 22 26
REMARK SMILES IDX 23 27 84 28 24 29 83 30 25 31 26 32 27 33 77 34 28 35 82 36
REMARK SMILES IDX 76 37 78 38 29 39 81 40 75 41 74 42 30 44 62 45 42 46 61 47
REMARK SMILES IDX 43 48 46 49 60 50 79 51 44 52 45 53 59 55 80 56 47 57 31 58
REMARK SMILES IDX 32 59 40 60 33 61 35 62 41 63 34 64 36 65 37 66 38 67 39 68
REMARK SMILES IDX 63 69 64 70 72 71 65 72 67 73 73 74 66 75 68 76 69 77 70 78
REMARK SMILES IDX 71 79 48 80 49 81 57 82 50 83 52 84 58 85 51 86 53 87 54 88
REMARK SMILES IDX 55 89 56 90
REMARK H PARENT 14 6 3 10 3 11 19 24 78 43 46 54
REMARK Flexibility Score: inf
ROOT
ATOM      1  C   UNL A   1      36.325  21.521  24.636  1.00  0.00     0.023 C 
ENDROOT
BRANCH   1   2
ATOM      2  C   UNL A   1      36.319  22.646  25.669  1.00  0.00     0.116 C 
BRANCH   2   3
ATOM      3  N   UNL A   1      35.418  22.369  26.770  1.00  0.00    -0.351 N 
ATOM      4  C   UNL A   1      34.099  22.668  26.951  1.00  0.00     0.277 C 
ATOM      5  O   UNL A   1      33.569  22.278  27.996  1.00  0.00    -0.268 OA
ATOM      6  H   UNL A   1      35.831  21.879  27.519  1.00  0.00     0.163 HD
BRANCH   4   7
ATOM      7  C   UNL A   1      33.264  23.389  25.870  1.00  0.00     0.269 C 
ATOM      8  C   UNL A   1      32.744  24.727  26.394  1.00  0.00     0.086 C 
BRANCH   7   9
ATOM      9  N   UNL A   1      32.241  22.486  25.316  1.00  0.00    -0.332 N 
ATOM     10  H   UNL A   1      31.353  22.987  25.286  1.00  0.00     0.347 HD
ATOM     11  H   UNL A   1      32.209  21.667  25.922  1.00  0.00     0.347 HD
BRANCH   9  12
ATOM     12  C   UNL A   1      32.542  22.004  23.975  1.00  0.00     0.301 C 
BRANCH  12  13
ATOM     13  C   UNL A   1      32.599  20.497  23.939  1.00  0.00     0.042 A 
ATOM     14  C   UNL A   1      32.985  19.763  25.070  1.00  0.00     0.012 A 
ATOM     15  C   UNL A   1      32.268  19.797  22.773  1.00  0.00     0.132 A 
ATOM     16  C   UNL A   1      33.039  18.366  25.026  1.00  0.00     0.001 A 
ATOM     17  C   UNL A   1      32.334  18.407  22.720  1.00  0.00     0.040 A 
ATOM     18  F   UNL A   1      31.869  20.458  21.679  1.00  0.00    -0.206 F 
ATOM     19  C   UNL A   1      32.719  17.689  23.850  1.00  0.00     0.003 A 
ENDBRANCH  12  13
ENDBRANCH   9  12
ENDBRANCH   7   9
ENDBRANCH   4   7
ENDBRANCH   2   3
ENDBRANCH   1   2
BRANCH   1  20
ATOM     20  C   UNL A   1      37.290  20.375  24.943  1.00  0.00     0.023 C 
BRANCH  20  21
ATOM     21  C   UNL A   1      38.575  20.772  25.665  1.00  0.00     0.116 C 
BRANCH  21  22
ATOM     22  N   UNL A   1      39.507  19.666  25.833  1.00  0.00    -0.352 N 
ATOM     23  C   UNL A   1      40.842  19.706  26.156  1.00  0.00     0.251 C 
ATOM     24  H   UNL A   1      39.130  18.767  25.693  1.00  0.00     0.163 HD
ATOM     25  O   UNL A   1      41.507  18.674  26.149  1.00  0.00    -0.269 OA
BRANCH  23  26
ATOM     26  C   UNL A   1      41.478  21.001  26.479  1.00  0.00     0.039 A 
ATOM     27  C   UNL A   1      41.923  21.813  25.432  1.00  0.00     0.014 A 
ATOM     28  C   UNL A   1      41.608  21.425  27.804  1.00  0.00     0.014 A 
ATOM     29  C   UNL A   1      42.435  23.083  25.712  1.00  0.00     0.010 A 
ATOM     30  C   UNL A   1      42.054  22.716  28.075  1.00  0.00     0.010 A 
ATOM     31  C   UNL A   1      42.469  23.559  27.033  1.00  0.00    -0.014 A 
BRANCH  31  32
ATOM     32  C   UNL A   1      42.907  24.944  27.343  1.00  0.00     0.031 A 
ATOM     33  C   UNL A   1      41.953  25.916  27.983  1.00  0.00     0.074 A 
ATOM     34  C   UNL A   1      44.135  25.354  26.966  1.00  0.00     0.049 A 
ATOM     35  N   UNL A   1      42.134  27.181  28.262  1.00  0.00    -0.248 NA
ATOM     36  C   UNL A   1      40.614  25.412  28.331  1.00  0.00     0.031 C 
ATOM     37  C   UNL A   1      45.122  24.528  26.268  1.00  0.00     0.029 A 
ATOM     38  N   UNL A   1      44.752  26.575  27.091  1.00  0.00    -0.354 N 
ATOM     39  C   UNL A   1      40.928  27.630  28.786  1.00  0.00     0.074 A 
ATOM     40  C   UNL A   1      40.011  26.512  28.757  1.00  0.00     0.031 C 
ATOM     41  C   UNL A   1      46.222  25.262  26.033  1.00  0.00     0.029 A 
ATOM     42  C   UNL A   1      46.009  26.616  26.535  1.00  0.00     0.049 A 
ATOM     43  H   UNL A   1      44.333  27.346  27.536  1.00  0.00     0.167 HD
ATOM     44  C   UNL A   1      40.622  28.855  29.276  1.00  0.00     0.034 A 
ATOM     45  C   UNL A   1      46.894  27.631  26.436  1.00  0.00     0.034 A 
ATOM     46  C   UNL A   1      41.553  29.947  29.356  1.00  0.00     0.049 A 
ATOM     47  C   UNL A   1      46.544  28.967  27.031  1.00  0.00     0.074 A 
ATOM     48  C   UNL A   1      41.360  31.197  29.916  1.00  0.00     0.029 A 
ATOM     49  N   UNL A   1      42.847  29.925  28.860  1.00  0.00    -0.354 N 
ATOM     50  N   UNL A   1      45.451  29.329  27.657  1.00  0.00    -0.248 NA
ATOM     51  C   UNL A   1      47.560  30.027  26.939  1.00  0.00     0.031 C 
ATOM     52  C   UNL A   1      42.533  31.937  29.749  1.00  0.00     0.029 A 
ATOM     53  C   UNL A   1      43.464  31.139  29.101  1.00  0.00     0.049 A 
ATOM     54  H   UNL A   1      43.266  29.158  28.406  1.00  0.00     0.167 HD
ATOM     55  C   UNL A   1      45.656  30.643  28.060  1.00  0.00     0.074 A 
ATOM     56  C   UNL A   1      46.989  31.009  27.625  1.00  0.00     0.031 C 
ATOM     57  C   UNL A   1      44.811  31.475  28.716  1.00  0.00     0.034 A 
BRANCH  44  58
ATOM     58  C   UNL A   1      39.242  29.065  29.843  1.00  0.00     0.023 A 
ATOM     59  C   UNL A   1      38.962  28.628  31.153  1.00  0.00     0.012 A 
ATOM     60  C   UNL A   1      38.264  29.782  29.128  1.00  0.00     0.148 A 
ATOM     61  C   UNL A   1      37.722  28.880  31.737  1.00  0.00     0.002 A 
ATOM     62  C   UNL A   1      37.045  30.069  29.732  1.00  0.00     0.091 A 
ATOM     63  F   UNL A   1      38.544  30.173  27.877  1.00  0.00    -0.205 F 
ATOM     64  C   UNL A   1      36.770  29.611  31.032  1.00  0.00     0.022 A 
BRANCH  62  65
ATOM     65  S   UNL A   1      35.780  31.073  28.945  1.00  0.00     0.127 S 
ATOM     66  O   UNL A   1      35.054  31.593  30.104  1.00  0.00    -0.237 OA
ATOM     67  O   UNL A   1      36.579  32.068  28.230  1.00  0.00    -0.237 OA
ATOM     68  O   UNL A   1      35.022  30.170  28.090  1.00  0.00    -0.744 OA
ENDBRANCH  62  65
ENDBRANCH  44  58
BRANCH  45  69
ATOM     69  C   UNL A   1      48.227  27.387  25.815  1.00  0.00     0.023 A 
ATOM     70  C   UNL A   1      49.281  26.911  26.618  1.00  0.00     0.012 A 
ATOM     71  C   UNL A   1      48.440  27.562  24.434  1.00  0.00     0.148 A 
ATOM     72  C   UNL A   1      50.530  26.633  26.062  1.00  0.00     0.002 A 
ATOM     73  C   UNL A   1      49.670  27.230  23.876  1.00  0.00     0.091 A 
ATOM     74  F   UNL A   1      47.428  28.029  23.689  1.00  0.00    -0.205 F 
ATOM     75  C   UNL A   1      50.721  26.781  24.690  1.00  0.00     0.022 A 
BRANCH  73  76
ATOM     76  S   UNL A   1      49.963  27.252  22.104  1.00  0.00     0.127 S 
ATOM     77  O   UNL A   1      48.955  26.312  21.622  1.00  0.00    -0.237 OA
ATOM     78  O   UNL A   1      49.705  28.655  21.774  1.00  0.00    -0.237 OA
ATOM     79  O   UNL A   1      51.349  26.842  21.931  1.00  0.00    -0.744 OA
ENDBRANCH  73  76
ENDBRANCH  45  69
BRANCH  57  80
ATOM     80  C   UNL A   1      45.289  32.866  29.037  1.00  0.00     0.023 A 
ATOM     81  C   UNL A   1      46.051  33.090  30.200  1.00  0.00     0.012 A 
ATOM     82  C   UNL A   1      45.094  33.922  28.123  1.00  0.00     0.148 A 
ATOM     83  C   UNL A   1      46.599  34.346  30.457  1.00  0.00     0.002 A 
ATOM     84  C   UNL A   1      45.682  35.157  28.362  1.00  0.00     0.091 A 
ATOM     85  F   UNL A   1      44.352  33.692  27.029  1.00  0.00    -0.205 F 
ATOM     86  C   UNL A   1      46.428  35.374  29.533  1.00  0.00     0.022 A 
BRANCH  84  87
ATOM     87  S   UNL A   1      45.605  36.509  27.180  1.00  0.00     0.127 S 
ATOM     88  O   UNL A   1      46.366  37.551  27.870  1.00  0.00    -0.237 OA
ATOM     89  O   UNL A   1      46.275  35.938  26.012  1.00  0.00    -0.237 OA
ATOM     90  O   UNL A   1      44.189  36.794  26.987  1.00  0.00    -0.744 OA
ENDBRANCH  84  87
ENDBRANCH  57  80
ENDBRANCH  31  32
ENDBRANCH  23  26
ENDBRANCH  21  22
ENDBRANCH  20  21
ENDBRANCH   1  20
TORSDOF 17
ENDMDL
MODEL 3
REMARK VINA RESULT:     -10.5      1.527      1.844
REMARK SMILES C[C@H]([NH2+]Cc1ccccc1F)C(=O)NCCCCNC(=O)c1ccc(-c2c3nc(c(-c4cccc(S(=O)(=O)[O-])c4F)c4ccc([nH]4)c(-c4cccc(S(=O)(=O)[O-])c4F)c4nc(c(-c5cccc(S(=O)(=O)[O-])c5F)c5ccc2[nH]5)C=C4)C=C3)cc1
REMARK SMILES IDX 16 1 15 2 14 3 12 4 13 5 2 7 1 8 3 9 4 12 5 13 6 14 10 15
REMARK SMILES IDX 7 16 9 17 11 18 8 19 17 20 18 21 19 22 20 23 21 25 22 26
REMARK SMILES IDX 23 27 84 28 24 29 83 30 25 31 26 32 27 33 77 34 28 35 82 36
REMARK SMILES IDX 76 37 78 38 29 39 81 40 75 41 74 42 30 44 62 45 42 46 61 47
REMARK SMILES IDX 43 48 46 49 60 50 79 51 44 52 45 53 59 55 80 56 47 57 31 58
REMARK SMILES IDX 32 59 40 60 33 61 35 62 41 63 34 64 36 65 37 66 38 67 39 68
REMARK SMILES IDX 63 69 64 70 72 71 65 72 67 73 73 74 66 75 68 76 69 77 70 78
REMARK SMILES IDX 71 79 48 80 49 81 57 82 50 83 52 84 58 85 51 86 53 87 54 88
REMARK SMILES IDX 55 89 56 90
REMARK H PARENT 14 6 3 10 3 11 19 24 78 43 46 54
REMARK Flexibility Score: inf
ROOT
ATOM      1  C   UNL A   1      31.745  28.039  27.168  1.00  0.00     0.023 C 
ENDROOT
BRANCH   1   2
ATOM      2  C   UNL A   1      31.150  27.011  26.208  1.00  0.00     0.116 C 
BRANCH   2   3
ATOM      3  N   UNL A   1      31.003  25.710  26.828  1.00  0.00    -0.351 N 
ATOM      4  C   UNL A   1      31.420  24.473  26.431  1.00  0.00     0.277 C 
ATOM      5  O   UNL A   1      31.173  23.524  27.183  1.00  0.00    -0.268 OA
ATOM      6  H   UNL A   1      30.516  25.720  27.684  1.00  0.00     0.163 HD
BRANCH   4   7
ATOM      7  C   UNL A   1      32.240  24.255  25.141  1.00  0.00     0.269 C 
ATOM      8  C   UNL A   1      31.629  23.139  24.294  1.00  0.00     0.086 C 
BRANCH   7   9
ATOM      9  N   UNL A   1      33.671  24.101  25.455  1.00  0.00    -0.332 N 
ATOM     10  H   UNL A   1      33.850  24.539  26.358  1.00  0.00     0.347 HD
ATOM     11  H   UNL A   1      34.189  24.543  24.696  1.00  0.00     0.347 HD
BRANCH   9  12
ATOM     12  C   UNL A   1      34.116  22.716  25.520  1.00  0.00     0.301 C 
BRANCH  12  13
ATOM     13  C   UNL A   1      35.621  22.633  25.595  1.00  0.00     0.042 A 
ATOM     14  C   UNL A   1      36.384  23.735  26.010  1.00  0.00     0.012 A 
ATOM     15  C   UNL A   1      36.290  21.453  25.250  1.00  0.00     0.132 A 
ATOM     16  C   UNL A   1      37.779  23.649  26.073  1.00  0.00     0.001 A 
ATOM     17  C   UNL A   1      37.678  21.368  25.297  1.00  0.00     0.040 A 
ATOM     18  F   UNL A   1      35.597  20.370  24.873  1.00  0.00    -0.206 F 
ATOM     19  C   UNL A   1      38.426  22.468  25.711  1.00  0.00     0.003 A 
ENDBRANCH  12  13
ENDBRANCH   9  12
ENDBRANCH   7   9
ENDBRANCH   4   7
ENDBRANCH   2   3
ENDBRANCH   1   2
BRANCH   1  20
ATOM     20  C   UNL A   1      33.274  28.106  27.167  1.00  0.00     0.023 C 
BRANCH  20  21
ATOM     21  C   UNL A   1      33.883  29.221  26.323  1.00  0.00     0.116 C 
BRANCH  21  22
ATOM     22  N   UNL A   1      33.800  30.531  26.953  1.00  0.00    -0.352 N 
ATOM     23  C   UNL A   1      34.653  31.104  27.866  1.00  0.00     0.251 C 
ATOM     24  H   UNL A   1      33.026  31.081  26.692  1.00  0.00     0.163 HD
ATOM     25  O   UNL A   1      34.370  32.182  28.379  1.00  0.00    -0.269 OA
BRANCH  23  26
ATOM     26  C   UNL A   1      35.895  30.398  28.249  1.00  0.00     0.039 A 
ATOM     27  C   UNL A   1      37.004  30.477  27.401  1.00  0.00     0.014 A 
ATOM     28  C   UNL A   1      35.975  29.689  29.450  1.00  0.00     0.014 A 
ATOM     29  C   UNL A   1      38.215  29.901  27.794  1.00  0.00     0.010 A 
ATOM     30  C   UNL A   1      37.199  29.176  29.869  1.00  0.00     0.010 A 
ATOM     31  C   UNL A   1      38.333  29.279  29.048  1.00  0.00    -0.014 A 
BRANCH  31  32
ATOM     32  C   UNL A   1      39.636  28.757  29.531  1.00  0.00     0.031 A 
ATOM     33  C   UNL A   1      40.387  29.477  30.617  1.00  0.00     0.074 A 
ATOM     34  C   UNL A   1      40.188  27.684  28.929  1.00  0.00     0.049 A 
ATOM     35  N   UNL A   1      41.566  29.211  31.117  1.00  0.00    -0.248 NA
ATOM     36  C   UNL A   1      39.744  30.667  31.202  1.00  0.00     0.031 C 
ATOM     37  C   UNL A   1      39.594  26.945  27.812  1.00  0.00     0.029 A 
ATOM     38  N   UNL A   1      41.382  27.044  29.152  1.00  0.00    -0.354 N 
ATOM     39  C   UNL A   1      41.820  30.213  32.046  1.00  0.00     0.074 A 
ATOM     40  C   UNL A   1      40.686  31.112  32.020  1.00  0.00     0.031 C 
ATOM     41  C   UNL A   1      40.421  25.951  27.453  1.00  0.00     0.029 A 
ATOM     42  C   UNL A   1      41.616  25.997  28.291  1.00  0.00     0.049 A 
ATOM     43  H   UNL A   1      42.011  27.310  29.861  1.00  0.00     0.167 HD
ATOM     44  C   UNL A   1      42.885  30.353  32.869  1.00  0.00     0.034 A 
ATOM     45  C   UNL A   1      42.675  25.168  28.182  1.00  0.00     0.034 A 
ATOM     46  C   UNL A   1      43.983  29.427  32.932  1.00  0.00     0.049 A 
ATOM     47  C   UNL A   1      43.824  25.319  29.141  1.00  0.00     0.074 A 
ATOM     48  C   UNL A   1      45.064  29.439  33.795  1.00  0.00     0.029 A 
ATOM     49  N   UNL A   1      44.144  28.329  32.103  1.00  0.00    -0.354 N 
ATOM     50  N   UNL A   1      43.976  26.184  30.115  1.00  0.00    -0.248 NA
ATOM     51  C   UNL A   1      44.933  24.361  29.013  1.00  0.00     0.031 C 
ATOM     52  C   UNL A   1      45.887  28.355  33.479  1.00  0.00     0.029 A 
ATOM     53  C   UNL A   1      45.307  27.656  32.432  1.00  0.00     0.049 A 
ATOM     54  H   UNL A   1      43.521  28.065  31.386  1.00  0.00     0.167 HD
ATOM     55  C   UNL A   1      45.178  25.858  30.733  1.00  0.00     0.074 A 
ATOM     56  C   UNL A   1      45.705  24.702  30.038  1.00  0.00     0.031 C 
ATOM     57  C   UNL A   1      45.794  26.472  31.772  1.00  0.00     0.034 A 
BRANCH  44  58
ATOM     58  C   UNL A   1      42.887  31.511  33.833  1.00  0.00     0.023 A 
ATOM     59  C   UNL A   1      43.230  32.795  33.366  1.00  0.00     0.012 A 
ATOM     60  C   UNL A   1      42.453  31.350  35.163  1.00  0.00     0.148 A 
ATOM     61  C   UNL A   1      43.163  33.901  34.212  1.00  0.00     0.002 A 
ATOM     62  C   UNL A   1      42.347  32.464  35.989  1.00  0.00     0.091 A 
ATOM     63  F   UNL A   1      42.149  30.118  35.593  1.00  0.00    -0.205 F 
ATOM     64  C   UNL A   1      42.709  33.737  35.517  1.00  0.00     0.022 A 
BRANCH  62  65
ATOM     65  S   UNL A   1      41.695  32.377  37.661  1.00  0.00     0.127 S 
ATOM     66  O   UNL A   1      42.015  33.710  38.171  1.00  0.00    -0.237 OA
ATOM     67  O   UNL A   1      40.271  32.142  37.424  1.00  0.00    -0.237 OA
ATOM     68  O   UNL A   1      42.396  31.278  38.310  1.00  0.00    -0.744 OA
ENDBRANCH  62  65
ENDBRANCH  44  58
BRANCH  45  69
ATOM     69  C   UNL A   1      42.651  24.070  27.174  1.00  0.00     0.023 A 
ATOM     70  C   UNL A   1      43.273  24.269  25.927  1.00  0.00     0.012 A 
ATOM     71  C   UNL A   1      42.076  22.817  27.463  1.00  0.00     0.148 A 
ATOM     72  C   UNL A   1      43.306  23.248  24.977  1.00  0.00     0.002 A 
ATOM     73  C   UNL A   1      42.160  21.786  26.534  1.00  0.00     0.091 A 
ATOM     74  F   UNL A   1      41.476  22.652  28.651  1.00  0.00    -0.205 F 
ATOM     75  C   UNL A   1      42.761  22.004  25.284  1.00  0.00     0.022 A 
BRANCH  73  76
ATOM     76  S   UNL A   1      41.615  20.113  26.897  1.00  0.00     0.127 S 
ATOM     77  O   UNL A   1      41.521  19.532  25.560  1.00  0.00    -0.237 OA
ATOM     78  O   UNL A   1      42.719  19.607  27.713  1.00  0.00    -0.237 OA
ATOM     79  O   UNL A   1      40.356  20.259  27.616  1.00  0.00    -0.744 OA
ENDBRANCH  73  76
ENDBRANCH  45  69
BRANCH  57  80
ATOM     80  C   UNL A   1      47.104  25.908  32.256  1.00  0.00     0.023 A 
ATOM     81  C   UNL A   1      48.312  26.407  31.731  1.00  0.00     0.012 A 
ATOM     82  C   UNL A   1      47.140  24.982  33.318  1.00  0.00     0.148 A 
ATOM     83  C   UNL A   1      49.537  25.982  32.244  1.00  0.00     0.002 A 
ATOM     84  C   UNL A   1      48.363  24.599  33.856  1.00  0.00     0.091 A 
ATOM     85  F   UNL A   1      45.978  24.508  33.792  1.00  0.00    -0.205 F 
ATOM     86  C   UNL A   1      49.562  25.091  33.314  1.00  0.00     0.022 A 
BRANCH  84  87
ATOM     87  S   UNL A   1      48.491  23.539  35.301  1.00  0.00     0.127 S 
ATOM     88  O   UNL A   1      49.941  23.461  35.485  1.00  0.00    -0.237 OA
ATOM     89  O   UNL A   1      47.789  24.318  36.321  1.00  0.00    -0.237 OA
ATOM     90  O   UNL A   1      47.840  22.286  34.941  1.00  0.00    -0.744 OA
ENDBRANCH  84  87
ENDBRANCH  57  80
ENDBRANCH  31  32
ENDBRANCH  23  26
ENDBRANCH  21  22
ENDBRANCH  20  21
ENDBRANCH   1  20
TORSDOF 17
ENDMDL
