MODEL 1
REMARK VINA RESULT:     -13.7      0.000      0.000
REMARK SMILES Cc1nc(-c2ccc3c(c2)CCN3S(=O)(=O)c2ccc(F)c(C(=O)NCCCCNC(=O)c3ccc(-c4c5nc(c(-c6cccc(S(=O)(=O)[O-])c6F)c6ccc([nH]6)c(-c6cccc(S(=O)(=O)[O-])c6F)c6nc(c(-c7cccc(S(=O)(=O)[O-])c7F)c7ccc4[nH]7)C=C6)C=C5)cc3)c2)cs1
REMARK SMILES IDX 27 1 26 2 25 3 23 4 24 5 22 7 17 8 18 9 96 10 19 11 20 12
REMARK SMILES IDX 21 13 14 14 15 15 16 16 13 17 5 18 6 19 10 20 7 21 9 22 8 23
REMARK SMILES IDX 11 24 12 25 4 26 1 27 2 28 3 29 98 30 97 31 28 32 29 33
REMARK SMILES IDX 30 34 31 35 32 37 33 38 34 39 95 40 35 41 94 42 36 43 37 44
REMARK SMILES IDX 38 45 88 46 39 47 93 48 87 49 89 50 40 51 92 52 86 53 85 54
REMARK SMILES IDX 41 56 73 57 53 58 72 59 54 60 57 61 71 62 90 63 55 64 56 65
REMARK SMILES IDX 70 67 91 68 58 69 42 70 43 71 51 72 44 73 46 74 52 75 45 76
REMARK SMILES IDX 47 77 48 78 49 79 50 80 74 81 75 82 83 83 76 84 78 85 84 86
REMARK SMILES IDX 77 87 79 88 80 89 81 90 82 91 59 92 60 93 68 94 61 95 63 96
REMARK SMILES IDX 69 97 62 98 64 99 65 100 66 101 67 102
REMARK H PARENT 25 6 30 36 89 55 57 66
REMARK Flexibility Score: inf
ROOT
ATOM      1  C   UNL A   1      32.157  30.089  26.933  1.00  0.00     0.023 C 
ENDROOT
BRANCH   1   2
ATOM      2  C   UNL A   1      33.468  29.545  26.390  1.00  0.00     0.116 C 
BRANCH   2   3
ATOM      3  N   UNL A   1      33.632  29.621  24.949  1.00  0.00    -0.352 N 
ATOM      4  C   UNL A   1      33.198  28.794  23.936  1.00  0.00     0.254 C 
ATOM      5  O   UNL A   1      33.409  29.145  22.774  1.00  0.00    -0.269 OA
ATOM      6  H   UNL A   1      34.145  30.402  24.640  1.00  0.00     0.163 HD
BRANCH   4   7
ATOM      7  C   UNL A   1      32.563  27.463  24.157  1.00  0.00     0.076 A 
ATOM      8  C   UNL A   1      32.713  25.048  23.975  1.00  0.00     0.089 A 
ATOM      9  C   UNL A   1      31.552  24.899  24.744  1.00  0.00     0.025 A 
ATOM     10  C   UNL A   1      33.277  26.313  23.764  1.00  0.00     0.039 A 
ATOM     11  C   UNL A   1      30.809  26.027  25.053  1.00  0.00     0.041 A 
ATOM     12  C   UNL A   1      31.271  27.281  24.660  1.00  0.00     0.136 A 
ATOM     13  F   UNL A   1      30.370  28.272  24.662  1.00  0.00    -0.206 F 
BRANCH   8  14
ATOM     14  S   UNL A   1      33.345  23.593  23.181  1.00  0.00     0.264 S 
ATOM     15  O   UNL A   1      34.444  24.035  22.345  1.00  0.00    -0.201 OA
ATOM     16  O   UNL A   1      32.230  22.884  22.583  1.00  0.00    -0.201 OA
BRANCH  14  17
ATOM     17  N   UNL A   1      33.985  22.581  24.415  1.00  0.00    -0.266 N 
ATOM     18  C   UNL A   1      37.959  21.979  25.742  1.00  0.00     0.001 A 
ATOM     19  C   UNL A   1      37.515  23.297  25.568  1.00  0.00     0.012 A 
ATOM     20  C   UNL A   1      37.071  20.924  25.488  1.00  0.00     0.016 A 
ATOM     21  C   UNL A   1      36.215  23.568  25.128  1.00  0.00     0.028 A 
ATOM     22  C   UNL A   1      35.787  21.222  25.023  1.00  0.00    -0.021 A 
ATOM     23  C   UNL A   1      35.379  22.530  24.765  1.00  0.00     0.055 A 
ATOM     24  C   UNL A   1      34.627  20.282  24.930  1.00  0.00     0.060 C 
ATOM     25  C   UNL A   1      33.562  21.141  24.233  1.00  0.00     0.140 C 
BRANCH  18  26
ATOM     26  C   UNL A   1      39.285  21.765  26.298  1.00  0.00     0.081 A 
ATOM     27  C   UNL A   1      41.985  23.158  28.325  1.00  0.00     0.079 C 
ATOM     28  C   UNL A   1      41.079  22.353  27.460  1.00  0.00     0.090 A 
ATOM     29  N   UNL A   1      39.888  22.746  27.069  1.00  0.00    -0.242 NA
ATOM     30  S   UNL A   1      41.561  20.802  26.895  1.00  0.00    -0.127 S 
ATOM     31  C   UNL A   1      40.055  20.640  26.086  1.00  0.00     0.095 A 
ENDBRANCH  18  26
ENDBRANCH  14  17
ENDBRANCH   8  14
ENDBRANCH   4   7
ENDBRANCH   2   3
ENDBRANCH   1   2
BRANCH   1  32
ATOM     32  C   UNL A   1      31.924  31.584  26.800  1.00  0.00     0.023 C 
BRANCH  32  33
ATOM     33  C   UNL A   1      33.031  32.484  27.334  1.00  0.00     0.116 C 
BRANCH  33  34
ATOM     34  N   UNL A   1      32.597  33.842  27.646  1.00  0.00    -0.352 N 
ATOM     35  C   UNL A   1      33.092  34.722  28.582  1.00  0.00     0.251 C 
ATOM     36  H   UNL A   1      31.842  34.176  27.109  1.00  0.00     0.163 HD
ATOM     37  O   UNL A   1      32.542  35.804  28.763  1.00  0.00    -0.269 OA
BRANCH  35  38
ATOM     38  C   UNL A   1      34.265  34.337  29.395  1.00  0.00     0.039 A 
ATOM     39  C   UNL A   1      34.061  33.777  30.659  1.00  0.00     0.014 A 
ATOM     40  C   UNL A   1      35.558  34.475  28.887  1.00  0.00     0.014 A 
ATOM     41  C   UNL A   1      35.150  33.271  31.372  1.00  0.00     0.010 A 
ATOM     42  C   UNL A   1      36.626  33.885  29.556  1.00  0.00     0.010 A 
ATOM     43  C   UNL A   1      36.436  33.277  30.804  1.00  0.00    -0.014 A 
BRANCH  43  44
ATOM     44  C   UNL A   1      37.589  32.636  31.490  1.00  0.00     0.031 A 
ATOM     45  C   UNL A   1      38.305  31.478  30.848  1.00  0.00     0.074 A 
ATOM     46  C   UNL A   1      37.934  33.035  32.733  1.00  0.00     0.049 A 
ATOM     47  N   UNL A   1      39.285  30.754  31.321  1.00  0.00    -0.248 NA
ATOM     48  C   UNL A   1      37.846  31.061  29.512  1.00  0.00     0.031 C 
ATOM     49  C   UNL A   1      37.265  34.088  33.499  1.00  0.00     0.029 A 
ATOM     50  N   UNL A   1      38.917  32.584  33.580  1.00  0.00    -0.354 N 
ATOM     51  C   UNL A   1      39.531  29.777  30.365  1.00  0.00     0.074 A 
ATOM     52  C   UNL A   1      38.578  29.978  29.298  1.00  0.00     0.031 C 
ATOM     53  C   UNL A   1      37.861  34.208  34.696  1.00  0.00     0.029 A 
ATOM     54  C   UNL A   1      38.927  33.218  34.802  1.00  0.00     0.049 A 
ATOM     55  H   UNL A   1      39.554  31.874  33.337  1.00  0.00     0.167 HD
ATOM     56  C   UNL A   1      40.483  28.817  30.364  1.00  0.00     0.034 A 
ATOM     57  C   UNL A   1      39.698  33.019  35.892  1.00  0.00     0.034 A 
ATOM     58  C   UNL A   1      41.463  28.653  31.401  1.00  0.00     0.049 A 
ATOM     59  C   UNL A   1      40.779  31.973  35.844  1.00  0.00     0.074 A 
ATOM     60  C   UNL A   1      42.532  27.775  31.436  1.00  0.00     0.029 A 
ATOM     61  N   UNL A   1      41.493  29.370  32.586  1.00  0.00    -0.354 N 
ATOM     62  N   UNL A   1      41.098  31.165  34.863  1.00  0.00    -0.248 NA
ATOM     63  C   UNL A   1      41.629  31.833  37.036  1.00  0.00     0.031 C 
ATOM     64  C   UNL A   1      43.186  27.932  32.659  1.00  0.00     0.029 A 
ATOM     65  C   UNL A   1      42.552  28.941  33.367  1.00  0.00     0.049 A 
ATOM     66  H   UNL A   1      40.856  30.077  32.835  1.00  0.00     0.167 HD
ATOM     67  C   UNL A   1      42.200  30.443  35.304  1.00  0.00     0.074 A 
ATOM     68  C   UNL A   1      42.509  30.924  36.635  1.00  0.00     0.031 C 
ATOM     69  C   UNL A   1      42.885  29.461  34.669  1.00  0.00     0.034 A 
BRANCH  56  70
ATOM     70  C   UNL A   1      40.564  27.891  29.178  1.00  0.00     0.023 A 
ATOM     71  C   UNL A   1      39.626  26.848  29.045  1.00  0.00     0.012 A 
ATOM     72  C   UNL A   1      41.485  28.132  28.140  1.00  0.00     0.148 A 
ATOM     73  C   UNL A   1      39.614  26.046  27.905  1.00  0.00     0.002 A 
ATOM     74  C   UNL A   1      41.434  27.362  26.984  1.00  0.00     0.091 A 
ATOM     75  F   UNL A   1      42.380  29.118  28.297  1.00  0.00    -0.205 F 
ATOM     76  C   UNL A   1      40.507  26.314  26.869  1.00  0.00     0.022 A 
BRANCH  74  77
ATOM     77  S   UNL A   1      42.473  27.684  25.555  1.00  0.00     0.127 S 
ATOM     78  O   UNL A   1      41.924  28.951  25.072  1.00  0.00    -0.237 OA
ATOM     79  O   UNL A   1      43.801  27.784  26.159  1.00  0.00    -0.237 OA
ATOM     80  O   UNL A   1      42.292  26.550  24.659  1.00  0.00    -0.744 OA
ENDBRANCH  74  77
ENDBRANCH  56  70
BRANCH  57  81
ATOM     81  C   UNL A   1      39.505  33.872  37.099  1.00  0.00     0.023 A 
ATOM     82  C   UNL A   1      39.915  35.219  37.074  1.00  0.00     0.012 A 
ATOM     83  C   UNL A   1      38.870  33.371  38.253  1.00  0.00     0.148 A 
ATOM     84  C   UNL A   1      39.720  36.044  38.182  1.00  0.00     0.002 A 
ATOM     85  C   UNL A   1      38.624  34.215  39.330  1.00  0.00     0.091 A 
ATOM     86  F   UNL A   1      38.499  32.083  38.264  1.00  0.00    -0.205 F 
ATOM     87  C   UNL A   1      39.063  35.547  39.304  1.00  0.00     0.022 A 
BRANCH  85  88
ATOM     88  S   UNL A   1      37.657  33.702  40.755  1.00  0.00     0.127 S 
ATOM     89  O   UNL A   1      36.487  33.100  40.122  1.00  0.00    -0.237 OA
ATOM     90  O   UNL A   1      38.563  32.755  41.406  1.00  0.00    -0.237 OA
ATOM     91  O   UNL A   1      37.407  34.915  41.520  1.00  0.00    -0.744 OA
ENDBRANCH  85  88
ENDBRANCH  57  81
BRANCH  69  92
ATOM     92  C   UNL A   1      44.064  28.841  35.372  1.00  0.00     0.023 A 
ATOM     93  C   UNL A   1      45.341  29.417  35.241  1.00  0.00     0.012 A 
ATOM     94  C   UNL A   1      43.877  27.766  36.266  1.00  0.00     0.148 A 
ATOM     95  C   UNL A   1      46.420  28.923  35.973  1.00  0.00     0.002 A 
ATOM     96  C   UNL A   1      44.944  27.314  37.032  1.00  0.00     0.091 A 
ATOM     97  F   UNL A   1      42.655  27.223  36.364  1.00  0.00    -0.205 F 
ATOM     98  C   UNL A   1      46.219  27.883  36.878  1.00  0.00     0.022 A 
BRANCH  96  99
ATOM     99  S   UNL A   1      44.757  26.057  38.302  1.00  0.00     0.127 S 
ATOM    100  O   UNL A   1      46.129  25.921  38.789  1.00  0.00    -0.237 OA
ATOM    101  O   UNL A   1      43.838  26.701  39.240  1.00  0.00    -0.237 OA
ATOM    102  O   UNL A   1      44.217  24.882  37.633  1.00  0.00    -0.744 OA
ENDBRANCH  96  99
ENDBRANCH  69  92
ENDBRANCH  43  44
ENDBRANCH  35  38
ENDBRANCH  33  34
ENDBRANCH  32  33
ENDBRANCH   1  32
TORSDOF 17
ENDMDL
MODEL 2
REMARK VINA RESULT:     -12.9      1.562      7.262
REMARK SMILES Cc1nc(-c2ccc3c(c2)CCN3S(=O)(=O)c2ccc(F)c(C(=O)NCCCCNC(=O)c3ccc(-c4c5nc(c(-c6cccc(S(=O)(=O)[O-])c6F)c6ccc([nH]6)c(-c6cccc(S(=O)(=O)[O-])c6F)c6nc(c(-c7cccc(S(=O)(=O)[O-])c7F)c7ccc4[nH]7)C=C6)C=C5)cc3)c2)cs1
REMARK SMILES IDX 27 1 26 2 25 3 23 4 24 5 22 7 17 8 18 9 96 10 19 11 20 12
REMARK SMILES IDX 21 13 14 14 15 15 16 16 13 17 5 18 6 19 10 20 7 21 9 22 8 23
REMARK SMILES IDX 11 24 12 25 4 26 1 27 2 28 3 29 98 30 97 31 28 32 29 33
REMARK SMILES IDX 30 34 31 35 32 37 33 38 34 39 95 40 35 41 94 42 36 43 37 44
REMARK SMILES IDX 38 45 88 46 39 47 93 48 87 49 89 50 40 51 92 52 86 53 85 54
REMARK SMILES IDX 41 56 73 57 53 58 72 59 54 60 57 61 71 62 90 63 55 64 56 65
REMARK SMILES IDX 70 67 91 68 58 69 42 70 43 71 51 72 44 73 46 74 52 75 45 76
REMARK SMILES IDX 47 77 48 78 49 79 50 80 74 81 75 82 83 83 76 84 78 85 84 86
REMARK SMILES IDX 77 87 79 88 80 89 81 90 82 91 59 92 60 93 68 94 61 95 63 96
REMARK SMILES IDX 69 97 62 98 64 99 65 100 66 101 67 102
REMARK H PARENT 25 6 30 36 89 55 57 66
REMARK Flexibility Score: inf
ROOT
ATOM      1  C   UNL A   1      32.277  30.162  27.164  1.00  0.00     0.023 C 
ENDROOT
BRANCH   1   2
ATOM      2  C   UNL A   1      33.575  29.592  26.612  1.00  0.00     0.116 C 
BRANCH   2   3
ATOM      3  N   UNL A   1      33.726  29.652  25.170  1.00  0.00    -0.352 N 
ATOM      4  C   UNL A   1      33.325  28.789  24.173  1.00  0.00     0.254 C 
ATOM      5  O   UNL A   1      33.512  29.131  23.004  1.00  0.00    -0.269 OA
ATOM      6  H   UNL A   1      34.199  30.452  24.845  1.00  0.00     0.163 HD
BRANCH   4   7
ATOM      7  C   UNL A   1      32.756  27.433  24.420  1.00  0.00     0.076 A 
ATOM      8  C   UNL A   1      32.991  25.027  24.216  1.00  0.00     0.089 A 
ATOM      9  C   UNL A   1      31.880  24.829  25.044  1.00  0.00     0.025 A 
ATOM     10  C   UNL A   1      33.493  26.314  23.982  1.00  0.00     0.039 A 
ATOM     11  C   UNL A   1      31.111  25.926  25.399  1.00  0.00     0.041 A 
ATOM     12  C   UNL A   1      31.502  27.198  24.989  1.00  0.00     0.136 A 
ATOM     13  F   UNL A   1      30.563  28.153  25.045  1.00  0.00    -0.206 F 
BRANCH   8  14
ATOM     14  S   UNL A   1      33.637  23.601  23.380  1.00  0.00     0.264 S 
ATOM     15  O   UNL A   1      34.701  24.083  22.522  1.00  0.00    -0.201 OA
ATOM     16  O   UNL A   1      32.523  22.873  22.803  1.00  0.00    -0.201 OA
BRANCH  14  17
ATOM     17  N   UNL A   1      34.337  22.586  24.580  1.00  0.00    -0.266 N 
ATOM     18  C   UNL A   1      38.358  22.087  25.804  1.00  0.00     0.001 A 
ATOM     19  C   UNL A   1      37.868  23.393  25.667  1.00  0.00     0.012 A 
ATOM     20  C   UNL A   1      37.498  21.010  25.550  1.00  0.00     0.016 A 
ATOM     21  C   UNL A   1      36.550  23.631  25.261  1.00  0.00     0.028 A 
ATOM     22  C   UNL A   1      36.195  21.275  25.120  1.00  0.00    -0.021 A 
ATOM     23  C   UNL A   1      35.740  22.573  24.897  1.00  0.00     0.055 A 
ATOM     24  C   UNL A   1      35.064  20.300  25.034  1.00  0.00     0.060 C 
ATOM     25  C   UNL A   1      33.955  21.137  24.378  1.00  0.00     0.140 C 
BRANCH  18  26
ATOM     26  C   UNL A   1      39.703  21.905  26.327  1.00  0.00     0.081 A 
ATOM     27  C   UNL A   1      42.099  22.830  28.922  1.00  0.00     0.079 C 
ATOM     28  C   UNL A   1      41.358  22.289  27.750  1.00  0.00     0.090 A 
ATOM     29  N   UNL A   1      40.112  22.590  27.460  1.00  0.00    -0.242 NA
ATOM     30  S   UNL A   1      42.121  21.198  26.661  1.00  0.00    -0.127 S 
ATOM     31  C   UNL A   1      40.669  21.109  25.748  1.00  0.00     0.095 A 
ENDBRANCH  18  26
ENDBRANCH  14  17
ENDBRANCH   8  14
ENDBRANCH   4   7
ENDBRANCH   2   3
ENDBRANCH   1   2
BRANCH   1  32
ATOM     32  C   UNL A   1      32.012  31.636  26.909  1.00  0.00     0.023 C 
BRANCH  32  33
ATOM     33  C   UNL A   1      33.167  32.585  27.198  1.00  0.00     0.116 C 
BRANCH  33  34
ATOM     34  N   UNL A   1      32.753  33.917  27.626  1.00  0.00    -0.352 N 
ATOM     35  C   UNL A   1      33.247  34.698  28.646  1.00  0.00     0.251 C 
ATOM     36  H   UNL A   1      32.014  34.314  27.111  1.00  0.00     0.163 HD
ATOM     37  O   UNL A   1      32.714  35.770  28.918  1.00  0.00    -0.269 OA
BRANCH  35  38
ATOM     38  C   UNL A   1      34.399  34.218  29.439  1.00  0.00     0.039 A 
ATOM     39  C   UNL A   1      34.163  33.466  30.593  1.00  0.00     0.014 A 
ATOM     40  C   UNL A   1      35.706  34.459  29.011  1.00  0.00     0.014 A 
ATOM     41  C   UNL A   1      35.238  32.880  31.265  1.00  0.00     0.010 A 
ATOM     42  C   UNL A   1      36.764  33.796  29.626  1.00  0.00     0.010 A 
ATOM     43  C   UNL A   1      36.544  33.000  30.758  1.00  0.00    -0.014 A 
BRANCH  43  44
ATOM     44  C   UNL A   1      37.687  32.286  31.385  1.00  0.00     0.031 A 
ATOM     45  C   UNL A   1      38.266  32.777  32.685  1.00  0.00     0.074 A 
ATOM     46  C   UNL A   1      38.265  31.251  30.740  1.00  0.00     0.049 A 
ATOM     47  N   UNL A   1      39.300  32.326  33.346  1.00  0.00    -0.248 NA
ATOM     48  C   UNL A   1      37.619  33.942  33.311  1.00  0.00     0.031 C 
ATOM     49  C   UNL A   1      37.853  30.732  29.435  1.00  0.00     0.029 A 
ATOM     50  N   UNL A   1      39.340  30.466  31.083  1.00  0.00    -0.354 N 
ATOM     51  C   UNL A   1      39.450  33.171  34.438  1.00  0.00     0.074 A 
ATOM     52  C   UNL A   1      38.423  34.183  34.337  1.00  0.00     0.031 C 
ATOM     53  C   UNL A   1      38.656  29.712  29.091  1.00  0.00     0.029 A 
ATOM     54  C   UNL A   1      39.665  29.527  30.130  1.00  0.00     0.049 A 
ATOM     55  H   UNL A   1      39.831  30.565  31.930  1.00  0.00     0.167 HD
ATOM     56  C   UNL A   1      40.344  33.094  35.450  1.00  0.00     0.034 A 
ATOM     57  C   UNL A   1      40.668  28.626  30.086  1.00  0.00     0.034 A 
ATOM     58  C   UNL A   1      41.330  32.056  35.576  1.00  0.00     0.049 A 
ATOM     59  C   UNL A   1      41.621  28.534  31.248  1.00  0.00     0.074 A 
ATOM     60  C   UNL A   1      42.210  31.837  36.621  1.00  0.00     0.029 A 
ATOM     61  N   UNL A   1      41.574  31.073  34.632  1.00  0.00    -0.354 N 
ATOM     62  N   UNL A   1      41.645  29.244  32.349  1.00  0.00    -0.248 NA
ATOM     63  C   UNL A   1      42.663  27.499  31.179  1.00  0.00     0.031 C 
ATOM     64  C   UNL A   1      43.015  30.745  36.290  1.00  0.00     0.029 A 
ATOM     65  C   UNL A   1      42.604  30.255  35.061  1.00  0.00     0.049 A 
ATOM     66  H   UNL A   1      41.088  30.973  33.782  1.00  0.00     0.167 HD
ATOM     67  C   UNL A   1      42.680  28.724  33.116  1.00  0.00     0.074 A 
ATOM     68  C   UNL A   1      43.248  27.625  32.363  1.00  0.00     0.031 C 
ATOM     69  C   UNL A   1      43.129  29.131  34.329  1.00  0.00     0.034 A 
BRANCH  56  70
ATOM     70  C   UNL A   1      40.275  34.126  36.545  1.00  0.00     0.023 A 
ATOM     71  C   UNL A   1      39.210  34.091  37.468  1.00  0.00     0.012 A 
ATOM     72  C   UNL A   1      41.325  35.047  36.732  1.00  0.00     0.148 A 
ATOM     73  C   UNL A   1      39.183  34.967  38.552  1.00  0.00     0.002 A 
ATOM     74  C   UNL A   1      41.316  35.882  37.843  1.00  0.00     0.091 A 
ATOM     75  F   UNL A   1      42.317  35.074  35.831  1.00  0.00    -0.205 F 
ATOM     76  C   UNL A   1      40.242  35.850  38.747  1.00  0.00     0.022 A 
BRANCH  74  77
ATOM     77  S   UNL A   1      42.675  36.987  38.239  1.00  0.00     0.127 S 
ATOM     78  O   UNL A   1      43.649  36.061  38.816  1.00  0.00    -0.237 OA
ATOM     79  O   UNL A   1      43.037  37.511  36.922  1.00  0.00    -0.237 OA
ATOM     80  O   UNL A   1      42.137  37.975  39.164  1.00  0.00    -0.744 OA
ENDBRANCH  74  77
ENDBRANCH  56  70
BRANCH  57  81
ATOM     81  C   UNL A   1      40.782  27.702  28.922  1.00  0.00     0.023 A 
ATOM     82  C   UNL A   1      39.866  26.643  28.780  1.00  0.00     0.012 A 
ATOM     83  C   UNL A   1      41.760  27.899  27.927  1.00  0.00     0.148 A 
ATOM     84  C   UNL A   1      39.935  25.782  27.684  1.00  0.00     0.002 A 
ATOM     85  C   UNL A   1      41.786  27.076  26.807  1.00  0.00     0.091 A 
ATOM     86  F   UNL A   1      42.632  28.905  28.085  1.00  0.00    -0.205 F 
ATOM     87  C   UNL A   1      40.886  26.006  26.692  1.00  0.00     0.022 A 
BRANCH  85  88
ATOM     88  S   UNL A   1      42.878  27.378  25.412  1.00  0.00     0.127 S 
ATOM     89  O   UNL A   1      42.792  26.114  24.686  1.00  0.00    -0.237 OA
ATOM     90  O   UNL A   1      42.220  28.512  24.760  1.00  0.00    -0.237 OA
ATOM     91  O   UNL A   1      44.178  27.690  25.988  1.00  0.00    -0.744 OA
ENDBRANCH  85  88
ENDBRANCH  57  81
BRANCH  69  92
ATOM     92  C   UNL A   1      44.273  28.379  34.958  1.00  0.00     0.023 A 
ATOM     93  C   UNL A   1      45.595  28.650  34.557  1.00  0.00     0.012 A 
ATOM     94  C   UNL A   1      44.043  27.501  36.037  1.00  0.00     0.148 A 
ATOM     95  C   UNL A   1      46.670  28.045  35.206  1.00  0.00     0.002 A 
ATOM     96  C   UNL A   1      45.120  26.946  36.715  1.00  0.00     0.091 A 
ATOM     97  F   UNL A   1      42.775  27.247  36.393  1.00  0.00    -0.205 F 
ATOM     98  C   UNL A   1      46.434  27.206  36.293  1.00  0.00     0.022 A 
BRANCH  96  99
ATOM     99  S   UNL A   1      44.919  25.944  38.193  1.00  0.00     0.127 S 
ATOM    100  O   UNL A   1      46.307  25.649  38.543  1.00  0.00    -0.237 OA
ATOM    101  O   UNL A   1      44.243  26.868  39.102  1.00  0.00    -0.237 OA
ATOM    102  O   UNL A   1      44.122  24.791  37.795  1.00  0.00    -0.744 OA
ENDBRANCH  96  99
ENDBRANCH  69  92
ENDBRANCH  43  44
ENDBRANCH  35  38
ENDBRANCH  33  34
ENDBRANCH  32  33
ENDBRANCH   1  32
TORSDOF 17
ENDMDL
MODEL 3
REMARK VINA RESULT:     -12.7      1.395      7.546
REMARK SMILES Cc1nc(-c2ccc3c(c2)CCN3S(=O)(=O)c2ccc(F)c(C(=O)NCCCCNC(=O)c3ccc(-c4c5nc(c(-c6cccc(S(=O)(=O)[O-])c6F)c6ccc([nH]6)c(-c6cccc(S(=O)(=O)[O-])c6F)c6nc(c(-c7cccc(S(=O)(=O)[O-])c7F)c7ccc4[nH]7)C=C6)C=C5)cc3)c2)cs1
REMARK SMILES IDX 27 1 26 2 25 3 23 4 24 5 22 7 17 8 18 9 96 10 19 11 20 12
REMARK SMILES IDX 21 13 14 14 15 15 16 16 13 17 5 18 6 19 10 20 7 21 9 22 8 23
REMARK SMILES IDX 11 24 12 25 4 26 1 27 2 28 3 29 98 30 97 31 28 32 29 33
REMARK SMILES IDX 30 34 31 35 32 37 33 38 34 39 95 40 35 41 94 42 36 43 37 44
REMARK SMILES IDX 38 45 88 46 39 47 93 48 87 49 89 50 40 51 92 52 86 53 85 54
REMARK SMILES IDX 41 56 73 57 53 58 72 59 54 60 57 61 71 62 90 63 55 64 56 65
REMARK SMILES IDX 70 67 91 68 58 69 42 70 43 71 51 72 44 73 46 74 52 75 45 76
REMARK SMILES IDX 47 77 48 78 49 79 50 80 74 81 75 82 83 83 76 84 78 85 84 86
REMARK SMILES IDX 77 87 79 88 80 89 81 90 82 91 59 92 60 93 68 94 61 95 63 96
REMARK SMILES IDX 69 97 62 98 64 99 65 100 66 101 67 102
REMARK H PARENT 25 6 30 36 89 55 57 66
REMARK Flexibility Score: inf
ROOT
ATOM      1  C   UNL A   1      32.193  29.961  26.989  1.00  0.00     0.023 C 
ENDROOT
BRANCH   1   2
ATOM      2  C   UNL A   1      33.505  29.426  26.437  1.00  0.00     0.116 C 
BRANCH   2   3
ATOM      3  N   UNL A   1      33.681  29.549  25.002  1.00  0.00    -0.352 N 
ATOM      4  C   UNL A   1      33.220  28.779  23.956  1.00  0.00     0.254 C 
ATOM      5  O   UNL A   1      33.452  29.165  22.809  1.00  0.00    -0.269 OA
ATOM      6  H   UNL A   1      34.226  30.320  24.725  1.00  0.00     0.163 HD
BRANCH   4   7
ATOM      7  C   UNL A   1      32.531  27.468  24.124  1.00  0.00     0.076 A 
ATOM      8  C   UNL A   1      32.606  25.053  23.900  1.00  0.00     0.089 A 
ATOM      9  C   UNL A   1      31.409  24.930  24.616  1.00  0.00     0.025 A 
ATOM     10  C   UNL A   1      33.222  26.301  23.737  1.00  0.00     0.039 A 
ATOM     11  C   UNL A   1      30.693  26.078  24.917  1.00  0.00     0.041 A 
ATOM     12  C   UNL A   1      31.214  27.322  24.568  1.00  0.00     0.136 A 
ATOM     13  F   UNL A   1      30.348  28.344  24.552  1.00  0.00    -0.206 F 
BRANCH   8  14
ATOM     14  S   UNL A   1      33.221  23.591  23.104  1.00  0.00     0.264 S 
ATOM     15  O   UNL A   1      34.321  24.022  22.264  1.00  0.00    -0.201 OA
ATOM     16  O   UNL A   1      32.097  22.892  22.511  1.00  0.00    -0.201 OA
BRANCH  14  17
ATOM     17  N   UNL A   1      33.856  22.573  24.336  1.00  0.00    -0.266 N 
ATOM     18  C   UNL A   1      37.839  21.841  25.566  1.00  0.00     0.001 A 
ATOM     19  C   UNL A   1      37.440  23.173  25.384  1.00  0.00     0.012 A 
ATOM     20  C   UNL A   1      36.906  20.817  25.352  1.00  0.00     0.016 A 
ATOM     21  C   UNL A   1      36.140  23.486  24.974  1.00  0.00     0.028 A 
ATOM     22  C   UNL A   1      35.622  21.157  24.917  1.00  0.00    -0.021 A 
ATOM     23  C   UNL A   1      35.256  22.475  24.650  1.00  0.00     0.055 A 
ATOM     24  C   UNL A   1      34.426  20.259  24.869  1.00  0.00     0.060 C 
ATOM     25  C   UNL A   1      33.374  21.148  24.187  1.00  0.00     0.140 C 
BRANCH  18  26
ATOM     26  C   UNL A   1      39.171  21.586  26.091  1.00  0.00     0.081 A 
ATOM     27  C   UNL A   1      41.955  19.230  26.285  1.00  0.00     0.079 C 
ATOM     28  C   UNL A   1      40.994  20.362  26.395  1.00  0.00     0.090 A 
ATOM     29  N   UNL A   1      39.813  20.388  25.820  1.00  0.00    -0.242 NA
ATOM     30  S   UNL A   1      41.387  21.755  27.324  1.00  0.00    -0.127 S 
ATOM     31  C   UNL A   1      39.873  22.449  26.906  1.00  0.00     0.095 A 
ENDBRANCH  18  26
ENDBRANCH  14  17
ENDBRANCH   8  14
ENDBRANCH   4   7
ENDBRANCH   2   3
ENDBRANCH   1   2
BRANCH   1  32
ATOM     32  C   UNL A   1      31.944  31.453  26.845  1.00  0.00     0.023 C 
BRANCH  32  33
ATOM     33  C   UNL A   1      33.093  32.366  27.252  1.00  0.00     0.116 C 
BRANCH  33  34
ATOM     34  N   UNL A   1      32.678  33.712  27.636  1.00  0.00    -0.352 N 
ATOM     35  C   UNL A   1      33.168  34.524  28.634  1.00  0.00     0.251 C 
ATOM     36  H   UNL A   1      31.942  34.093  27.104  1.00  0.00     0.163 HD
ATOM     37  O   UNL A   1      32.635  35.604  28.869  1.00  0.00    -0.269 OA
BRANCH  35  38
ATOM     38  C   UNL A   1      34.314  34.067  29.449  1.00  0.00     0.039 A 
ATOM     39  C   UNL A   1      34.074  33.277  30.576  1.00  0.00     0.014 A 
ATOM     40  C   UNL A   1      35.622  34.368  29.065  1.00  0.00     0.014 A 
ATOM     41  C   UNL A   1      35.151  32.715  31.265  1.00  0.00     0.010 A 
ATOM     42  C   UNL A   1      36.687  33.730  29.694  1.00  0.00     0.010 A 
ATOM     43  C   UNL A   1      36.465  32.897  30.800  1.00  0.00    -0.014 A 
BRANCH  43  44
ATOM     44  C   UNL A   1      37.617  32.210  31.443  1.00  0.00     0.031 A 
ATOM     45  C   UNL A   1      38.168  32.718  32.748  1.00  0.00     0.074 A 
ATOM     46  C   UNL A   1      38.226  31.187  30.807  1.00  0.00     0.049 A 
ATOM     47  N   UNL A   1      39.204  32.292  33.423  1.00  0.00    -0.248 NA
ATOM     48  C   UNL A   1      37.487  33.869  33.363  1.00  0.00     0.031 C 
ATOM     49  C   UNL A   1      37.841  30.656  29.498  1.00  0.00     0.029 A 
ATOM     50  N   UNL A   1      39.314  30.427  31.165  1.00  0.00    -0.354 N 
ATOM     51  C   UNL A   1      39.322  33.143  34.515  1.00  0.00     0.074 A 
ATOM     52  C   UNL A   1      38.273  34.130  34.398  1.00  0.00     0.031 C 
ATOM     53  C   UNL A   1      38.671  29.654  29.167  1.00  0.00     0.029 A 
ATOM     54  C   UNL A   1      39.672  29.494  30.218  1.00  0.00     0.049 A 
ATOM     55  H   UNL A   1      39.793  30.540  32.018  1.00  0.00     0.167 HD
ATOM     56  C   UNL A   1      40.205  33.088  35.537  1.00  0.00     0.034 A 
ATOM     57  C   UNL A   1      40.695  28.616  30.190  1.00  0.00     0.034 A 
ATOM     58  C   UNL A   1      41.212  32.073  35.678  1.00  0.00     0.049 A 
ATOM     59  C   UNL A   1      41.636  28.549  31.363  1.00  0.00     0.074 A 
ATOM     60  C   UNL A   1      42.084  31.877  36.734  1.00  0.00     0.029 A 
ATOM     61  N   UNL A   1      41.490  31.094  34.739  1.00  0.00    -0.354 N 
ATOM     62  N   UNL A   1      41.631  29.261  32.462  1.00  0.00    -0.248 NA
ATOM     63  C   UNL A   1      42.702  27.538  31.309  1.00  0.00     0.031 C 
ATOM     64  C   UNL A   1      42.918  30.803  36.416  1.00  0.00     0.029 A 
ATOM     65  C   UNL A   1      42.533  30.300  35.183  1.00  0.00     0.049 A 
ATOM     66  H   UNL A   1      41.017  30.980  33.884  1.00  0.00     0.167 HD
ATOM     67  C   UNL A   1      42.668  28.767  33.244  1.00  0.00     0.074 A 
ATOM     68  C   UNL A   1      43.270  27.679  32.500  1.00  0.00     0.031 C 
ATOM     69  C   UNL A   1      43.092  29.186  34.461  1.00  0.00     0.034 A 
BRANCH  56  70
ATOM     70  C   UNL A   1      40.099  34.121  36.629  1.00  0.00     0.023 A 
ATOM     71  C   UNL A   1      40.383  35.470  36.340  1.00  0.00     0.012 A 
ATOM     72  C   UNL A   1      39.602  33.773  37.900  1.00  0.00     0.148 A 
ATOM     73  C   UNL A   1      40.189  36.457  37.305  1.00  0.00     0.002 A 
ATOM     74  C   UNL A   1      39.362  34.768  38.840  1.00  0.00     0.091 A 
ATOM     75  F   UNL A   1      39.356  32.480  38.158  1.00  0.00    -0.205 F 
ATOM     76  C   UNL A   1      39.665  36.108  38.547  1.00  0.00     0.022 A 
BRANCH  74  77
ATOM     77  S   UNL A   1      38.601  34.440  40.432  1.00  0.00     0.127 S 
ATOM     78  O   UNL A   1      38.321  35.794  40.910  1.00  0.00    -0.237 OA
ATOM     79  O   UNL A   1      37.417  33.670  40.052  1.00  0.00    -0.237 OA
ATOM     80  O   UNL A   1      39.588  33.701  41.209  1.00  0.00    -0.744 OA
ENDBRANCH  74  77
ENDBRANCH  56  70
BRANCH  57  81
ATOM     81  C   UNL A   1      40.845  27.693  29.029  1.00  0.00     0.023 A 
ATOM     82  C   UNL A   1      40.026  26.551  28.937  1.00  0.00     0.012 A 
ATOM     83  C   UNL A   1      41.757  27.967  27.990  1.00  0.00     0.148 A 
ATOM     84  C   UNL A   1      40.128  25.687  27.846  1.00  0.00     0.002 A 
ATOM     85  C   UNL A   1      41.811  27.135  26.878  1.00  0.00     0.091 A 
ATOM     86  F   UNL A   1      42.537  29.051  28.102  1.00  0.00    -0.205 F 
ATOM     87  C   UNL A   1      41.010  25.985  26.811  1.00  0.00     0.022 A 
BRANCH  85  88
ATOM     88  S   UNL A   1      42.808  27.521  25.433  1.00  0.00     0.127 S 
ATOM     89  O   UNL A   1      42.151  28.723  24.928  1.00  0.00    -0.237 OA
ATOM     90  O   UNL A   1      44.126  27.742  26.031  1.00  0.00    -0.237 OA
ATOM     91  O   UNL A   1      42.728  26.348  24.574  1.00  0.00    -0.744 OA
ENDBRANCH  85  88
ENDBRANCH  57  81
BRANCH  69  92
ATOM     92  C   UNL A   1      44.246  28.463  35.105  1.00  0.00     0.023 A 
ATOM     93  C   UNL A   1      44.005  27.327  35.901  1.00  0.00     0.012 A 
ATOM     94  C   UNL A   1      45.574  28.835  34.812  1.00  0.00     0.148 A 
ATOM     95  C   UNL A   1      45.067  26.583  36.412  1.00  0.00     0.002 A 
ATOM     96  C   UNL A   1      46.625  28.056  35.279  1.00  0.00     0.091 A 
ATOM     97  F   UNL A   1      45.781  29.928  34.064  1.00  0.00    -0.205 F 
ATOM     98  C   UNL A   1      46.375  26.937  36.089  1.00  0.00     0.022 A 
BRANCH  96  99
ATOM     99  S   UNL A   1      48.335  28.369  34.823  1.00  0.00     0.127 S 
ATOM    100  O   UNL A   1      49.037  27.321  35.562  1.00  0.00    -0.237 OA
ATOM    101  O   UNL A   1      48.308  28.179  33.373  1.00  0.00    -0.237 OA
ATOM    102  O   UNL A   1      48.626  29.731  35.252  1.00  0.00    -0.744 OA
ENDBRANCH  96  99
ENDBRANCH  69  92
ENDBRANCH  43  44
ENDBRANCH  35  38
ENDBRANCH  33  34
ENDBRANCH  32  33
ENDBRANCH   1  32
TORSDOF 17
ENDMDL
