MODEL 1
REMARK VINA RESULT:     -12.4      0.000      0.000
REMARK SMILES O=C(CC(=O)c1ccccc1)Nc1cccc(C(=O)NCCCCNC(=O)c2ccc(-c3c4nc(c(-c5cccc(S(=O)(=O)[O-])c5F)c5ccc([nH]5)c(-c5cccc(S(=O)(=O)[O-])c5F)c5nc(c(-c6cccc(S(=O)(=O)[O-])c6F)c6ccc3[nH]6)C=C5)C=C4)cc2)c1
REMARK SMILES IDX 22 1 21 2 20 3 18 4 19 5 17 7 13 8 14 9 91 10 15 11 16 12
REMARK SMILES IDX 12 13 1 14 2 15 3 17 4 18 5 19 6 20 7 21 11 22 8 23 10 24
REMARK SMILES IDX 9 25 23 26 24 27 25 28 26 29 27 31 28 32 29 33 90 34 30 35
REMARK SMILES IDX 89 36 31 37 32 38 33 39 83 40 34 41 88 42 82 43 84 44 35 45
REMARK SMILES IDX 87 46 81 47 80 48 36 50 68 51 48 52 67 53 49 54 52 55 66 56
REMARK SMILES IDX 85 57 50 58 51 59 65 61 86 62 53 63 37 64 38 65 46 66 39 67
REMARK SMILES IDX 41 68 47 69 40 70 42 71 43 72 44 73 45 74 69 75 70 76 78 77
REMARK SMILES IDX 71 78 73 79 79 80 72 81 74 82 75 83 76 84 77 85 54 86 55 87
REMARK SMILES IDX 63 88 56 89 58 90 64 91 57 92 59 93 60 94 61 95 62 96
REMARK H PARENT 20 6 12 16 25 30 84 49 52 60
REMARK Flexibility Score: inf
ROOT
ATOM      1  C   UNL A   1      31.162  30.361  25.133  1.00  0.00     0.023 C 
ENDROOT
BRANCH   1   2
ATOM      2  C   UNL A   1      32.443  29.551  25.267  1.00  0.00     0.116 C 
BRANCH   2   3
ATOM      3  N   UNL A   1      33.229  29.409  24.045  1.00  0.00    -0.352 N 
ATOM      4  C   UNL A   1      33.337  28.333  23.183  1.00  0.00     0.251 C 
ATOM      5  O   UNL A   1      34.051  28.403  22.187  1.00  0.00    -0.269 OA
ATOM      6  H   UNL A   1      33.762  30.200  23.797  1.00  0.00     0.163 HD
BRANCH   4   7
ATOM      7  C   UNL A   1      32.652  27.050  23.491  1.00  0.00     0.041 A 
ATOM      8  C   UNL A   1      32.854  24.746  24.178  1.00  0.00     0.041 A 
ATOM      9  C   UNL A   1      31.603  24.479  23.610  1.00  0.00     0.026 A 
ATOM     10  C   UNL A   1      33.290  26.064  24.239  1.00  0.00     0.040 A 
ATOM     11  C   UNL A   1      30.855  25.510  23.031  1.00  0.00     0.003 A 
ATOM     12  C   UNL A   1      31.398  26.792  22.935  1.00  0.00     0.014 A 
BRANCH   8  13
ATOM     13  N   UNL A   1      33.664  23.655  24.568  1.00  0.00    -0.326 N 
ATOM     14  O   UNL A   1      34.980  23.378  22.661  1.00  0.00    -0.274 OA
ATOM     15  C   UNL A   1      34.653  23.054  23.801  1.00  0.00     0.232 C 
ATOM     16  H   UNL A   1      33.513  23.286  25.469  1.00  0.00     0.169 HD
BRANCH  15  17
ATOM     17  C   UNL A   1      35.330  21.878  24.438  1.00  0.00     0.181 C 
BRANCH  17  18
ATOM     18  C   UNL A   1      34.480  20.862  25.141  1.00  0.00     0.172 C 
ATOM     19  O   UNL A   1      33.994  21.124  26.244  1.00  0.00    -0.294 OA
BRANCH  18  20
ATOM     20  C   UNL A   1      34.149  19.544  24.522  1.00  0.00     0.018 A 
ATOM     21  C   UNL A   1      32.892  19.429  23.912  1.00  0.00     0.012 A 
ATOM     22  C   UNL A   1      34.972  18.414  24.593  1.00  0.00     0.012 A 
ATOM     23  C   UNL A   1      32.453  18.201  23.411  1.00  0.00     0.001 A 
ATOM     24  C   UNL A   1      34.518  17.181  24.119  1.00  0.00     0.001 A 
ATOM     25  C   UNL A   1      33.260  17.074  23.532  1.00  0.00     0.000 A 
ENDBRANCH  18  20
ENDBRANCH  17  18
ENDBRANCH  15  17
ENDBRANCH   8  13
ENDBRANCH   4   7
ENDBRANCH   2   3
ENDBRANCH   1   2
BRANCH   1  26
ATOM     26  C   UNL A   1      31.078  31.638  25.957  1.00  0.00     0.023 C 
BRANCH  26  27
ATOM     27  C   UNL A   1      32.243  31.906  26.902  1.00  0.00     0.116 C 
BRANCH  27  28
ATOM     28  N   UNL A   1      32.355  33.293  27.336  1.00  0.00    -0.352 N 
ATOM     29  C   UNL A   1      33.354  33.919  28.053  1.00  0.00     0.251 C 
ATOM     30  H   UNL A   1      31.600  33.872  27.079  1.00  0.00     0.163 HD
ATOM     31  O   UNL A   1      33.232  35.088  28.388  1.00  0.00    -0.269 OA
BRANCH  29  32
ATOM     32  C   UNL A   1      34.560  33.155  28.454  1.00  0.00     0.039 A 
ATOM     33  C   UNL A   1      35.820  33.716  28.221  1.00  0.00     0.014 A 
ATOM     34  C   UNL A   1      34.450  31.922  29.097  1.00  0.00     0.014 A 
ATOM     35  C   UNL A   1      36.961  33.092  28.738  1.00  0.00     0.010 A 
ATOM     36  C   UNL A   1      35.576  31.346  29.679  1.00  0.00     0.010 A 
ATOM     37  C   UNL A   1      36.841  31.934  29.523  1.00  0.00    -0.014 A 
BRANCH  37  38
ATOM     38  C   UNL A   1      38.006  31.357  30.244  1.00  0.00     0.031 A 
ATOM     39  C   UNL A   1      38.885  30.333  29.581  1.00  0.00     0.074 A 
ATOM     40  C   UNL A   1      38.197  31.664  31.544  1.00  0.00     0.049 A 
ATOM     41  N   UNL A   1      39.881  29.651  30.086  1.00  0.00    -0.248 NA
ATOM     42  C   UNL A   1      38.587  30.008  28.177  1.00  0.00     0.031 C 
ATOM     43  C   UNL A   1      37.359  32.573  32.332  1.00  0.00     0.029 A 
ATOM     44  N   UNL A   1      39.133  31.218  32.444  1.00  0.00    -0.354 N 
ATOM     45  C   UNL A   1      40.302  28.791  29.079  1.00  0.00     0.074 A 
ATOM     46  C   UNL A   1      39.435  29.016  27.942  1.00  0.00     0.031 C 
ATOM     47  C   UNL A   1      37.819  32.617  33.593  1.00  0.00     0.029 A 
ATOM     48  C   UNL A   1      38.962  31.720  33.715  1.00  0.00     0.049 A 
ATOM     49  H   UNL A   1      39.860  30.598  32.204  1.00  0.00     0.167 HD
ATOM     50  C   UNL A   1      41.336  27.916  29.087  1.00  0.00     0.034 A 
ATOM     51  C   UNL A   1      39.641  31.478  34.853  1.00  0.00     0.034 A 
ATOM     52  C   UNL A   1      42.230  27.734  30.198  1.00  0.00     0.049 A 
ATOM     53  C   UNL A   1      40.815  30.537  34.822  1.00  0.00     0.074 A 
ATOM     54  C   UNL A   1      43.372  26.954  30.264  1.00  0.00     0.029 A 
ATOM     55  N   UNL A   1      42.085  28.333  31.440  1.00  0.00    -0.354 N 
ATOM     56  N   UNL A   1      41.307  29.868  33.808  1.00  0.00    -0.248 NA
ATOM     57  C   UNL A   1      41.546  30.341  36.083  1.00  0.00     0.031 C 
ATOM     58  C   UNL A   1      43.908  27.071  31.551  1.00  0.00     0.029 A 
ATOM     59  C   UNL A   1      43.107  27.932  32.282  1.00  0.00     0.049 A 
ATOM     60  H   UNL A   1      41.359  28.951  31.686  1.00  0.00     0.167 HD
ATOM     61  C   UNL A   1      42.420  29.196  34.300  1.00  0.00     0.074 A 
ATOM     62  C   UNL A   1      42.544  29.557  35.696  1.00  0.00     0.031 C 
ATOM     63  C   UNL A   1      43.252  28.340  33.656  1.00  0.00     0.034 A 
BRANCH  50  64
ATOM     64  C   UNL A   1      41.600  27.135  27.828  1.00  0.00     0.023 A 
ATOM     65  C   UNL A   1      42.091  27.809  26.690  1.00  0.00     0.012 A 
ATOM     66  C   UNL A   1      41.424  25.739  27.782  1.00  0.00     0.148 A 
ATOM     67  C   UNL A   1      42.373  27.110  25.517  1.00  0.00     0.002 A 
ATOM     68  C   UNL A   1      41.744  25.043  26.621  1.00  0.00     0.091 A 
ATOM     69  F   UNL A   1      40.935  25.119  28.866  1.00  0.00    -0.205 F 
ATOM     70  C   UNL A   1      42.209  25.728  25.486  1.00  0.00     0.022 A 
BRANCH  68  71
ATOM     71  S   UNL A   1      41.640  23.254  26.506  1.00  0.00     0.127 S 
ATOM     72  O   UNL A   1      40.193  23.046  26.454  1.00  0.00    -0.237 OA
ATOM     73  O   UNL A   1      42.338  22.982  25.250  1.00  0.00    -0.237 OA
ATOM     74  O   UNL A   1      42.306  22.737  27.693  1.00  0.00    -0.744 OA
ENDBRANCH  68  71
ENDBRANCH  50  64
BRANCH  51  75
ATOM     75  C   UNL A   1      39.271  32.196  36.107  1.00  0.00     0.023 A 
ATOM     76  C   UNL A   1      39.825  33.467  36.357  1.00  0.00     0.012 A 
ATOM     77  C   UNL A   1      38.353  31.654  37.026  1.00  0.00     0.148 A 
ATOM     78  C   UNL A   1      39.494  34.172  37.514  1.00  0.00     0.002 A 
ATOM     79  C   UNL A   1      37.986  32.386  38.151  1.00  0.00     0.091 A 
ATOM     80  F   UNL A   1      37.848  30.437  36.779  1.00  0.00    -0.205 F 
ATOM     81  C   UNL A   1      38.567  33.637  38.405  1.00  0.00     0.022 A 
BRANCH  79  82
ATOM     82  S   UNL A   1      36.702  31.831  39.279  1.00  0.00     0.127 S 
ATOM     83  O   UNL A   1      37.296  32.130  40.579  1.00  0.00    -0.237 OA
ATOM     84  O   UNL A   1      35.576  32.687  38.904  1.00  0.00    -0.237 OA
ATOM     85  O   UNL A   1      36.503  30.420  38.978  1.00  0.00    -0.744 OA
ENDBRANCH  79  82
ENDBRANCH  51  75
BRANCH  63  86
ATOM     86  C   UNL A   1      44.387  27.741  34.444  1.00  0.00     0.023 A 
ATOM     87  C   UNL A   1      45.615  28.427  34.522  1.00  0.00     0.012 A 
ATOM     88  C   UNL A   1      44.211  26.548  35.173  1.00  0.00     0.148 A 
ATOM     89  C   UNL A   1      46.660  27.923  35.295  1.00  0.00     0.002 A 
ATOM     90  C   UNL A   1      45.243  26.075  35.975  1.00  0.00     0.091 A 
ATOM     91  F   UNL A   1      43.042  25.901  35.070  1.00  0.00    -0.205 F 
ATOM     92  C   UNL A   1      46.470  26.755  36.030  1.00  0.00     0.022 A 
BRANCH  90  93
ATOM     93  S   UNL A   1      45.058  24.630  37.028  1.00  0.00     0.127 S 
ATOM     94  O   UNL A   1      46.394  24.511  37.610  1.00  0.00    -0.237 OA
ATOM     95  O   UNL A   1      44.021  25.059  37.967  1.00  0.00    -0.237 OA
ATOM     96  O   UNL A   1      44.660  23.541  36.146  1.00  0.00    -0.744 OA
ENDBRANCH  90  93
ENDBRANCH  63  86
ENDBRANCH  37  38
ENDBRANCH  29  32
ENDBRANCH  27  28
ENDBRANCH  26  27
ENDBRANCH   1  26
TORSDOF 18
ENDMDL
MODEL 2
REMARK VINA RESULT:     -12.3      1.980      2.729
REMARK SMILES O=C(CC(=O)c1ccccc1)Nc1cccc(C(=O)NCCCCNC(=O)c2ccc(-c3c4nc(c(-c5cccc(S(=O)(=O)[O-])c5F)c5ccc([nH]5)c(-c5cccc(S(=O)(=O)[O-])c5F)c5nc(c(-c6cccc(S(=O)(=O)[O-])c6F)c6ccc3[nH]6)C=C5)C=C4)cc2)c1
REMARK SMILES IDX 22 1 21 2 20 3 18 4 19 5 17 7 13 8 14 9 91 10 15 11 16 12
REMARK SMILES IDX 12 13 1 14 2 15 3 17 4 18 5 19 6 20 7 21 11 22 8 23 10 24
REMARK SMILES IDX 9 25 23 26 24 27 25 28 26 29 27 31 28 32 29 33 90 34 30 35
REMARK SMILES IDX 89 36 31 37 32 38 33 39 83 40 34 41 88 42 82 43 84 44 35 45
REMARK SMILES IDX 87 46 81 47 80 48 36 50 68 51 48 52 67 53 49 54 52 55 66 56
REMARK SMILES IDX 85 57 50 58 51 59 65 61 86 62 53 63 37 64 38 65 46 66 39 67
REMARK SMILES IDX 41 68 47 69 40 70 42 71 43 72 44 73 45 74 69 75 70 76 78 77
REMARK SMILES IDX 71 78 73 79 79 80 72 81 74 82 75 83 76 84 77 85 54 86 55 87
REMARK SMILES IDX 63 88 56 89 58 90 64 91 57 92 59 93 60 94 61 95 62 96
REMARK H PARENT 20 6 12 16 25 30 84 49 52 60
REMARK Flexibility Score: inf
ROOT
ATOM      1  C   UNL A   1      32.157  29.821  27.210  1.00  0.00     0.023 C 
ENDROOT
BRANCH   1   2
ATOM      2  C   UNL A   1      33.400  29.090  26.727  1.00  0.00     0.116 C 
BRANCH   2   3
ATOM      3  N   UNL A   1      33.782  29.345  25.341  1.00  0.00    -0.352 N 
ATOM      4  C   UNL A   1      33.176  28.935  24.168  1.00  0.00     0.251 C 
ATOM      5  O   UNL A   1      33.644  29.260  23.080  1.00  0.00    -0.269 OA
ATOM      6  H   UNL A   1      34.593  29.892  25.225  1.00  0.00     0.163 HD
BRANCH   4   7
ATOM      7  C   UNL A   1      31.995  28.033  24.205  1.00  0.00     0.041 A 
ATOM      8  C   UNL A   1      31.157  25.770  24.164  1.00  0.00     0.041 A 
ATOM      9  C   UNL A   1      29.909  26.252  23.756  1.00  0.00     0.026 A 
ATOM     10  C   UNL A   1      32.139  26.685  24.526  1.00  0.00     0.040 A 
ATOM     11  C   UNL A   1      29.690  27.628  23.627  1.00  0.00     0.003 A 
ATOM     12  C   UNL A   1      30.748  28.520  23.812  1.00  0.00     0.014 A 
BRANCH   8  13
ATOM     13  N   UNL A   1      31.401  24.380  24.088  1.00  0.00    -0.326 N 
ATOM     14  O   UNL A   1      32.686  24.261  22.145  1.00  0.00    -0.274 OA
ATOM     15  C   UNL A   1      32.133  23.729  23.105  1.00  0.00     0.232 C 
ATOM     16  H   UNL A   1      31.015  23.819  24.801  1.00  0.00     0.169 HD
BRANCH  15  17
ATOM     17  C   UNL A   1      32.194  22.237  23.235  1.00  0.00     0.181 C 
BRANCH  17  18
ATOM     18  C   UNL A   1      33.334  21.635  24.002  1.00  0.00     0.172 C 
ATOM     19  O   UNL A   1      33.337  20.428  24.254  1.00  0.00    -0.294 OA
BRANCH  18  20
ATOM     20  C   UNL A   1      34.511  22.447  24.434  1.00  0.00     0.018 A 
ATOM     21  C   UNL A   1      35.568  22.564  23.521  1.00  0.00     0.012 A 
ATOM     22  C   UNL A   1      34.652  23.011  25.707  1.00  0.00     0.012 A 
ATOM     23  C   UNL A   1      36.755  23.205  23.884  1.00  0.00     0.001 A 
ATOM     24  C   UNL A   1      35.851  23.625  26.077  1.00  0.00     0.001 A 
ATOM     25  C   UNL A   1      36.902  23.719  25.169  1.00  0.00     0.000 A 
ENDBRANCH  18  20
ENDBRANCH  17  18
ENDBRANCH  15  17
ENDBRANCH   8  13
ENDBRANCH   4   7
ENDBRANCH   2   3
ENDBRANCH   1   2
BRANCH   1  26
ATOM     26  C   UNL A   1      32.032  31.284  26.809  1.00  0.00     0.023 C 
BRANCH  26  27
ATOM     27  C   UNL A   1      33.093  32.226  27.365  1.00  0.00     0.116 C 
BRANCH  27  28
ATOM     28  N   UNL A   1      32.619  33.583  27.608  1.00  0.00    -0.352 N 
ATOM     29  C   UNL A   1      33.086  34.540  28.487  1.00  0.00     0.251 C 
ATOM     30  H   UNL A   1      31.847  33.859  27.062  1.00  0.00     0.163 HD
ATOM     31  O   UNL A   1      32.504  35.608  28.599  1.00  0.00    -0.269 OA
BRANCH  29  32
ATOM     32  C   UNL A   1      34.272  34.250  29.327  1.00  0.00     0.039 A 
ATOM     33  C   UNL A   1      34.079  33.688  30.593  1.00  0.00     0.014 A 
ATOM     34  C   UNL A   1      35.564  34.482  28.854  1.00  0.00     0.014 A 
ATOM     35  C   UNL A   1      35.183  33.254  31.334  1.00  0.00     0.010 A 
ATOM     36  C   UNL A   1      36.655  33.977  29.554  1.00  0.00     0.010 A 
ATOM     37  C   UNL A   1      36.477  33.340  30.793  1.00  0.00    -0.014 A 
BRANCH  37  38
ATOM     38  C   UNL A   1      37.646  32.716  31.466  1.00  0.00     0.031 A 
ATOM     39  C   UNL A   1      38.361  31.553  30.837  1.00  0.00     0.074 A 
ATOM     40  C   UNL A   1      37.987  33.120  32.708  1.00  0.00     0.049 A 
ATOM     41  N   UNL A   1      39.333  30.823  31.320  1.00  0.00    -0.248 NA
ATOM     42  C   UNL A   1      37.904  31.133  29.502  1.00  0.00     0.031 C 
ATOM     43  C   UNL A   1      37.314  34.176  33.469  1.00  0.00     0.029 A 
ATOM     44  N   UNL A   1      38.958  32.665  33.566  1.00  0.00    -0.354 N 
ATOM     45  C   UNL A   1      39.577  29.837  30.372  1.00  0.00     0.074 A 
ATOM     46  C   UNL A   1      38.631  30.043  29.296  1.00  0.00     0.031 C 
ATOM     47  C   UNL A   1      37.892  34.288  34.676  1.00  0.00     0.029 A 
ATOM     48  C   UNL A   1      38.954  33.295  34.790  1.00  0.00     0.049 A 
ATOM     49  H   UNL A   1      39.599  31.956  33.327  1.00  0.00     0.167 HD
ATOM     50  C   UNL A   1      40.522  28.867  30.380  1.00  0.00     0.034 A 
ATOM     51  C   UNL A   1      39.713  33.091  35.885  1.00  0.00     0.034 A 
ATOM     52  C   UNL A   1      41.496  28.697  31.423  1.00  0.00     0.049 A 
ATOM     53  C   UNL A   1      40.787  32.037  35.848  1.00  0.00     0.074 A 
ATOM     54  C   UNL A   1      42.562  27.815  31.469  1.00  0.00     0.029 A 
ATOM     55  N   UNL A   1      41.524  29.418  32.606  1.00  0.00    -0.354 N 
ATOM     56  N   UNL A   1      41.118  31.233  34.867  1.00  0.00    -0.248 NA
ATOM     57  C   UNL A   1      41.612  31.885  37.055  1.00  0.00     0.031 C 
ATOM     58  C   UNL A   1      43.225  27.994  32.688  1.00  0.00     0.029 A 
ATOM     59  C   UNL A   1      42.580  28.995  33.395  1.00  0.00     0.049 A 
ATOM     60  H   UNL A   1      40.885  30.126  32.851  1.00  0.00     0.167 HD
ATOM     61  C   UNL A   1      42.205  30.499  35.327  1.00  0.00     0.074 A 
ATOM     62  C   UNL A   1      42.492  30.972  36.665  1.00  0.00     0.031 C 
ATOM     63  C   UNL A   1      42.890  29.509  34.703  1.00  0.00     0.034 A 
BRANCH  50  64
ATOM     64  C   UNL A   1      40.592  27.951  29.186  1.00  0.00     0.023 A 
ATOM     65  C   UNL A   1      39.719  26.847  29.113  1.00  0.00     0.012 A 
ATOM     66  C   UNL A   1      41.470  28.211  28.116  1.00  0.00     0.148 A 
ATOM     67  C   UNL A   1      39.739  25.997  28.008  1.00  0.00     0.002 A 
ATOM     68  C   UNL A   1      41.457  27.382  27.000  1.00  0.00     0.091 A 
ATOM     69  F   UNL A   1      42.309  29.253  28.214  1.00  0.00    -0.205 F 
ATOM     70  C   UNL A   1      40.600  26.270  26.949  1.00  0.00     0.022 A 
BRANCH  68  71
ATOM     71  S   UNL A   1      42.474  27.693  25.552  1.00  0.00     0.127 S 
ATOM     72  O   UNL A   1      41.899  28.942  25.052  1.00  0.00    -0.237 OA
ATOM     73  O   UNL A   1      43.809  27.828  26.133  1.00  0.00    -0.237 OA
ATOM     74  O   UNL A   1      42.305  26.533  24.687  1.00  0.00    -0.744 OA
ENDBRANCH  68  71
ENDBRANCH  50  64
BRANCH  51  75
ATOM     75  C   UNL A   1      39.529  33.953  37.087  1.00  0.00     0.023 A 
ATOM     76  C   UNL A   1      39.965  35.293  37.042  1.00  0.00     0.012 A 
ATOM     77  C   UNL A   1      38.899  33.476  38.251  1.00  0.00     0.148 A 
ATOM     78  C   UNL A   1      39.802  36.132  38.144  1.00  0.00     0.002 A 
ATOM     79  C   UNL A   1      38.690  34.333  39.327  1.00  0.00     0.091 A 
ATOM     80  F   UNL A   1      38.505  32.195  38.282  1.00  0.00    -0.205 F 
ATOM     81  C   UNL A   1      39.155  35.656  39.281  1.00  0.00     0.022 A 
BRANCH  79  82
ATOM     82  S   UNL A   1      37.749  33.841  40.777  1.00  0.00     0.127 S 
ATOM     83  O   UNL A   1      38.683  32.941  41.448  1.00  0.00    -0.237 OA
ATOM     84  O   UNL A   1      37.536  35.123  41.451  1.00  0.00    -0.237 OA
ATOM     85  O   UNL A   1      36.533  33.229  40.262  1.00  0.00    -0.744 OA
ENDBRANCH  79  82
ENDBRANCH  51  75
BRANCH  63  86
ATOM     86  C   UNL A   1      44.034  28.873  35.449  1.00  0.00     0.023 A 
ATOM     87  C   UNL A   1      45.317  29.449  35.371  1.00  0.00     0.012 A 
ATOM     88  C   UNL A   1      43.822  27.762  36.288  1.00  0.00     0.148 A 
ATOM     89  C   UNL A   1      46.379  28.914  36.099  1.00  0.00     0.002 A 
ATOM     90  C   UNL A   1      44.875  27.261  37.044  1.00  0.00     0.091 A 
ATOM     91  F   UNL A   1      42.598  27.217  36.333  1.00  0.00    -0.205 F 
ATOM     92  C   UNL A   1      46.156  27.829  36.944  1.00  0.00     0.022 A 
BRANCH  90  93
ATOM     93  S   UNL A   1      44.661  25.926  38.227  1.00  0.00     0.127 S 
ATOM     94  O   UNL A   1      46.038  25.474  38.422  1.00  0.00    -0.237 OA
ATOM     95  O   UNL A   1      44.079  26.618  39.378  1.00  0.00    -0.237 OA
ATOM     96  O   UNL A   1      43.772  24.964  37.590  1.00  0.00    -0.744 OA
ENDBRANCH  90  93
ENDBRANCH  63  86
ENDBRANCH  37  38
ENDBRANCH  29  32
ENDBRANCH  27  28
ENDBRANCH  26  27
ENDBRANCH   1  26
TORSDOF 18
ENDMDL
MODEL 3
REMARK VINA RESULT:     -12.2      1.513      7.635
REMARK SMILES O=C(CC(=O)c1ccccc1)Nc1cccc(C(=O)NCCCCNC(=O)c2ccc(-c3c4nc(c(-c5cccc(S(=O)(=O)[O-])c5F)c5ccc([nH]5)c(-c5cccc(S(=O)(=O)[O-])c5F)c5nc(c(-c6cccc(S(=O)(=O)[O-])c6F)c6ccc3[nH]6)C=C5)C=C4)cc2)c1
REMARK SMILES IDX 22 1 21 2 20 3 18 4 19 5 17 7 13 8 14 9 91 10 15 11 16 12
REMARK SMILES IDX 12 13 1 14 2 15 3 17 4 18 5 19 6 20 7 21 11 22 8 23 10 24
REMARK SMILES IDX 9 25 23 26 24 27 25 28 26 29 27 31 28 32 29 33 90 34 30 35
REMARK SMILES IDX 89 36 31 37 32 38 33 39 83 40 34 41 88 42 82 43 84 44 35 45
REMARK SMILES IDX 87 46 81 47 80 48 36 50 68 51 48 52 67 53 49 54 52 55 66 56
REMARK SMILES IDX 85 57 50 58 51 59 65 61 86 62 53 63 37 64 38 65 46 66 39 67
REMARK SMILES IDX 41 68 47 69 40 70 42 71 43 72 44 73 45 74 69 75 70 76 78 77
REMARK SMILES IDX 71 78 73 79 79 80 72 81 74 82 75 83 76 84 77 85 54 86 55 87
REMARK SMILES IDX 63 88 56 89 58 90 64 91 57 92 59 93 60 94 61 95 62 96
REMARK H PARENT 20 6 12 16 25 30 84 49 52 60
REMARK Flexibility Score: inf
ROOT
ATOM      1  C   UNL A   1      32.381  27.500  26.731  1.00  0.00     0.023 C 
ENDROOT
BRANCH   1   2
ATOM      2  C   UNL A   1      31.526  26.292  26.383  1.00  0.00     0.116 C 
BRANCH   2   3
ATOM      3  N   UNL A   1      30.277  26.584  25.685  1.00  0.00    -0.352 N 
ATOM      4  C   UNL A   1      29.909  26.310  24.381  1.00  0.00     0.251 C 
ATOM      5  O   UNL A   1      28.797  26.630  23.969  1.00  0.00    -0.269 OA
ATOM      6  H   UNL A   1      29.595  27.047  26.225  1.00  0.00     0.163 HD
BRANCH   4   7
ATOM      7  C   UNL A   1      30.879  25.695  23.438  1.00  0.00     0.041 A 
ATOM      8  C   UNL A   1      32.522  23.973  23.039  1.00  0.00     0.041 A 
ATOM      9  C   UNL A   1      33.067  24.748  22.009  1.00  0.00     0.026 A 
ATOM     10  C   UNL A   1      31.341  24.397  23.638  1.00  0.00     0.040 A 
ATOM     11  C   UNL A   1      32.483  25.970  21.660  1.00  0.00     0.003 A 
ATOM     12  C   UNL A   1      31.410  26.465  22.403  1.00  0.00     0.014 A 
BRANCH   8  13
ATOM     13  N   UNL A   1      33.251  22.852  23.498  1.00  0.00    -0.326 N 
ATOM     14  O   UNL A   1      34.842  23.884  24.856  1.00  0.00    -0.274 OA
ATOM     15  C   UNL A   1      34.340  22.878  24.357  1.00  0.00     0.232 C 
ATOM     16  H   UNL A   1      32.957  21.967  23.178  1.00  0.00     0.169 HD
BRANCH  15  17
ATOM     17  C   UNL A   1      34.962  21.545  24.643  1.00  0.00     0.181 C 
BRANCH  17  18
ATOM     18  C   UNL A   1      34.102  20.474  25.245  1.00  0.00     0.172 C 
ATOM     19  O   UNL A   1      33.547  20.667  26.330  1.00  0.00    -0.294 OA
BRANCH  18  20
ATOM     20  C   UNL A   1      33.846  19.179  24.545  1.00  0.00     0.018 A 
ATOM     21  C   UNL A   1      34.841  18.197  24.649  1.00  0.00     0.012 A 
ATOM     22  C   UNL A   1      32.733  18.931  23.736  1.00  0.00     0.012 A 
ATOM     23  C   UNL A   1      34.740  17.003  23.933  1.00  0.00     0.001 A 
ATOM     24  C   UNL A   1      32.648  17.748  22.997  1.00  0.00     0.001 A 
ATOM     25  C   UNL A   1      33.651  16.787  23.092  1.00  0.00     0.000 A 
ENDBRANCH  18  20
ENDBRANCH  17  18
ENDBRANCH  15  17
ENDBRANCH   8  13
ENDBRANCH   4   7
ENDBRANCH   2   3
ENDBRANCH   1   2
BRANCH   1  26
ATOM     26  C   UNL A   1      31.901  28.845  26.203  1.00  0.00     0.023 C 
BRANCH  26  27
ATOM     27  C   UNL A   1      32.984  29.874  25.901  1.00  0.00     0.116 C 
BRANCH  27  28
ATOM     28  N   UNL A   1      32.789  31.159  26.562  1.00  0.00    -0.352 N 
ATOM     29  C   UNL A   1      33.583  31.811  27.483  1.00  0.00     0.251 C 
ATOM     30  H   UNL A   1      31.962  31.634  26.313  1.00  0.00     0.163 HD
ATOM     31  O   UNL A   1      33.211  32.861  27.983  1.00  0.00    -0.269 OA
BRANCH  29  32
ATOM     32  C   UNL A   1      34.873  31.209  27.897  1.00  0.00     0.039 A 
ATOM     33  C   UNL A   1      35.997  32.034  28.002  1.00  0.00     0.014 A 
ATOM     34  C   UNL A   1      34.964  29.856  28.226  1.00  0.00     0.014 A 
ATOM     35  C   UNL A   1      37.181  31.525  28.548  1.00  0.00     0.010 A 
ATOM     36  C   UNL A   1      36.115  29.373  28.843  1.00  0.00     0.010 A 
ATOM     37  C   UNL A   1      37.230  30.206  29.029  1.00  0.00    -0.014 A 
BRANCH  37  38
ATOM     38  C   UNL A   1      38.403  29.695  29.785  1.00  0.00     0.031 A 
ATOM     39  C   UNL A   1      38.755  30.268  31.129  1.00  0.00     0.074 A 
ATOM     40  C   UNL A   1      39.226  28.799  29.201  1.00  0.00     0.049 A 
ATOM     41  N   UNL A   1      39.792  30.017  31.886  1.00  0.00    -0.248 NA
ATOM     42  C   UNL A   1      37.840  31.279  31.683  1.00  0.00     0.031 C 
ATOM     43  C   UNL A   1      39.048  28.233  27.861  1.00  0.00     0.029 A 
ATOM     44  N   UNL A   1      40.397  28.234  29.643  1.00  0.00    -0.354 N 
ATOM     45  C   UNL A   1      39.677  30.863  32.983  1.00  0.00     0.074 A 
ATOM     46  C   UNL A   1      38.483  31.657  32.779  1.00  0.00     0.031 C 
ATOM     47  C   UNL A   1      40.070  27.404  27.592  1.00  0.00     0.029 A 
ATOM     48  C   UNL A   1      40.991  27.401  28.723  1.00  0.00     0.049 A 
ATOM     49  H   UNL A   1      40.776  28.408  30.536  1.00  0.00     0.167 HD
ATOM     50  C   UNL A   1      40.473  30.951  34.075  1.00  0.00     0.034 A 
ATOM     51  C   UNL A   1      42.152  26.718  28.777  1.00  0.00     0.034 A 
ATOM     52  C   UNL A   1      41.627  30.124  34.301  1.00  0.00     0.049 A 
ATOM     53  C   UNL A   1      42.993  26.797  30.022  1.00  0.00     0.074 A 
ATOM     54  C   UNL A   1      42.432  30.060  35.425  1.00  0.00     0.029 A 
ATOM     55  N   UNL A   1      42.145  29.219  33.388  1.00  0.00    -0.354 N 
ATOM     56  N   UNL A   1      42.770  27.470  31.125  1.00  0.00    -0.248 NA
ATOM     57  C   UNL A   1      44.228  26.000  30.044  1.00  0.00     0.031 C 
ATOM     58  C   UNL A   1      43.446  29.127  35.185  1.00  0.00     0.029 A 
ATOM     59  C   UNL A   1      43.265  28.600  33.916  1.00  0.00     0.049 A 
ATOM     60  H   UNL A   1      41.771  29.043  32.494  1.00  0.00     0.167 HD
ATOM     61  C   UNL A   1      43.819  27.156  31.981  1.00  0.00     0.074 A 
ATOM     62  C   UNL A   1      44.665  26.214  31.279  1.00  0.00     0.031 C 
ATOM     63  C   UNL A   1      44.069  27.624  33.229  1.00  0.00     0.034 A 
BRANCH  50  64
ATOM     64  C   UNL A   1      40.083  31.934  35.146  1.00  0.00     0.023 A 
ATOM     65  C   UNL A   1      40.674  33.215  35.154  1.00  0.00     0.012 A 
ATOM     66  C   UNL A   1      39.097  31.622  36.102  1.00  0.00     0.148 A 
ATOM     67  C   UNL A   1      40.313  34.158  36.115  1.00  0.00     0.002 A 
ATOM     68  C   UNL A   1      38.714  32.581  37.033  1.00  0.00     0.091 A 
ATOM     69  F   UNL A   1      38.563  30.392  36.093  1.00  0.00    -0.205 F 
ATOM     70  C   UNL A   1      39.327  33.845  37.047  1.00  0.00     0.022 A 
BRANCH  68  71
ATOM     71  S   UNL A   1      37.401  32.301  38.226  1.00  0.00     0.127 S 
ATOM     72  O   UNL A   1      37.975  32.884  39.439  1.00  0.00    -0.237 OA
ATOM     73  O   UNL A   1      36.292  33.063  37.652  1.00  0.00    -0.237 OA
ATOM     74  O   UNL A   1      37.192  30.860  38.260  1.00  0.00    -0.744 OA
ENDBRANCH  68  71
ENDBRANCH  50  64
BRANCH  51  75
ATOM     75  C   UNL A   1      42.551  25.839  27.640  1.00  0.00     0.023 A 
ATOM     76  C   UNL A   1      43.457  26.332  26.679  1.00  0.00     0.012 A 
ATOM     77  C   UNL A   1      42.076  24.520  27.522  1.00  0.00     0.148 A 
ATOM     78  C   UNL A   1      43.860  25.535  25.608  1.00  0.00     0.002 A 
ATOM     79  C   UNL A   1      42.524  23.713  26.481  1.00  0.00     0.091 A 
ATOM     80  F   UNL A   1      41.202  24.074  28.436  1.00  0.00    -0.205 F 
ATOM     81  C   UNL A   1      43.403  24.224  25.514  1.00  0.00     0.022 A 
BRANCH  79  82
ATOM     82  S   UNL A   1      42.090  21.973  26.361  1.00  0.00     0.127 S 
ATOM     83  O   UNL A   1      42.461  21.480  27.684  1.00  0.00    -0.237 OA
ATOM     84  O   UNL A   1      40.649  22.036  26.108  1.00  0.00    -0.237 OA
ATOM     85  O   UNL A   1      42.868  21.454  25.245  1.00  0.00    -0.744 OA
ENDBRANCH  79  82
ENDBRANCH  51  75
BRANCH  63  86
ATOM     86  C   UNL A   1      45.299  27.114  33.933  1.00  0.00     0.023 A 
ATOM     87  C   UNL A   1      46.507  27.831  33.826  1.00  0.00     0.012 A 
ATOM     88  C   UNL A   1      45.239  25.978  34.763  1.00  0.00     0.148 A 
ATOM     89  C   UNL A   1      47.643  27.413  34.516  1.00  0.00     0.002 A 
ATOM     90  C   UNL A   1      46.364  25.592  35.483  1.00  0.00     0.091 A 
ATOM     91  F   UNL A   1      44.086  25.298  34.836  1.00  0.00    -0.205 F 
ATOM     92  C   UNL A   1      47.569  26.301  35.353  1.00  0.00     0.022 A 
BRANCH  90  93
ATOM     93  S   UNL A   1      46.337  24.229  36.654  1.00  0.00     0.127 S 
ATOM     94  O   UNL A   1      45.327  24.678  37.611  1.00  0.00    -0.237 OA
ATOM     95  O   UNL A   1      45.923  23.104  35.814  1.00  0.00    -0.237 OA
ATOM     96  O   UNL A   1      47.692  24.123  37.177  1.00  0.00    -0.744 OA
ENDBRANCH  90  93
ENDBRANCH  63  86
ENDBRANCH  37  38
ENDBRANCH  29  32
ENDBRANCH  27  28
ENDBRANCH  26  27
ENDBRANCH   1  26
TORSDOF 18
ENDMDL
