MODEL 1
REMARK VINA RESULT:     -13.1      0.000      0.000
REMARK SMILES CC(C)(NC(=O)[C@]1(C)CCCO1)C(C)(C)C(=O)NCCCCNC(=O)c1ccc(-c2c3nc(c(-c4cccc(S(=O)(=O)[O-])c4F)c4ccc([nH]4)c(-c4cccc(S(=O)(=O)[O-])c4F)c4nc(c(-c5cccc(S(=O)(=O)[O-])c5F)c5ccc2[nH]5)C=C4)C=C3)cc1
REMARK SMILES IDX 20 1 19 2 18 3 16 4 17 5 13 7 14 8 15 9 2 10 1 11 3 12 4 13
REMARK SMILES IDX 5 14 6 16 7 17 9 18 12 19 8 20 10 21 11 22 21 23 22 24 23 25
REMARK SMILES IDX 24 26 25 28 26 29 27 30 88 31 28 32 87 33 29 34 30 35 31 36
REMARK SMILES IDX 81 37 32 38 86 39 80 40 82 41 33 42 85 43 79 44 78 45 34 47
REMARK SMILES IDX 66 48 46 49 65 50 47 51 50 52 64 53 83 54 48 55 49 56 63 58
REMARK SMILES IDX 84 59 51 60 35 61 36 62 44 63 37 64 39 65 45 66 38 67 40 68
REMARK SMILES IDX 41 69 42 70 43 71 67 72 68 73 76 74 69 75 71 76 77 77 70 78
REMARK SMILES IDX 72 79 73 80 74 81 75 82 52 83 53 84 61 85 54 86 56 87 62 88
REMARK SMILES IDX 55 89 57 90 58 91 59 92 60 93
REMARK H PARENT 18 6 4 15 23 27 82 46 50 57
REMARK Flexibility Score: inf
ROOT
ATOM      1  C   UNL A   1      31.235  30.436  25.394  1.00  0.00     0.023 C 
ENDROOT
BRANCH   1   2
ATOM      2  C   UNL A   1      32.692  29.899  25.469  1.00  0.00     0.116 C 
BRANCH   2   3
ATOM      3  N   UNL A   1      33.511  29.667  23.995  1.00  0.00    -0.356 N 
ATOM      4  C   UNL A   1      33.516  28.204  22.661  1.00  0.00     0.228 C 
ATOM      5  O   UNL A   1      34.358  27.994  21.758  1.00  0.00    -0.274 OA
ATOM      6  H   UNL A   1      34.104  30.415  23.756  1.00  0.00     0.163 HD
BRANCH   4   7
ATOM      7  C   UNL A   1      32.087  26.919  22.649  1.00  0.00     0.066 C 
ATOM      8  C   UNL A   1      31.777  25.969  21.327  1.00  0.00     0.024 C 
ATOM      9  C   UNL A   1      30.668  27.507  22.932  1.00  0.00     0.024 C 
BRANCH   7  10
ATOM     10  C   UNL A   1      32.610  25.943  23.710  1.00  0.00     0.048 C 
ATOM     11  C   UNL A   1      31.472  25.272  24.527  1.00  0.00     0.035 C 
ATOM     12  C   UNL A   1      33.466  26.620  24.822  1.00  0.00     0.035 C 
BRANCH  10  13
ATOM     13  N   UNL A   1      33.329  24.903  22.914  1.00  0.00    -0.348 N 
ATOM     14  C   UNL A   1      34.273  23.951  23.307  1.00  0.00     0.252 C 
ATOM     15  H   UNL A   1      33.100  24.887  21.956  1.00  0.00     0.164 HD
ATOM     16  O   UNL A   1      34.826  23.344  22.377  1.00  0.00    -0.272 OA
BRANCH  14  17
ATOM     17  C   UNL A   1      34.648  23.483  24.950  1.00  0.00     0.143 C 
ATOM     18  C   UNL A   1      34.709  21.505  24.749  1.00  0.00     0.048 C 
ATOM     19  O   UNL A   1      33.353  23.847  26.366  1.00  0.00    -0.365 OA
ATOM     20  C   UNL A   1      36.031  24.078  25.270  1.00  0.00     0.053 C 
ATOM     21  C   UNL A   1      33.291  20.712  25.905  1.00  0.00     0.032 C 
ATOM     22  C   UNL A   1      32.366  22.210  26.833  1.00  0.00     0.162 C 
ENDBRANCH  14  17
ENDBRANCH  10  13
ENDBRANCH   7  10
ENDBRANCH   4   7
ENDBRANCH   2   3
ENDBRANCH   1   2
BRANCH   1  23
ATOM     23  C   UNL A   1      31.028  31.747  26.127  1.00  0.00     0.023 C 
BRANCH  23  24
ATOM     24  C   UNL A   1      32.282  32.139  26.877  1.00  0.00     0.116 C 
BRANCH  24  25
ATOM     25  N   UNL A   1      32.280  33.575  27.175  1.00  0.00    -0.352 N 
ATOM     26  C   UNL A   1      33.007  34.240  28.121  1.00  0.00     0.251 C 
ATOM     27  H   UNL A   1      31.679  34.129  26.625  1.00  0.00     0.163 HD
ATOM     28  O   UNL A   1      32.678  35.351  28.515  1.00  0.00    -0.269 OA
BRANCH  26  29
ATOM     29  C   UNL A   1      34.204  33.562  28.624  1.00  0.00     0.039 A 
ATOM     30  C   UNL A   1      35.442  34.188  28.535  1.00  0.00     0.014 A 
ATOM     31  C   UNL A   1      34.043  32.339  29.284  1.00  0.00     0.014 A 
ATOM     32  C   UNL A   1      36.530  33.587  29.156  1.00  0.00     0.010 A 
ATOM     33  C   UNL A   1      35.088  31.830  30.022  1.00  0.00     0.010 A 
ATOM     34  C   UNL A   1      36.350  32.426  29.930  1.00  0.00    -0.014 A 
BRANCH  34  35
ATOM     35  C   UNL A   1      37.484  31.792  30.629  1.00  0.00     0.031 A 
ATOM     36  C   UNL A   1      38.301  30.751  29.918  1.00  0.00     0.074 A 
ATOM     37  C   UNL A   1      37.733  32.117  31.910  1.00  0.00     0.049 A 
ATOM     38  N   UNL A   1      39.324  30.071  30.363  1.00  0.00    -0.248 NA
ATOM     39  C   UNL A   1      37.906  30.401  28.541  1.00  0.00     0.031 C 
ATOM     40  C   UNL A   1      36.946  33.055  32.717  1.00  0.00     0.029 A 
ATOM     41  N   UNL A   1      38.711  31.681  32.764  1.00  0.00    -0.354 N 
ATOM     42  C   UNL A   1      39.667  29.197  29.341  1.00  0.00     0.074 A 
ATOM     43  C   UNL A   1      38.718  29.393  28.271  1.00  0.00     0.031 C 
ATOM     44  C   UNL A   1      37.490  33.143  33.940  1.00  0.00     0.029 A 
ATOM     45  C   UNL A   1      38.626  32.232  34.019  1.00  0.00     0.049 A 
ATOM     46  H   UNL A   1      39.406  31.035  32.503  1.00  0.00     0.167 HD
ATOM     47  C   UNL A   1      40.698  28.327  29.290  1.00  0.00     0.034 A 
ATOM     48  C   UNL A   1      39.373  32.009  35.118  1.00  0.00     0.034 A 
ATOM     49  C   UNL A   1      41.647  28.156  30.353  1.00  0.00     0.049 A 
ATOM     50  C   UNL A   1      40.521  31.044  35.027  1.00  0.00     0.074 A 
ATOM     51  C   UNL A   1      42.779  27.362  30.370  1.00  0.00     0.029 A 
ATOM     52  N   UNL A   1      41.562  28.765  31.594  1.00  0.00    -0.354 N 
ATOM     53  N   UNL A   1      40.922  30.333  34.000  1.00  0.00    -0.248 NA
ATOM     54  C   UNL A   1      41.339  30.873  36.234  1.00  0.00     0.031 C 
ATOM     55  C   UNL A   1      43.342  27.441  31.647  1.00  0.00     0.029 A 
ATOM     56  C   UNL A   1      42.606  28.343  32.398  1.00  0.00     0.049 A 
ATOM     57  H   UNL A   1      40.863  29.404  31.864  1.00  0.00     0.167 HD
ATOM     58  C   UNL A   1      42.062  29.663  34.425  1.00  0.00     0.074 A 
ATOM     59  C   UNL A   1      42.298  30.069  35.795  1.00  0.00     0.031 C 
ATOM     60  C   UNL A   1      42.843  28.786  33.747  1.00  0.00     0.034 A 
BRANCH  47  61
ATOM     61  C   UNL A   1      40.859  27.500  28.042  1.00  0.00     0.023 A 
ATOM     62  C   UNL A   1      41.363  28.084  26.862  1.00  0.00     0.012 A 
ATOM     63  C   UNL A   1      40.560  26.125  28.061  1.00  0.00     0.148 A 
ATOM     64  C   UNL A   1      41.535  27.317  25.710  1.00  0.00     0.002 A 
ATOM     65  C   UNL A   1      40.788  25.357  26.928  1.00  0.00     0.091 A 
ATOM     66  F   UNL A   1      40.058  25.597  29.186  1.00  0.00    -0.205 F 
ATOM     67  C   UNL A   1      41.260  25.953  25.748  1.00  0.00     0.022 A 
BRANCH  65  68
ATOM     68  S   UNL A   1      40.547  23.579  26.903  1.00  0.00     0.127 S 
ATOM     69  O   UNL A   1      39.123  23.480  26.580  1.00  0.00    -0.237 OA
ATOM     70  O   UNL A   1      41.447  23.167  25.827  1.00  0.00    -0.237 OA
ATOM     71  O   UNL A   1      40.916  23.100  28.227  1.00  0.00    -0.744 OA
ENDBRANCH  65  68
ENDBRANCH  47  61
BRANCH  48  72
ATOM     72  C   UNL A   1      39.067  32.724  36.387  1.00  0.00     0.023 A 
ATOM     73  C   UNL A   1      39.592  34.011  36.614  1.00  0.00     0.012 A 
ATOM     74  C   UNL A   1      38.253  32.129  37.368  1.00  0.00     0.148 A 
ATOM     75  C   UNL A   1      39.349  34.671  37.819  1.00  0.00     0.002 A 
ATOM     76  C   UNL A   1      37.964  32.817  38.538  1.00  0.00     0.091 A 
ATOM     77  F   UNL A   1      37.765  30.903  37.129  1.00  0.00    -0.205 F 
ATOM     78  C   UNL A   1      38.529  34.079  38.777  1.00  0.00     0.022 A 
BRANCH  76  79
ATOM     79  S   UNL A   1      36.818  32.185  39.766  1.00  0.00     0.127 S 
ATOM     80  O   UNL A   1      36.968  33.159  40.844  1.00  0.00    -0.237 OA
ATOM     81  O   UNL A   1      35.545  32.251  39.047  1.00  0.00    -0.237 OA
ATOM     82  O   UNL A   1      37.268  30.833  40.071  1.00  0.00    -0.744 OA
ENDBRANCH  76  79
ENDBRANCH  48  72
BRANCH  60  83
ATOM     83  C   UNL A   1      44.062  28.250  34.450  1.00  0.00     0.023 A 
ATOM     84  C   UNL A   1      45.263  28.984  34.461  1.00  0.00     0.012 A 
ATOM     85  C   UNL A   1      43.989  27.031  35.154  1.00  0.00     0.148 A 
ATOM     86  C   UNL A   1      46.387  28.491  35.122  1.00  0.00     0.002 A 
ATOM     87  C   UNL A   1      45.092  26.576  35.861  1.00  0.00     0.091 A 
ATOM     88  F   UNL A   1      42.839  26.341  35.120  1.00  0.00    -0.205 F 
ATOM     89  C   UNL A   1      46.299  27.294  35.831  1.00  0.00     0.022 A 
BRANCH  87  90
ATOM     90  S   UNL A   1      45.039  25.101  36.882  1.00  0.00     0.127 S 
ATOM     91  O   UNL A   1      46.344  25.149  37.540  1.00  0.00    -0.237 OA
ATOM     92  O   UNL A   1      43.902  25.378  37.761  1.00  0.00    -0.237 OA
ATOM     93  O   UNL A   1      44.843  23.982  35.971  1.00  0.00    -0.744 OA
ENDBRANCH  87  90
ENDBRANCH  60  83
ENDBRANCH  34  35
ENDBRANCH  26  29
ENDBRANCH  24  25
ENDBRANCH  23  24
ENDBRANCH   1  23
TORSDOF 17
ENDMDL
MODEL 2
REMARK VINA RESULT:     -12.8      1.503      7.835
REMARK SMILES CC(C)(NC(=O)[C@]1(C)CCCO1)C(C)(C)C(=O)NCCCCNC(=O)c1ccc(-c2c3nc(c(-c4cccc(S(=O)(=O)[O-])c4F)c4ccc([nH]4)c(-c4cccc(S(=O)(=O)[O-])c4F)c4nc(c(-c5cccc(S(=O)(=O)[O-])c5F)c5ccc2[nH]5)C=C4)C=C3)cc1
REMARK SMILES IDX 20 1 19 2 18 3 16 4 17 5 13 7 14 8 15 9 2 10 1 11 3 12 4 13
REMARK SMILES IDX 5 14 6 16 7 17 9 18 12 19 8 20 10 21 11 22 21 23 22 24 23 25
REMARK SMILES IDX 24 26 25 28 26 29 27 30 88 31 28 32 87 33 29 34 30 35 31 36
REMARK SMILES IDX 81 37 32 38 86 39 80 40 82 41 33 42 85 43 79 44 78 45 34 47
REMARK SMILES IDX 66 48 46 49 65 50 47 51 50 52 64 53 83 54 48 55 49 56 63 58
REMARK SMILES IDX 84 59 51 60 35 61 36 62 44 63 37 64 39 65 45 66 38 67 40 68
REMARK SMILES IDX 41 69 42 70 43 71 67 72 68 73 76 74 69 75 71 76 77 77 70 78
REMARK SMILES IDX 72 79 73 80 74 81 75 82 52 83 53 84 61 85 54 86 56 87 62 88
REMARK SMILES IDX 55 89 57 90 58 91 59 92 60 93
REMARK H PARENT 18 6 4 15 23 27 82 46 50 57
REMARK Flexibility Score: inf
ROOT
ATOM      1  C   UNL A   1      33.305  29.588  25.296  1.00  0.00     0.023 C 
ENDROOT
BRANCH   1   2
ATOM      2  C   UNL A   1      33.910  28.521  26.251  1.00  0.00     0.116 C 
BRANCH   2   3
ATOM      3  N   UNL A   1      32.853  27.335  26.861  1.00  0.00    -0.356 N 
ATOM      4  C   UNL A   1      31.244  26.446  26.129  1.00  0.00     0.228 C 
ATOM      5  O   UNL A   1      30.374  25.800  26.756  1.00  0.00    -0.274 OA
ATOM      6  H   UNL A   1      33.092  27.028  27.765  1.00  0.00     0.163 HD
BRANCH   4   7
ATOM      7  C   UNL A   1      30.903  26.497  24.238  1.00  0.00     0.066 C 
ATOM      8  C   UNL A   1      31.279  27.824  23.318  1.00  0.00     0.024 C 
ATOM      9  C   UNL A   1      29.414  26.263  23.829  1.00  0.00     0.024 C 
BRANCH   7  10
ATOM     10  C   UNL A   1      31.885  25.416  23.771  1.00  0.00     0.048 C 
ATOM     11  C   UNL A   1      33.366  25.879  23.833  1.00  0.00     0.035 C 
ATOM     12  C   UNL A   1      31.720  25.020  22.273  1.00  0.00     0.035 C 
BRANCH  10  13
ATOM     13  N   UNL A   1      31.673  24.299  24.741  1.00  0.00    -0.348 N 
ATOM     14  C   UNL A   1      32.000  22.943  24.649  1.00  0.00     0.252 C 
ATOM     15  H   UNL A   1      31.230  24.562  25.581  1.00  0.00     0.164 HD
ATOM     16  O   UNL A   1      31.529  22.228  25.547  1.00  0.00    -0.272 OA
BRANCH  14  17
ATOM     17  C   UNL A   1      33.072  22.216  23.475  1.00  0.00     0.143 C 
ATOM     18  C   UNL A   1      34.049  20.931  24.638  1.00  0.00     0.048 C 
ATOM     19  O   UNL A   1      34.435  23.317  22.614  1.00  0.00    -0.365 OA
ATOM     20  C   UNL A   1      32.176  21.502  22.447  1.00  0.00     0.053 C 
ATOM     21  C   UNL A   1      35.983  21.416  24.623  1.00  0.00     0.032 C 
ATOM     22  C   UNL A   1      36.197  22.996  23.431  1.00  0.00     0.162 C 
ENDBRANCH  14  17
ENDBRANCH  10  13
ENDBRANCH   7  10
ENDBRANCH   4   7
ENDBRANCH   2   3
ENDBRANCH   1   2
BRANCH   1  23
ATOM     23  C   UNL A   1      32.230  30.443  25.938  1.00  0.00     0.023 C 
BRANCH  23  24
ATOM     24  C   UNL A   1      32.701  30.978  27.272  1.00  0.00     0.116 C 
BRANCH  24  25
ATOM     25  N   UNL A   1      32.855  32.435  27.221  1.00  0.00    -0.352 N 
ATOM     26  C   UNL A   1      33.787  33.206  27.856  1.00  0.00     0.251 C 
ATOM     27  H   UNL A   1      32.206  32.918  26.660  1.00  0.00     0.163 HD
ATOM     28  O   UNL A   1      33.615  34.406  28.026  1.00  0.00    -0.269 OA
BRANCH  26  29
ATOM     29  C   UNL A   1      35.005  32.526  28.305  1.00  0.00     0.039 A 
ATOM     30  C   UNL A   1      36.228  33.182  28.237  1.00  0.00     0.014 A 
ATOM     31  C   UNL A   1      34.877  31.265  28.895  1.00  0.00     0.014 A 
ATOM     32  C   UNL A   1      37.336  32.571  28.810  1.00  0.00     0.010 A 
ATOM     33  C   UNL A   1      35.942  30.737  29.591  1.00  0.00     0.010 A 
ATOM     34  C   UNL A   1      37.190  31.364  29.518  1.00  0.00    -0.014 A 
BRANCH  34  35
ATOM     35  C   UNL A   1      38.347  30.716  30.166  1.00  0.00     0.031 A 
ATOM     36  C   UNL A   1      38.734  31.120  31.559  1.00  0.00     0.074 A 
ATOM     37  C   UNL A   1      39.069  29.815  29.476  1.00  0.00     0.049 A 
ATOM     38  N   UNL A   1      39.722  30.681  32.292  1.00  0.00    -0.248 NA
ATOM     39  C   UNL A   1      37.932  32.174  32.209  1.00  0.00     0.031 C 
ATOM     40  C   UNL A   1      38.826  29.415  28.087  1.00  0.00     0.029 A 
ATOM     41  N   UNL A   1      40.165  29.083  29.847  1.00  0.00    -0.354 N 
ATOM     42  C   UNL A   1      39.680  31.425  33.464  1.00  0.00     0.074 A 
ATOM     43  C   UNL A   1      38.603  32.377  33.330  1.00  0.00     0.031 C 
ATOM     44  C   UNL A   1      39.731  28.490  27.733  1.00  0.00     0.029 A 
ATOM     45  C   UNL A   1      40.646  28.272  28.848  1.00  0.00     0.049 A 
ATOM     46  H   UNL A   1      40.570  29.134  30.742  1.00  0.00     0.167 HD
ATOM     47  C   UNL A   1      40.454  31.306  34.563  1.00  0.00     0.034 A 
ATOM     48  C   UNL A   1      41.718  27.459  28.829  1.00  0.00     0.034 A 
ATOM     49  C   UNL A   1      41.509  30.341  34.692  1.00  0.00     0.049 A 
ATOM     50  C   UNL A   1      42.555  27.338  30.072  1.00  0.00     0.074 A 
ATOM     51  C   UNL A   1      42.300  30.079  35.796  1.00  0.00     0.029 A 
ATOM     52  N   UNL A   1      41.939  29.500  33.678  1.00  0.00    -0.354 N 
ATOM     53  N   UNL A   1      42.409  27.943  31.226  1.00  0.00    -0.248 NA
ATOM     54  C   UNL A   1      43.683  26.400  30.022  1.00  0.00     0.031 C 
ATOM     55  C   UNL A   1      43.252  29.125  35.428  1.00  0.00     0.029 A 
ATOM     56  C   UNL A   1      43.004  28.737  34.120  1.00  0.00     0.049 A 
ATOM     57  H   UNL A   1      41.545  29.452  32.777  1.00  0.00     0.167 HD
ATOM     58  C   UNL A   1      43.401  27.429  32.052  1.00  0.00     0.074 A 
ATOM     59  C   UNL A   1      44.126  26.448  31.270  1.00  0.00     0.031 C 
ATOM     60  C   UNL A   1      43.690  27.741  33.339  1.00  0.00     0.034 A 
BRANCH  47  61
ATOM     61  C   UNL A   1      40.184  32.234  35.716  1.00  0.00     0.023 A 
ATOM     62  C   UNL A   1      40.908  33.438  35.844  1.00  0.00     0.012 A 
ATOM     63  C   UNL A   1      39.169  31.935  36.644  1.00  0.00     0.148 A 
ATOM     64  C   UNL A   1      40.646  34.313  36.898  1.00  0.00     0.002 A 
ATOM     65  C   UNL A   1      38.876  32.838  37.657  1.00  0.00     0.091 A 
ATOM     66  F   UNL A   1      38.512  30.774  36.519  1.00  0.00    -0.205 F 
ATOM     67  C   UNL A   1      39.623  34.019  37.795  1.00  0.00     0.022 A 
BRANCH  65  68
ATOM     68  S   UNL A   1      37.522  32.591  38.808  1.00  0.00     0.127 S 
ATOM     69  O   UNL A   1      37.796  33.621  39.810  1.00  0.00    -0.237 OA
ATOM     70  O   UNL A   1      36.356  32.854  37.965  1.00  0.00    -0.237 OA
ATOM     71  O   UNL A   1      37.638  31.219  39.283  1.00  0.00    -0.744 OA
ENDBRANCH  65  68
ENDBRANCH  47  61
BRANCH  48  72
ATOM     72  C   UNL A   1      42.050  26.687  27.601  1.00  0.00     0.023 A 
ATOM     73  C   UNL A   1      42.633  27.336  26.496  1.00  0.00     0.012 A 
ATOM     74  C   UNL A   1      41.789  25.305  27.528  1.00  0.00     0.148 A 
ATOM     75  C   UNL A   1      42.906  26.632  25.323  1.00  0.00     0.002 A 
ATOM     76  C   UNL A   1      42.121  24.598  26.381  1.00  0.00     0.091 A 
ATOM     77  F   UNL A   1      41.233  24.708  28.593  1.00  0.00    -0.205 F 
ATOM     78  C   UNL A   1      42.659  25.262  25.269  1.00  0.00     0.022 A 
BRANCH  76  79
ATOM     79  S   UNL A   1      41.955  22.814  26.272  1.00  0.00     0.127 S 
ATOM     80  O   UNL A   1      42.667  22.375  27.468  1.00  0.00    -0.237 OA
ATOM     81  O   UNL A   1      40.502  22.648  26.322  1.00  0.00    -0.237 OA
ATOM     82  O   UNL A   1      42.561  22.436  25.003  1.00  0.00    -0.744 OA
ENDBRANCH  76  79
ENDBRANCH  48  72
BRANCH  60  83
ATOM     83  C   UNL A   1      44.800  26.975  34.009  1.00  0.00     0.023 A 
ATOM     84  C   UNL A   1      46.093  27.522  34.104  1.00  0.00     0.012 A 
ATOM     85  C   UNL A   1      44.532  25.723  34.601  1.00  0.00     0.148 A 
ATOM     86  C   UNL A   1      47.115  26.814  34.736  1.00  0.00     0.002 A 
ATOM     87  C   UNL A   1      45.538  25.053  35.281  1.00  0.00     0.091 A 
ATOM     88  F   UNL A   1      43.296  25.214  34.488  1.00  0.00    -0.205 F 
ATOM     89  C   UNL A   1      46.836  25.587  35.333  1.00  0.00     0.022 A 
BRANCH  87  90
ATOM     90  S   UNL A   1      45.244  23.519  36.165  1.00  0.00     0.127 S 
ATOM     91  O   UNL A   1      44.048  23.014  35.493  1.00  0.00    -0.237 OA
ATOM     92  O   UNL A   1      46.466  22.765  35.885  1.00  0.00    -0.237 OA
ATOM     93  O   UNL A   1      45.063  23.884  37.564  1.00  0.00    -0.744 OA
ENDBRANCH  87  90
ENDBRANCH  60  83
ENDBRANCH  34  35
ENDBRANCH  26  29
ENDBRANCH  24  25
ENDBRANCH  23  24
ENDBRANCH   1  23
TORSDOF 17
ENDMDL
MODEL 3
REMARK VINA RESULT:     -12.8      1.789      2.397
REMARK SMILES CC(C)(NC(=O)[C@]1(C)CCCO1)C(C)(C)C(=O)NCCCCNC(=O)c1ccc(-c2c3nc(c(-c4cccc(S(=O)(=O)[O-])c4F)c4ccc([nH]4)c(-c4cccc(S(=O)(=O)[O-])c4F)c4nc(c(-c5cccc(S(=O)(=O)[O-])c5F)c5ccc2[nH]5)C=C4)C=C3)cc1
REMARK SMILES IDX 20 1 19 2 18 3 16 4 17 5 13 7 14 8 15 9 2 10 1 11 3 12 4 13
REMARK SMILES IDX 5 14 6 16 7 17 9 18 12 19 8 20 10 21 11 22 21 23 22 24 23 25
REMARK SMILES IDX 24 26 25 28 26 29 27 30 88 31 28 32 87 33 29 34 30 35 31 36
REMARK SMILES IDX 81 37 32 38 86 39 80 40 82 41 33 42 85 43 79 44 78 45 34 47
REMARK SMILES IDX 66 48 46 49 65 50 47 51 50 52 64 53 83 54 48 55 49 56 63 58
REMARK SMILES IDX 84 59 51 60 35 61 36 62 44 63 37 64 39 65 45 66 38 67 40 68
REMARK SMILES IDX 41 69 42 70 43 71 67 72 68 73 76 74 69 75 71 76 77 77 70 78
REMARK SMILES IDX 72 79 73 80 74 81 75 82 52 83 53 84 61 85 54 86 56 87 62 88
REMARK SMILES IDX 55 89 57 90 58 91 59 92 60 93
REMARK H PARENT 18 6 4 15 23 27 82 46 50 57
REMARK Flexibility Score: inf
ROOT
ATOM      1  C   UNL A   1      31.525  30.992  26.355  1.00  0.00     0.023 C 
ENDROOT
BRANCH   1   2
ATOM      2  C   UNL A   1      32.505  30.135  27.205  1.00  0.00     0.116 C 
BRANCH   2   3
ATOM      3  N   UNL A   1      32.042  28.533  27.545  1.00  0.00    -0.356 N 
ATOM      4  C   UNL A   1      31.193  27.107  26.465  1.00  0.00     0.228 C 
ATOM      5  O   UNL A   1      30.635  26.065  26.876  1.00  0.00    -0.274 OA
ATOM      6  H   UNL A   1      32.236  28.258  28.470  1.00  0.00     0.163 HD
BRANCH   4   7
ATOM      7  C   UNL A   1      31.201  27.231  24.547  1.00  0.00     0.066 C 
ATOM      8  C   UNL A   1      31.680  28.611  23.763  1.00  0.00     0.024 C 
ATOM      9  C   UNL A   1      29.824  26.963  23.862  1.00  0.00     0.024 C 
BRANCH   7  10
ATOM     10  C   UNL A   1      32.298  26.208  24.229  1.00  0.00     0.048 C 
ATOM     11  C   UNL A   1      33.589  26.427  25.065  1.00  0.00     0.035 C 
ATOM     12  C   UNL A   1      32.829  26.288  22.766  1.00  0.00     0.035 C 
BRANCH  10  13
ATOM     13  N   UNL A   1      31.682  24.899  24.600  1.00  0.00    -0.348 N 
ATOM     14  C   UNL A   1      32.041  23.595  24.247  1.00  0.00     0.252 C 
ATOM     15  H   UNL A   1      30.896  24.966  25.189  1.00  0.00     0.164 HD
ATOM     16  O   UNL A   1      31.222  22.720  24.567  1.00  0.00    -0.272 OA
BRANCH  14  17
ATOM     17  C   UNL A   1      33.550  23.100  23.514  1.00  0.00     0.143 C 
ATOM     18  C   UNL A   1      33.812  21.339  24.401  1.00  0.00     0.048 C 
ATOM     19  O   UNL A   1      35.168  24.135  23.866  1.00  0.00    -0.365 OA
ATOM     20  C   UNL A   1      33.277  22.955  22.006  1.00  0.00     0.053 C 
ATOM     21  C   UNL A   1      35.502  21.414  25.457  1.00  0.00     0.032 C 
ATOM     22  C   UNL A   1      36.289  23.224  25.202  1.00  0.00     0.162 C 
ENDBRANCH  14  17
ENDBRANCH  10  13
ENDBRANCH   7  10
ENDBRANCH   4   7
ENDBRANCH   2   3
ENDBRANCH   1   2
BRANCH   1  23
ATOM     23  C   UNL A   1      31.403  32.427  26.826  1.00  0.00     0.023 C 
BRANCH  23  24
ATOM     24  C   UNL A   1      32.752  32.965  27.249  1.00  0.00     0.116 C 
BRANCH  24  25
ATOM     25  N   UNL A   1      32.623  34.322  27.790  1.00  0.00    -0.352 N 
ATOM     26  C   UNL A   1      33.187  34.834  28.924  1.00  0.00     0.251 C 
ATOM     27  H   UNL A   1      32.060  34.941  27.271  1.00  0.00     0.163 HD
ATOM     28  O   UNL A   1      32.743  35.841  29.459  1.00  0.00    -0.269 OA
BRANCH  26  29
ATOM     29  C   UNL A   1      34.355  34.125  29.452  1.00  0.00     0.039 A 
ATOM     30  C   UNL A   1      35.634  34.554  29.117  1.00  0.00     0.014 A 
ATOM     31  C   UNL A   1      34.142  33.096  30.375  1.00  0.00     0.014 A 
ATOM     32  C   UNL A   1      36.716  33.960  29.753  1.00  0.00     0.010 A 
ATOM     33  C   UNL A   1      35.205  32.620  31.109  1.00  0.00     0.010 A 
ATOM     34  C   UNL A   1      36.504  33.016  30.775  1.00  0.00    -0.014 A 
BRANCH  34  35
ATOM     35  C   UNL A   1      37.638  32.399  31.490  1.00  0.00     0.031 A 
ATOM     36  C   UNL A   1      38.401  31.281  30.839  1.00  0.00     0.074 A 
ATOM     37  C   UNL A   1      37.933  32.810  32.736  1.00  0.00     0.049 A 
ATOM     38  N   UNL A   1      39.415  30.603  31.307  1.00  0.00    -0.248 NA
ATOM     39  C   UNL A   1      37.956  30.843  29.503  1.00  0.00     0.031 C 
ATOM     40  C   UNL A   1      37.199  33.831  33.490  1.00  0.00     0.029 A 
ATOM     41  N   UNL A   1      38.921  32.407  33.594  1.00  0.00    -0.354 N 
ATOM     42  C   UNL A   1      39.701  29.644  30.346  1.00  0.00     0.074 A 
ATOM     43  C   UNL A   1      38.729  29.790  29.289  1.00  0.00     0.031 C 
ATOM     44  C   UNL A   1      37.781  33.992  34.688  1.00  0.00     0.029 A 
ATOM     45  C   UNL A   1      38.890  33.053  34.807  1.00  0.00     0.049 A 
ATOM     46  H   UNL A   1      39.588  31.721  33.365  1.00  0.00     0.167 HD
ATOM     47  C   UNL A   1      40.703  28.739  30.333  1.00  0.00     0.034 A 
ATOM     48  C   UNL A   1      39.660  32.888  35.899  1.00  0.00     0.034 A 
ATOM     49  C   UNL A   1      41.677  28.616  31.381  1.00  0.00     0.049 A 
ATOM     50  C   UNL A   1      40.774  31.881  35.851  1.00  0.00     0.074 A 
ATOM     51  C   UNL A   1      42.783  27.789  31.429  1.00  0.00     0.029 A 
ATOM     52  N   UNL A   1      41.645  29.319  32.574  1.00  0.00    -0.354 N 
ATOM     53  N   UNL A   1      41.124  31.083  34.871  1.00  0.00    -0.248 NA
ATOM     54  C   UNL A   1      41.621  31.774  37.046  1.00  0.00     0.031 C 
ATOM     55  C   UNL A   1      43.384  27.944  32.680  1.00  0.00     0.029 A 
ATOM     56  C   UNL A   1      42.698  28.924  33.380  1.00  0.00     0.049 A 
ATOM     57  H   UNL A   1      40.974  29.999  32.814  1.00  0.00     0.167 HD
ATOM     58  C   UNL A   1      42.254  30.409  35.316  1.00  0.00     0.074 A 
ATOM     59  C   UNL A   1      42.541  30.909  36.644  1.00  0.00     0.031 C 
ATOM     60  C   UNL A   1      42.988  29.458  34.685  1.00  0.00     0.034 A 
BRANCH  47  61
ATOM     61  C   UNL A   1      40.802  27.816  29.148  1.00  0.00     0.023 A 
ATOM     62  C   UNL A   1      40.025  26.641  29.095  1.00  0.00     0.012 A 
ATOM     63  C   UNL A   1      41.628  28.150  28.059  1.00  0.00     0.148 A 
ATOM     64  C   UNL A   1      40.097  25.794  27.989  1.00  0.00     0.002 A 
ATOM     65  C   UNL A   1      41.651  27.332  26.938  1.00  0.00     0.091 A 
ATOM     66  F   UNL A   1      42.377  29.258  28.141  1.00  0.00    -0.205 F 
ATOM     67  C   UNL A   1      40.898  26.147  26.907  1.00  0.00     0.022 A 
BRANCH  65  68
ATOM     68  S   UNL A   1      42.583  27.743  25.461  1.00  0.00     0.127 S 
ATOM     69  O   UNL A   1      42.355  26.561  24.631  1.00  0.00    -0.237 OA
ATOM     70  O   UNL A   1      41.903  28.953  25.001  1.00  0.00    -0.237 OA
ATOM     71  O   UNL A   1      43.960  27.941  25.892  1.00  0.00    -0.744 OA
ENDBRANCH  65  68
ENDBRANCH  47  61
BRANCH  48  72
ATOM     72  C   UNL A   1      39.413  33.706  37.118  1.00  0.00     0.023 A 
ATOM     73  C   UNL A   1      39.888  35.029  37.186  1.00  0.00     0.012 A 
ATOM     74  C   UNL A   1      38.703  33.171  38.209  1.00  0.00     0.148 A 
ATOM     75  C   UNL A   1      39.702  35.789  38.341  1.00  0.00     0.002 A 
ATOM     76  C   UNL A   1      38.467  33.954  39.331  1.00  0.00     0.091 A 
ATOM     77  F   UNL A   1      38.261  31.908  38.121  1.00  0.00    -0.205 F 
ATOM     78  C   UNL A   1      38.985  35.255  39.409  1.00  0.00     0.022 A 
BRANCH  76  79
ATOM     79  S   UNL A   1      37.447  33.391  40.696  1.00  0.00     0.127 S 
ATOM     80  O   UNL A   1      36.293  32.834  39.995  1.00  0.00    -0.237 OA
ATOM     81  O   UNL A   1      38.319  32.404  41.333  1.00  0.00    -0.237 OA
ATOM     82  O   UNL A   1      37.181  34.572  41.507  1.00  0.00    -0.744 OA
ENDBRANCH  76  79
ENDBRANCH  48  72
BRANCH  60  83
ATOM     83  C   UNL A   1      44.209  28.937  35.395  1.00  0.00     0.023 A 
ATOM     84  C   UNL A   1      45.479  29.486  35.134  1.00  0.00     0.012 A 
ATOM     85  C   UNL A   1      44.078  27.929  36.371  1.00  0.00     0.148 A 
ATOM     86  C   UNL A   1      46.606  29.009  35.801  1.00  0.00     0.002 A 
ATOM     87  C   UNL A   1      45.195  27.501  37.075  1.00  0.00     0.091 A 
ATOM     88  F   UNL A   1      42.862  27.409  36.595  1.00  0.00    -0.205 F 
ATOM     89  C   UNL A   1      46.463  28.026  36.778  1.00  0.00     0.022 A 
BRANCH  87  90
ATOM     90  S   UNL A   1      45.090  26.315  38.418  1.00  0.00     0.127 S 
ATOM     91  O   UNL A   1      45.519  25.083  37.759  1.00  0.00    -0.237 OA
ATOM     92  O   UNL A   1      46.048  26.858  39.381  1.00  0.00    -0.237 OA
ATOM     93  O   UNL A   1      43.704  26.330  38.866  1.00  0.00    -0.744 OA
ENDBRANCH  87  90
ENDBRANCH  60  83
ENDBRANCH  34  35
ENDBRANCH  26  29
ENDBRANCH  24  25
ENDBRANCH  23  24
ENDBRANCH   1  23
TORSDOF 17
ENDMDL
