MODEL 1
REMARK VINA RESULT:     -10.3      0.000      0.000
REMARK SMILES CC1(C)CN(CC(=O)NCCCCNC(=O)c2ccc(-c3c4nc(c(-c5cccc(S(=O)(=O)[O-])c5F)c5ccc([nH]5)c(-c5cccc(S(=O)(=O)[O-])c5F)c5nc(c(-c6cccc(S(=O)(=O)[O-])c6F)c6ccc3[nH]6)C=C5)C=C4)cc2)c2ccc(S(=O)(=O)N3CCCCC3)cc21
REMARK SMILES IDX 11 1 10 2 9 3 7 4 8 5 6 7 5 8 1 9 2 10 3 11 4 12 94 13 80 14
REMARK SMILES IDX 93 15 81 16 83 17 82 18 84 19 85 20 86 21 87 22 88 23 92 24
REMARK SMILES IDX 89 25 91 26 90 27 12 28 13 29 14 30 15 31 16 33 17 34 18 35
REMARK SMILES IDX 79 36 19 37 78 38 20 39 21 40 22 41 72 42 23 43 77 44 71 45
REMARK SMILES IDX 73 46 24 47 76 48 70 49 69 50 25 52 57 53 37 54 56 55 38 56
REMARK SMILES IDX 41 57 55 58 74 59 39 60 40 61 54 63 75 64 42 65 26 66 27 67
REMARK SMILES IDX 35 68 28 69 30 70 36 71 29 72 31 73 32 74 33 75 34 76 58 77
REMARK SMILES IDX 59 78 67 79 60 80 62 81 68 82 61 83 63 84 64 85 65 86 66 87
REMARK SMILES IDX 43 88 44 89 52 90 45 91 47 92 53 93 46 94 48 95 49 96 50 97
REMARK SMILES IDX 51 98
REMARK H PARENT 9 6 14 32 73 51 41 62
REMARK Flexibility Score: inf
ROOT
ATOM      1  C   UNL A   1      34.077  33.680  29.809  1.00  0.00     0.023 C 
ENDROOT
BRANCH   1   2
ATOM      2  C   UNL A   1      34.996  32.674  30.501  1.00  0.00     0.116 C 
BRANCH   2   3
ATOM      3  N   UNL A   1      34.741  32.580  31.923  1.00  0.00    -0.355 N 
ATOM      4  C   UNL A   1      35.132  33.443  32.910  1.00  0.00     0.239 C 
ATOM      5  O   UNL A   1      34.812  33.184  34.073  1.00  0.00    -0.273 OA
ATOM      6  H   UNL A   1      34.224  31.796  32.217  1.00  0.00     0.163 HD
BRANCH   4   7
ATOM      7  C   UNL A   1      35.890  34.731  32.558  1.00  0.00     0.216 C 
BRANCH   7   8
ATOM      8  N   UNL A   1      37.293  34.718  32.948  1.00  0.00    -0.361 N 
ATOM      9  C   UNL A   1      40.047  35.328  35.129  1.00  0.00     0.018 C 
ATOM     10  C   UNL A   1      39.263  34.293  34.320  1.00  0.00     0.009 C 
ATOM     11  C   UNL A   1      39.533  32.878  34.845  1.00  0.00     0.018 C 
ATOM     12  C   UNL A   1      37.732  34.596  34.336  1.00  0.00     0.128 C 
ATOM     13  C   UNL A   1      39.567  34.373  32.843  1.00  0.00    -0.016 A 
ATOM     14  C   UNL A   1      38.384  34.565  32.124  1.00  0.00     0.041 A 
ATOM     15  C   UNL A   1      40.799  34.237  32.209  1.00  0.00     0.028 A 
ATOM     16  C   UNL A   1      38.427  34.592  30.742  1.00  0.00     0.027 A 
ATOM     17  C   UNL A   1      40.840  34.283  30.811  1.00  0.00     0.083 A 
ATOM     18  C   UNL A   1      39.656  34.452  30.083  1.00  0.00     0.024 A 
BRANCH  17  19
ATOM     19  S   UNL A   1      42.444  34.070  30.055  1.00  0.00     0.243 S 
ATOM     20  O   UNL A   1      43.405  34.638  30.976  1.00  0.00    -0.207 OA
ATOM     21  O   UNL A   1      42.515  32.673  29.672  1.00  0.00    -0.207 OA
BRANCH  19  22
ATOM     22  N   UNL A   1      42.482  34.985  28.615  1.00  0.00    -0.198 NA
ATOM     23  C   UNL A   1      42.325  36.449  28.763  1.00  0.00     0.102 C 
ATOM     24  C   UNL A   1      43.377  34.495  27.536  1.00  0.00     0.102 C 
ATOM     25  C   UNL A   1      42.077  37.125  27.421  1.00  0.00     0.017 C 
ATOM     26  C   UNL A   1      43.131  35.227  26.222  1.00  0.00     0.017 C 
ATOM     27  C   UNL A   1      43.145  36.737  26.411  1.00  0.00     0.003 C 
ENDBRANCH  19  22
ENDBRANCH  17  19
ENDBRANCH   7   8
ENDBRANCH   4   7
ENDBRANCH   2   3
ENDBRANCH   1   2
BRANCH   1  28
ATOM     28  C   UNL A   1      34.022  33.562  28.286  1.00  0.00     0.023 C 
BRANCH  28  29
ATOM     29  C   UNL A   1      34.942  32.509  27.679  1.00  0.00     0.116 C 
BRANCH  29  30
ATOM     30  N   UNL A   1      34.297  31.221  27.466  1.00  0.00    -0.352 N 
ATOM     31  C   UNL A   1      34.809  29.962  27.692  1.00  0.00     0.251 C 
ATOM     32  H   UNL A   1      33.377  31.255  27.117  1.00  0.00     0.163 HD
ATOM     33  O   UNL A   1      34.160  28.968  27.381  1.00  0.00    -0.269 OA
BRANCH  31  34
ATOM     34  C   UNL A   1      36.166  29.831  28.263  1.00  0.00     0.039 A 
ATOM     35  C   UNL A   1      37.291  30.115  27.486  1.00  0.00     0.014 A 
ATOM     36  C   UNL A   1      36.310  29.340  29.563  1.00  0.00     0.014 A 
ATOM     37  C   UNL A   1      38.549  29.742  27.942  1.00  0.00     0.010 A 
ATOM     38  C   UNL A   1      37.585  29.034  30.047  1.00  0.00     0.010 A 
ATOM     39  C   UNL A   1      38.708  29.175  29.218  1.00  0.00    -0.014 A 
BRANCH  39  40
ATOM     40  C   UNL A   1      40.052  28.708  29.647  1.00  0.00     0.031 A 
ATOM     41  C   UNL A   1      40.738  27.574  28.931  1.00  0.00     0.074 A 
ATOM     42  C   UNL A   1      40.681  29.343  30.653  1.00  0.00     0.049 A 
ATOM     43  N   UNL A   1      41.920  27.060  29.154  1.00  0.00    -0.248 NA
ATOM     44  C   UNL A   1      40.007  26.934  27.824  1.00  0.00     0.031 C 
ATOM     45  C   UNL A   1      40.119  30.448  31.431  1.00  0.00     0.029 A 
ATOM     46  N   UNL A   1      41.933  29.163  31.184  1.00  0.00    -0.354 N 
ATOM     47  C   UNL A   1      42.059  26.014  28.248  1.00  0.00     0.074 A 
ATOM     48  C   UNL A   1      40.840  25.963  27.472  1.00  0.00     0.031 C 
ATOM     49  C   UNL A   1      41.037  30.876  32.311  1.00  0.00     0.029 A 
ATOM     50  C   UNL A   1      42.233  30.047  32.191  1.00  0.00     0.049 A 
ATOM     51  H   UNL A   1      42.555  28.467  30.873  1.00  0.00     0.167 HD
ATOM     52  C   UNL A   1      43.116  25.189  28.062  1.00  0.00     0.034 A 
ATOM     53  C   UNL A   1      43.344  30.182  32.939  1.00  0.00     0.034 A 
ATOM     54  C   UNL A   1      44.352  25.274  28.790  1.00  0.00     0.049 A 
ATOM     55  C   UNL A   1      44.507  29.261  32.707  1.00  0.00     0.074 A 
ATOM     56  C   UNL A   1      45.493  24.505  28.635  1.00  0.00     0.029 A 
ATOM     57  N   UNL A   1      44.616  26.185  29.800  1.00  0.00    -0.354 N 
ATOM     58  N   UNL A   1      44.643  28.326  31.800  1.00  0.00    -0.248 NA
ATOM     59  C   UNL A   1      45.670  29.420  33.590  1.00  0.00     0.031 C 
ATOM     60  C   UNL A   1      46.448  24.953  29.554  1.00  0.00     0.029 A 
ATOM     61  C   UNL A   1      45.901  25.998  30.280  1.00  0.00     0.049 A 
ATOM     62  H   UNL A   1      43.982  26.862  30.128  1.00  0.00     0.167 HD
ATOM     63  C   UNL A   1      45.904  27.782  32.001  1.00  0.00     0.074 A 
ATOM     64  C   UNL A   1      46.506  28.512  33.098  1.00  0.00     0.031 C 
ATOM     65  C   UNL A   1      46.500  26.754  31.348  1.00  0.00     0.034 A 
BRANCH  52  66
ATOM     66  C   UNL A   1      43.008  24.149  26.982  1.00  0.00     0.023 A 
ATOM     67  C   UNL A   1      43.643  24.377  25.744  1.00  0.00     0.012 A 
ATOM     68  C   UNL A   1      42.353  22.924  27.211  1.00  0.00     0.148 A 
ATOM     69  C   UNL A   1      43.615  23.407  24.745  1.00  0.00     0.002 A 
ATOM     70  C   UNL A   1      42.352  21.950  26.218  1.00  0.00     0.091 A 
ATOM     71  F   UNL A   1      41.739  22.738  28.388  1.00  0.00    -0.205 F 
ATOM     72  C   UNL A   1      42.979  22.192  24.984  1.00  0.00     0.022 A 
BRANCH  70  73
ATOM     73  S   UNL A   1      41.606  20.332  26.448  1.00  0.00     0.127 S 
ATOM     74  O   UNL A   1      42.063  19.986  27.792  1.00  0.00    -0.237 OA
ATOM     75  O   UNL A   1      40.177  20.634  26.348  1.00  0.00    -0.237 OA
ATOM     76  O   UNL A   1      42.125  19.495  25.375  1.00  0.00    -0.744 OA
ENDBRANCH  70  73
ENDBRANCH  52  66
BRANCH  53  77
ATOM     77  C   UNL A   1      43.407  31.277  33.941  1.00  0.00     0.023 A 
ATOM     78  C   UNL A   1      43.793  32.565  33.526  1.00  0.00     0.012 A 
ATOM     79  C   UNL A   1      42.980  31.075  35.268  1.00  0.00     0.148 A 
ATOM     80  C   UNL A   1      43.750  33.638  34.415  1.00  0.00     0.002 A 
ATOM     81  C   UNL A   1      42.896  32.157  36.136  1.00  0.00     0.091 A 
ATOM     82  F   UNL A   1      42.618  29.838  35.634  1.00  0.00    -0.205 F 
ATOM     83  C   UNL A   1      43.290  33.437  35.715  1.00  0.00     0.022 A 
BRANCH  81  84
ATOM     84  S   UNL A   1      42.202  32.024  37.786  1.00  0.00     0.127 S 
ATOM     85  O   UNL A   1      42.988  30.930  38.354  1.00  0.00    -0.237 OA
ATOM     86  O   UNL A   1      42.496  33.346  38.338  1.00  0.00    -0.237 OA
ATOM     87  O   UNL A   1      40.785  31.741  37.602  1.00  0.00    -0.744 OA
ENDBRANCH  81  84
ENDBRANCH  53  77
BRANCH  65  88
ATOM     88  C   UNL A   1      47.867  26.332  31.804  1.00  0.00     0.023 A 
ATOM     89  C   UNL A   1      48.997  26.954  31.237  1.00  0.00     0.012 A 
ATOM     90  C   UNL A   1      48.033  25.416  32.860  1.00  0.00     0.148 A 
ATOM     91  C   UNL A   1      50.275  26.665  31.712  1.00  0.00     0.002 A 
ATOM     92  C   UNL A   1      49.308  25.155  33.348  1.00  0.00     0.091 A 
ATOM     93  F   UNL A   1      46.941  24.830  33.373  1.00  0.00    -0.205 F 
ATOM     94  C   UNL A   1      50.430  25.775  32.773  1.00  0.00     0.022 A 
BRANCH  92  95
ATOM     95  S   UNL A   1      49.604  24.077  34.755  1.00  0.00     0.127 S 
ATOM     96  O   UNL A   1      49.507  22.753  34.141  1.00  0.00    -0.237 OA
ATOM     97  O   UNL A   1      50.955  24.463  35.162  1.00  0.00    -0.237 OA
ATOM     98  O   UNL A   1      48.566  24.389  35.727  1.00  0.00    -0.744 OA
ENDBRANCH  92  95
ENDBRANCH  65  88
ENDBRANCH  39  40
ENDBRANCH  31  34
ENDBRANCH  29  30
ENDBRANCH  28  29
ENDBRANCH   1  28
TORSDOF 17
ENDMDL
MODEL 2
REMARK VINA RESULT:     -10.3      4.558      8.927
REMARK SMILES CC1(C)CN(CC(=O)NCCCCNC(=O)c2ccc(-c3c4nc(c(-c5cccc(S(=O)(=O)[O-])c5F)c5ccc([nH]5)c(-c5cccc(S(=O)(=O)[O-])c5F)c5nc(c(-c6cccc(S(=O)(=O)[O-])c6F)c6ccc3[nH]6)C=C5)C=C4)cc2)c2ccc(S(=O)(=O)N3CCCCC3)cc21
REMARK SMILES IDX 11 1 10 2 9 3 7 4 8 5 6 7 5 8 1 9 2 10 3 11 4 12 94 13 80 14
REMARK SMILES IDX 93 15 81 16 83 17 82 18 84 19 85 20 86 21 87 22 88 23 92 24
REMARK SMILES IDX 89 25 91 26 90 27 12 28 13 29 14 30 15 31 16 33 17 34 18 35
REMARK SMILES IDX 79 36 19 37 78 38 20 39 21 40 22 41 72 42 23 43 77 44 71 45
REMARK SMILES IDX 73 46 24 47 76 48 70 49 69 50 25 52 57 53 37 54 56 55 38 56
REMARK SMILES IDX 41 57 55 58 74 59 39 60 40 61 54 63 75 64 42 65 26 66 27 67
REMARK SMILES IDX 35 68 28 69 30 70 36 71 29 72 31 73 32 74 33 75 34 76 58 77
REMARK SMILES IDX 59 78 67 79 60 80 62 81 68 82 61 83 63 84 64 85 65 86 66 87
REMARK SMILES IDX 43 88 44 89 52 90 45 91 47 92 53 93 46 94 48 95 49 96 50 97
REMARK SMILES IDX 51 98
REMARK H PARENT 9 6 14 32 73 51 41 62
REMARK Flexibility Score: inf
ROOT
ATOM      1  C   UNL A   1      34.824  30.898  27.941  1.00  0.00     0.023 C 
ENDROOT
BRANCH   1   2
ATOM      2  C   UNL A   1      34.531  29.483  27.444  1.00  0.00     0.116 C 
BRANCH   2   3
ATOM      3  N   UNL A   1      33.308  28.944  27.997  1.00  0.00    -0.355 N 
ATOM      4  C   UNL A   1      32.136  28.669  27.346  1.00  0.00     0.239 C 
ATOM      5  O   UNL A   1      31.198  28.208  28.002  1.00  0.00    -0.273 OA
ATOM      6  H   UNL A   1      33.319  28.752  28.962  1.00  0.00     0.163 HD
BRANCH   4   7
ATOM      7  C   UNL A   1      32.027  28.870  25.828  1.00  0.00     0.216 C 
BRANCH   7   8
ATOM      8  N   UNL A   1      31.857  27.634  25.077  1.00  0.00    -0.361 N 
ATOM      9  C   UNL A   1      29.989  25.106  23.392  1.00  0.00     0.018 C 
ATOM     10  C   UNL A   1      31.110  26.144  23.298  1.00  0.00     0.009 C 
ATOM     11  C   UNL A   1      31.390  26.506  21.835  1.00  0.00     0.018 C 
ATOM     12  C   UNL A   1      30.772  27.426  24.121  1.00  0.00     0.128 C 
ATOM     13  C   UNL A   1      32.376  25.679  23.978  1.00  0.00    -0.016 A 
ATOM     14  C   UNL A   1      32.765  26.609  24.945  1.00  0.00     0.041 A 
ATOM     15  C   UNL A   1      33.129  24.540  23.708  1.00  0.00     0.028 A 
ATOM     16  C   UNL A   1      33.946  26.414  25.636  1.00  0.00     0.027 A 
ATOM     17  C   UNL A   1      34.314  24.337  24.424  1.00  0.00     0.083 A 
ATOM     18  C   UNL A   1      34.723  25.277  25.378  1.00  0.00     0.024 A 
BRANCH  17  19
ATOM     19  S   UNL A   1      35.253  22.875  24.011  1.00  0.00     0.243 S 
ATOM     20  O   UNL A   1      35.516  22.950  22.590  1.00  0.00    -0.207 OA
ATOM     21  O   UNL A   1      36.341  22.824  24.968  1.00  0.00    -0.207 OA
BRANCH  19  22
ATOM     22  N   UNL A   1      34.270  21.509  24.299  1.00  0.00    -0.198 NA
ATOM     23  C   UNL A   1      34.044  21.151  25.717  1.00  0.00     0.102 C 
ATOM     24  C   UNL A   1      33.158  21.275  23.344  1.00  0.00     0.102 C 
ATOM     25  C   UNL A   1      33.415  19.770  25.853  1.00  0.00     0.017 C 
ATOM     26  C   UNL A   1      32.523  19.903  23.542  1.00  0.00     0.017 C 
ATOM     27  C   UNL A   1      32.162  19.658  25.000  1.00  0.00     0.003 C 
ENDBRANCH  19  22
ENDBRANCH  17  19
ENDBRANCH   7   8
ENDBRANCH   4   7
ENDBRANCH   2   3
ENDBRANCH   1   2
BRANCH   1  28
ATOM     28  C   UNL A   1      33.655  31.877  27.826  1.00  0.00     0.023 C 
BRANCH  28  29
ATOM     29  C   UNL A   1      34.029  33.294  27.408  1.00  0.00     0.116 C 
BRANCH  29  30
ATOM     30  N   UNL A   1      33.193  34.322  28.010  1.00  0.00    -0.352 N 
ATOM     31  C   UNL A   1      33.277  34.859  29.276  1.00  0.00     0.251 C 
ATOM     32  H   UNL A   1      32.474  34.679  27.439  1.00  0.00     0.163 HD
ATOM     33  O   UNL A   1      32.436  35.666  29.660  1.00  0.00    -0.269 OA
BRANCH  31  34
ATOM     34  C   UNL A   1      34.361  34.410  30.175  1.00  0.00     0.039 A 
ATOM     35  C   UNL A   1      35.674  34.837  29.967  1.00  0.00     0.014 A 
ATOM     36  C   UNL A   1      34.069  33.488  31.182  1.00  0.00     0.014 A 
ATOM     37  C   UNL A   1      36.713  34.211  30.645  1.00  0.00     0.010 A 
ATOM     38  C   UNL A   1      35.111  32.913  31.916  1.00  0.00     0.010 A 
ATOM     39  C   UNL A   1      36.444  33.225  31.610  1.00  0.00    -0.014 A 
BRANCH  39  40
ATOM     40  C   UNL A   1      37.575  32.513  32.260  1.00  0.00     0.031 A 
ATOM     41  C   UNL A   1      38.299  31.403  31.545  1.00  0.00     0.074 A 
ATOM     42  C   UNL A   1      37.985  32.902  33.482  1.00  0.00     0.049 A 
ATOM     43  N   UNL A   1      39.323  30.697  31.951  1.00  0.00    -0.248 NA
ATOM     44  C   UNL A   1      37.817  31.038  30.202  1.00  0.00     0.031 C 
ATOM     45  C   UNL A   1      37.361  33.957  34.281  1.00  0.00     0.029 A 
ATOM     46  N   UNL A   1      39.032  32.470  34.256  1.00  0.00    -0.354 N 
ATOM     47  C   UNL A   1      39.581  29.780  30.939  1.00  0.00     0.074 A 
ATOM     48  C   UNL A   1      38.605  30.015  29.898  1.00  0.00     0.031 C 
ATOM     49  C   UNL A   1      38.059  34.120  35.415  1.00  0.00     0.029 A 
ATOM     50  C   UNL A   1      39.153  33.152  35.443  1.00  0.00     0.049 A 
ATOM     51  H   UNL A   1      39.637  31.742  33.988  1.00  0.00     0.167 HD
ATOM     52  C   UNL A   1      40.557  28.845  30.871  1.00  0.00     0.034 A 
ATOM     53  C   UNL A   1      40.040  33.017  36.446  1.00  0.00     0.034 A 
ATOM     54  C   UNL A   1      41.565  28.647  31.876  1.00  0.00     0.049 A 
ATOM     55  C   UNL A   1      41.120  31.980  36.343  1.00  0.00     0.074 A 
ATOM     56  C   UNL A   1      42.619  27.749  31.867  1.00  0.00     0.029 A 
ATOM     57  N   UNL A   1      41.653  29.358  33.060  1.00  0.00    -0.354 N 
ATOM     58  N   UNL A   1      41.386  31.171  35.347  1.00  0.00    -0.248 NA
ATOM     59  C   UNL A   1      42.025  31.843  37.491  1.00  0.00     0.031 C 
ATOM     60  C   UNL A   1      43.346  27.921  33.050  1.00  0.00     0.029 A 
ATOM     61  C   UNL A   1      42.743  28.922  33.793  1.00  0.00     0.049 A 
ATOM     62  H   UNL A   1      41.030  30.068  33.340  1.00  0.00     0.167 HD
ATOM     63  C   UNL A   1      42.489  30.428  35.746  1.00  0.00     0.074 A 
ATOM     64  C   UNL A   1      42.860  30.901  37.064  1.00  0.00     0.031 C 
ATOM     65  C   UNL A   1      43.121  29.426  35.087  1.00  0.00     0.034 A 
BRANCH  52  66
ATOM     66  C   UNL A   1      40.623  27.993  29.633  1.00  0.00     0.023 A 
ATOM     67  C   UNL A   1      39.725  26.916  29.494  1.00  0.00     0.012 A 
ATOM     68  C   UNL A   1      41.511  28.298  28.584  1.00  0.00     0.148 A 
ATOM     69  C   UNL A   1      39.719  26.145  28.333  1.00  0.00     0.002 A 
ATOM     70  C   UNL A   1      41.481  27.541  27.418  1.00  0.00     0.091 A 
ATOM     71  F   UNL A   1      42.370  29.314  28.749  1.00  0.00    -0.205 F 
ATOM     72  C   UNL A   1      40.588  26.463  27.292  1.00  0.00     0.022 A 
BRANCH  70  73
ATOM     73  S   UNL A   1      42.524  27.902  26.001  1.00  0.00     0.127 S 
ATOM     74  O   UNL A   1      41.993  26.977  25.002  1.00  0.00    -0.237 OA
ATOM     75  O   UNL A   1      42.224  29.312  25.747  1.00  0.00    -0.237 OA
ATOM     76  O   UNL A   1      43.891  27.641  26.431  1.00  0.00    -0.744 OA
ENDBRANCH  70  73
ENDBRANCH  52  66
BRANCH  53  77
ATOM     77  C   UNL A   1      39.957  33.941  37.607  1.00  0.00     0.023 A 
ATOM     78  C   UNL A   1      40.477  35.242  37.487  1.00  0.00     0.012 A 
ATOM     79  C   UNL A   1      39.268  33.574  38.780  1.00  0.00     0.148 A 
ATOM     80  C   UNL A   1      40.310  36.169  38.516  1.00  0.00     0.002 A 
ATOM     81  C   UNL A   1      39.067  34.515  39.783  1.00  0.00     0.091 A 
ATOM     82  F   UNL A   1      38.784  32.328  38.866  1.00  0.00    -0.205 F 
ATOM     83  C   UNL A   1      39.595  35.810  39.656  1.00  0.00     0.022 A 
BRANCH  81  84
ATOM     84  S   UNL A   1      38.057  34.189  41.230  1.00  0.00     0.127 S 
ATOM     85  O   UNL A   1      37.779  35.540  41.712  1.00  0.00    -0.237 OA
ATOM     86  O   UNL A   1      36.911  33.496  40.641  1.00  0.00    -0.237 OA
ATOM     87  O   UNL A   1      38.877  33.370  42.112  1.00  0.00    -0.744 OA
ENDBRANCH  81  84
ENDBRANCH  53  77
BRANCH  65  88
ATOM     88  C   UNL A   1      44.273  28.751  35.777  1.00  0.00     0.023 A 
ATOM     89  C   UNL A   1      45.576  29.240  35.564  1.00  0.00     0.012 A 
ATOM     90  C   UNL A   1      44.059  27.720  36.712  1.00  0.00     0.148 A 
ATOM     91  C   UNL A   1      46.654  28.707  36.269  1.00  0.00     0.002 A 
ATOM     92  C   UNL A   1      45.134  27.214  37.432  1.00  0.00     0.091 A 
ATOM     93  F   UNL A   1      42.809  27.265  36.886  1.00  0.00    -0.205 F 
ATOM     94  C   UNL A   1      46.432  27.703  37.210  1.00  0.00     0.022 A 
BRANCH  92  95
ATOM     95  S   UNL A   1      44.941  25.969  38.713  1.00  0.00     0.127 S 
ATOM     96  O   UNL A   1      46.317  25.806  39.180  1.00  0.00    -0.237 OA
ATOM     97  O   UNL A   1      44.050  26.636  39.662  1.00  0.00    -0.237 OA
ATOM     98  O   UNL A   1      44.365  24.803  38.057  1.00  0.00    -0.744 OA
ENDBRANCH  92  95
ENDBRANCH  65  88
ENDBRANCH  39  40
ENDBRANCH  31  34
ENDBRANCH  29  30
ENDBRANCH  28  29
ENDBRANCH   1  28
TORSDOF 17
ENDMDL
MODEL 3
REMARK VINA RESULT:     -10.0      4.520     11.443
REMARK SMILES CC1(C)CN(CC(=O)NCCCCNC(=O)c2ccc(-c3c4nc(c(-c5cccc(S(=O)(=O)[O-])c5F)c5ccc([nH]5)c(-c5cccc(S(=O)(=O)[O-])c5F)c5nc(c(-c6cccc(S(=O)(=O)[O-])c6F)c6ccc3[nH]6)C=C5)C=C4)cc2)c2ccc(S(=O)(=O)N3CCCCC3)cc21
REMARK SMILES IDX 11 1 10 2 9 3 7 4 8 5 6 7 5 8 1 9 2 10 3 11 4 12 94 13 80 14
REMARK SMILES IDX 93 15 81 16 83 17 82 18 84 19 85 20 86 21 87 22 88 23 92 24
REMARK SMILES IDX 89 25 91 26 90 27 12 28 13 29 14 30 15 31 16 33 17 34 18 35
REMARK SMILES IDX 79 36 19 37 78 38 20 39 21 40 22 41 72 42 23 43 77 44 71 45
REMARK SMILES IDX 73 46 24 47 76 48 70 49 69 50 25 52 57 53 37 54 56 55 38 56
REMARK SMILES IDX 41 57 55 58 74 59 39 60 40 61 54 63 75 64 42 65 26 66 27 67
REMARK SMILES IDX 35 68 28 69 30 70 36 71 29 72 31 73 32 74 33 75 34 76 58 77
REMARK SMILES IDX 59 78 67 79 60 80 62 81 68 82 61 83 63 84 64 85 65 86 66 87
REMARK SMILES IDX 43 88 44 89 52 90 45 91 47 92 53 93 46 94 48 95 49 96 50 97
REMARK SMILES IDX 51 98
REMARK H PARENT 9 6 14 32 73 51 41 62
REMARK Flexibility Score: inf
ROOT
ATOM      1  C   UNL A   1      34.092  32.969  28.570  1.00  0.00     0.023 C 
ENDROOT
BRANCH   1   2
ATOM      2  C   UNL A   1      33.412  31.899  27.717  1.00  0.00     0.116 C 
BRANCH   2   3
ATOM      3  N   UNL A   1      34.294  30.794  27.408  1.00  0.00    -0.355 N 
ATOM      4  C   UNL A   1      33.957  29.498  27.128  1.00  0.00     0.239 C 
ATOM      5  O   UNL A   1      34.864  28.697  26.888  1.00  0.00    -0.273 OA
ATOM      6  H   UNL A   1      35.256  31.000  27.400  1.00  0.00     0.163 HD
BRANCH   4   7
ATOM      7  C   UNL A   1      32.481  29.080  27.052  1.00  0.00     0.216 C 
BRANCH   7   8
ATOM      8  N   UNL A   1      32.128  28.377  25.826  1.00  0.00    -0.361 N 
ATOM      9  C   UNL A   1      30.410  27.941  22.731  1.00  0.00     0.018 C 
ATOM     10  C   UNL A   1      31.763  28.014  23.443  1.00  0.00     0.009 C 
ATOM     11  C   UNL A   1      32.883  28.333  22.445  1.00  0.00     0.018 C 
ATOM     12  C   UNL A   1      31.745  29.066  24.596  1.00  0.00     0.128 C 
ATOM     13  C   UNL A   1      32.079  26.747  24.201  1.00  0.00    -0.016 A 
ATOM     14  C   UNL A   1      32.325  27.045  25.544  1.00  0.00     0.041 A 
ATOM     15  C   UNL A   1      32.179  25.450  23.706  1.00  0.00     0.028 A 
ATOM     16  C   UNL A   1      32.709  26.033  26.404  1.00  0.00     0.027 A 
ATOM     17  C   UNL A   1      32.550  24.425  24.584  1.00  0.00     0.083 A 
ATOM     18  C   UNL A   1      32.821  24.721  25.925  1.00  0.00     0.024 A 
BRANCH  17  19
ATOM     19  S   UNL A   1      32.693  22.789  23.883  1.00  0.00     0.243 S 
ATOM     20  O   UNL A   1      31.932  21.910  24.746  1.00  0.00    -0.207 OA
ATOM     21  O   UNL A   1      32.354  22.932  22.481  1.00  0.00    -0.207 OA
BRANCH  19  22
ATOM     22  N   UNL A   1      34.332  22.318  23.955  1.00  0.00    -0.198 NA
ATOM     23  C   UNL A   1      35.325  23.334  23.540  1.00  0.00     0.102 C 
ATOM     24  C   UNL A   1      34.712  21.390  25.050  1.00  0.00     0.102 C 
ATOM     25  C   UNL A   1      36.709  22.723  23.359  1.00  0.00     0.017 C 
ATOM     26  C   UNL A   1      36.119  20.836  24.858  1.00  0.00     0.017 C 
ATOM     27  C   UNL A   1      37.127  21.947  24.598  1.00  0.00     0.003 C 
ENDBRANCH  19  22
ENDBRANCH  17  19
ENDBRANCH   7   8
ENDBRANCH   4   7
ENDBRANCH   2   3
ENDBRANCH   1   2
BRANCH   1  28
ATOM     28  C   UNL A   1      33.608  34.397  28.321  1.00  0.00     0.023 C 
BRANCH  28  29
ATOM     29  C   UNL A   1      33.920  35.395  29.430  1.00  0.00     0.116 C 
BRANCH  29  30
ATOM     30  N   UNL A   1      32.801  35.640  30.329  1.00  0.00    -0.352 N 
ATOM     31  C   UNL A   1      32.724  35.398  31.683  1.00  0.00     0.251 C 
ATOM     32  H   UNL A   1      31.996  36.027  29.915  1.00  0.00     0.163 HD
ATOM     33  O   UNL A   1      31.671  35.586  32.284  1.00  0.00    -0.269 OA
BRANCH  31  34
ATOM     34  C   UNL A   1      33.910  34.863  32.385  1.00  0.00     0.039 A 
ATOM     35  C   UNL A   1      35.122  35.555  32.353  1.00  0.00     0.014 A 
ATOM     36  C   UNL A   1      33.825  33.616  33.008  1.00  0.00     0.014 A 
ATOM     37  C   UNL A   1      36.282  34.925  32.786  1.00  0.00     0.010 A 
ATOM     38  C   UNL A   1      34.982  33.014  33.510  1.00  0.00     0.010 A 
ATOM     39  C   UNL A   1      36.229  33.638  33.348  1.00  0.00    -0.014 A 
BRANCH  39  40
ATOM     40  C   UNL A   1      37.492  32.953  33.725  1.00  0.00     0.031 A 
ATOM     41  C   UNL A   1      38.216  33.318  34.995  1.00  0.00     0.074 A 
ATOM     42  C   UNL A   1      37.964  31.961  32.948  1.00  0.00     0.049 A 
ATOM     43  N   UNL A   1      39.311  32.804  35.491  1.00  0.00    -0.248 NA
ATOM     44  C   UNL A   1      37.638  34.397  35.815  1.00  0.00     0.031 C 
ATOM     45  C   UNL A   1      37.360  31.521  31.690  1.00  0.00     0.029 A 
ATOM     46  N   UNL A   1      39.046  31.133  33.108  1.00  0.00    -0.354 N 
ATOM     47  C   UNL A   1      39.578  33.519  36.653  1.00  0.00     0.074 A 
ATOM     48  C   UNL A   1      38.531  34.507  36.790  1.00  0.00     0.031 C 
ATOM     49  C   UNL A   1      38.054  30.477  31.212  1.00  0.00     0.029 A 
ATOM     50  C   UNL A   1      39.177  30.204  32.105  1.00  0.00     0.049 A 
ATOM     51  H   UNL A   1      39.668  31.200  33.867  1.00  0.00     0.167 HD
ATOM     52  C   UNL A   1      40.587  33.350  37.540  1.00  0.00     0.034 A 
ATOM     53  C   UNL A   1      40.097  29.239  31.917  1.00  0.00     0.034 A 
ATOM     54  C   UNL A   1      41.595  32.331  37.440  1.00  0.00     0.049 A 
ATOM     55  C   UNL A   1      41.200  29.065  32.919  1.00  0.00     0.074 A 
ATOM     56  C   UNL A   1      42.631  32.061  38.318  1.00  0.00     0.029 A 
ATOM     57  N   UNL A   1      41.691  31.410  36.410  1.00  0.00    -0.354 N 
ATOM     58  N   UNL A   1      41.393  29.707  34.045  1.00  0.00    -0.248 NA
ATOM     59  C   UNL A   1      42.204  28.031  32.633  1.00  0.00     0.031 C 
ATOM     60  C   UNL A   1      43.354  30.973  37.818  1.00  0.00     0.029 A 
ATOM     61  C   UNL A   1      42.769  30.569  36.629  1.00  0.00     0.049 A 
ATOM     62  H   UNL A   1      41.084  31.362  35.637  1.00  0.00     0.167 HD
ATOM     63  C   UNL A   1      42.539  29.157  34.604  1.00  0.00     0.074 A 
ATOM     64  C   UNL A   1      42.983  28.110  33.707  1.00  0.00     0.031 C 
ATOM     65  C   UNL A   1      43.178  29.508  35.746  1.00  0.00     0.034 A 
BRANCH  52  66
ATOM     66  C   UNL A   1      40.622  34.257  38.739  1.00  0.00     0.023 A 
ATOM     67  C   UNL A   1      41.480  35.375  38.728  1.00  0.00     0.012 A 
ATOM     68  C   UNL A   1      39.762  34.051  39.834  1.00  0.00     0.148 A 
ATOM     69  C   UNL A   1      41.491  36.269  39.796  1.00  0.00     0.002 A 
ATOM     70  C   UNL A   1      39.760  34.963  40.885  1.00  0.00     0.091 A 
ATOM     71  F   UNL A   1      38.971  32.970  39.832  1.00  0.00    -0.205 F 
ATOM     72  C   UNL A   1      40.626  36.069  40.869  1.00  0.00     0.022 A 
BRANCH  70  73
ATOM     73  S   UNL A   1      38.647  34.822  42.288  1.00  0.00     0.127 S 
ATOM     74  O   UNL A   1      39.112  33.584  42.910  1.00  0.00    -0.237 OA
ATOM     75  O   UNL A   1      38.949  36.037  43.045  1.00  0.00    -0.237 OA
ATOM     76  O   UNL A   1      37.302  34.774  41.729  1.00  0.00    -0.744 OA
ENDBRANCH  70  73
ENDBRANCH  52  66
BRANCH  53  77
ATOM     77  C   UNL A   1      39.959  28.334  30.746  1.00  0.00     0.023 A 
ATOM     78  C   UNL A   1      39.041  27.269  30.806  1.00  0.00     0.012 A 
ATOM     79  C   UNL A   1      40.645  28.592  29.543  1.00  0.00     0.148 A 
ATOM     80  C   UNL A   1      38.804  26.475  29.684  1.00  0.00     0.002 A 
ATOM     81  C   UNL A   1      40.373  27.825  28.417  1.00  0.00     0.091 A 
ATOM     82  F   UNL A   1      41.514  29.612  29.517  1.00  0.00    -0.205 F 
ATOM     83  C   UNL A   1      39.459  26.760  28.488  1.00  0.00     0.022 A 
BRANCH  81  84
ATOM     84  S   UNL A   1      41.070  28.189  26.804  1.00  0.00     0.127 S 
ATOM     85  O   UNL A   1      40.940  26.902  26.124  1.00  0.00    -0.237 OA
ATOM     86  O   UNL A   1      40.168  29.235  26.321  1.00  0.00    -0.237 OA
ATOM     87  O   UNL A   1      42.436  28.629  27.050  1.00  0.00    -0.744 OA
ENDBRANCH  81  84
ENDBRANCH  53  77
BRANCH  65  88
ATOM     88  C   UNL A   1      44.440  28.772  36.098  1.00  0.00     0.023 A 
ATOM     89  C   UNL A   1      45.679  29.322  35.714  1.00  0.00     0.012 A 
ATOM     90  C   UNL A   1      44.409  27.612  36.895  1.00  0.00     0.148 A 
ATOM     91  C   UNL A   1      46.872  28.723  36.115  1.00  0.00     0.002 A 
ATOM     92  C   UNL A   1      45.603  27.038  37.316  1.00  0.00     0.091 A 
ATOM     93  F   UNL A   1      43.216  27.103  37.236  1.00  0.00    -0.205 F 
ATOM     94  C   UNL A   1      46.834  27.589  36.924  1.00  0.00     0.022 A 
BRANCH  92  95
ATOM     95  S   UNL A   1      45.659  25.616  38.414  1.00  0.00     0.127 S 
ATOM     96  O   UNL A   1      47.071  25.587  38.792  1.00  0.00    -0.237 OA
ATOM     97  O   UNL A   1      44.749  26.018  39.486  1.00  0.00    -0.237 OA
ATOM     98  O   UNL A   1      45.203  24.480  37.625  1.00  0.00    -0.744 OA
ENDBRANCH  92  95
ENDBRANCH  65  88
ENDBRANCH  39  40
ENDBRANCH  31  34
ENDBRANCH  29  30
ENDBRANCH  28  29
ENDBRANCH   1  28
TORSDOF 17
ENDMDL
