MODEL 1
REMARK VINA RESULT:     -12.3      0.000      0.000
REMARK SMILES NS(=O)(=O)c1ccc(-n2nc(C(F)(F)F)cc2-c2ccc(C(=O)NCCCCNC(=O)c3ccc(-c4c5nc(c(-c6cccc(S(=O)(=O)[O-])c6F)c6ccc([nH]6)c(-c6cccc(S(=O)(=O)[O-])c6F)c6nc(c(-c7cccc(S(=O)(=O)[O-])c7F)c7ccc4[nH]7)C=C6)C=C5)cc3)cc2)cc1
REMARK SMILES IDX 26 1 25 2 24 3 22 4 23 5 21 7 18 8 19 9 96 10 20 11 95 12
REMARK SMILES IDX 17 13 9 14 10 15 11 16 16 17 8 18 5 19 6 20 98 21 7 22 97 23
REMARK SMILES IDX 2 24 3 25 4 26 1 27 12 30 13 31 14 32 15 33 27 34 28 35
REMARK SMILES IDX 29 36 30 37 31 39 32 40 33 41 94 42 34 43 93 44 35 45 36 46
REMARK SMILES IDX 37 47 87 48 38 49 92 50 86 51 88 52 39 53 91 54 85 55 84 56
REMARK SMILES IDX 40 58 72 59 52 60 71 61 53 62 56 63 70 64 89 65 54 66 55 67
REMARK SMILES IDX 69 69 90 70 57 71 41 72 42 73 50 74 43 75 45 76 51 77 44 78
REMARK SMILES IDX 46 79 47 80 48 81 49 82 73 83 74 84 82 85 75 86 77 87 83 88
REMARK SMILES IDX 76 89 78 90 79 91 80 92 81 93 58 94 59 95 67 96 60 97 62 98
REMARK SMILES IDX 68 99 61 100 63 101 64 102 65 103 66 104
REMARK H PARENT 24 6 1 28 1 29 29 38 88 57 56 68
REMARK Flexibility Score: inf
ROOT
ATOM      1  C   UNL A   1      32.915  33.465  27.769  1.00  0.00     0.023 C 
ENDROOT
BRANCH   1   2
ATOM      2  C   UNL A   1      32.994  31.974  27.399  1.00  0.00     0.116 C 
BRANCH   2   3
ATOM      3  N   UNL A   1      34.071  31.321  28.116  1.00  0.00    -0.352 N 
ATOM      4  C   UNL A   1      34.520  30.026  28.120  1.00  0.00     0.251 C 
ATOM      5  O   UNL A   1      35.404  29.716  28.918  1.00  0.00    -0.269 OA
ATOM      6  H   UNL A   1      34.575  31.921  28.713  1.00  0.00     0.163 HD
BRANCH   4   7
ATOM      7  C   UNL A   1      34.008  28.988  27.184  1.00  0.00     0.039 A 
ATOM      8  C   UNL A   1      33.132  27.096  25.303  1.00  0.00     0.000 A 
ATOM      9  C   UNL A   1      34.244  27.901  25.023  1.00  0.00     0.011 A 
ATOM     10  C   UNL A   1      32.470  27.233  26.519  1.00  0.00     0.011 A 
ATOM     11  C   UNL A   1      34.674  28.843  25.959  1.00  0.00     0.014 A 
ATOM     12  C   UNL A   1      32.936  28.140  27.466  1.00  0.00     0.014 A 
BRANCH   8  13
ATOM     13  C   UNL A   1      32.718  26.034  24.403  1.00  0.00     0.075 A 
ATOM     14  N   UNL A   1      31.655  26.131  23.524  1.00  0.00    -0.233 N 
ATOM     15  N   UNL A   1      31.403  24.954  22.894  1.00  0.00    -0.163 NA
ATOM     16  C   UNL A   1      32.435  24.156  23.243  1.00  0.00     0.167 A 
ATOM     17  C   UNL A   1      33.248  24.777  24.222  1.00  0.00     0.064 A 
BRANCH  14  18
ATOM     18  C   UNL A   1      30.868  27.285  23.281  1.00  0.00     0.065 A 
ATOM     19  C   UNL A   1      29.271  29.408  22.463  1.00  0.00     0.082 A 
ATOM     20  C   UNL A   1      28.683  28.318  23.108  1.00  0.00     0.024 A 
ATOM     21  C   UNL A   1      30.654  29.451  22.244  1.00  0.00     0.024 A 
ATOM     22  C   UNL A   1      29.483  27.254  23.517  1.00  0.00     0.030 A 
ATOM     23  C   UNL A   1      31.463  28.397  22.679  1.00  0.00     0.030 A 
BRANCH  19  24
ATOM     24  S   UNL A   1      28.216  30.720  21.926  1.00  0.00     0.238 S 
ATOM     25  O   UNL A   1      27.253  30.976  22.963  1.00  0.00    -0.207 OA
ATOM     26  O   UNL A   1      27.835  30.480  20.549  1.00  0.00    -0.207 OA
BRANCH  24  27
ATOM     27  N   UNL A   1      29.211  32.073  21.876  1.00  0.00    -0.225 NA
ATOM     28  H   UNL A   1      30.035  31.910  22.454  1.00  0.00     0.137 HD
ATOM     29  H   UNL A   1      28.701  32.883  22.229  1.00  0.00     0.137 HD
ENDBRANCH  24  27
ENDBRANCH  19  24
ENDBRANCH  14  18
BRANCH  16  30
ATOM     30  C   UNL A   1      32.674  22.795  22.647  1.00  0.00     0.435 C 
ATOM     31  F   UNL A   1      33.716  22.136  23.216  1.00  0.00    -0.164 F 
ATOM     32  F   UNL A   1      31.581  21.990  22.763  1.00  0.00    -0.164 F 
ATOM     33  F   UNL A   1      32.946  22.867  21.313  1.00  0.00    -0.164 F 
ENDBRANCH  16  30
ENDBRANCH   8  13
ENDBRANCH   4   7
ENDBRANCH   2   3
ENDBRANCH   1   2
BRANCH   1  34
ATOM     34  C   UNL A   1      33.695  33.875  29.025  1.00  0.00     0.023 C 
BRANCH  34  35
ATOM     35  C   UNL A   1      33.692  35.369  29.308  1.00  0.00     0.116 C 
BRANCH  35  36
ATOM     36  N   UNL A   1      33.027  35.720  30.573  1.00  0.00    -0.352 N 
ATOM     37  C   UNL A   1      33.124  35.069  31.797  1.00  0.00     0.251 C 
ATOM     38  H   UNL A   1      32.441  36.510  30.549  1.00  0.00     0.163 HD
ATOM     39  O   UNL A   1      32.257  35.185  32.656  1.00  0.00    -0.269 OA
BRANCH  37  40
ATOM     40  C   UNL A   1      34.335  34.273  32.046  1.00  0.00     0.039 A 
ATOM     41  C   UNL A   1      34.370  32.878  32.068  1.00  0.00     0.014 A 
ATOM     42  C   UNL A   1      35.498  35.020  32.155  1.00  0.00     0.014 A 
ATOM     43  C   UNL A   1      35.617  32.257  32.144  1.00  0.00     0.010 A 
ATOM     44  C   UNL A   1      36.687  34.418  31.892  1.00  0.00     0.010 A 
ATOM     45  C   UNL A   1      36.772  33.049  32.044  1.00  0.00    -0.014 A 
BRANCH  45  46
ATOM     46  C   UNL A   1      38.121  32.520  32.049  1.00  0.00     0.031 A 
ATOM     47  C   UNL A   1      38.764  32.489  33.378  1.00  0.00     0.074 A 
ATOM     48  C   UNL A   1      38.665  31.921  30.964  1.00  0.00     0.049 A 
ATOM     49  N   UNL A   1      39.615  33.345  33.826  1.00  0.00    -0.248 NA
ATOM     50  C   UNL A   1      38.292  31.528  34.382  1.00  0.00     0.031 C 
ATOM     51  C   UNL A   1      38.057  31.610  29.658  1.00  0.00     0.029 A 
ATOM     52  N   UNL A   1      39.891  31.355  30.852  1.00  0.00    -0.354 N 
ATOM     53  C   UNL A   1      39.995  32.874  35.076  1.00  0.00     0.074 A 
ATOM     54  C   UNL A   1      38.998  31.906  35.452  1.00  0.00     0.031 C 
ATOM     55  C   UNL A   1      38.831  30.724  28.992  1.00  0.00     0.029 A 
ATOM     56  C   UNL A   1      40.068  30.557  29.727  1.00  0.00     0.049 A 
ATOM     57  H   UNL A   1      40.604  31.498  31.515  1.00  0.00     0.167 HD
ATOM     58  C   UNL A   1      41.239  33.137  35.564  1.00  0.00     0.034 A 
ATOM     59  C   UNL A   1      41.164  29.814  29.439  1.00  0.00     0.034 A 
ATOM     60  C   UNL A   1      41.926  34.105  34.739  1.00  0.00     0.049 A 
ATOM     61  C   UNL A   1      42.293  30.446  30.163  1.00  0.00     0.074 A 
ATOM     62  C   UNL A   1      41.690  35.411  34.358  1.00  0.00     0.029 A 
ATOM     63  N   UNL A   1      42.820  33.602  33.819  1.00  0.00    -0.354 N 
ATOM     64  N   UNL A   1      42.718  31.650  29.894  1.00  0.00    -0.248 NA
ATOM     65  C   UNL A   1      42.613  29.950  31.492  1.00  0.00     0.031 C 
ATOM     66  C   UNL A   1      42.059  35.461  32.979  1.00  0.00     0.029 A 
ATOM     67  C   UNL A   1      42.571  34.213  32.618  1.00  0.00     0.049 A 
ATOM     68  H   UNL A   1      43.512  32.923  33.994  1.00  0.00     0.167 HD
ATOM     69  C   UNL A   1      42.923  32.229  31.139  1.00  0.00     0.074 A 
ATOM     70  C   UNL A   1      42.943  31.106  32.079  1.00  0.00     0.031 C 
ATOM     71  C   UNL A   1      42.762  33.573  31.332  1.00  0.00     0.034 A 
BRANCH  58  72
ATOM     72  C   UNL A   1      42.005  32.278  36.537  1.00  0.00     0.023 A 
ATOM     73  C   UNL A   1      42.611  32.939  37.629  1.00  0.00     0.012 A 
ATOM     74  C   UNL A   1      42.391  30.942  36.297  1.00  0.00     0.148 A 
ATOM     75  C   UNL A   1      43.601  32.325  38.401  1.00  0.00     0.002 A 
ATOM     76  C   UNL A   1      43.328  30.312  37.108  1.00  0.00     0.091 A 
ATOM     77  F   UNL A   1      41.959  30.306  35.205  1.00  0.00    -0.205 F 
ATOM     78  C   UNL A   1      43.959  31.008  38.142  1.00  0.00     0.022 A 
BRANCH  76  79
ATOM     79  S   UNL A   1      43.816  28.603  36.842  1.00  0.00     0.127 S 
ATOM     80  O   UNL A   1      42.520  27.931  36.825  1.00  0.00    -0.237 OA
ATOM     81  O   UNL A   1      44.491  28.685  35.546  1.00  0.00    -0.237 OA
ATOM     82  O   UNL A   1      44.696  28.269  37.954  1.00  0.00    -0.744 OA
ENDBRANCH  76  79
ENDBRANCH  58  72
BRANCH  59  83
ATOM     83  C   UNL A   1      41.253  28.464  28.839  1.00  0.00     0.023 A 
ATOM     84  C   UNL A   1      40.331  27.464  29.207  1.00  0.00     0.012 A 
ATOM     85  C   UNL A   1      42.045  28.250  27.688  1.00  0.00     0.148 A 
ATOM     86  C   UNL A   1      40.175  26.307  28.432  1.00  0.00     0.002 A 
ATOM     87  C   UNL A   1      41.884  27.100  26.920  1.00  0.00     0.091 A 
ATOM     88  F   UNL A   1      42.888  29.217  27.300  1.00  0.00    -0.205 F 
ATOM     89  C   UNL A   1      40.941  26.130  27.283  1.00  0.00     0.022 A 
BRANCH  87  90
ATOM     90  S   UNL A   1      42.806  26.822  25.401  1.00  0.00     0.127 S 
ATOM     91  O   UNL A   1      42.403  27.971  24.591  1.00  0.00    -0.237 OA
ATOM     92  O   UNL A   1      44.187  26.861  25.876  1.00  0.00    -0.237 OA
ATOM     93  O   UNL A   1      42.350  25.536  24.890  1.00  0.00    -0.744 OA
ENDBRANCH  87  90
ENDBRANCH  59  83
BRANCH  71  94
ATOM     94  C   UNL A   1      42.525  34.435  30.112  1.00  0.00     0.023 A 
ATOM     95  C   UNL A   1      41.232  34.676  29.597  1.00  0.00     0.012 A 
ATOM     96  C   UNL A   1      43.606  35.149  29.572  1.00  0.00     0.148 A 
ATOM     97  C   UNL A   1      41.025  35.587  28.555  1.00  0.00     0.002 A 
ATOM     98  C   UNL A   1      43.393  36.081  28.563  1.00  0.00     0.091 A 
ATOM     99  F   UNL A   1      44.826  34.924  30.081  1.00  0.00    -0.205 F 
ATOM    100  C   UNL A   1      42.106  36.297  28.044  1.00  0.00     0.022 A 
BRANCH  98 101
ATOM    101  S   UNL A   1      44.720  37.112  27.935  1.00  0.00     0.127 S 
ATOM    102  O   UNL A   1      45.622  36.124  27.347  1.00  0.00    -0.237 OA
ATOM    103  O   UNL A   1      44.024  37.958  26.964  1.00  0.00    -0.237 OA
ATOM    104  O   UNL A   1      45.249  37.835  29.085  1.00  0.00    -0.744 OA
ENDBRANCH  98 101
ENDBRANCH  71  94
ENDBRANCH  45  46
ENDBRANCH  37  40
ENDBRANCH  35  36
ENDBRANCH  34  35
ENDBRANCH   1  34
TORSDOF 19
ENDMDL
MODEL 2
REMARK VINA RESULT:     -12.3      5.006      9.632
REMARK SMILES NS(=O)(=O)c1ccc(-n2nc(C(F)(F)F)cc2-c2ccc(C(=O)NCCCCNC(=O)c3ccc(-c4c5nc(c(-c6cccc(S(=O)(=O)[O-])c6F)c6ccc([nH]6)c(-c6cccc(S(=O)(=O)[O-])c6F)c6nc(c(-c7cccc(S(=O)(=O)[O-])c7F)c7ccc4[nH]7)C=C6)C=C5)cc3)cc2)cc1
REMARK SMILES IDX 26 1 25 2 24 3 22 4 23 5 21 7 18 8 19 9 96 10 20 11 95 12
REMARK SMILES IDX 17 13 9 14 10 15 11 16 16 17 8 18 5 19 6 20 98 21 7 22 97 23
REMARK SMILES IDX 2 24 3 25 4 26 1 27 12 30 13 31 14 32 15 33 27 34 28 35
REMARK SMILES IDX 29 36 30 37 31 39 32 40 33 41 94 42 34 43 93 44 35 45 36 46
REMARK SMILES IDX 37 47 87 48 38 49 92 50 86 51 88 52 39 53 91 54 85 55 84 56
REMARK SMILES IDX 40 58 72 59 52 60 71 61 53 62 56 63 70 64 89 65 54 66 55 67
REMARK SMILES IDX 69 69 90 70 57 71 41 72 42 73 50 74 43 75 45 76 51 77 44 78
REMARK SMILES IDX 46 79 47 80 48 81 49 82 73 83 74 84 82 85 75 86 77 87 83 88
REMARK SMILES IDX 76 89 78 90 79 91 80 92 81 93 58 94 59 95 67 96 60 97 62 98
REMARK SMILES IDX 68 99 61 100 63 101 64 102 65 103 66 104
REMARK H PARENT 24 6 1 28 1 29 29 38 88 57 56 68
REMARK Flexibility Score: inf
ROOT
ATOM      1  C   UNL A   1      38.214  19.506  25.696  1.00  0.00     0.023 C 
ENDROOT
BRANCH   1   2
ATOM      2  C   UNL A   1      37.417  20.759  25.297  1.00  0.00     0.116 C 
BRANCH   2   3
ATOM      3  N   UNL A   1      38.178  21.962  25.566  1.00  0.00    -0.352 N 
ATOM      4  C   UNL A   1      37.864  23.292  25.457  1.00  0.00     0.251 C 
ATOM      5  O   UNL A   1      38.751  24.121  25.657  1.00  0.00    -0.269 OA
ATOM      6  H   UNL A   1      39.092  21.792  25.889  1.00  0.00     0.163 HD
BRANCH   4   7
ATOM      7  C   UNL A   1      36.494  23.778  25.137  1.00  0.00     0.039 A 
ATOM      8  C   UNL A   1      33.949  24.687  24.376  1.00  0.00     0.000 A 
ATOM      9  C   UNL A   1      34.805  24.123  23.423  1.00  0.00     0.011 A 
ATOM     10  C   UNL A   1      34.360  24.786  25.701  1.00  0.00     0.011 A 
ATOM     11  C   UNL A   1      36.072  23.675  23.803  1.00  0.00     0.014 A 
ATOM     12  C   UNL A   1      35.604  24.294  26.081  1.00  0.00     0.014 A 
BRANCH   8  13
ATOM     13  C   UNL A   1      32.586  25.066  24.042  1.00  0.00     0.075 A 
ATOM     14  N   UNL A   1      31.586  24.165  23.721  1.00  0.00    -0.233 N 
ATOM     15  N   UNL A   1      30.446  24.787  23.326  1.00  0.00    -0.163 NA
ATOM     16  C   UNL A   1      30.669  26.095  23.577  1.00  0.00     0.167 A 
ATOM     17  C   UNL A   1      32.010  26.313  23.976  1.00  0.00     0.064 A 
BRANCH  14  18
ATOM     18  C   UNL A   1      31.685  22.751  23.758  1.00  0.00     0.065 A 
ATOM     19  C   UNL A   1      32.249  20.030  23.812  1.00  0.00     0.082 A 
ATOM     20  C   UNL A   1      32.108  20.723  25.015  1.00  0.00     0.024 A 
ATOM     21  C   UNL A   1      32.089  20.684  22.583  1.00  0.00     0.024 A 
ATOM     22  C   UNL A   1      31.826  22.088  24.987  1.00  0.00     0.030 A 
ATOM     23  C   UNL A   1      31.779  22.047  22.554  1.00  0.00     0.030 A 
BRANCH  19  24
ATOM     24  S   UNL A   1      32.644  18.310  23.891  1.00  0.00     0.238 S 
ATOM     25  O   UNL A   1      31.850  17.713  24.931  1.00  0.00    -0.207 OA
ATOM     26  O   UNL A   1      34.083  18.156  23.820  1.00  0.00    -0.207 OA
BRANCH  24  27
ATOM     27  N   UNL A   1      32.064  17.674  22.447  1.00  0.00    -0.225 NA
ATOM     28  H   UNL A   1      31.747  18.433  21.845  1.00  0.00     0.137 HD
ATOM     29  H   UNL A   1      31.285  17.044  22.641  1.00  0.00     0.137 HD
ENDBRANCH  24  27
ENDBRANCH  19  24
ENDBRANCH  14  18
BRANCH  16  30
ATOM     30  C   UNL A   1      29.613  27.160  23.452  1.00  0.00     0.435 C 
ATOM     31  F   UNL A   1      28.348  26.674  23.544  1.00  0.00    -0.164 F 
ATOM     32  F   UNL A   1      29.743  28.120  24.409  1.00  0.00    -0.164 F 
ATOM     33  F   UNL A   1      29.689  27.811  22.256  1.00  0.00    -0.164 F 
ENDBRANCH  16  30
ENDBRANCH   8  13
ENDBRANCH   4   7
ENDBRANCH   2   3
ENDBRANCH   1   2
BRANCH   1  34
ATOM     34  C   UNL A   1      39.658  19.451  25.181  1.00  0.00     0.023 C 
BRANCH  34  35
ATOM     35  C   UNL A   1      40.715  19.729  26.237  1.00  0.00     0.116 C 
BRANCH  35  36
ATOM     36  N   UNL A   1      42.045  19.210  25.879  1.00  0.00    -0.352 N 
ATOM     37  C   UNL A   1      43.208  19.933  25.642  1.00  0.00     0.251 C 
ATOM     38  H   UNL A   1      42.120  18.232  25.797  1.00  0.00     0.163 HD
ATOM     39  O   UNL A   1      44.130  19.468  24.983  1.00  0.00    -0.269 OA
BRANCH  37  40
ATOM     40  C   UNL A   1      43.314  21.264  26.259  1.00  0.00     0.039 A 
ATOM     41  C   UNL A   1      43.463  22.454  25.544  1.00  0.00     0.014 A 
ATOM     42  C   UNL A   1      43.144  21.273  27.635  1.00  0.00     0.014 A 
ATOM     43  C   UNL A   1      43.377  23.655  26.248  1.00  0.00     0.010 A 
ATOM     44  C   UNL A   1      42.733  22.420  28.234  1.00  0.00     0.010 A 
ATOM     45  C   UNL A   1      42.999  23.618  27.601  1.00  0.00    -0.014 A 
BRANCH  45  46
ATOM     46  C   UNL A   1      42.816  24.796  28.424  1.00  0.00     0.031 A 
ATOM     47  C   UNL A   1      41.509  25.461  28.262  1.00  0.00     0.074 A 
ATOM     48  C   UNL A   1      43.688  25.135  29.403  1.00  0.00     0.049 A 
ATOM     49  N   UNL A   1      41.278  26.513  27.555  1.00  0.00    -0.248 NA
ATOM     50  C   UNL A   1      40.300  24.808  28.778  1.00  0.00     0.031 C 
ATOM     51  C   UNL A   1      44.882  24.419  29.887  1.00  0.00     0.029 A 
ATOM     52  N   UNL A   1      43.612  26.179  30.262  1.00  0.00    -0.354 N 
ATOM     53  C   UNL A   1      39.938  26.814  27.759  1.00  0.00     0.074 A 
ATOM     54  C   UNL A   1      39.348  25.626  28.318  1.00  0.00     0.031 C 
ATOM     55  C   UNL A   1      45.268  24.927  31.080  1.00  0.00     0.029 A 
ATOM     56  C   UNL A   1      44.479  26.112  31.346  1.00  0.00     0.049 A 
ATOM     57  H   UNL A   1      42.989  26.930  30.130  1.00  0.00     0.167 HD
ATOM     58  C   UNL A   1      39.502  28.102  27.691  1.00  0.00     0.034 A 
ATOM     59  C   UNL A   1      44.530  26.981  32.384  1.00  0.00     0.034 A 
ATOM     60  C   UNL A   1      40.534  28.973  27.174  1.00  0.00     0.049 A 
ATOM     61  C   UNL A   1      43.966  28.257  31.882  1.00  0.00     0.074 A 
ATOM     62  C   UNL A   1      41.253  29.049  25.998  1.00  0.00     0.029 A 
ATOM     63  N   UNL A   1      41.261  29.681  28.106  1.00  0.00    -0.354 N 
ATOM     64  N   UNL A   1      44.532  28.954  30.935  1.00  0.00    -0.248 NA
ATOM     65  C   UNL A   1      42.545  28.498  32.074  1.00  0.00     0.031 C 
ATOM     66  C   UNL A   1      42.585  29.366  26.405  1.00  0.00     0.029 A 
ATOM     67  C   UNL A   1      42.588  29.543  27.790  1.00  0.00     0.049 A 
ATOM     68  H   UNL A   1      40.893  30.192  28.863  1.00  0.00     0.167 HD
ATOM     69  C   UNL A   1      43.479  29.342  30.117  1.00  0.00     0.074 A 
ATOM     70  C   UNL A   1      42.275  29.122  30.922  1.00  0.00     0.031 C 
ATOM     71  C   UNL A   1      43.653  29.522  28.773  1.00  0.00     0.034 A 
BRANCH  58  72
ATOM     72  C   UNL A   1      38.315  28.671  28.425  1.00  0.00     0.023 A 
ATOM     73  C   UNL A   1      37.322  29.298  27.639  1.00  0.00     0.012 A 
ATOM     74  C   UNL A   1      38.254  28.872  29.821  1.00  0.00     0.148 A 
ATOM     75  C   UNL A   1      36.358  30.137  28.206  1.00  0.00     0.002 A 
ATOM     76  C   UNL A   1      37.254  29.654  30.388  1.00  0.00     0.091 A 
ATOM     77  F   UNL A   1      39.236  28.421  30.605  1.00  0.00    -0.205 F 
ATOM     78  C   UNL A   1      36.323  30.314  29.583  1.00  0.00     0.022 A 
BRANCH  76  79
ATOM     79  S   UNL A   1      37.138  29.902  32.164  1.00  0.00     0.127 S 
ATOM     80  O   UNL A   1      38.320  30.719  32.420  1.00  0.00    -0.237 OA
ATOM     81  O   UNL A   1      35.859  30.602  32.283  1.00  0.00    -0.237 OA
ATOM     82  O   UNL A   1      37.144  28.566  32.747  1.00  0.00    -0.744 OA
ENDBRANCH  76  79
ENDBRANCH  58  72
BRANCH  59  83
ATOM     83  C   UNL A   1      44.749  26.714  33.824  1.00  0.00     0.023 A 
ATOM     84  C   UNL A   1      45.983  27.032  34.423  1.00  0.00     0.012 A 
ATOM     85  C   UNL A   1      43.650  26.435  34.668  1.00  0.00     0.148 A 
ATOM     86  C   UNL A   1      46.111  27.109  35.817  1.00  0.00     0.002 A 
ATOM     87  C   UNL A   1      43.781  26.515  36.052  1.00  0.00     0.091 A 
ATOM     88  F   UNL A   1      42.459  26.183  34.109  1.00  0.00    -0.205 F 
ATOM     89  C   UNL A   1      45.008  26.863  36.630  1.00  0.00     0.022 A 
BRANCH  87  90
ATOM     90  S   UNL A   1      42.392  26.254  37.165  1.00  0.00     0.127 S 
ATOM     91  O   UNL A   1      41.983  24.892  36.819  1.00  0.00    -0.237 OA
ATOM     92  O   UNL A   1      43.026  26.389  38.474  1.00  0.00    -0.237 OA
ATOM     93  O   UNL A   1      41.415  27.280  36.827  1.00  0.00    -0.744 OA
ENDBRANCH  87  90
ENDBRANCH  59  83
BRANCH  71  94
ATOM     94  C   UNL A   1      45.064  29.456  28.231  1.00  0.00     0.023 A 
ATOM     95  C   UNL A   1      45.628  28.261  27.734  1.00  0.00     0.012 A 
ATOM     96  C   UNL A   1      45.779  30.653  28.068  1.00  0.00     0.148 A 
ATOM     97  C   UNL A   1      46.880  28.254  27.110  1.00  0.00     0.002 A 
ATOM     98  C   UNL A   1      47.006  30.651  27.415  1.00  0.00     0.091 A 
ATOM     99  F   UNL A   1      45.225  31.785  28.529  1.00  0.00    -0.205 F 
ATOM    100  C   UNL A   1      47.566  29.452  26.943  1.00  0.00     0.022 A 
BRANCH  98 101
ATOM    101  S   UNL A   1      47.891  32.171  27.064  1.00  0.00     0.127 S 
ATOM    102  O   UNL A   1      49.126  31.672  26.462  1.00  0.00    -0.237 OA
ATOM    103  O   UNL A   1      46.988  32.849  26.132  1.00  0.00    -0.237 OA
ATOM    104  O   UNL A   1      48.049  32.851  28.343  1.00  0.00    -0.744 OA
ENDBRANCH  98 101
ENDBRANCH  71  94
ENDBRANCH  45  46
ENDBRANCH  37  40
ENDBRANCH  35  36
ENDBRANCH  34  35
ENDBRANCH   1  34
TORSDOF 19
ENDMDL
MODEL 3
REMARK VINA RESULT:     -12.2      2.283      6.327
REMARK SMILES NS(=O)(=O)c1ccc(-n2nc(C(F)(F)F)cc2-c2ccc(C(=O)NCCCCNC(=O)c3ccc(-c4c5nc(c(-c6cccc(S(=O)(=O)[O-])c6F)c6ccc([nH]6)c(-c6cccc(S(=O)(=O)[O-])c6F)c6nc(c(-c7cccc(S(=O)(=O)[O-])c7F)c7ccc4[nH]7)C=C6)C=C5)cc3)cc2)cc1
REMARK SMILES IDX 26 1 25 2 24 3 22 4 23 5 21 7 18 8 19 9 96 10 20 11 95 12
REMARK SMILES IDX 17 13 9 14 10 15 11 16 16 17 8 18 5 19 6 20 98 21 7 22 97 23
REMARK SMILES IDX 2 24 3 25 4 26 1 27 12 30 13 31 14 32 15 33 27 34 28 35
REMARK SMILES IDX 29 36 30 37 31 39 32 40 33 41 94 42 34 43 93 44 35 45 36 46
REMARK SMILES IDX 37 47 87 48 38 49 92 50 86 51 88 52 39 53 91 54 85 55 84 56
REMARK SMILES IDX 40 58 72 59 52 60 71 61 53 62 56 63 70 64 89 65 54 66 55 67
REMARK SMILES IDX 69 69 90 70 57 71 41 72 42 73 50 74 43 75 45 76 51 77 44 78
REMARK SMILES IDX 46 79 47 80 48 81 49 82 73 83 74 84 82 85 75 86 77 87 83 88
REMARK SMILES IDX 76 89 78 90 79 91 80 92 81 93 58 94 59 95 67 96 60 97 62 98
REMARK SMILES IDX 68 99 61 100 63 101 64 102 65 103 66 104
REMARK H PARENT 24 6 1 28 1 29 29 38 88 57 56 68
REMARK Flexibility Score: inf
ROOT
ATOM      1  C   UNL A   1      32.079  32.972  27.209  1.00  0.00     0.023 C 
ENDROOT
BRANCH   1   2
ATOM      2  C   UNL A   1      32.285  31.461  27.009  1.00  0.00     0.116 C 
BRANCH   2   3
ATOM      3  N   UNL A   1      33.492  31.014  27.673  1.00  0.00    -0.352 N 
ATOM      4  C   UNL A   1      34.073  29.776  27.790  1.00  0.00     0.251 C 
ATOM      5  O   UNL A   1      35.062  29.660  28.511  1.00  0.00    -0.269 OA
ATOM      6  H   UNL A   1      33.990  31.733  28.125  1.00  0.00     0.163 HD
BRANCH   4   7
ATOM      7  C   UNL A   1      33.577  28.577  27.061  1.00  0.00     0.039 A 
ATOM      8  C   UNL A   1      32.747  26.348  25.569  1.00  0.00     0.000 A 
ATOM      9  C   UNL A   1      33.936  27.008  25.240  1.00  0.00     0.011 A 
ATOM     10  C   UNL A   1      31.983  26.795  26.644  1.00  0.00     0.011 A 
ATOM     11  C   UNL A   1      34.344  28.119  25.981  1.00  0.00     0.014 A 
ATOM     12  C   UNL A   1      32.422  27.872  27.407  1.00  0.00     0.014 A 
BRANCH   8  13
ATOM     13  C   UNL A   1      32.343  25.128  24.892  1.00  0.00     0.075 A 
ATOM     14  N   UNL A   1      31.312  25.055  23.972  1.00  0.00    -0.233 N 
ATOM     15  N   UNL A   1      31.059  23.777  23.589  1.00  0.00    -0.163 NA
ATOM     16  C   UNL A   1      32.063  23.055  24.132  1.00  0.00     0.167 A 
ATOM     17  C   UNL A   1      32.854  23.854  24.993  1.00  0.00     0.064 A 
BRANCH  14  18
ATOM     18  C   UNL A   1      30.556  26.144  23.469  1.00  0.00     0.065 A 
ATOM     19  C   UNL A   1      29.183  28.462  22.788  1.00  0.00     0.082 A 
ATOM     20  C   UNL A   1      30.484  28.274  22.317  1.00  0.00     0.024 A 
ATOM     21  C   UNL A   1      28.559  27.490  23.580  1.00  0.00     0.024 A 
ATOM     22  C   UNL A   1      31.172  27.112  22.659  1.00  0.00     0.030 A 
ATOM     23  C   UNL A   1      29.238  26.311  23.901  1.00  0.00     0.030 A 
BRANCH  19  24
ATOM     24  S   UNL A   1      28.360  29.967  22.364  1.00  0.00     0.238 S 
ATOM     25  O   UNL A   1      28.078  29.943  20.954  1.00  0.00    -0.207 OA
ATOM     26  O   UNL A   1      29.043  31.072  23.006  1.00  0.00    -0.207 OA
BRANCH  24  27
ATOM     27  N   UNL A   1      26.870  29.867  23.134  1.00  0.00    -0.225 NA
ATOM     28  H   UNL A   1      26.988  30.053  24.130  1.00  0.00     0.137 HD
ATOM     29  H   UNL A   1      26.483  28.931  23.006  1.00  0.00     0.137 HD
ENDBRANCH  24  27
ENDBRANCH  19  24
ENDBRANCH  14  18
BRANCH  16  30
ATOM     30  C   UNL A   1      32.295  21.597  23.838  1.00  0.00     0.435 C 
ATOM     31  F   UNL A   1      31.746  20.769  24.764  1.00  0.00    -0.164 F 
ATOM     32  F   UNL A   1      31.787  21.235  22.628  1.00  0.00    -0.164 F 
ATOM     33  F   UNL A   1      33.624  21.296  23.791  1.00  0.00    -0.164 F 
ENDBRANCH  16  30
ENDBRANCH   8  13
ENDBRANCH   4   7
ENDBRANCH   2   3
ENDBRANCH   1   2
BRANCH   1  34
ATOM     34  C   UNL A   1      33.153  33.680  28.045  1.00  0.00     0.023 C 
BRANCH  34  35
ATOM     35  C   UNL A   1      32.797  35.099  28.459  1.00  0.00     0.116 C 
BRANCH  35  36
ATOM     36  N   UNL A   1      32.798  35.297  29.917  1.00  0.00    -0.352 N 
ATOM     37  C   UNL A   1      33.551  34.620  30.870  1.00  0.00     0.251 C 
ATOM     38  H   UNL A   1      32.192  35.993  30.260  1.00  0.00     0.163 HD
ATOM     39  O   UNL A   1      33.206  34.573  32.044  1.00  0.00    -0.269 OA
BRANCH  37  40
ATOM     40  C   UNL A   1      34.809  34.004  30.424  1.00  0.00     0.039 A 
ATOM     41  C   UNL A   1      35.687  34.581  29.505  1.00  0.00     0.014 A 
ATOM     42  C   UNL A   1      35.130  32.822  31.075  1.00  0.00     0.014 A 
ATOM     43  C   UNL A   1      36.923  33.965  29.306  1.00  0.00     0.010 A 
ATOM     44  C   UNL A   1      36.431  32.437  31.123  1.00  0.00     0.010 A 
ATOM     45  C   UNL A   1      37.283  32.892  30.137  1.00  0.00    -0.014 A 
BRANCH  45  46
ATOM     46  C   UNL A   1      38.559  32.208  30.072  1.00  0.00     0.031 A 
ATOM     47  C   UNL A   1      38.520  30.903  29.384  1.00  0.00     0.074 A 
ATOM     48  C   UNL A   1      39.718  32.807  30.431  1.00  0.00     0.049 A 
ATOM     49  N   UNL A   1      38.478  29.749  29.954  1.00  0.00    -0.248 NA
ATOM     50  C   UNL A   1      38.327  30.862  27.929  1.00  0.00     0.031 C 
ATOM     51  C   UNL A   1      39.966  34.196  30.857  1.00  0.00     0.029 A 
ATOM     52  N   UNL A   1      40.971  32.296  30.379  1.00  0.00    -0.354 N 
ATOM     53  C   UNL A   1      38.529  28.821  28.922  1.00  0.00     0.074 A 
ATOM     54  C   UNL A   1      38.206  29.547  27.722  1.00  0.00     0.031 C 
ATOM     55  C   UNL A   1      41.290  34.464  30.800  1.00  0.00     0.029 A 
ATOM     56  C   UNL A   1      41.992  33.228  30.524  1.00  0.00     0.049 A 
ATOM     57  H   UNL A   1      41.147  31.336  30.250  1.00  0.00     0.167 HD
ATOM     58  C   UNL A   1      39.091  27.597  29.122  1.00  0.00     0.034 A 
ATOM     59  C   UNL A   1      43.320  32.982  30.418  1.00  0.00     0.034 A 
ATOM     60  C   UNL A   1      39.367  27.374  30.524  1.00  0.00     0.049 A 
ATOM     61  C   UNL A   1      43.498  31.540  30.718  1.00  0.00     0.074 A 
ATOM     62  C   UNL A   1      38.607  27.325  31.676  1.00  0.00     0.029 A 
ATOM     63  N   UNL A   1      40.661  27.602  30.938  1.00  0.00    -0.354 N 
ATOM     64  N   UNL A   1      43.232  31.026  31.887  1.00  0.00    -0.248 NA
ATOM     65  C   UNL A   1      43.489  30.605  29.604  1.00  0.00     0.031 C 
ATOM     66  C   UNL A   1      39.388  28.007  32.658  1.00  0.00     0.029 A 
ATOM     67  C   UNL A   1      40.606  28.364  32.076  1.00  0.00     0.049 A 
ATOM     68  H   UNL A   1      41.478  27.278  30.494  1.00  0.00     0.167 HD
ATOM     69  C   UNL A   1      42.564  29.843  31.599  1.00  0.00     0.074 A 
ATOM     70  C   UNL A   1      42.844  29.587  30.184  1.00  0.00     0.031 C 
ATOM     71  C   UNL A   1      41.611  29.341  32.442  1.00  0.00     0.034 A 
BRANCH  58  72
ATOM     72  C   UNL A   1      39.751  26.745  28.067  1.00  0.00     0.023 A 
ATOM     73  C   UNL A   1      39.422  25.371  28.062  1.00  0.00     0.012 A 
ATOM     74  C   UNL A   1      40.854  27.147  27.285  1.00  0.00     0.148 A 
ATOM     75  C   UNL A   1      40.195  24.435  27.369  1.00  0.00     0.002 A 
ATOM     76  C   UNL A   1      41.579  26.222  26.543  1.00  0.00     0.091 A 
ATOM     77  F   UNL A   1      41.298  28.405  27.351  1.00  0.00    -0.205 F 
ATOM     78  C   UNL A   1      41.274  24.861  26.606  1.00  0.00     0.022 A 
BRANCH  76  79
ATOM     79  S   UNL A   1      42.971  26.713  25.516  1.00  0.00     0.127 S 
ATOM     80  O   UNL A   1      42.354  27.714  24.651  1.00  0.00    -0.237 OA
ATOM     81  O   UNL A   1      43.903  27.241  26.513  1.00  0.00    -0.237 OA
ATOM     82  O   UNL A   1      43.424  25.492  24.862  1.00  0.00    -0.744 OA
ENDBRANCH  76  79
ENDBRANCH  58  72
BRANCH  59  83
ATOM     83  C   UNL A   1      44.384  33.808  29.805  1.00  0.00     0.023 A 
ATOM     84  C   UNL A   1      45.391  34.377  30.609  1.00  0.00     0.012 A 
ATOM     85  C   UNL A   1      44.583  33.783  28.406  1.00  0.00     0.148 A 
ATOM     86  C   UNL A   1      46.574  34.870  30.043  1.00  0.00     0.002 A 
ATOM     87  C   UNL A   1      45.762  34.271  27.848  1.00  0.00     0.091 A 
ATOM     88  F   UNL A   1      43.656  33.197  27.636  1.00  0.00    -0.205 F 
ATOM     89  C   UNL A   1      46.766  34.806  28.665  1.00  0.00     0.022 A 
BRANCH  87  90
ATOM     90  S   UNL A   1      46.099  34.183  26.083  1.00  0.00     0.127 S 
ATOM     91  O   UNL A   1      47.378  34.887  25.987  1.00  0.00    -0.237 OA
ATOM     92  O   UNL A   1      46.175  32.741  25.863  1.00  0.00    -0.237 OA
ATOM     93  O   UNL A   1      44.987  34.864  25.433  1.00  0.00    -0.744 OA
ENDBRANCH  87  90
ENDBRANCH  59  83
BRANCH  71  94
ATOM     94  C   UNL A   1      41.432  30.020  33.782  1.00  0.00     0.023 A 
ATOM     95  C   UNL A   1      42.326  29.820  34.856  1.00  0.00     0.012 A 
ATOM     96  C   UNL A   1      40.438  31.003  33.911  1.00  0.00     0.148 A 
ATOM     97  C   UNL A   1      42.221  30.563  36.036  1.00  0.00     0.002 A 
ATOM     98  C   UNL A   1      40.358  31.767  35.069  1.00  0.00     0.091 A 
ATOM     99  F   UNL A   1      39.605  31.196  32.878  1.00  0.00    -0.205 F 
ATOM    100  C   UNL A   1      41.240  31.545  36.140  1.00  0.00     0.022 A 
BRANCH  98 101
ATOM    101  S   UNL A   1      39.194  33.123  35.227  1.00  0.00     0.127 S 
ATOM    102  O   UNL A   1      39.319  33.469  36.642  1.00  0.00    -0.237 OA
ATOM    103  O   UNL A   1      39.747  34.117  34.305  1.00  0.00    -0.237 OA
ATOM    104  O   UNL A   1      37.898  32.592  34.825  1.00  0.00    -0.744 OA
ENDBRANCH  98 101
ENDBRANCH  71  94
ENDBRANCH  45  46
ENDBRANCH  37  40
ENDBRANCH  35  36
ENDBRANCH  34  35
ENDBRANCH   1  34
TORSDOF 19
ENDMDL
