MODEL 1
REMARK VINA RESULT:     -11.5      0.000      0.000
REMARK SMILES COc1ccc(CCNC(=O)[C@@]2(C)CC[C@@H](C(=O)NCCCCNC(=O)c3ccc(-c4c5nc(c(-c6cccc(S(=O)(=O)[O-])c6F)c6ccc([nH]6)c(-c6cccc(S(=O)(=O)[O-])c6F)c6nc(c(-c7cccc(S(=O)(=O)[O-])c7F)c7ccc4[nH]7)C=C6)C=C5)cc3)C2(C)C)cc1OC
REMARK SMILES IDX 20 1 19 2 17 3 18 4 16 6 12 7 13 8 14 9 90 10 15 11 91 12
REMARK SMILES IDX 92 13 10 14 9 15 11 17 8 18 7 19 6 20 3 21 4 22 94 23 5 24
REMARK SMILES IDX 93 25 2 26 1 27 95 28 96 29 21 30 22 31 23 32 24 33 25 34
REMARK SMILES IDX 26 36 27 37 28 38 89 39 29 40 88 41 30 42 31 43 32 44 82 45
REMARK SMILES IDX 33 46 87 47 81 48 83 49 34 50 86 51 80 52 79 53 35 55 67 56
REMARK SMILES IDX 47 57 66 58 48 59 51 60 65 61 84 62 49 63 50 64 64 66 85 67
REMARK SMILES IDX 52 68 36 69 37 70 45 71 38 72 40 73 46 74 39 75 41 76 42 77
REMARK SMILES IDX 43 78 44 79 68 80 69 81 77 82 70 83 72 84 78 85 71 86 73 87
REMARK SMILES IDX 74 88 75 89 76 90 53 91 54 92 62 93 55 94 57 95 63 96 56 97
REMARK SMILES IDX 58 98 59 99 60 100 61 101
REMARK H PARENT 19 5 9 16 24 35 83 54 51 65
REMARK Flexibility Score: inf
ROOT
ATOM      1  C   UNL A   1      35.554  21.846  24.612  1.00  0.00     0.116 C 
ENDROOT
BRANCH   1   2
ATOM      2  N   UNL A   1      35.197  21.668  25.997  1.00  0.00    -0.356 N 
ATOM      3  C   UNL A   1      34.020  21.827  26.654  1.00  0.00     0.223 C 
ATOM      4  O   UNL A   1      34.025  21.497  27.848  1.00  0.00    -0.275 OA
ATOM      5  H   UNL A   1      35.942  21.377  26.569  1.00  0.00     0.163 HD
BRANCH   3   6
ATOM      6  C   UNL A   1      32.692  22.321  26.035  1.00  0.00     0.085 C 
ATOM      7  C   UNL A   1      32.465  23.592  23.850  1.00  0.00     0.052 C 
ATOM      8  C   UNL A   1      31.149  24.098  23.211  1.00  0.00     0.022 C 
ATOM      9  C   UNL A   1      32.492  22.052  23.644  1.00  0.00     0.018 C 
ATOM     10  C   UNL A   1      32.514  23.766  25.471  1.00  0.00    -0.010 C 
ATOM     11  C   UNL A   1      32.128  21.402  24.964  1.00  0.00     0.015 C 
ATOM     12  C   UNL A   1      33.572  24.708  26.073  1.00  0.00     0.013 C 
ATOM     13  C   UNL A   1      31.181  24.337  26.032  1.00  0.00     0.013 C 
BRANCH   7  14
ATOM     14  C   UNL A   1      33.550  24.444  23.125  1.00  0.00     0.226 C 
ATOM     15  N   UNL A   1      33.677  25.790  23.178  1.00  0.00    -0.355 N 
ATOM     16  H   UNL A   1      34.357  26.120  22.547  1.00  0.00     0.163 HD
ATOM     17  O   UNL A   1      34.459  23.885  22.499  1.00  0.00    -0.274 OA
BRANCH  15  18
ATOM     18  C   UNL A   1      33.065  26.877  23.932  1.00  0.00     0.120 C 
BRANCH  18  19
ATOM     19  C   UNL A   1      32.679  28.058  23.038  1.00  0.00     0.057 C 
BRANCH  19  20
ATOM     20  C   UNL A   1      31.190  28.298  22.952  1.00  0.00    -0.042 A 
ATOM     21  C   UNL A   1      28.428  28.799  22.756  1.00  0.00     0.160 A 
ATOM     22  C   UNL A   1      28.905  27.711  23.499  1.00  0.00     0.051 A 
ATOM     23  C   UNL A   1      29.329  29.661  22.120  1.00  0.00     0.160 A 
ATOM     24  C   UNL A   1      30.276  27.452  23.584  1.00  0.00     0.008 A 
ATOM     25  C   UNL A   1      30.701  29.402  22.236  1.00  0.00     0.054 A 
BRANCH  21  26
ATOM     26  O   UNL A   1      27.082  29.048  22.766  1.00  0.00    -0.493 OA
ATOM     27  C   UNL A   1      26.390  28.194  23.675  1.00  0.00     0.278 C 
ENDBRANCH  21  26
BRANCH  23  28
ATOM     28  O   UNL A   1      29.063  30.778  21.376  1.00  0.00    -0.493 OA
ATOM     29  C   UNL A   1      28.757  31.984  22.057  1.00  0.00     0.278 C 
ENDBRANCH  23  28
ENDBRANCH  19  20
ENDBRANCH  18  19
ENDBRANCH  15  18
ENDBRANCH   7  14
ENDBRANCH   3   6
ENDBRANCH   1   2
BRANCH   1  30
ATOM     30  C   UNL A   1      37.037  21.696  24.293  1.00  0.00     0.023 C 
BRANCH  30  31
ATOM     31  C   UNL A   1      37.724  20.529  24.973  1.00  0.00     0.023 C 
BRANCH  31  32
ATOM     32  C   UNL A   1      38.948  20.917  25.779  1.00  0.00     0.116 C 
BRANCH  32  33
ATOM     33  N   UNL A   1      39.955  19.862  25.832  1.00  0.00    -0.352 N 
ATOM     34  C   UNL A   1      41.297  19.961  26.098  1.00  0.00     0.251 C 
ATOM     35  H   UNL A   1      39.625  18.952  25.650  1.00  0.00     0.163 HD
ATOM     36  O   UNL A   1      42.031  18.987  25.943  1.00  0.00    -0.269 OA
BRANCH  34  37
ATOM     37  C   UNL A   1      41.848  21.253  26.547  1.00  0.00     0.039 A 
ATOM     38  C   UNL A   1      42.183  22.218  25.598  1.00  0.00     0.014 A 
ATOM     39  C   UNL A   1      41.973  21.526  27.912  1.00  0.00     0.014 A 
ATOM     40  C   UNL A   1      42.586  23.482  26.027  1.00  0.00     0.010 A 
ATOM     41  C   UNL A   1      42.248  22.818  28.332  1.00  0.00     0.010 A 
ATOM     42  C   UNL A   1      42.584  23.804  27.397  1.00  0.00    -0.014 A 
BRANCH  42  43
ATOM     43  C   UNL A   1      42.938  25.168  27.857  1.00  0.00     0.031 A 
ATOM     44  C   UNL A   1      44.371  25.631  27.839  1.00  0.00     0.074 A 
ATOM     45  C   UNL A   1      41.970  25.975  28.336  1.00  0.00     0.049 A 
ATOM     46  N   UNL A   1      44.859  26.803  28.148  1.00  0.00    -0.248 NA
ATOM     47  C   UNL A   1      45.396  24.643  27.456  1.00  0.00     0.031 C 
ATOM     48  C   UNL A   1      40.565  25.598  28.510  1.00  0.00     0.029 A 
ATOM     49  N   UNL A   1      42.021  27.275  28.768  1.00  0.00    -0.354 N 
ATOM     50  C   UNL A   1      46.239  26.686  28.025  1.00  0.00     0.074 A 
ATOM     51  C   UNL A   1      46.518  25.314  27.667  1.00  0.00     0.031 C 
ATOM     52  C   UNL A   1      39.880  26.656  28.976  1.00  0.00     0.029 A 
ATOM     53  C   UNL A   1      40.799  27.773  29.158  1.00  0.00     0.049 A 
ATOM     54  H   UNL A   1      42.852  27.802  28.796  1.00  0.00     0.167 HD
ATOM     55  C   UNL A   1      47.187  27.642  28.156  1.00  0.00     0.034 A 
ATOM     56  C   UNL A   1      40.460  28.998  29.603  1.00  0.00     0.034 A 
ATOM     57  C   UNL A   1      46.899  29.014  28.476  1.00  0.00     0.049 A 
ATOM     58  C   UNL A   1      41.522  30.060  29.676  1.00  0.00     0.074 A 
ATOM     59  C   UNL A   1      47.772  30.083  28.547  1.00  0.00     0.029 A 
ATOM     60  N   UNL A   1      45.640  29.502  28.789  1.00  0.00    -0.354 N 
ATOM     61  N   UNL A   1      42.798  29.975  29.384  1.00  0.00    -0.248 NA
ATOM     62  C   UNL A   1      41.088  31.400  30.094  1.00  0.00     0.031 C 
ATOM     63  C   UNL A   1      47.045  31.214  28.937  1.00  0.00     0.029 A 
ATOM     64  C   UNL A   1      45.713  30.856  29.066  1.00  0.00     0.049 A 
ATOM     65  H   UNL A   1      44.815  28.965  28.811  1.00  0.00     0.167 HD
ATOM     66  C   UNL A   1      43.313  31.254  29.552  1.00  0.00     0.074 A 
ATOM     67  C   UNL A   1      42.202  32.101  29.937  1.00  0.00     0.031 C 
ATOM     68  C   UNL A   1      44.591  31.689  29.415  1.00  0.00     0.034 A 
BRANCH  55  69
ATOM     69  C   UNL A   1      48.619  27.246  27.903  1.00  0.00     0.023 A 
ATOM     70  C   UNL A   1      49.391  26.702  28.952  1.00  0.00     0.012 A 
ATOM     71  C   UNL A   1      49.190  27.365  26.621  1.00  0.00     0.148 A 
ATOM     72  C   UNL A   1      50.716  26.321  28.741  1.00  0.00     0.002 A 
ATOM     73  C   UNL A   1      50.494  26.935  26.405  1.00  0.00     0.091 A 
ATOM     74  F   UNL A   1      48.452  27.906  25.641  1.00  0.00    -0.205 F 
ATOM     75  C   UNL A   1      51.262  26.426  27.466  1.00  0.00     0.022 A 
BRANCH  73  76
ATOM     76  S   UNL A   1      51.264  26.951  24.783  1.00  0.00     0.127 S 
ATOM     77  O   UNL A   1      52.157  25.796  24.869  1.00  0.00    -0.237 OA
ATOM     78  O   UNL A   1      50.115  26.768  23.897  1.00  0.00    -0.237 OA
ATOM     79  O   UNL A   1      51.926  28.243  24.663  1.00  0.00    -0.744 OA
ENDBRANCH  73  76
ENDBRANCH  55  69
BRANCH  56  80
ATOM     80  C   UNL A   1      39.040  29.304  29.936  1.00  0.00     0.023 A 
ATOM     81  C   UNL A   1      38.562  29.064  31.240  1.00  0.00     0.012 A 
ATOM     82  C   UNL A   1      38.170  29.855  28.977  1.00  0.00     0.148 A 
ATOM     83  C   UNL A   1      37.231  29.329  31.570  1.00  0.00     0.002 A 
ATOM     84  C   UNL A   1      36.864  30.172  29.328  1.00  0.00     0.091 A 
ATOM     85  F   UNL A   1      38.643  30.069  27.741  1.00  0.00    -0.205 F 
ATOM     86  C   UNL A   1      36.386  29.892  30.617  1.00  0.00     0.022 A 
BRANCH  84  87
ATOM     87  S   UNL A   1      35.746  31.022  28.209  1.00  0.00     0.127 S 
ATOM     88  O   UNL A   1      34.566  31.210  29.049  1.00  0.00    -0.237 OA
ATOM     89  O   UNL A   1      36.491  32.246  27.910  1.00  0.00    -0.237 OA
ATOM     90  O   UNL A   1      35.576  30.130  27.070  1.00  0.00    -0.744 OA
ENDBRANCH  84  87
ENDBRANCH  56  80
BRANCH  68  91
ATOM     91  C   UNL A   1      44.847  33.156  29.653  1.00  0.00     0.023 A 
ATOM     92  C   UNL A   1      45.214  33.609  30.935  1.00  0.00     0.012 A 
ATOM     93  C   UNL A   1      44.753  34.080  28.594  1.00  0.00     0.148 A 
ATOM     94  C   UNL A   1      45.427  34.966  31.173  1.00  0.00     0.002 A 
ATOM     95  C   UNL A   1      45.024  35.422  28.826  1.00  0.00     0.091 A 
ATOM     96  F   UNL A   1      44.387  33.634  27.383  1.00  0.00    -0.205 F 
ATOM     97  C   UNL A   1      45.342  35.870  30.118  1.00  0.00     0.022 A 
BRANCH  95  98
ATOM     98  S   UNL A   1      45.038  36.639  27.505  1.00  0.00     0.127 S 
ATOM     99  O   UNL A   1      43.676  36.531  26.986  1.00  0.00    -0.237 OA
ATOM    100  O   UNL A   1      45.321  37.880  28.227  1.00  0.00    -0.237 OA
ATOM    101  O   UNL A   1      46.093  36.222  26.590  1.00  0.00    -0.744 OA
ENDBRANCH  95  98
ENDBRANCH  68  91
ENDBRANCH  42  43
ENDBRANCH  34  37
ENDBRANCH  32  33
ENDBRANCH  31  32
ENDBRANCH  30  31
ENDBRANCH   1  30
TORSDOF 20
ENDMDL
MODEL 2
REMARK VINA RESULT:     -11.3      1.334      2.042
REMARK SMILES COc1ccc(CCNC(=O)[C@@]2(C)CC[C@@H](C(=O)NCCCCNC(=O)c3ccc(-c4c5nc(c(-c6cccc(S(=O)(=O)[O-])c6F)c6ccc([nH]6)c(-c6cccc(S(=O)(=O)[O-])c6F)c6nc(c(-c7cccc(S(=O)(=O)[O-])c7F)c7ccc4[nH]7)C=C6)C=C5)cc3)C2(C)C)cc1OC
REMARK SMILES IDX 20 1 19 2 17 3 18 4 16 6 12 7 13 8 14 9 90 10 15 11 91 12
REMARK SMILES IDX 92 13 10 14 9 15 11 17 8 18 7 19 6 20 3 21 4 22 94 23 5 24
REMARK SMILES IDX 93 25 2 26 1 27 95 28 96 29 21 30 22 31 23 32 24 33 25 34
REMARK SMILES IDX 26 36 27 37 28 38 89 39 29 40 88 41 30 42 31 43 32 44 82 45
REMARK SMILES IDX 33 46 87 47 81 48 83 49 34 50 86 51 80 52 79 53 35 55 67 56
REMARK SMILES IDX 47 57 66 58 48 59 51 60 65 61 84 62 49 63 50 64 64 66 85 67
REMARK SMILES IDX 52 68 36 69 37 70 45 71 38 72 40 73 46 74 39 75 41 76 42 77
REMARK SMILES IDX 43 78 44 79 68 80 69 81 77 82 70 83 72 84 78 85 71 86 73 87
REMARK SMILES IDX 74 88 75 89 76 90 53 91 54 92 62 93 55 94 57 95 63 96 56 97
REMARK SMILES IDX 58 98 59 99 60 100 61 101
REMARK H PARENT 19 5 9 16 24 35 83 54 51 65
REMARK Flexibility Score: inf
ROOT
ATOM      1  C   UNL A   1      38.348  22.005  25.734  1.00  0.00     0.116 C 
ENDROOT
BRANCH   1   2
ATOM      2  N   UNL A   1      37.221  22.813  26.123  1.00  0.00    -0.356 N 
ATOM      3  C   UNL A   1      35.913  22.773  25.762  1.00  0.00     0.223 C 
ATOM      4  O   UNL A   1      35.168  23.563  26.358  1.00  0.00    -0.275 OA
ATOM      5  H   UNL A   1      37.439  23.524  26.767  1.00  0.00     0.163 HD
BRANCH   3   6
ATOM      6  C   UNL A   1      35.282  21.806  24.733  1.00  0.00     0.085 C 
ATOM      7  C   UNL A   1      32.844  21.785  24.030  1.00  0.00     0.052 C 
ATOM      8  C   UNL A   1      32.188  20.828  23.006  1.00  0.00     0.022 C 
ATOM      9  C   UNL A   1      33.692  22.796  23.210  1.00  0.00     0.018 C 
ATOM     10  C   UNL A   1      33.936  21.059  24.998  1.00  0.00    -0.010 C 
ATOM     11  C   UNL A   1      35.146  22.389  23.337  1.00  0.00     0.015 C 
ATOM     12  C   UNL A   1      33.648  20.997  26.509  1.00  0.00     0.013 C 
ATOM     13  C   UNL A   1      34.139  19.563  24.623  1.00  0.00     0.013 C 
BRANCH   7  14
ATOM     14  C   UNL A   1      31.618  22.335  24.821  1.00  0.00     0.226 C 
ATOM     15  N   UNL A   1      31.078  23.570  24.703  1.00  0.00    -0.355 N 
ATOM     16  H   UNL A   1      30.389  23.736  25.386  1.00  0.00     0.163 HD
ATOM     17  O   UNL A   1      30.984  21.588  25.578  1.00  0.00    -0.274 OA
BRANCH  15  18
ATOM     18  C   UNL A   1      31.256  24.717  23.822  1.00  0.00     0.120 C 
BRANCH  18  19
ATOM     19  C   UNL A   1      30.055  25.665  23.852  1.00  0.00     0.057 C 
BRANCH  19  20
ATOM     20  C   UNL A   1      30.398  27.074  24.276  1.00  0.00    -0.042 A 
ATOM     21  C   UNL A   1      31.007  29.720  25.012  1.00  0.00     0.160 A 
ATOM     22  C   UNL A   1      31.460  28.643  25.785  1.00  0.00     0.051 A 
ATOM     23  C   UNL A   1      30.261  29.485  23.852  1.00  0.00     0.160 A 
ATOM     24  C   UNL A   1      31.145  27.328  25.429  1.00  0.00     0.008 A 
ATOM     25  C   UNL A   1      29.975  28.160  23.495  1.00  0.00     0.054 A 
BRANCH  21  26
ATOM     26  O   UNL A   1      31.404  30.981  25.366  1.00  0.00    -0.493 OA
ATOM     27  C   UNL A   1      32.027  31.002  26.649  1.00  0.00     0.278 C 
ENDBRANCH  21  26
BRANCH  23  28
ATOM     28  O   UNL A   1      29.754  30.393  22.963  1.00  0.00    -0.493 OA
ATOM     29  C   UNL A   1      28.346  30.548  22.887  1.00  0.00     0.278 C 
ENDBRANCH  23  28
ENDBRANCH  19  20
ENDBRANCH  18  19
ENDBRANCH  15  18
ENDBRANCH   7  14
ENDBRANCH   3   6
ENDBRANCH   1   2
BRANCH   1  30
ATOM     30  C   UNL A   1      38.004  20.702  25.020  1.00  0.00     0.023 C 
BRANCH  30  31
ATOM     31  C   UNL A   1      38.886  19.522  25.379  1.00  0.00     0.023 C 
BRANCH  31  32
ATOM     32  C   UNL A   1      40.001  19.858  26.349  1.00  0.00     0.116 C 
BRANCH  32  33
ATOM     33  N   UNL A   1      41.311  19.408  25.890  1.00  0.00    -0.352 N 
ATOM     34  C   UNL A   1      42.472  20.127  25.753  1.00  0.00     0.251 C 
ATOM     35  H   UNL A   1      41.370  18.457  25.643  1.00  0.00     0.163 HD
ATOM     36  O   UNL A   1      43.448  19.625  25.199  1.00  0.00    -0.269 OA
BRANCH  34  37
ATOM     37  C   UNL A   1      42.525  21.511  26.259  1.00  0.00     0.039 A 
ATOM     38  C   UNL A   1      42.698  21.731  27.625  1.00  0.00     0.014 A 
ATOM     39  C   UNL A   1      42.462  22.587  25.369  1.00  0.00     0.014 A 
ATOM     40  C   UNL A   1      42.871  23.036  28.087  1.00  0.00     0.010 A 
ATOM     41  C   UNL A   1      42.763  23.865  25.814  1.00  0.00     0.010 A 
ATOM     42  C   UNL A   1      42.944  24.109  27.180  1.00  0.00    -0.014 A 
BRANCH  42  43
ATOM     43  C   UNL A   1      43.204  25.489  27.656  1.00  0.00     0.031 A 
ATOM     44  C   UNL A   1      44.599  26.055  27.629  1.00  0.00     0.074 A 
ATOM     45  C   UNL A   1      42.186  26.216  28.159  1.00  0.00     0.049 A 
ATOM     46  N   UNL A   1      45.005  27.255  27.950  1.00  0.00    -0.248 NA
ATOM     47  C   UNL A   1      45.689  25.150  27.219  1.00  0.00     0.031 C 
ATOM     48  C   UNL A   1      40.814  25.736  28.343  1.00  0.00     0.029 A 
ATOM     49  N   UNL A   1      42.148  27.510  28.610  1.00  0.00    -0.354 N 
ATOM     50  C   UNL A   1      46.388  27.240  27.809  1.00  0.00     0.074 A 
ATOM     51  C   UNL A   1      46.761  25.897  27.428  1.00  0.00     0.031 C 
ATOM     52  C   UNL A   1      40.060  26.733  28.833  1.00  0.00     0.029 A 
ATOM     53  C   UNL A   1      40.898  27.912  29.022  1.00  0.00     0.049 A 
ATOM     54  H   UNL A   1      42.939  28.095  28.636  1.00  0.00     0.167 HD
ATOM     55  C   UNL A   1      47.266  28.260  27.944  1.00  0.00     0.034 A 
ATOM     56  C   UNL A   1      40.476  29.102  29.489  1.00  0.00     0.034 A 
ATOM     57  C   UNL A   1      46.882  29.603  28.288  1.00  0.00     0.049 A 
ATOM     58  C   UNL A   1      41.460  30.238  29.566  1.00  0.00     0.074 A 
ATOM     59  C   UNL A   1      47.677  30.731  28.366  1.00  0.00     0.029 A 
ATOM     60  N   UNL A   1      45.596  29.994  28.623  1.00  0.00    -0.354 N 
ATOM     61  N   UNL A   1      42.734  30.250  29.258  1.00  0.00    -0.248 NA
ATOM     62  C   UNL A   1      40.935  31.536  30.009  1.00  0.00     0.031 C 
ATOM     63  C   UNL A   1      46.875  31.801  28.781  1.00  0.00     0.029 A 
ATOM     64  C   UNL A   1      45.574  31.346  28.920  1.00  0.00     0.049 A 
ATOM     65  H   UNL A   1      44.813  29.398  28.647  1.00  0.00     0.167 HD
ATOM     66  C   UNL A   1      43.157  31.561  29.440  1.00  0.00     0.074 A 
ATOM     67  C   UNL A   1      41.993  32.318  29.851  1.00  0.00     0.031 C 
ATOM     68  C   UNL A   1      44.398  32.090  29.294  1.00  0.00     0.034 A 
BRANCH  55  69
ATOM     69  C   UNL A   1      48.720  27.973  27.669  1.00  0.00     0.023 A 
ATOM     70  C   UNL A   1      49.577  27.620  28.733  1.00  0.00     0.012 A 
ATOM     71  C   UNL A   1      49.230  28.004  26.357  1.00  0.00     0.148 A 
ATOM     72  C   UNL A   1      50.924  27.342  28.502  1.00  0.00     0.002 A 
ATOM     73  C   UNL A   1      50.560  27.675  26.127  1.00  0.00     0.091 A 
ATOM     74  F   UNL A   1      48.408  28.364  25.360  1.00  0.00    -0.205 F 
ATOM     75  C   UNL A   1      51.411  27.358  27.199  1.00  0.00     0.022 A 
BRANCH  73  76
ATOM     76  S   UNL A   1      51.268  27.585  24.479  1.00  0.00     0.127 S 
ATOM     77  O   UNL A   1      51.235  28.987  24.066  1.00  0.00    -0.237 OA
ATOM     78  O   UNL A   1      52.606  27.060  24.749  1.00  0.00    -0.237 OA
ATOM     79  O   UNL A   1      50.405  26.691  23.718  1.00  0.00    -0.744 OA
ENDBRANCH  73  76
ENDBRANCH  55  69
BRANCH  56  80
ATOM     80  C   UNL A   1      39.042  29.300  29.843  1.00  0.00     0.023 A 
ATOM     81  C   UNL A   1      38.598  28.999  31.146  1.00  0.00     0.012 A 
ATOM     82  C   UNL A   1      38.125  29.807  28.905  1.00  0.00     0.148 A 
ATOM     83  C   UNL A   1      37.256  29.162  31.495  1.00  0.00     0.002 A 
ATOM     84  C   UNL A   1      36.803  30.023  29.276  1.00  0.00     0.091 A 
ATOM     85  F   UNL A   1      38.566  30.080  27.669  1.00  0.00    -0.205 F 
ATOM     86  C   UNL A   1      36.362  29.683  30.563  1.00  0.00     0.022 A 
BRANCH  84  87
ATOM     87  S   UNL A   1      35.615  30.814  28.187  1.00  0.00     0.127 S 
ATOM     88  O   UNL A   1      34.571  31.219  29.125  1.00  0.00    -0.237 OA
ATOM     89  O   UNL A   1      36.403  31.914  27.628  1.00  0.00    -0.237 OA
ATOM     90  O   UNL A   1      35.233  29.797  27.216  1.00  0.00    -0.744 OA
ENDBRANCH  84  87
ENDBRANCH  56  80
BRANCH  68  91
ATOM     91  C   UNL A   1      44.551  33.567  29.552  1.00  0.00     0.023 A 
ATOM     92  C   UNL A   1      44.827  34.032  30.853  1.00  0.00     0.012 A 
ATOM     93  C   UNL A   1      44.450  34.492  28.494  1.00  0.00     0.148 A 
ATOM     94  C   UNL A   1      44.943  35.398  31.107  1.00  0.00     0.002 A 
ATOM     95  C   UNL A   1      44.625  35.847  28.746  1.00  0.00     0.091 A 
ATOM     96  F   UNL A   1      44.171  34.034  27.265  1.00  0.00    -0.205 F 
ATOM     97  C   UNL A   1      44.852  36.304  30.053  1.00  0.00     0.022 A 
BRANCH  95  98
ATOM     98  S   UNL A   1      44.626  37.072  27.433  1.00  0.00     0.127 S 
ATOM     99  O   UNL A   1      43.265  36.953  26.913  1.00  0.00    -0.237 OA
ATOM    100  O   UNL A   1      44.896  38.311  28.163  1.00  0.00    -0.237 OA
ATOM    101  O   UNL A   1      45.685  36.673  26.516  1.00  0.00    -0.744 OA
ENDBRANCH  95  98
ENDBRANCH  68  91
ENDBRANCH  42  43
ENDBRANCH  34  37
ENDBRANCH  32  33
ENDBRANCH  31  32
ENDBRANCH  30  31
ENDBRANCH   1  30
TORSDOF 20
ENDMDL
MODEL 3
REMARK VINA RESULT:     -11.2      2.223      3.328
REMARK SMILES COc1ccc(CCNC(=O)[C@@]2(C)CC[C@@H](C(=O)NCCCCNC(=O)c3ccc(-c4c5nc(c(-c6cccc(S(=O)(=O)[O-])c6F)c6ccc([nH]6)c(-c6cccc(S(=O)(=O)[O-])c6F)c6nc(c(-c7cccc(S(=O)(=O)[O-])c7F)c7ccc4[nH]7)C=C6)C=C5)cc3)C2(C)C)cc1OC
REMARK SMILES IDX 20 1 19 2 17 3 18 4 16 6 12 7 13 8 14 9 90 10 15 11 91 12
REMARK SMILES IDX 92 13 10 14 9 15 11 17 8 18 7 19 6 20 3 21 4 22 94 23 5 24
REMARK SMILES IDX 93 25 2 26 1 27 95 28 96 29 21 30 22 31 23 32 24 33 25 34
REMARK SMILES IDX 26 36 27 37 28 38 89 39 29 40 88 41 30 42 31 43 32 44 82 45
REMARK SMILES IDX 33 46 87 47 81 48 83 49 34 50 86 51 80 52 79 53 35 55 67 56
REMARK SMILES IDX 47 57 66 58 48 59 51 60 65 61 84 62 49 63 50 64 64 66 85 67
REMARK SMILES IDX 52 68 36 69 37 70 45 71 38 72 40 73 46 74 39 75 41 76 42 77
REMARK SMILES IDX 43 78 44 79 68 80 69 81 77 82 70 83 72 84 78 85 71 86 73 87
REMARK SMILES IDX 74 88 75 89 76 90 53 91 54 92 62 93 55 94 57 95 63 96 56 97
REMARK SMILES IDX 58 98 59 99 60 100 61 101
REMARK H PARENT 19 5 9 16 24 35 83 54 51 65
REMARK Flexibility Score: inf
ROOT
ATOM      1  C   UNL A   1      38.327  23.262  25.506  1.00  0.00     0.116 C 
ENDROOT
BRANCH   1   2
ATOM      2  N   UNL A   1      37.113  24.000  25.744  1.00  0.00    -0.356 N 
ATOM      3  C   UNL A   1      35.826  23.765  25.381  1.00  0.00     0.223 C 
ATOM      4  O   UNL A   1      34.989  24.560  25.831  1.00  0.00    -0.275 OA
ATOM      5  H   UNL A   1      37.240  24.825  26.265  1.00  0.00     0.163 HD
BRANCH   3   6
ATOM      6  C   UNL A   1      35.326  22.583  24.519  1.00  0.00     0.085 C 
ATOM      7  C   UNL A   1      32.905  21.865  24.264  1.00  0.00     0.052 C 
ATOM      8  C   UNL A   1      32.378  20.686  23.410  1.00  0.00     0.022 C 
ATOM      9  C   UNL A   1      33.301  22.989  23.267  1.00  0.00     0.018 C 
ATOM     10  C   UNL A   1      34.295  21.535  25.048  1.00  0.00    -0.010 C 
ATOM     11  C   UNL A   1      34.812  22.989  23.148  1.00  0.00     0.015 C 
ATOM     12  C   UNL A   1      34.283  21.529  26.588  1.00  0.00     0.013 C 
ATOM     13  C   UNL A   1      34.834  20.118  24.701  1.00  0.00     0.013 C 
BRANCH   7  14
ATOM     14  C   UNL A   1      31.720  22.140  25.238  1.00  0.00     0.226 C 
ATOM     15  N   UNL A   1      31.283  23.355  25.645  1.00  0.00    -0.355 N 
ATOM     16  H   UNL A   1      30.603  23.282  26.353  1.00  0.00     0.163 HD
ATOM     17  O   UNL A   1      31.020  21.202  25.642  1.00  0.00    -0.274 OA
BRANCH  15  18
ATOM     18  C   UNL A   1      31.563  24.743  25.302  1.00  0.00     0.120 C 
BRANCH  18  19
ATOM     19  C   UNL A   1      30.341  25.645  25.488  1.00  0.00     0.057 C 
BRANCH  19  20
ATOM     20  C   UNL A   1      30.200  26.710  24.426  1.00  0.00    -0.042 A 
ATOM     21  C   UNL A   1      30.003  28.705  22.451  1.00  0.00     0.160 A 
ATOM     22  C   UNL A   1      28.858  28.038  22.908  1.00  0.00     0.051 A 
ATOM     23  C   UNL A   1      31.256  28.395  22.992  1.00  0.00     0.160 A 
ATOM     24  C   UNL A   1      28.957  27.035  23.878  1.00  0.00     0.008 A 
ATOM     25  C   UNL A   1      31.335  27.406  23.982  1.00  0.00     0.054 A 
BRANCH  21  26
ATOM     26  O   UNL A   1      29.841  29.726  21.555  1.00  0.00    -0.493 OA
ATOM     27  C   UNL A   1      28.544  30.313  21.646  1.00  0.00     0.278 C 
ENDBRANCH  21  26
BRANCH  23  28
ATOM     28  O   UNL A   1      32.473  28.946  22.697  1.00  0.00    -0.493 OA
ATOM     29  C   UNL A   1      33.570  28.650  23.546  1.00  0.00     0.278 C 
ENDBRANCH  23  28
ENDBRANCH  19  20
ENDBRANCH  18  19
ENDBRANCH  15  18
ENDBRANCH   7  14
ENDBRANCH   3   6
ENDBRANCH   1   2
BRANCH   1  30
ATOM     30  C   UNL A   1      38.350  21.842  26.063  1.00  0.00     0.023 C 
BRANCH  30  31
ATOM     31  C   UNL A   1      39.691  21.143  25.979  1.00  0.00     0.023 C 
BRANCH  31  32
ATOM     32  C   UNL A   1      40.857  21.985  26.459  1.00  0.00     0.116 C 
BRANCH  32  33
ATOM     33  N   UNL A   1      41.977  21.995  25.523  1.00  0.00    -0.352 N 
ATOM     34  C   UNL A   1      42.834  23.021  25.213  1.00  0.00     0.251 C 
ATOM     35  H   UNL A   1      42.139  21.149  25.047  1.00  0.00     0.163 HD
ATOM     36  O   UNL A   1      43.625  22.903  24.280  1.00  0.00    -0.269 OA
BRANCH  34  37
ATOM     37  C   UNL A   1      42.776  24.268  25.997  1.00  0.00     0.039 A 
ATOM     38  C   UNL A   1      43.181  24.254  27.331  1.00  0.00     0.014 A 
ATOM     39  C   UNL A   1      42.377  25.462  25.390  1.00  0.00     0.014 A 
ATOM     40  C   UNL A   1      43.243  25.455  28.036  1.00  0.00     0.010 A 
ATOM     41  C   UNL A   1      42.563  26.666  26.052  1.00  0.00     0.010 A 
ATOM     42  C   UNL A   1      42.972  26.676  27.390  1.00  0.00    -0.014 A 
BRANCH  42  43
ATOM     43  C   UNL A   1      43.110  27.963  28.111  1.00  0.00     0.031 A 
ATOM     44  C   UNL A   1      44.467  28.587  28.305  1.00  0.00     0.074 A 
ATOM     45  C   UNL A   1      42.013  28.548  28.633  1.00  0.00     0.049 A 
ATOM     46  N   UNL A   1      44.773  29.731  28.858  1.00  0.00    -0.248 NA
ATOM     47  C   UNL A   1      45.638  27.815  27.852  1.00  0.00     0.031 C 
ATOM     48  C   UNL A   1      40.661  27.983  28.609  1.00  0.00     0.029 A 
ATOM     49  N   UNL A   1      41.861  29.742  29.288  1.00  0.00    -0.354 N 
ATOM     50  C   UNL A   1      46.161  29.802  28.843  1.00  0.00     0.074 A 
ATOM     51  C   UNL A   1      46.643  28.562  28.278  1.00  0.00     0.031 C 
ATOM     52  C   UNL A   1      39.812  28.847  29.188  1.00  0.00     0.029 A 
ATOM     53  C   UNL A   1      40.561  30.012  29.646  1.00  0.00     0.049 A 
ATOM     54  H   UNL A   1      42.611  30.349  29.484  1.00  0.00     0.167 HD
ATOM     55  C   UNL A   1      46.963  30.822  29.225  1.00  0.00     0.034 A 
ATOM     56  C   UNL A   1      40.032  31.085  30.265  1.00  0.00     0.034 A 
ATOM     57  C   UNL A   1      46.474  32.068  29.753  1.00  0.00     0.049 A 
ATOM     58  C   UNL A   1      40.936  32.232  30.620  1.00  0.00     0.074 A 
ATOM     59  C   UNL A   1      47.191  33.200  30.089  1.00  0.00     0.029 A 
ATOM     60  N   UNL A   1      45.143  32.338  30.030  1.00  0.00    -0.354 N 
ATOM     61  N   UNL A   1      42.229  32.354  30.435  1.00  0.00    -0.248 NA
ATOM     62  C   UNL A   1      40.301  33.411  31.223  1.00  0.00     0.031 C 
ATOM     63  C   UNL A   1      46.296  34.146  30.602  1.00  0.00     0.029 A 
ATOM     64  C   UNL A   1      45.017  33.616  30.544  1.00  0.00     0.049 A 
ATOM     65  H   UNL A   1      44.397  31.713  29.882  1.00  0.00     0.167 HD
ATOM     66  C   UNL A   1      42.557  33.632  30.871  1.00  0.00     0.074 A 
ATOM     67  C   UNL A   1      41.320  34.255  31.295  1.00  0.00     0.031 C 
ATOM     68  C   UNL A   1      43.773  34.232  30.929  1.00  0.00     0.034 A 
BRANCH  55  69
ATOM     69  C   UNL A   1      48.449  30.651  29.040  1.00  0.00     0.023 A 
ATOM     70  C   UNL A   1      49.228  30.108  30.084  1.00  0.00     0.012 A 
ATOM     71  C   UNL A   1      49.071  30.981  27.820  1.00  0.00     0.148 A 
ATOM     72  C   UNL A   1      50.603  29.933  29.933  1.00  0.00     0.002 A 
ATOM     73  C   UNL A   1      50.432  30.756  27.658  1.00  0.00     0.091 A 
ATOM     74  F   UNL A   1      48.322  31.519  26.846  1.00  0.00    -0.205 F 
ATOM     75  C   UNL A   1      51.201  30.245  28.717  1.00  0.00     0.022 A 
BRANCH  73  76
ATOM     76  S   UNL A   1      51.286  31.046  26.105  1.00  0.00     0.127 S 
ATOM     77  O   UNL A   1      52.685  31.042  26.531  1.00  0.00    -0.237 OA
ATOM     78  O   UNL A   1      50.886  29.883  25.314  1.00  0.00    -0.237 OA
ATOM     79  O   UNL A   1      50.791  32.322  25.605  1.00  0.00    -0.744 OA
ENDBRANCH  73  76
ENDBRANCH  55  69
BRANCH  56  80
ATOM     80  C   UNL A   1      38.564  31.155  30.515  1.00  0.00     0.023 A 
ATOM     81  C   UNL A   1      38.021  30.534  31.657  1.00  0.00     0.012 A 
ATOM     82  C   UNL A   1      37.710  31.853  29.642  1.00  0.00     0.148 A 
ATOM     83  C   UNL A   1      36.647  30.574  31.903  1.00  0.00     0.002 A 
ATOM     84  C   UNL A   1      36.353  31.940  29.924  1.00  0.00     0.091 A 
ATOM     85  F   UNL A   1      38.246  32.431  28.558  1.00  0.00    -0.205 F 
ATOM     86  C   UNL A   1      35.816  31.285  31.042  1.00  0.00     0.022 A 
BRANCH  84  87
ATOM     87  S   UNL A   1      35.229  32.945  28.948  1.00  0.00     0.127 S 
ATOM     88  O   UNL A   1      35.167  32.194  27.696  1.00  0.00    -0.237 OA
ATOM     89  O   UNL A   1      34.009  32.902  29.754  1.00  0.00    -0.237 OA
ATOM     90  O   UNL A   1      35.849  34.260  28.866  1.00  0.00    -0.744 OA
ENDBRANCH  84  87
ENDBRANCH  56  80
BRANCH  68  91
ATOM     91  C   UNL A   1      43.816  35.649  31.442  1.00  0.00     0.023 A 
ATOM     92  C   UNL A   1      43.885  35.896  32.827  1.00  0.00     0.012 A 
ATOM     93  C   UNL A   1      43.819  36.736  30.545  1.00  0.00     0.148 A 
ATOM     94  C   UNL A   1      43.897  37.203  33.314  1.00  0.00     0.002 A 
ATOM     95  C   UNL A   1      43.891  38.033  31.036  1.00  0.00     0.091 A 
ATOM     96  F   UNL A   1      43.737  36.483  29.230  1.00  0.00    -0.205 F 
ATOM     97  C   UNL A   1      43.911  38.270  32.419  1.00  0.00     0.022 A 
BRANCH  95  98
ATOM     98  S   UNL A   1      44.016  39.460  29.953  1.00  0.00     0.127 S 
ATOM     99  O   UNL A   1      44.087  40.559  30.916  1.00  0.00    -0.237 OA
ATOM    100  O   UNL A   1      45.263  39.197  29.234  1.00  0.00    -0.237 OA
ATOM    101  O   UNL A   1      42.823  39.434  29.119  1.00  0.00    -0.744 OA
ENDBRANCH  95  98
ENDBRANCH  68  91
ENDBRANCH  42  43
ENDBRANCH  34  37
ENDBRANCH  32  33
ENDBRANCH  31  32
ENDBRANCH  30  31
ENDBRANCH   1  30
TORSDOF 20
ENDMDL
