MODEL 1
REMARK VINA RESULT:     -11.0      0.000      0.000
REMARK SMILES O=C(CCCN1C(=O)C(=O)/C(=C(\[O-])c2ccccc2)[C@H]1c1ccc([N+](=O)[O-])cc1)NCCCCNC(=O)c1ccc(-c2c3nc(c(-c4cccc(S(=O)(=O)[O-])c4F)c4ccc([nH]4)c(-c4cccc(S(=O)(=O)[O-])c4F)c4nc(c(-c5cccc(S(=O)(=O)[O-])c5F)c5ccc2[nH]5)C=C4)C=C3)cc1
REMARK SMILES IDX 31 1 30 2 1 3 2 4 3 6 4 7 5 8 6 9 7 10 20 11 8 12 9 13 11 14
REMARK SMILES IDX 10 15 12 16 13 17 21 18 22 19 29 20 23 21 28 22 24 23 25 24
REMARK SMILES IDX 26 25 27 26 14 27 15 28 19 29 16 30 18 31 17 32 32 33 33 34
REMARK SMILES IDX 34 35 35 36 36 37 37 39 38 40 39 41 100 42 40 43 99 44 41 45
REMARK SMILES IDX 42 46 43 47 93 48 44 49 98 50 92 51 94 52 45 53 97 54 91 55
REMARK SMILES IDX 90 56 46 58 78 59 58 60 77 61 59 62 62 63 76 64 95 65 60 66
REMARK SMILES IDX 61 67 75 69 96 70 63 71 47 72 48 73 56 74 49 75 51 76 57 77
REMARK SMILES IDX 50 78 52 79 53 80 54 81 55 82 79 83 80 84 88 85 81 86 83 87
REMARK SMILES IDX 89 88 82 89 84 90 85 91 86 92 87 93 64 94 65 95 73 96 66 97
REMARK SMILES IDX 68 98 74 99 67 100 69 101 70 102 71 103 72 104
REMARK H PARENT 30 5 35 38 94 57 62 68
REMARK Flexibility Score: inf
ROOT
ATOM      1  C   UNL A   1      38.975  23.075  26.851  1.00  0.00     0.116 C 
ENDROOT
BRANCH   1   2
ATOM      2  N   UNL A   1      38.175  23.441  25.705  1.00  0.00    -0.356 N 
ATOM      3  O   UNL A   1      36.533  21.875  26.028  1.00  0.00    -0.275 OA
ATOM      4  C   UNL A   1      36.986  22.826  25.399  1.00  0.00     0.220 C 
ATOM      5  H   UNL A   1      38.496  24.164  25.117  1.00  0.00     0.163 HD
BRANCH   4   6
ATOM      6  C   UNL A   1      36.229  23.465  24.246  1.00  0.00     0.102 C 
BRANCH   6   7
ATOM      7  C   UNL A   1      34.783  23.812  24.616  1.00  0.00     0.031 C 
BRANCH   7   8
ATOM      8  C   UNL A   1      34.561  24.769  25.795  1.00  0.00     0.121 C 
BRANCH   8   9
ATOM      9  N   UNL A   1      33.177  25.155  26.066  1.00  0.00    -0.325 N 
ATOM     10  C   UNL A   1      32.272  24.273  26.622  1.00  0.00     0.295 C 
ATOM     11  C   UNL A   1      32.516  26.232  25.309  1.00  0.00     0.150 C 
ATOM     12  O   UNL A   1      32.484  23.224  27.203  1.00  0.00    -0.265 OA
ATOM     13  C   UNL A   1      30.884  24.723  26.224  1.00  0.00     0.248 C 
ATOM     14  C   UNL A   1      31.051  25.857  25.308  1.00  0.00     0.025 C 
ATOM     15  O   UNL A   1      29.847  24.193  26.567  1.00  0.00    -0.283 OA
ATOM     16  C   UNL A   1      30.003  26.368  24.639  1.00  0.00    -0.092 C 
ATOM     17  O   UNL A   1      28.712  25.913  24.764  1.00  0.00    -0.872 OA
BRANCH  11  18
ATOM     18  C   UNL A   1      32.845  27.624  25.852  1.00  0.00    -0.020 A 
ATOM     19  C   UNL A   1      34.110  28.223  25.690  1.00  0.00     0.013 A 
ATOM     20  C   UNL A   1      31.889  28.313  26.623  1.00  0.00     0.013 A 
ATOM     21  C   UNL A   1      34.439  29.417  26.341  1.00  0.00     0.086 A 
ATOM     22  C   UNL A   1      32.195  29.528  27.247  1.00  0.00     0.086 A 
ATOM     23  C   UNL A   1      33.480  30.061  27.125  1.00  0.00     0.269 A 
BRANCH  23  24
ATOM     24  N   UNL A   1      33.826  31.298  27.833  1.00  0.00     0.062 N 
ATOM     25  O   UNL A   1      33.121  32.297  27.633  1.00  0.00    -0.258 OA
ATOM     26  O   UNL A   1      34.797  31.266  28.606  1.00  0.00    -0.258 OA
ENDBRANCH  23  24
ENDBRANCH  11  18
BRANCH  16  27
ATOM     27  C   UNL A   1      30.114  27.555  23.782  1.00  0.00    -0.033 A 
ATOM     28  C   UNL A   1      31.171  27.621  22.863  1.00  0.00     0.007 A 
ATOM     29  C   UNL A   1      29.194  28.607  23.840  1.00  0.00     0.007 A 
ATOM     30  C   UNL A   1      31.279  28.696  21.981  1.00  0.00     0.001 A 
ATOM     31  C   UNL A   1      29.307  29.686  22.962  1.00  0.00     0.001 A 
ATOM     32  C   UNL A   1      30.340  29.724  22.026  1.00  0.00     0.000 A 
ENDBRANCH  16  27
ENDBRANCH   8   9
ENDBRANCH   7   8
ENDBRANCH   6   7
ENDBRANCH   4   6
ENDBRANCH   1   2
BRANCH   1  33
ATOM     33  C   UNL A   1      40.292  22.403  26.463  1.00  0.00     0.023 C 
BRANCH  33  34
ATOM     34  C   UNL A   1      40.203  20.913  26.115  1.00  0.00     0.023 C 
BRANCH  34  35
ATOM     35  C   UNL A   1      41.219  20.001  26.798  1.00  0.00     0.116 C 
BRANCH  35  36
ATOM     36  N   UNL A   1      42.224  19.486  25.883  1.00  0.00    -0.352 N 
ATOM     37  C   UNL A   1      43.285  20.119  25.278  1.00  0.00     0.251 C 
ATOM     38  H   UNL A   1      42.130  18.531  25.658  1.00  0.00     0.163 HD
ATOM     39  O   UNL A   1      43.929  19.524  24.417  1.00  0.00    -0.269 OA
BRANCH  37  40
ATOM     40  C   UNL A   1      43.649  21.511  25.635  1.00  0.00     0.039 A 
ATOM     41  C   UNL A   1      43.468  22.518  24.681  1.00  0.00     0.014 A 
ATOM     42  C   UNL A   1      44.195  21.829  26.881  1.00  0.00     0.014 A 
ATOM     43  C   UNL A   1      43.767  23.847  25.000  1.00  0.00     0.010 A 
ATOM     44  C   UNL A   1      44.427  23.163  27.222  1.00  0.00     0.010 A 
ATOM     45  C   UNL A   1      44.214  24.188  26.287  1.00  0.00    -0.014 A 
BRANCH  45  46
ATOM     46  C   UNL A   1      44.437  25.607  26.679  1.00  0.00     0.031 A 
ATOM     47  C   UNL A   1      45.812  26.216  26.611  1.00  0.00     0.074 A 
ATOM     48  C   UNL A   1      43.413  26.327  27.182  1.00  0.00     0.049 A 
ATOM     49  N   UNL A   1      46.206  27.408  26.979  1.00  0.00    -0.248 NA
ATOM     50  C   UNL A   1      46.893  25.366  26.085  1.00  0.00     0.031 C 
ATOM     51  C   UNL A   1      42.047  25.834  27.373  1.00  0.00     0.029 A 
ATOM     52  N   UNL A   1      43.368  27.615  27.655  1.00  0.00    -0.354 N 
ATOM     53  C   UNL A   1      47.578  27.442  26.763  1.00  0.00     0.074 A 
ATOM     54  C   UNL A   1      47.956  26.138  26.262  1.00  0.00     0.031 C 
ATOM     55  C   UNL A   1      41.301  26.804  27.924  1.00  0.00     0.029 A 
ATOM     56  C   UNL A   1      42.137  27.978  28.154  1.00  0.00     0.049 A 
ATOM     57  H   UNL A   1      44.142  28.223  27.638  1.00  0.00     0.167 HD
ATOM     58  C   UNL A   1      48.443  28.472  26.935  1.00  0.00     0.034 A 
ATOM     59  C   UNL A   1      41.728  29.119  28.743  1.00  0.00     0.034 A 
ATOM     60  C   UNL A   1      48.061  29.781  27.393  1.00  0.00     0.049 A 
ATOM     61  C   UNL A   1      42.700  30.259  28.889  1.00  0.00     0.074 A 
ATOM     62  C   UNL A   1      48.851  30.911  27.523  1.00  0.00     0.029 A 
ATOM     63  N   UNL A   1      46.785  30.138  27.801  1.00  0.00    -0.354 N 
ATOM     64  N   UNL A   1      43.961  30.320  28.535  1.00  0.00    -0.248 NA
ATOM     65  C   UNL A   1      42.184  31.503  29.481  1.00  0.00     0.031 C 
ATOM     66  C   UNL A   1      48.058  31.944  28.034  1.00  0.00     0.029 A 
ATOM     67  C   UNL A   1      46.767  31.467  28.192  1.00  0.00     0.049 A 
ATOM     68  H   UNL A   1      46.006  29.537  27.813  1.00  0.00     0.167 HD
ATOM     69  C   UNL A   1      44.378  31.614  28.827  1.00  0.00     0.074 A 
ATOM     70  C   UNL A   1      43.229  32.312  29.366  1.00  0.00     0.031 C 
ATOM     71  C   UNL A   1      45.606  32.170  28.677  1.00  0.00     0.034 A 
BRANCH  58  72
ATOM     72  C   UNL A   1      49.888  28.240  26.578  1.00  0.00     0.023 A 
ATOM     73  C   UNL A   1      50.296  28.330  25.231  1.00  0.00     0.012 A 
ATOM     74  C   UNL A   1      50.854  27.996  27.576  1.00  0.00     0.148 A 
ATOM     75  C   UNL A   1      51.631  28.146  24.878  1.00  0.00     0.002 A 
ATOM     76  C   UNL A   1      52.191  27.858  27.220  1.00  0.00     0.091 A 
ATOM     77  F   UNL A   1      50.446  27.893  28.849  1.00  0.00    -0.205 F 
ATOM     78  C   UNL A   1      52.580  27.920  25.872  1.00  0.00     0.022 A 
BRANCH  76  79
ATOM     79  S   UNL A   1      53.498  27.641  28.433  1.00  0.00     0.127 S 
ATOM     80  O   UNL A   1      54.694  27.747  27.598  1.00  0.00    -0.237 OA
ATOM     81  O   UNL A   1      53.277  28.776  29.330  1.00  0.00    -0.237 OA
ATOM     82  O   UNL A   1      53.272  26.335  29.037  1.00  0.00    -0.744 OA
ENDBRANCH  76  79
ENDBRANCH  58  72
BRANCH  59  83
ATOM     83  C   UNL A   1      40.310  29.265  29.179  1.00  0.00     0.023 A 
ATOM     84  C   UNL A   1      39.315  29.533  28.217  1.00  0.00     0.012 A 
ATOM     85  C   UNL A   1      39.935  29.118  30.530  1.00  0.00     0.148 A 
ATOM     86  C   UNL A   1      37.982  29.686  28.595  1.00  0.00     0.002 A 
ATOM     87  C   UNL A   1      38.597  29.217  30.892  1.00  0.00     0.091 A 
ATOM     88  F   UNL A   1      40.896  28.876  31.432  1.00  0.00    -0.205 F 
ATOM     89  C   UNL A   1      37.621  29.519  29.929  1.00  0.00     0.022 A 
BRANCH  87  90
ATOM     90  S   UNL A   1      38.019  28.891  32.562  1.00  0.00     0.127 S 
ATOM     91  O   UNL A   1      38.915  29.728  33.358  1.00  0.00    -0.237 OA
ATOM     92  O   UNL A   1      36.634  29.359  32.500  1.00  0.00    -0.237 OA
ATOM     93  O   UNL A   1      38.157  27.455  32.755  1.00  0.00    -0.744 OA
ENDBRANCH  87  90
ENDBRANCH  59  83
BRANCH  71  94
ATOM     94  C   UNL A   1      45.774  33.617  29.062  1.00  0.00     0.023 A 
ATOM     95  C   UNL A   1      46.200  33.953  30.363  1.00  0.00     0.012 A 
ATOM     96  C   UNL A   1      45.580  34.640  28.114  1.00  0.00     0.148 A 
ATOM     97  C   UNL A   1      46.398  35.286  30.722  1.00  0.00     0.002 A 
ATOM     98  C   UNL A   1      45.828  35.962  28.464  1.00  0.00     0.091 A 
ATOM     99  F   UNL A   1      45.158  34.303  26.886  1.00  0.00    -0.205 F 
ATOM    100  C   UNL A   1      46.225  36.288  29.770  1.00  0.00     0.022 A 
BRANCH  98 101
ATOM    101  S   UNL A   1      45.726  37.309  27.279  1.00  0.00     0.127 S 
ATOM    102  O   UNL A   1      44.289  37.365  27.015  1.00  0.00    -0.237 OA
ATOM    103  O   UNL A   1      46.250  38.439  28.047  1.00  0.00    -0.237 OA
ATOM    104  O   UNL A   1      46.554  36.912  26.148  1.00  0.00    -0.744 OA
ENDBRANCH  98 101
ENDBRANCH  71  94
ENDBRANCH  45  46
ENDBRANCH  37  40
ENDBRANCH  35  36
ENDBRANCH  34  35
ENDBRANCH  33  34
ENDBRANCH   1  33
TORSDOF 20
ENDMDL
MODEL 2
REMARK VINA RESULT:     -10.7      6.223     11.665
REMARK SMILES O=C(CCCN1C(=O)C(=O)/C(=C(\[O-])c2ccccc2)[C@H]1c1ccc([N+](=O)[O-])cc1)NCCCCNC(=O)c1ccc(-c2c3nc(c(-c4cccc(S(=O)(=O)[O-])c4F)c4ccc([nH]4)c(-c4cccc(S(=O)(=O)[O-])c4F)c4nc(c(-c5cccc(S(=O)(=O)[O-])c5F)c5ccc2[nH]5)C=C4)C=C3)cc1
REMARK SMILES IDX 31 1 30 2 1 3 2 4 3 6 4 7 5 8 6 9 7 10 20 11 8 12 9 13 11 14
REMARK SMILES IDX 10 15 12 16 13 17 21 18 22 19 29 20 23 21 28 22 24 23 25 24
REMARK SMILES IDX 26 25 27 26 14 27 15 28 19 29 16 30 18 31 17 32 32 33 33 34
REMARK SMILES IDX 34 35 35 36 36 37 37 39 38 40 39 41 100 42 40 43 99 44 41 45
REMARK SMILES IDX 42 46 43 47 93 48 44 49 98 50 92 51 94 52 45 53 97 54 91 55
REMARK SMILES IDX 90 56 46 58 78 59 58 60 77 61 59 62 62 63 76 64 95 65 60 66
REMARK SMILES IDX 61 67 75 69 96 70 63 71 47 72 48 73 56 74 49 75 51 76 57 77
REMARK SMILES IDX 50 78 52 79 53 80 54 81 55 82 79 83 80 84 88 85 81 86 83 87
REMARK SMILES IDX 89 88 82 89 84 90 85 91 86 92 87 93 64 94 65 95 73 96 66 97
REMARK SMILES IDX 68 98 74 99 67 100 69 101 70 102 71 103 72 104
REMARK H PARENT 30 5 35 38 94 57 62 68
REMARK Flexibility Score: inf
ROOT
ATOM      1  C   UNL A   1      39.441  32.100  41.849  1.00  0.00     0.116 C 
ENDROOT
BRANCH   1   2
ATOM      2  N   UNL A   1      38.721  32.044  40.597  1.00  0.00    -0.356 N 
ATOM      3  O   UNL A   1      37.082  33.538  41.177  1.00  0.00    -0.275 OA
ATOM      4  C   UNL A   1      37.603  32.801  40.346  1.00  0.00     0.220 C 
ATOM      5  H   UNL A   1      39.046  31.436  39.894  1.00  0.00     0.163 HD
BRANCH   4   6
ATOM      6  C   UNL A   1      37.094  32.707  38.917  1.00  0.00     0.102 C 
BRANCH   6   7
ATOM      7  C   UNL A   1      38.230  32.699  37.889  1.00  0.00     0.031 C 
BRANCH   7   8
ATOM      8  C   UNL A   1      37.938  33.289  36.503  1.00  0.00     0.121 C 
BRANCH   8   9
ATOM      9  N   UNL A   1      37.822  32.334  35.402  1.00  0.00    -0.325 N 
ATOM     10  C   UNL A   1      38.128  30.998  35.563  1.00  0.00     0.295 C 
ATOM     11  C   UNL A   1      37.921  32.765  33.996  1.00  0.00     0.150 C 
ATOM     12  O   UNL A   1      38.254  30.362  36.594  1.00  0.00    -0.265 OA
ATOM     13  C   UNL A   1      38.492  30.439  34.206  1.00  0.00     0.248 C 
ATOM     14  C   UNL A   1      38.486  31.567  33.266  1.00  0.00     0.025 C 
ATOM     15  O   UNL A   1      38.784  29.283  33.976  1.00  0.00    -0.283 OA
ATOM     16  C   UNL A   1      38.943  31.425  32.011  1.00  0.00    -0.092 C 
ATOM     17  O   UNL A   1      39.418  30.244  31.491  1.00  0.00    -0.872 OA
BRANCH  11  18
ATOM     18  C   UNL A   1      36.601  33.312  33.452  1.00  0.00    -0.020 A 
ATOM     19  C   UNL A   1      35.542  32.477  33.044  1.00  0.00     0.013 A 
ATOM     20  C   UNL A   1      36.451  34.699  33.259  1.00  0.00     0.013 A 
ATOM     21  C   UNL A   1      34.418  32.993  32.390  1.00  0.00     0.086 A 
ATOM     22  C   UNL A   1      35.312  35.231  32.642  1.00  0.00     0.086 A 
ATOM     23  C   UNL A   1      34.312  34.369  32.185  1.00  0.00     0.269 A 
BRANCH  23  24
ATOM     24  N   UNL A   1      33.149  34.915  31.476  1.00  0.00     0.062 N 
ATOM     25  O   UNL A   1      32.197  35.326  32.154  1.00  0.00    -0.258 OA
ATOM     26  O   UNL A   1      33.195  34.949  30.237  1.00  0.00    -0.258 OA
ENDBRANCH  23  24
ENDBRANCH  11  18
BRANCH  16  27
ATOM     27  C   UNL A   1      38.874  32.503  31.017  1.00  0.00    -0.033 A 
ATOM     28  C   UNL A   1      37.869  32.451  30.040  1.00  0.00     0.007 A 
ATOM     29  C   UNL A   1      39.763  33.584  31.023  1.00  0.00     0.007 A 
ATOM     30  C   UNL A   1      37.721  33.485  29.117  1.00  0.00     0.001 A 
ATOM     31  C   UNL A   1      39.619  34.616  30.094  1.00  0.00     0.001 A 
ATOM     32  C   UNL A   1      38.592  34.572  29.151  1.00  0.00     0.000 A 
ENDBRANCH  16  27
ENDBRANCH   8   9
ENDBRANCH   7   8
ENDBRANCH   6   7
ENDBRANCH   4   6
ENDBRANCH   1   2
BRANCH   1  33
ATOM     33  C   UNL A   1      40.821  32.742  41.711  1.00  0.00     0.023 C 
BRANCH  33  34
ATOM     34  C   UNL A   1      41.111  33.415  40.364  1.00  0.00     0.023 C 
BRANCH  34  35
ATOM     35  C   UNL A   1      42.342  34.317  40.314  1.00  0.00     0.116 C 
BRANCH  35  36
ATOM     36  N   UNL A   1      42.026  35.689  39.954  1.00  0.00    -0.352 N 
ATOM     37  C   UNL A   1      42.048  36.315  38.729  1.00  0.00     0.251 C 
ATOM     38  H   UNL A   1      41.753  36.264  40.707  1.00  0.00     0.163 HD
ATOM     39  O   UNL A   1      41.884  37.532  38.673  1.00  0.00    -0.269 OA
BRANCH  37  40
ATOM     40  C   UNL A   1      42.286  35.549  37.483  1.00  0.00     0.039 A 
ATOM     41  C   UNL A   1      43.604  35.349  37.058  1.00  0.00     0.014 A 
ATOM     42  C   UNL A   1      41.229  35.055  36.713  1.00  0.00     0.014 A 
ATOM     43  C   UNL A   1      43.862  34.598  35.907  1.00  0.00     0.010 A 
ATOM     44  C   UNL A   1      41.491  34.248  35.605  1.00  0.00     0.010 A 
ATOM     45  C   UNL A   1      42.809  34.008  35.189  1.00  0.00    -0.014 A 
BRANCH  45  46
ATOM     46  C   UNL A   1      43.070  33.119  34.023  1.00  0.00     0.031 A 
ATOM     47  C   UNL A   1      43.188  33.689  32.634  1.00  0.00     0.074 A 
ATOM     48  C   UNL A   1      43.112  31.783  34.201  1.00  0.00     0.049 A 
ATOM     49  N   UNL A   1      43.340  33.062  31.495  1.00  0.00    -0.248 NA
ATOM     50  C   UNL A   1      43.097  35.152  32.503  1.00  0.00     0.031 C 
ATOM     51  C   UNL A   1      42.937  31.096  35.483  1.00  0.00     0.029 A 
ATOM     52  N   UNL A   1      43.284  30.761  33.300  1.00  0.00    -0.354 N 
ATOM     53  C   UNL A   1      43.330  34.045  30.513  1.00  0.00     0.074 A 
ATOM     54  C   UNL A   1      43.123  35.309  31.188  1.00  0.00     0.031 C 
ATOM     55  C   UNL A   1      43.007  29.770  35.286  1.00  0.00     0.029 A 
ATOM     56  C   UNL A   1      43.202  29.508  33.864  1.00  0.00     0.049 A 
ATOM     57  H   UNL A   1      43.451  30.911  32.342  1.00  0.00     0.167 HD
ATOM     58  C   UNL A   1      43.506  33.915  29.176  1.00  0.00     0.034 A 
ATOM     59  C   UNL A   1      43.264  28.285  33.300  1.00  0.00     0.034 A 
ATOM     60  C   UNL A   1      43.753  32.663  28.510  1.00  0.00     0.049 A 
ATOM     61  C   UNL A   1      43.496  28.169  31.817  1.00  0.00     0.074 A 
ATOM     62  C   UNL A   1      44.024  32.441  27.170  1.00  0.00     0.029 A 
ATOM     63  N   UNL A   1      43.756  31.422  29.128  1.00  0.00    -0.354 N 
ATOM     64  N   UNL A   1      43.637  29.121  30.928  1.00  0.00    -0.248 NA
ATOM     65  C   UNL A   1      43.617  26.812  31.266  1.00  0.00     0.031 C 
ATOM     66  C   UNL A   1      44.166  31.063  26.975  1.00  0.00     0.029 A 
ATOM     67  C   UNL A   1      44.014  30.430  28.198  1.00  0.00     0.049 A 
ATOM     68  H   UNL A   1      43.597  31.269  30.087  1.00  0.00     0.167 HD
ATOM     69  C   UNL A   1      43.898  28.481  29.720  1.00  0.00     0.074 A 
ATOM     70  C   UNL A   1      43.919  27.060  29.998  1.00  0.00     0.031 C 
ATOM     71  C   UNL A   1      44.087  29.021  28.491  1.00  0.00     0.034 A 
BRANCH  58  72
ATOM     72  C   UNL A   1      43.488  35.170  28.341  1.00  0.00     0.023 A 
ATOM     73  C   UNL A   1      42.255  35.698  27.905  1.00  0.00     0.012 A 
ATOM     74  C   UNL A   1      44.679  35.862  28.042  1.00  0.00     0.148 A 
ATOM     75  C   UNL A   1      42.210  36.871  27.154  1.00  0.00     0.002 A 
ATOM     76  C   UNL A   1      44.622  37.056  27.332  1.00  0.00     0.091 A 
ATOM     77  F   UNL A   1      45.843  35.335  28.448  1.00  0.00    -0.205 F 
ATOM     78  C   UNL A   1      43.391  37.555  26.877  1.00  0.00     0.022 A 
BRANCH  76  79
ATOM     79  S   UNL A   1      46.078  38.050  26.990  1.00  0.00     0.127 S 
ATOM     80  O   UNL A   1      46.812  37.187  26.066  1.00  0.00    -0.237 OA
ATOM     81  O   UNL A   1      45.497  39.245  26.378  1.00  0.00    -0.237 OA
ATOM     82  O   UNL A   1      46.721  38.276  28.276  1.00  0.00    -0.744 OA
ENDBRANCH  76  79
ENDBRANCH  58  72
BRANCH  59  83
ATOM     83  C   UNL A   1      43.168  27.066  34.154  1.00  0.00     0.023 A 
ATOM     84  C   UNL A   1      41.905  26.638  34.608  1.00  0.00     0.012 A 
ATOM     85  C   UNL A   1      44.311  26.316  34.500  1.00  0.00     0.148 A 
ATOM     86  C   UNL A   1      41.784  25.509  35.418  1.00  0.00     0.002 A 
ATOM     87  C   UNL A   1      44.177  25.161  35.261  1.00  0.00     0.091 A 
ATOM     88  F   UNL A   1      45.505  26.746  34.070  1.00  0.00    -0.205 F 
ATOM     89  C   UNL A   1      42.916  24.766  35.735  1.00  0.00     0.022 A 
BRANCH  87  90
ATOM     90  S   UNL A   1      45.559  24.069  35.614  1.00  0.00     0.127 S 
ATOM     91  O   UNL A   1      44.902  22.973  36.322  1.00  0.00    -0.237 OA
ATOM     92  O   UNL A   1      46.032  23.736  34.269  1.00  0.00    -0.237 OA
ATOM     93  O   UNL A   1      46.497  24.858  36.398  1.00  0.00    -0.744 OA
ENDBRANCH  87  90
ENDBRANCH  59  83
BRANCH  71  94
ATOM     94  C   UNL A   1      44.374  28.081  27.348  1.00  0.00     0.023 A 
ATOM     95  C   UNL A   1      43.309  27.485  26.644  1.00  0.00     0.012 A 
ATOM     96  C   UNL A   1      45.697  27.847  26.925  1.00  0.00     0.148 A 
ATOM     97  C   UNL A   1      43.557  26.645  25.560  1.00  0.00     0.002 A 
ATOM     98  C   UNL A   1      45.936  27.050  25.812  1.00  0.00     0.091 A 
ATOM     99  F   UNL A   1      46.699  28.409  27.618  1.00  0.00    -0.205 F 
ATOM    100  C   UNL A   1      44.869  26.438  25.136  1.00  0.00     0.022 A 
BRANCH  98 101
ATOM    101  S   UNL A   1      47.582  26.805  25.137  1.00  0.00     0.127 S 
ATOM    102  O   UNL A   1      48.268  26.157  26.253  1.00  0.00    -0.237 OA
ATOM    103  O   UNL A   1      47.321  25.933  23.991  1.00  0.00    -0.237 OA
ATOM    104  O   UNL A   1      48.073  28.131  24.786  1.00  0.00    -0.744 OA
ENDBRANCH  98 101
ENDBRANCH  71  94
ENDBRANCH  45  46
ENDBRANCH  37  40
ENDBRANCH  35  36
ENDBRANCH  34  35
ENDBRANCH  33  34
ENDBRANCH   1  33
TORSDOF 20
ENDMDL
MODEL 3
REMARK VINA RESULT:     -10.7      4.822     12.069
REMARK SMILES O=C(CCCN1C(=O)C(=O)/C(=C(\[O-])c2ccccc2)[C@H]1c1ccc([N+](=O)[O-])cc1)NCCCCNC(=O)c1ccc(-c2c3nc(c(-c4cccc(S(=O)(=O)[O-])c4F)c4ccc([nH]4)c(-c4cccc(S(=O)(=O)[O-])c4F)c4nc(c(-c5cccc(S(=O)(=O)[O-])c5F)c5ccc2[nH]5)C=C4)C=C3)cc1
REMARK SMILES IDX 31 1 30 2 1 3 2 4 3 6 4 7 5 8 6 9 7 10 20 11 8 12 9 13 11 14
REMARK SMILES IDX 10 15 12 16 13 17 21 18 22 19 29 20 23 21 28 22 24 23 25 24
REMARK SMILES IDX 26 25 27 26 14 27 15 28 19 29 16 30 18 31 17 32 32 33 33 34
REMARK SMILES IDX 34 35 35 36 36 37 37 39 38 40 39 41 100 42 40 43 99 44 41 45
REMARK SMILES IDX 42 46 43 47 93 48 44 49 98 50 92 51 94 52 45 53 97 54 91 55
REMARK SMILES IDX 90 56 46 58 78 59 58 60 77 61 59 62 62 63 76 64 95 65 60 66
REMARK SMILES IDX 61 67 75 69 96 70 63 71 47 72 48 73 56 74 49 75 51 76 57 77
REMARK SMILES IDX 50 78 52 79 53 80 54 81 55 82 79 83 80 84 88 85 81 86 83 87
REMARK SMILES IDX 89 88 82 89 84 90 85 91 86 92 87 93 64 94 65 95 73 96 66 97
REMARK SMILES IDX 68 98 74 99 67 100 69 101 70 102 71 103 72 104
REMARK H PARENT 30 5 35 38 94 57 62 68
REMARK Flexibility Score: inf
ROOT
ATOM      1  C   UNL A   1      36.906  34.847  32.611  1.00  0.00     0.116 C 
ENDROOT
BRANCH   1   2
ATOM      2  N   UNL A   1      37.806  34.559  31.518  1.00  0.00    -0.356 N 
ATOM      3  O   UNL A   1      39.716  34.456  32.781  1.00  0.00    -0.275 OA
ATOM      4  C   UNL A   1      39.152  34.353  31.696  1.00  0.00     0.220 C 
ATOM      5  H   UNL A   1      37.439  34.511  30.605  1.00  0.00     0.163 HD
BRANCH   4   6
ATOM      6  C   UNL A   1      39.888  33.912  30.442  1.00  0.00     0.102 C 
BRANCH   6   7
ATOM      7  C   UNL A   1      41.390  33.723  30.679  1.00  0.00     0.031 C 
BRANCH   7   8
ATOM      8  C   UNL A   1      42.309  34.919  30.395  1.00  0.00     0.121 C 
BRANCH   8   9
ATOM      9  N   UNL A   1      43.294  34.742  29.329  1.00  0.00    -0.325 N 
ATOM     10  C   UNL A   1      43.449  35.673  28.322  1.00  0.00     0.295 C 
ATOM     11  C   UNL A   1      43.768  33.405  28.933  1.00  0.00     0.150 C 
ATOM     12  O   UNL A   1      43.060  36.827  28.280  1.00  0.00    -0.265 OA
ATOM     13  C   UNL A   1      44.044  34.965  27.125  1.00  0.00     0.248 C 
ATOM     14  C   UNL A   1      44.117  33.539  27.467  1.00  0.00     0.025 C 
ATOM     15  O   UNL A   1      44.342  35.492  26.072  1.00  0.00    -0.283 OA
ATOM     16  C   UNL A   1      44.438  32.621  26.541  1.00  0.00    -0.092 C 
ATOM     17  O   UNL A   1      44.746  32.916  25.235  1.00  0.00    -0.872 OA
BRANCH  11  18
ATOM     18  C   UNL A   1      44.886  32.882  29.836  1.00  0.00    -0.020 A 
ATOM     19  C   UNL A   1      46.149  33.498  29.916  1.00  0.00     0.013 A 
ATOM     20  C   UNL A   1      44.694  31.687  30.557  1.00  0.00     0.013 A 
ATOM     21  C   UNL A   1      47.207  32.904  30.613  1.00  0.00     0.086 A 
ATOM     22  C   UNL A   1      45.734  31.104  31.291  1.00  0.00     0.086 A 
ATOM     23  C   UNL A   1      46.996  31.703  31.292  1.00  0.00     0.269 A 
BRANCH  23  24
ATOM     24  N   UNL A   1      48.107  31.061  32.003  1.00  0.00     0.062 N 
ATOM     25  O   UNL A   1      49.157  31.703  32.140  1.00  0.00    -0.258 OA
ATOM     26  O   UNL A   1      47.922  29.915  32.442  1.00  0.00    -0.258 OA
ENDBRANCH  23  24
ENDBRANCH  11  18
BRANCH  16  27
ATOM     27  C   UNL A   1      44.606  31.198  26.864  1.00  0.00    -0.033 A 
ATOM     28  C   UNL A   1      45.895  30.723  27.145  1.00  0.00     0.007 A 
ATOM     29  C   UNL A   1      43.525  30.310  26.914  1.00  0.00     0.007 A 
ATOM     30  C   UNL A   1      46.095  29.395  27.523  1.00  0.00     0.001 A 
ATOM     31  C   UNL A   1      43.728  28.980  27.285  1.00  0.00     0.001 A 
ATOM     32  C   UNL A   1      45.009  28.527  27.600  1.00  0.00     0.000 A 
ENDBRANCH  16  27
ENDBRANCH   8   9
ENDBRANCH   7   8
ENDBRANCH   6   7
ENDBRANCH   4   6
ENDBRANCH   1   2
BRANCH   1  33
ATOM     33  C   UNL A   1      35.434  34.760  32.205  1.00  0.00     0.023 C 
BRANCH  33  34
ATOM     34  C   UNL A   1      35.158  34.143  30.829  1.00  0.00     0.023 C 
BRANCH  34  35
ATOM     35  C   UNL A   1      34.391  32.823  30.826  1.00  0.00     0.116 C 
BRANCH  35  36
ATOM     36  N   UNL A   1      34.184  32.290  29.489  1.00  0.00    -0.352 N 
ATOM     37  C   UNL A   1      35.009  31.526  28.698  1.00  0.00     0.251 C 
ATOM     38  H   UNL A   1      33.313  32.513  29.085  1.00  0.00     0.163 HD
ATOM     39  O   UNL A   1      34.691  31.307  27.531  1.00  0.00    -0.269 OA
BRANCH  37  40
ATOM     40  C   UNL A   1      36.284  30.981  29.224  1.00  0.00     0.039 A 
ATOM     41  C   UNL A   1      36.238  29.888  30.097  1.00  0.00     0.014 A 
ATOM     42  C   UNL A   1      37.517  31.553  28.896  1.00  0.00     0.014 A 
ATOM     43  C   UNL A   1      37.425  29.328  30.580  1.00  0.00     0.010 A 
ATOM     44  C   UNL A   1      38.701  30.950  29.323  1.00  0.00     0.010 A 
ATOM     45  C   UNL A   1      38.671  29.830  30.168  1.00  0.00    -0.014 A 
BRANCH  45  46
ATOM     46  C   UNL A   1      39.944  29.183  30.588  1.00  0.00     0.031 A 
ATOM     47  C   UNL A   1      40.700  29.683  31.791  1.00  0.00     0.074 A 
ATOM     48  C   UNL A   1      40.469  28.196  29.833  1.00  0.00     0.049 A 
ATOM     49  N   UNL A   1      41.857  29.292  32.259  1.00  0.00    -0.248 NA
ATOM     50  C   UNL A   1      40.090  30.786  32.551  1.00  0.00     0.031 C 
ATOM     51  C   UNL A   1      39.876  27.668  28.602  1.00  0.00     0.029 A 
ATOM     52  N   UNL A   1      41.634  27.482  29.971  1.00  0.00    -0.354 N 
ATOM     53  C   UNL A   1      42.131  30.115  33.343  1.00  0.00     0.074 A 
ATOM     54  C   UNL A   1      41.032  31.053  33.444  1.00  0.00     0.031 C 
ATOM     55  C   UNL A   1      40.681  26.720  28.097  1.00  0.00     0.029 A 
ATOM     56  C   UNL A   1      41.859  26.590  28.948  1.00  0.00     0.049 A 
ATOM     57  H   UNL A   1      42.249  27.598  30.731  1.00  0.00     0.167 HD
ATOM     58  C   UNL A   1      43.182  30.080  34.198  1.00  0.00     0.034 A 
ATOM     59  C   UNL A   1      42.901  25.768  28.711  1.00  0.00     0.034 A 
ATOM     60  C   UNL A   1      44.253  29.121  34.123  1.00  0.00     0.049 A 
ATOM     61  C   UNL A   1      44.040  25.723  29.696  1.00  0.00     0.074 A 
ATOM     62  C   UNL A   1      45.319  28.955  34.991  1.00  0.00     0.029 A 
ATOM     63  N   UNL A   1      44.399  28.170  33.125  1.00  0.00    -0.354 N 
ATOM     64  N   UNL A   1      44.202  26.407  30.801  1.00  0.00    -0.248 NA
ATOM     65  C   UNL A   1      45.119  24.763  29.421  1.00  0.00     0.031 C 
ATOM     66  C   UNL A   1      46.123  27.920  34.502  1.00  0.00     0.029 A 
ATOM     67  C   UNL A   1      45.541  27.420  33.348  1.00  0.00     0.049 A 
ATOM     68  H   UNL A   1      43.782  28.046  32.368  1.00  0.00     0.167 HD
ATOM     69  C   UNL A   1      45.381  25.938  31.372  1.00  0.00     0.074 A 
ATOM     70  C   UNL A   1      45.879  24.894  30.500  1.00  0.00     0.031 C 
ATOM     71  C   UNL A   1      46.002  26.346  32.505  1.00  0.00     0.034 A 
BRANCH  58  72
ATOM     72  C   UNL A   1      43.204  31.080  35.325  1.00  0.00     0.023 A 
ATOM     73  C   UNL A   1      42.662  30.728  36.578  1.00  0.00     0.012 A 
ATOM     74  C   UNL A   1      43.814  32.341  35.167  1.00  0.00     0.148 A 
ATOM     75  C   UNL A   1      42.693  31.625  37.644  1.00  0.00     0.002 A 
ATOM     76  C   UNL A   1      43.881  33.213  36.248  1.00  0.00     0.091 A 
ATOM     77  F   UNL A   1      44.306  32.667  33.963  1.00  0.00    -0.205 F 
ATOM     78  C   UNL A   1      43.311  32.862  37.482  1.00  0.00     0.022 A 
BRANCH  76  79
ATOM     79  S   UNL A   1      44.722  34.798  36.163  1.00  0.00     0.127 S 
ATOM     80  O   UNL A   1      43.955  35.482  35.123  1.00  0.00    -0.237 OA
ATOM     81  O   UNL A   1      44.525  35.324  37.514  1.00  0.00    -0.237 OA
ATOM     82  O   UNL A   1      46.106  34.499  35.823  1.00  0.00    -0.744 OA
ENDBRANCH  76  79
ENDBRANCH  58  72
BRANCH  59  83
ATOM     83  C   UNL A   1      42.886  24.870  27.521  1.00  0.00     0.023 A 
ATOM     84  C   UNL A   1      43.505  25.294  26.328  1.00  0.00     0.012 A 
ATOM     85  C   UNL A   1      42.288  23.594  27.567  1.00  0.00     0.148 A 
ATOM     86  C   UNL A   1      43.497  24.483  25.194  1.00  0.00     0.002 A 
ATOM     87  C   UNL A   1      42.333  22.768  26.450  1.00  0.00     0.091 A 
ATOM     88  F   UNL A   1      41.694  23.213  28.706  1.00  0.00    -0.205 F 
ATOM     89  C   UNL A   1      42.922  23.217  25.258  1.00  0.00     0.022 A 
BRANCH  87  90
ATOM     90  S   UNL A   1      41.733  21.075  26.475  1.00  0.00     0.127 S 
ATOM     91  O   UNL A   1      41.996  20.683  27.858  1.00  0.00    -0.237 OA
ATOM     92  O   UNL A   1      40.318  21.251  26.144  1.00  0.00    -0.237 OA
ATOM     93  O   UNL A   1      42.500  20.368  25.460  1.00  0.00    -0.744 OA
ENDBRANCH  87  90
ENDBRANCH  59  83
BRANCH  71  94
ATOM     94  C   UNL A   1      47.274  25.641  32.902  1.00  0.00     0.023 A 
ATOM     95  C   UNL A   1      47.232  24.597  33.848  1.00  0.00     0.012 A 
ATOM     96  C   UNL A   1      48.498  25.964  32.284  1.00  0.00     0.148 A 
ATOM     97  C   UNL A   1      48.394  23.909  34.196  1.00  0.00     0.002 A 
ATOM     98  C   UNL A   1      49.642  25.240  32.598  1.00  0.00     0.091 A 
ATOM     99  F   UNL A   1      48.522  26.972  31.399  1.00  0.00    -0.205 F 
ATOM    100  C   UNL A   1      49.595  24.222  33.562  1.00  0.00     0.022 A 
BRANCH  98 101
ATOM    101  S   UNL A   1      51.210  25.506  31.764  1.00  0.00     0.127 S 
ATOM    102  O   UNL A   1      51.556  26.857  32.203  1.00  0.00    -0.237 OA
ATOM    103  O   UNL A   1      52.048  24.449  32.330  1.00  0.00    -0.237 OA
ATOM    104  O   UNL A   1      50.937  25.363  30.340  1.00  0.00    -0.744 OA
ENDBRANCH  98 101
ENDBRANCH  71  94
ENDBRANCH  45  46
ENDBRANCH  37  40
ENDBRANCH  35  36
ENDBRANCH  34  35
ENDBRANCH  33  34
ENDBRANCH   1  33
TORSDOF 20
ENDMDL
