MODEL 1
REMARK VINA RESULT:     -13.4      0.000      0.000
REMARK SMILES Cc1cc(S(F)(F)(F)(F)F)cc2c1O[C@H](C(F)(F)F)C(C(=O)NCCCCNC(=O)c1ccc(-c3c4nc(c(-c5cccc(S(=O)(=O)[O-])c5F)c5ccc([nH]5)c(-c5cccc(S(=O)(=O)[O-])c5F)c5nc(c(-c6cccc(S(=O)(=O)[O-])c6F)c6ccc3[nH]6)C=C5)C=C4)cc1)=C2
REMARK SMILES IDX 26 1 25 2 24 3 23 4 21 5 22 6 20 8 1 9 2 10 3 11 13 12 4 13
REMARK SMILES IDX 12 14 14 15 11 16 94 17 15 18 5 19 6 20 7 21 8 22 9 23 10 24
REMARK SMILES IDX 16 25 17 26 18 27 19 28 27 29 28 30 29 31 30 33 31 34 32 35
REMARK SMILES IDX 93 36 33 37 92 38 34 39 35 40 36 41 86 42 37 43 91 44 85 45
REMARK SMILES IDX 87 46 38 47 90 48 84 49 83 50 39 52 71 53 51 54 70 55 52 56
REMARK SMILES IDX 55 57 69 58 88 59 53 60 54 61 68 63 89 64 56 65 40 66 41 67
REMARK SMILES IDX 49 68 42 69 44 70 50 71 43 72 45 73 46 74 47 75 48 76 72 77
REMARK SMILES IDX 73 78 81 79 74 80 76 81 82 82 75 83 77 84 78 85 79 86 80 87
REMARK SMILES IDX 57 88 58 89 66 90 59 91 61 92 67 93 60 94 62 95 63 96 64 97
REMARK SMILES IDX 65 98
REMARK H PARENT 23 7 28 32 87 51 55 62
REMARK Flexibility Score: inf
ROOT
ATOM      1  C   UNL A   1      37.995  20.080  25.105  1.00  0.00     0.023 C 
ENDROOT
BRANCH   1   2
ATOM      2  C   UNL A   1      37.418  21.388  24.586  1.00  0.00     0.023 C 
BRANCH   2   3
ATOM      3  C   UNL A   1      36.877  22.200  25.751  1.00  0.00     0.116 C 
BRANCH   3   4
ATOM      4  N   UNL A   1      35.730  21.500  26.347  1.00  0.00    -0.352 N 
ATOM      5  C   UNL A   1      34.380  22.069  26.230  1.00  0.00     0.251 C 
ATOM      6  O   UNL A   1      33.388  21.463  26.744  1.00  0.00    -0.270 OA
ATOM      7  H   UNL A   1      35.867  20.650  26.825  1.00  0.00     0.163 HD
BRANCH   5   8
ATOM      8  C   UNL A   1      34.169  23.381  25.491  1.00  0.00     0.067 C 
ATOM      9  C   UNL A   1      33.587  26.905  21.901  1.00  0.00     0.048 C 
ATOM     10  C   UNL A   1      33.600  26.972  23.420  1.00  0.00    -0.007 A 
ATOM     11  C   UNL A   1      33.315  28.111  24.141  1.00  0.00     0.031 A 
ATOM     12  C   UNL A   1      33.792  25.766  24.092  1.00  0.00     0.130 A 
ATOM     13  C   UNL A   1      33.223  28.069  25.526  1.00  0.00     0.108 A 
ATOM     14  C   UNL A   1      33.693  25.727  25.502  1.00  0.00     0.019 A 
ATOM     15  O   UNL A   1      34.099  24.518  23.382  1.00  0.00    -0.475 OA
ATOM     16  C   UNL A   1      33.401  26.897  26.206  1.00  0.00     0.036 A 
ATOM     17  C   UNL A   1      33.900  24.448  26.182  1.00  0.00     0.025 C 
ATOM     18  C   UNL A   1      34.274  23.389  24.099  1.00  0.00     0.314 C 
BRANCH  13  19
ATOM     19  S   UNL A   1      32.861  29.587  26.443  1.00  0.00     0.310 S 
ATOM     20  F   UNL A   1      32.680  28.795  27.805  1.00  0.00    -0.094 F 
ATOM     21  F   UNL A   1      31.326  29.346  26.179  1.00  0.00    -0.094 F 
ATOM     22  F   UNL A   1      32.549  30.891  27.230  1.00  0.00    -0.094 F 
ATOM     23  F   UNL A   1      34.388  29.736  26.817  1.00  0.00    -0.094 F 
ATOM     24  F   UNL A   1      33.181  28.206  25.743  1.00  0.00    -0.094 F 
ENDBRANCH  13  19
BRANCH  18  25
ATOM     25  C   UNL A   1      33.077  22.552  23.681  1.00  0.00     0.429 C 
ATOM     26  F   UNL A   1      33.383  21.261  23.777  1.00  0.00    -0.167 F 
ATOM     27  F   UNL A   1      32.046  22.823  24.475  1.00  0.00    -0.167 F 
ATOM     28  F   UNL A   1      32.754  22.838  22.422  1.00  0.00    -0.167 F 
ENDBRANCH  18  25
ENDBRANCH   5   8
ENDBRANCH   3   4
ENDBRANCH   2   3
ENDBRANCH   1   2
BRANCH   1  29
ATOM     29  C   UNL A   1      39.300  20.356  25.834  1.00  0.00     0.116 C 
BRANCH  29  30
ATOM     30  N   UNL A   1      40.139  19.150  25.813  1.00  0.00    -0.352 N 
ATOM     31  C   UNL A   1      41.581  19.254  26.072  1.00  0.00     0.251 C 
ATOM     32  H   UNL A   1      39.734  18.272  25.623  1.00  0.00     0.163 HD
ATOM     33  O   UNL A   1      42.308  18.210  26.054  1.00  0.00    -0.269 OA
BRANCH  31  34
ATOM     34  C   UNL A   1      42.206  20.609  26.363  1.00  0.00     0.039 A 
ATOM     35  C   UNL A   1      42.738  21.431  25.376  1.00  0.00     0.014 A 
ATOM     36  C   UNL A   1      42.171  21.058  27.600  1.00  0.00     0.014 A 
ATOM     37  C   UNL A   1      42.730  22.818  25.638  1.00  0.00     0.010 A 
ATOM     38  C   UNL A   1      42.665  22.329  27.913  1.00  0.00     0.010 A 
ATOM     39  C   UNL A   1      42.940  23.198  26.963  1.00  0.00    -0.014 A 
BRANCH  39  40
ATOM     40  C   UNL A   1      43.473  24.580  27.301  1.00  0.00     0.031 A 
ATOM     41  C   UNL A   1      44.824  24.893  27.136  1.00  0.00     0.074 A 
ATOM     42  C   UNL A   1      42.513  25.490  27.709  1.00  0.00     0.049 A 
ATOM     43  N   UNL A   1      45.409  26.081  27.297  1.00  0.00    -0.248 NA
ATOM     44  C   UNL A   1      45.853  23.922  26.737  1.00  0.00     0.031 C 
ATOM     45  C   UNL A   1      41.147  25.183  27.869  1.00  0.00     0.029 A 
ATOM     46  N   UNL A   1      42.686  26.818  28.025  1.00  0.00    -0.354 N 
ATOM     47  C   UNL A   1      46.714  25.992  27.029  1.00  0.00     0.074 A 
ATOM     48  C   UNL A   1      47.018  24.601  26.670  1.00  0.00     0.031 C 
ATOM     49  C   UNL A   1      40.510  26.309  28.289  1.00  0.00     0.029 A 
ATOM     50  C   UNL A   1      41.466  27.336  28.396  1.00  0.00     0.049 A 
ATOM     51  H   UNL A   1      43.537  27.313  27.993  1.00  0.00     0.167 HD
ATOM     52  C   UNL A   1      47.660  27.018  27.067  1.00  0.00     0.034 A 
ATOM     53  C   UNL A   1      41.181  28.628  28.809  1.00  0.00     0.034 A 
ATOM     54  C   UNL A   1      47.368  28.320  27.438  1.00  0.00     0.049 A 
ATOM     55  C   UNL A   1      42.139  29.640  28.903  1.00  0.00     0.074 A 
ATOM     56  C   UNL A   1      48.308  29.367  27.475  1.00  0.00     0.029 A 
ATOM     57  N   UNL A   1      46.151  28.832  27.833  1.00  0.00    -0.354 N 
ATOM     58  N   UNL A   1      43.435  29.561  28.598  1.00  0.00    -0.248 NA
ATOM     59  C   UNL A   1      41.856  31.004  29.371  1.00  0.00     0.031 C 
ATOM     60  C   UNL A   1      47.670  30.493  27.895  1.00  0.00     0.029 A 
ATOM     61  C   UNL A   1      46.320  30.166  28.128  1.00  0.00     0.049 A 
ATOM     62  H   UNL A   1      45.306  28.330  27.894  1.00  0.00     0.167 HD
ATOM     63  C   UNL A   1      44.028  30.739  28.799  1.00  0.00     0.074 A 
ATOM     64  C   UNL A   1      43.023  31.682  29.307  1.00  0.00     0.031 C 
ATOM     65  C   UNL A   1      45.367  31.066  28.577  1.00  0.00     0.034 A 
BRANCH  52  66
ATOM     66  C   UNL A   1      49.093  26.686  26.680  1.00  0.00     0.023 A 
ATOM     67  C   UNL A   1      49.961  26.103  27.595  1.00  0.00     0.012 A 
ATOM     68  C   UNL A   1      49.540  26.946  25.470  1.00  0.00     0.148 A 
ATOM     69  C   UNL A   1      51.051  25.380  27.058  1.00  0.00     0.002 A 
ATOM     70  C   UNL A   1      50.862  26.650  25.117  1.00  0.00     0.091 A 
ATOM     71  F   UNL A   1      48.727  27.496  24.572  1.00  0.00    -0.205 F 
ATOM     72  C   UNL A   1      51.608  25.884  25.885  1.00  0.00     0.022 A 
BRANCH  70  73
ATOM     73  S   UNL A   1      51.552  27.327  23.587  1.00  0.00     0.127 S 
ATOM     74  O   UNL A   1      50.694  26.882  22.400  1.00  0.00    -0.237 OA
ATOM     75  O   UNL A   1      51.563  28.854  23.664  1.00  0.00    -0.237 OA
ATOM     76  O   UNL A   1      53.151  26.754  23.381  1.00  0.00    -0.744 OA
ENDBRANCH  70  73
ENDBRANCH  52  66
BRANCH  53  77
ATOM     77  C   UNL A   1      39.745  28.963  29.180  1.00  0.00     0.023 A 
ATOM     78  C   UNL A   1      38.823  29.320  28.203  1.00  0.00     0.012 A 
ATOM     79  C   UNL A   1      39.345  28.922  30.432  1.00  0.00     0.148 A 
ATOM     80  C   UNL A   1      37.460  29.122  28.518  1.00  0.00     0.002 A 
ATOM     81  C   UNL A   1      38.026  29.239  30.773  1.00  0.00     0.091 A 
ATOM     82  F   UNL A   1      40.205  28.574  31.386  1.00  0.00    -0.205 F 
ATOM     83  C   UNL A   1      37.096  29.338  29.847  1.00  0.00     0.022 A 
BRANCH  81  84
ATOM     84  S   UNL A   1      37.592  29.518  32.508  1.00  0.00     0.127 S 
ATOM     85  O   UNL A   1      36.270  30.284  32.587  1.00  0.00    -0.237 OA
ATOM     86  O   UNL A   1      37.445  28.172  33.221  1.00  0.00    -0.237 OA
ATOM     87  O   UNL A   1      38.825  30.432  33.264  1.00  0.00    -0.744 OA
ENDBRANCH  81  84
ENDBRANCH  53  77
BRANCH  65  88
ATOM     88  C   UNL A   1      45.806  32.497  28.845  1.00  0.00     0.023 A 
ATOM     89  C   UNL A   1      46.344  32.899  30.063  1.00  0.00     0.012 A 
ATOM     90  C   UNL A   1      45.775  33.366  27.858  1.00  0.00     0.148 A 
ATOM     91  C   UNL A   1      47.251  33.981  30.025  1.00  0.00     0.002 A 
ATOM     92  C   UNL A   1      46.262  34.666  28.033  1.00  0.00     0.091 A 
ATOM     93  F   UNL A   1      45.274  33.005  26.680  1.00  0.00    -0.205 F 
ATOM     94  C   UNL A   1      46.987  34.977  29.087  1.00  0.00     0.022 A 
BRANCH  92  95
ATOM     95  S   UNL A   1      45.894  35.934  26.795  1.00  0.00     0.127 S 
ATOM     96  O   UNL A   1      46.648  37.220  27.140  1.00  0.00    -0.237 OA
ATOM     97  O   UNL A   1      46.331  35.442  25.414  1.00  0.00    -0.237 OA
ATOM     98  O   UNL A   1      44.212  36.246  26.781  1.00  0.00    -0.744 OA
ENDBRANCH  92  95
ENDBRANCH  65  88
ENDBRANCH  39  40
ENDBRANCH  31  34
ENDBRANCH  29  30
ENDBRANCH   1  29
TORSDOF 16
ENDMDL
MODEL 2
REMARK VINA RESULT:     -13.4      5.750     11.248
REMARK SMILES Cc1cc(S(F)(F)(F)(F)F)cc2c1O[C@H](C(F)(F)F)C(C(=O)NCCCCNC(=O)c1ccc(-c3c4nc(c(-c5cccc(S(=O)(=O)[O-])c5F)c5ccc([nH]5)c(-c5cccc(S(=O)(=O)[O-])c5F)c5nc(c(-c6cccc(S(=O)(=O)[O-])c6F)c6ccc3[nH]6)C=C5)C=C4)cc1)=C2
REMARK SMILES IDX 26 1 25 2 24 3 23 4 21 5 22 6 20 8 1 9 2 10 3 11 13 12 4 13
REMARK SMILES IDX 12 14 14 15 11 16 94 17 15 18 5 19 6 20 7 21 8 22 9 23 10 24
REMARK SMILES IDX 16 25 17 26 18 27 19 28 27 29 28 30 29 31 30 33 31 34 32 35
REMARK SMILES IDX 93 36 33 37 92 38 34 39 35 40 36 41 86 42 37 43 91 44 85 45
REMARK SMILES IDX 87 46 38 47 90 48 84 49 83 50 39 52 71 53 51 54 70 55 52 56
REMARK SMILES IDX 55 57 69 58 88 59 53 60 54 61 68 63 89 64 56 65 40 66 41 67
REMARK SMILES IDX 49 68 42 69 44 70 50 71 43 72 45 73 46 74 47 75 48 76 72 77
REMARK SMILES IDX 73 78 81 79 74 80 76 81 82 82 75 83 77 84 78 85 79 86 80 87
REMARK SMILES IDX 57 88 58 89 66 90 59 91 61 92 67 93 60 94 62 95 63 96 64 97
REMARK SMILES IDX 65 98
REMARK H PARENT 23 7 28 32 87 51 55 62
REMARK Flexibility Score: inf
ROOT
ATOM      1  C   UNL A   1      31.782  31.668  26.637  1.00  0.00     0.023 C 
ENDROOT
BRANCH   1   2
ATOM      2  C   UNL A   1      32.023  30.189  26.895  1.00  0.00     0.023 C 
BRANCH   2   3
ATOM      3  C   UNL A   1      33.229  29.725  26.095  1.00  0.00     0.116 C 
BRANCH   3   4
ATOM      4  N   UNL A   1      32.914  29.771  24.660  1.00  0.00    -0.352 N 
ATOM      5  C   UNL A   1      32.733  28.522  23.907  1.00  0.00     0.251 C 
ATOM      6  O   UNL A   1      32.459  28.562  22.666  1.00  0.00    -0.270 OA
ATOM      7  H   UNL A   1      32.824  30.639  24.204  1.00  0.00     0.163 HD
BRANCH   5   8
ATOM      8  C   UNL A   1      32.871  27.183  24.612  1.00  0.00     0.067 C 
ATOM      9  C   UNL A   1      32.018  23.037  27.394  1.00  0.00     0.048 C 
ATOM     10  C   UNL A   1      33.212  23.503  26.576  1.00  0.00    -0.007 A 
ATOM     11  C   UNL A   1      34.333  22.736  26.349  1.00  0.00     0.031 A 
ATOM     12  C   UNL A   1      33.080  24.731  25.931  1.00  0.00     0.130 A 
ATOM     13  C   UNL A   1      35.332  23.176  25.490  1.00  0.00     0.108 A 
ATOM     14  C   UNL A   1      34.096  25.174  25.053  1.00  0.00     0.019 A 
ATOM     15  O   UNL A   1      31.910  25.595  26.131  1.00  0.00    -0.475 OA
ATOM     16  C   UNL A   1      35.221  24.374  24.841  1.00  0.00     0.036 A 
ATOM     17  C   UNL A   1      33.932  26.467  24.389  1.00  0.00     0.025 C 
ATOM     18  C   UNL A   1      31.851  26.772  25.473  1.00  0.00     0.314 C 
BRANCH  13  19
ATOM     19  S   UNL A   1      36.798  22.150  25.225  1.00  0.00     0.310 S 
ATOM     20  F   UNL A   1      37.199  22.950  23.916  1.00  0.00    -0.094 F 
ATOM     21  F   UNL A   1      35.937  21.207  24.302  1.00  0.00    -0.094 F 
ATOM     22  F   UNL A   1      38.058  21.267  24.997  1.00  0.00    -0.094 F 
ATOM     23  F   UNL A   1      37.678  23.181  26.036  1.00  0.00    -0.094 F 
ATOM     24  F   UNL A   1      35.555  23.115  25.372  1.00  0.00    -0.094 F 
ENDBRANCH  13  19
BRANCH  18  25
ATOM     25  C   UNL A   1      30.691  26.550  24.517  1.00  0.00     0.429 C 
ATOM     26  F   UNL A   1      31.142  26.008  23.390  1.00  0.00    -0.167 F 
ATOM     27  F   UNL A   1      29.804  25.733  25.078  1.00  0.00    -0.167 F 
ATOM     28  F   UNL A   1      30.111  27.716  24.247  1.00  0.00    -0.167 F 
ENDBRANCH  18  25
ENDBRANCH   5   8
ENDBRANCH   3   4
ENDBRANCH   2   3
ENDBRANCH   1   2
BRANCH   1  29
ATOM     29  C   UNL A   1      32.838  32.486  27.362  1.00  0.00     0.116 C 
BRANCH  29  30
ATOM     30  N   UNL A   1      32.333  33.847  27.591  1.00  0.00    -0.352 N 
ATOM     31  C   UNL A   1      33.004  34.727  28.558  1.00  0.00     0.251 C 
ATOM     32  H   UNL A   1      31.544  34.169  27.097  1.00  0.00     0.163 HD
ATOM     33  O   UNL A   1      32.566  35.905  28.757  1.00  0.00    -0.269 OA
BRANCH  31  34
ATOM     34  C   UNL A   1      34.220  34.230  29.322  1.00  0.00     0.039 A 
ATOM     35  C   UNL A   1      34.148  33.682  30.598  1.00  0.00     0.014 A 
ATOM     36  C   UNL A   1      35.387  34.247  28.714  1.00  0.00     0.014 A 
ATOM     37  C   UNL A   1      35.155  32.755  30.945  1.00  0.00     0.010 A 
ATOM     38  C   UNL A   1      36.529  33.735  29.341  1.00  0.00     0.010 A 
ATOM     39  C   UNL A   1      36.428  33.003  30.431  1.00  0.00    -0.014 A 
BRANCH  39  40
ATOM     40  C   UNL A   1      37.665  32.443  31.111  1.00  0.00     0.031 A 
ATOM     41  C   UNL A   1      38.139  32.984  32.307  1.00  0.00     0.074 A 
ATOM     42  C   UNL A   1      38.220  31.338  30.489  1.00  0.00     0.049 A 
ATOM     43  N   UNL A   1      39.145  32.537  33.061  1.00  0.00    -0.248 NA
ATOM     44  C   UNL A   1      37.574  34.179  32.953  1.00  0.00     0.031 C 
ATOM     45  C   UNL A   1      37.742  30.781  29.286  1.00  0.00     0.029 A 
ATOM     46  N   UNL A   1      39.301  30.590  30.899  1.00  0.00    -0.354 N 
ATOM     47  C   UNL A   1      39.288  33.307  34.143  1.00  0.00     0.074 A 
ATOM     48  C   UNL A   1      38.283  34.376  34.085  1.00  0.00     0.031 C 
ATOM     49  C   UNL A   1      38.533  29.721  28.970  1.00  0.00     0.029 A 
ATOM     50  C   UNL A   1      39.515  29.597  29.970  1.00  0.00     0.049 A 
ATOM     51  H   UNL A   1      39.829  30.741  31.716  1.00  0.00     0.167 HD
ATOM     52  C   UNL A   1      40.215  33.155  35.175  1.00  0.00     0.034 A 
ATOM     53  C   UNL A   1      40.507  28.629  29.975  1.00  0.00     0.034 A 
ATOM     54  C   UNL A   1      41.180  32.161  35.202  1.00  0.00     0.049 A 
ATOM     55  C   UNL A   1      41.472  28.513  30.979  1.00  0.00     0.074 A 
ATOM     56  C   UNL A   1      42.117  31.991  36.239  1.00  0.00     0.029 A 
ATOM     57  N   UNL A   1      41.410  31.183  34.260  1.00  0.00    -0.354 N 
ATOM     58  N   UNL A   1      41.590  29.258  32.080  1.00  0.00    -0.248 NA
ATOM     59  C   UNL A   1      42.547  27.512  30.980  1.00  0.00     0.031 C 
ATOM     60  C   UNL A   1      42.907  30.930  35.923  1.00  0.00     0.029 A 
ATOM     61  C   UNL A   1      42.476  30.421  34.682  1.00  0.00     0.049 A 
ATOM     62  H   UNL A   1      40.899  31.050  33.429  1.00  0.00     0.167 HD
ATOM     63  C   UNL A   1      42.622  28.836  32.812  1.00  0.00     0.074 A 
ATOM     64  C   UNL A   1      43.258  27.712  32.110  1.00  0.00     0.031 C 
ATOM     65  C   UNL A   1      43.059  29.340  34.038  1.00  0.00     0.034 A 
BRANCH  52  66
ATOM     66  C   UNL A   1      40.164  34.137  36.334  1.00  0.00     0.023 A 
ATOM     67  C   UNL A   1      40.764  35.387  36.236  1.00  0.00     0.012 A 
ATOM     68  C   UNL A   1      39.550  33.824  37.455  1.00  0.00     0.148 A 
ATOM     69  C   UNL A   1      40.266  36.396  37.092  1.00  0.00     0.002 A 
ATOM     70  C   UNL A   1      39.512  34.725  38.526  1.00  0.00     0.091 A 
ATOM     71  F   UNL A   1      38.959  32.638  37.573  1.00  0.00    -0.205 F 
ATOM     72  C   UNL A   1      39.857  35.984  38.359  1.00  0.00     0.022 A 
BRANCH  70  73
ATOM     73  S   UNL A   1      38.980  34.152  40.158  1.00  0.00     0.127 S 
ATOM     74  O   UNL A   1      37.541  33.636  40.073  1.00  0.00    -0.237 OA
ATOM     75  O   UNL A   1      39.899  33.023  40.628  1.00  0.00    -0.237 OA
ATOM     76  O   UNL A   1      39.055  35.449  41.270  1.00  0.00    -0.744 OA
ENDBRANCH  70  73
ENDBRANCH  52  66
BRANCH  53  77
ATOM     77  C   UNL A   1      40.547  27.636  28.824  1.00  0.00     0.023 A 
ATOM     78  C   UNL A   1      39.761  26.490  28.845  1.00  0.00     0.012 A 
ATOM     79  C   UNL A   1      41.327  27.842  27.785  1.00  0.00     0.148 A 
ATOM     80  C   UNL A   1      39.462  25.907  27.594  1.00  0.00     0.002 A 
ATOM     81  C   UNL A   1      41.370  26.923  26.731  1.00  0.00     0.091 A 
ATOM     82  F   UNL A   1      42.083  28.935  27.735  1.00  0.00    -0.205 F 
ATOM     83  C   UNL A   1      40.463  25.975  26.626  1.00  0.00     0.022 A 
BRANCH  81  84
ATOM     84  S   UNL A   1      42.688  27.039  25.495  1.00  0.00     0.127 S 
ATOM     85  O   UNL A   1      42.702  25.768  24.643  1.00  0.00    -0.237 OA
ATOM     86  O   UNL A   1      42.441  28.253  24.597  1.00  0.00    -0.237 OA
ATOM     87  O   UNL A   1      44.195  27.211  26.285  1.00  0.00    -0.744 OA
ENDBRANCH  81  84
ENDBRANCH  53  77
BRANCH  65  88
ATOM     88  C   UNL A   1      44.245  28.665  34.707  1.00  0.00     0.023 A 
ATOM     89  C   UNL A   1      45.553  29.102  34.531  1.00  0.00     0.012 A 
ATOM     90  C   UNL A   1      44.021  27.695  35.568  1.00  0.00     0.148 A 
ATOM     91  C   UNL A   1      46.447  28.864  35.598  1.00  0.00     0.002 A 
ATOM     92  C   UNL A   1      45.074  27.113  36.281  1.00  0.00     0.091 A 
ATOM     93  F   UNL A   1      42.778  27.264  35.763  1.00  0.00    -0.205 F 
ATOM     94  C   UNL A   1      46.264  27.676  36.304  1.00  0.00     0.022 A 
BRANCH  92  95
ATOM     95  S   UNL A   1      44.799  25.568  37.181  1.00  0.00     0.127 S 
ATOM     96  O   UNL A   1      44.300  24.493  36.213  1.00  0.00    -0.237 OA
ATOM     97  O   UNL A   1      46.111  25.108  37.821  1.00  0.00    -0.237 OA
ATOM     98  O   UNL A   1      43.628  25.820  38.403  1.00  0.00    -0.744 OA
ENDBRANCH  92  95
ENDBRANCH  65  88
ENDBRANCH  39  40
ENDBRANCH  31  34
ENDBRANCH  29  30
ENDBRANCH   1  29
TORSDOF 16
ENDMDL
MODEL 3
REMARK VINA RESULT:     -13.2      0.467      7.497
REMARK SMILES Cc1cc(S(F)(F)(F)(F)F)cc2c1O[C@H](C(F)(F)F)C(C(=O)NCCCCNC(=O)c1ccc(-c3c4nc(c(-c5cccc(S(=O)(=O)[O-])c5F)c5ccc([nH]5)c(-c5cccc(S(=O)(=O)[O-])c5F)c5nc(c(-c6cccc(S(=O)(=O)[O-])c6F)c6ccc3[nH]6)C=C5)C=C4)cc1)=C2
REMARK SMILES IDX 26 1 25 2 24 3 23 4 21 5 22 6 20 8 1 9 2 10 3 11 13 12 4 13
REMARK SMILES IDX 12 14 14 15 11 16 94 17 15 18 5 19 6 20 7 21 8 22 9 23 10 24
REMARK SMILES IDX 16 25 17 26 18 27 19 28 27 29 28 30 29 31 30 33 31 34 32 35
REMARK SMILES IDX 93 36 33 37 92 38 34 39 35 40 36 41 86 42 37 43 91 44 85 45
REMARK SMILES IDX 87 46 38 47 90 48 84 49 83 50 39 52 71 53 51 54 70 55 52 56
REMARK SMILES IDX 55 57 69 58 88 59 53 60 54 61 68 63 89 64 56 65 40 66 41 67
REMARK SMILES IDX 49 68 42 69 44 70 50 71 43 72 45 73 46 74 47 75 48 76 72 77
REMARK SMILES IDX 73 78 81 79 74 80 76 81 82 82 75 83 77 84 78 85 79 86 80 87
REMARK SMILES IDX 57 88 58 89 66 90 59 91 61 92 67 93 60 94 62 95 63 96 64 97
REMARK SMILES IDX 65 98
REMARK H PARENT 23 7 28 32 87 51 55 62
REMARK Flexibility Score: inf
ROOT
ATOM      1  C   UNL A   1      38.156  19.872  25.035  1.00  0.00     0.023 C 
ENDROOT
BRANCH   1   2
ATOM      2  C   UNL A   1      37.456  21.112  24.502  1.00  0.00     0.023 C 
BRANCH   2   3
ATOM      3  C   UNL A   1      36.974  21.961  25.667  1.00  0.00     0.116 C 
BRANCH   3   4
ATOM      4  N   UNL A   1      35.896  21.257  26.375  1.00  0.00    -0.352 N 
ATOM      5  C   UNL A   1      34.528  21.796  26.354  1.00  0.00     0.251 C 
ATOM      6  O   UNL A   1      33.595  21.186  26.966  1.00  0.00    -0.270 OA
ATOM      7  H   UNL A   1      36.089  20.424  26.863  1.00  0.00     0.163 HD
BRANCH   5   8
ATOM      8  C   UNL A   1      34.229  23.081  25.600  1.00  0.00     0.067 C 
ATOM      9  C   UNL A   1      33.457  26.525  21.968  1.00  0.00     0.048 C 
ATOM     10  C   UNL A   1      33.420  26.600  23.486  1.00  0.00    -0.007 A 
ATOM     11  C   UNL A   1      33.019  27.715  24.189  1.00  0.00     0.031 A 
ATOM     12  C   UNL A   1      33.694  25.419  24.172  1.00  0.00     0.130 A 
ATOM     13  C   UNL A   1      32.890  27.673  25.572  1.00  0.00     0.108 A 
ATOM     14  C   UNL A   1      33.557  25.379  25.579  1.00  0.00     0.019 A 
ATOM     15  O   UNL A   1      34.125  24.198  23.480  1.00  0.00    -0.475 OA
ATOM     16  C   UNL A   1      33.147  26.524  26.265  1.00  0.00     0.036 A 
ATOM     17  C   UNL A   1      33.851  24.126  26.274  1.00  0.00     0.025 C 
ATOM     18  C   UNL A   1      34.373  23.091  24.212  1.00  0.00     0.314 C 
BRANCH  13  19
ATOM     19  S   UNL A   1      32.375  29.159  26.466  1.00  0.00     0.310 S 
ATOM     20  F   UNL A   1      33.286  28.800  27.713  1.00  0.00    -0.094 F 
ATOM     21  F   UNL A   1      31.230  28.318  27.147  1.00  0.00    -0.094 F 
ATOM     22  F   UNL A   1      31.932  30.437  27.234  1.00  0.00    -0.094 F 
ATOM     23  F   UNL A   1      33.612  29.950  25.883  1.00  0.00    -0.094 F 
ATOM     24  F   UNL A   1      32.904  27.844  25.767  1.00  0.00    -0.094 F 
ENDBRANCH  13  19
BRANCH  18  25
ATOM     25  C   UNL A   1      33.264  22.154  23.765  1.00  0.00     0.429 C 
ATOM     26  F   UNL A   1      33.655  20.893  23.930  1.00  0.00    -0.167 F 
ATOM     27  F   UNL A   1      32.174  22.378  24.493  1.00  0.00    -0.167 F 
ATOM     28  F   UNL A   1      32.992  22.369  22.481  1.00  0.00    -0.167 F 
ENDBRANCH  18  25
ENDBRANCH   5   8
ENDBRANCH   3   4
ENDBRANCH   2   3
ENDBRANCH   1   2
BRANCH   1  29
ATOM     29  C   UNL A   1      39.354  20.287  25.874  1.00  0.00     0.116 C 
BRANCH  29  30
ATOM     30  N   UNL A   1      40.298  19.165  25.972  1.00  0.00    -0.352 N 
ATOM     31  C   UNL A   1      41.712  19.420  26.278  1.00  0.00     0.251 C 
ATOM     32  H   UNL A   1      39.982  18.243  25.831  1.00  0.00     0.163 HD
ATOM     33  O   UNL A   1      42.530  18.449  26.362  1.00  0.00    -0.269 OA
BRANCH  31  34
ATOM     34  C   UNL A   1      42.199  20.844  26.494  1.00  0.00     0.039 A 
ATOM     35  C   UNL A   1      42.666  21.654  25.465  1.00  0.00     0.014 A 
ATOM     36  C   UNL A   1      42.100  21.360  27.701  1.00  0.00     0.014 A 
ATOM     37  C   UNL A   1      42.521  23.048  25.644  1.00  0.00     0.010 A 
ATOM     38  C   UNL A   1      42.465  22.689  27.943  1.00  0.00     0.010 A 
ATOM     39  C   UNL A   1      42.671  23.523  26.946  1.00  0.00    -0.014 A 
BRANCH  39  40
ATOM     40  C   UNL A   1      43.063  24.967  27.207  1.00  0.00     0.031 A 
ATOM     41  C   UNL A   1      42.127  25.899  27.659  1.00  0.00     0.074 A 
ATOM     42  C   UNL A   1      44.407  25.246  27.027  1.00  0.00     0.049 A 
ATOM     43  N   UNL A   1      42.347  27.164  28.021  1.00  0.00    -0.248 NA
ATOM     44  C   UNL A   1      40.693  25.617  27.818  1.00  0.00     0.031 C 
ATOM     45  C   UNL A   1      45.360  24.308  26.580  1.00  0.00     0.029 A 
ATOM     46  N   UNL A   1      45.059  26.440  27.240  1.00  0.00    -0.354 N 
ATOM     47  C   UNL A   1      41.208  27.736  28.416  1.00  0.00     0.074 A 
ATOM     48  C   UNL A   1      40.127  26.750  28.286  1.00  0.00     0.031 C 
ATOM     49  C   UNL A   1      46.565  24.933  26.512  1.00  0.00     0.029 A 
ATOM     50  C   UNL A   1      46.386  26.269  26.916  1.00  0.00     0.049 A 
ATOM     51  H   UNL A   1      44.647  27.272  27.566  1.00  0.00     0.167 HD
ATOM     52  C   UNL A   1      41.029  29.040  28.882  1.00  0.00     0.034 A 
ATOM     53  C   UNL A   1      47.401  27.213  26.963  1.00  0.00     0.034 A 
ATOM     54  C   UNL A   1      42.051  29.971  28.970  1.00  0.00     0.049 A 
ATOM     55  C   UNL A   1      47.210  28.535  27.374  1.00  0.00     0.074 A 
ATOM     56  C   UNL A   1      41.889  31.287  29.444  1.00  0.00     0.029 A 
ATOM     57  N   UNL A   1      43.374  29.808  28.623  1.00  0.00    -0.354 N 
ATOM     58  N   UNL A   1      46.079  29.095  27.806  1.00  0.00    -0.248 NA
ATOM     59  C   UNL A   1      48.269  29.553  27.397  1.00  0.00     0.031 C 
ATOM     60  C   UNL A   1      43.095  31.912  29.376  1.00  0.00     0.029 A 
ATOM     61  C   UNL A   1      44.030  30.995  28.856  1.00  0.00     0.049 A 
ATOM     62  H   UNL A   1      43.781  28.984  28.269  1.00  0.00     0.167 HD
ATOM     63  C   UNL A   1      46.292  30.372  28.128  1.00  0.00     0.074 A 
ATOM     64  C   UNL A   1      47.702  30.688  27.862  1.00  0.00     0.031 C 
ATOM     65  C   UNL A   1      45.368  31.286  28.636  1.00  0.00     0.034 A 
BRANCH  52  66
ATOM     66  C   UNL A   1      39.635  29.461  29.317  1.00  0.00     0.023 A 
ATOM     67  C   UNL A   1      38.730  29.985  28.401  1.00  0.00     0.012 A 
ATOM     68  C   UNL A   1      39.255  29.338  30.571  1.00  0.00     0.148 A 
ATOM     69  C   UNL A   1      37.361  29.876  28.732  1.00  0.00     0.002 A 
ATOM     70  C   UNL A   1      37.974  29.735  30.973  1.00  0.00     0.091 A 
ATOM     71  F   UNL A   1      40.097  28.831  31.467  1.00  0.00    -0.205 F 
ATOM     72  C   UNL A   1      37.041  29.998  30.083  1.00  0.00     0.022 A 
BRANCH  70  73
ATOM     73  S   UNL A   1      37.597  29.888  32.737  1.00  0.00     0.127 S 
ATOM     74  O   UNL A   1      36.401  30.824  32.923  1.00  0.00    -0.237 OA
ATOM     75  O   UNL A   1      37.259  28.509  33.307  1.00  0.00    -0.237 OA
ATOM     76  O   UNL A   1      38.955  30.527  33.556  1.00  0.00    -0.744 OA
ENDBRANCH  70  73
ENDBRANCH  52  66
BRANCH  53  77
ATOM     77  C   UNL A   1      48.798  26.787  26.544  1.00  0.00     0.023 A 
ATOM     78  C   UNL A   1      49.635  26.121  27.432  1.00  0.00     0.012 A 
ATOM     79  C   UNL A   1      49.245  27.039  25.333  1.00  0.00     0.148 A 
ATOM     80  C   UNL A   1      50.660  25.332  26.863  1.00  0.00     0.002 A 
ATOM     81  C   UNL A   1      50.535  26.655  24.952  1.00  0.00     0.091 A 
ATOM     82  F   UNL A   1      48.462  27.668  24.461  1.00  0.00    -0.205 F 
ATOM     83  C   UNL A   1      51.235  25.819  25.690  1.00  0.00     0.022 A 
BRANCH  81  84
ATOM     84  S   UNL A   1      51.251  27.313  23.425  1.00  0.00     0.127 S 
ATOM     85  O   UNL A   1      50.405  26.865  22.231  1.00  0.00    -0.237 OA
ATOM     86  O   UNL A   1      51.273  28.842  23.488  1.00  0.00    -0.237 OA
ATOM     87  O   UNL A   1      52.847  26.726  23.244  1.00  0.00    -0.744 OA
ENDBRANCH  81  84
ENDBRANCH  53  77
BRANCH  65  88
ATOM     88  C   UNL A   1      45.857  32.688  28.966  1.00  0.00     0.023 A 
ATOM     89  C   UNL A   1      46.427  33.012  30.193  1.00  0.00     0.012 A 
ATOM     90  C   UNL A   1      45.838  33.606  28.024  1.00  0.00     0.148 A 
ATOM     91  C   UNL A   1      47.367  34.065  30.193  1.00  0.00     0.002 A 
ATOM     92  C   UNL A   1      46.369  34.879  28.255  1.00  0.00     0.091 A 
ATOM     93  F   UNL A   1      45.307  33.320  26.839  1.00  0.00    -0.205 F 
ATOM     94  C   UNL A   1      47.119  35.115  29.310  1.00  0.00     0.022 A 
BRANCH  92  95
ATOM     95  S   UNL A   1      46.021  36.218  27.088  1.00  0.00     0.127 S 
ATOM     96  O   UNL A   1      46.688  35.911  25.744  1.00  0.00    -0.237 OA
ATOM     97  O   UNL A   1      44.509  36.342  26.889  1.00  0.00    -0.237 OA
ATOM     98  O   UNL A   1      46.636  37.689  27.707  1.00  0.00    -0.744 OA
ENDBRANCH  92  95
ENDBRANCH  65  88
ENDBRANCH  39  40
ENDBRANCH  31  34
ENDBRANCH  29  30
ENDBRANCH   1  29
TORSDOF 16
ENDMDL
