MODEL 1
REMARK VINA RESULT:     -12.5      0.000      0.000
REMARK SMILES O=C(CC1(NC(=O)C2(c3ccccc3)CC2)CCC1)NCCCCNC(=O)c1ccc(-c2c3nc(c(-c4cccc(S(=O)(=O)[O-])c4F)c4ccc([nH]4)c(-c4cccc(S(=O)(=O)[O-])c4F)c4nc(c(-c5cccc(S(=O)(=O)[O-])c5F)c5ccc2[nH]5)C=C4)C=C3)cc1
REMARK SMILES IDX 22 1 21 2 20 3 1 4 2 5 3 7 4 8 17 9 19 10 18 11 5 12 6 13
REMARK SMILES IDX 7 15 8 16 15 17 16 18 9 19 10 20 14 21 11 22 13 23 12 24
REMARK SMILES IDX 23 25 24 26 25 27 26 28 27 30 28 31 29 32 90 33 30 34 89 35
REMARK SMILES IDX 31 36 32 37 33 38 83 39 34 40 88 41 82 42 84 43 35 44 87 45
REMARK SMILES IDX 81 46 80 47 36 49 68 50 48 51 67 52 49 53 52 54 66 55 85 56
REMARK SMILES IDX 50 57 51 58 65 60 86 61 53 62 37 63 38 64 46 65 39 66 41 67
REMARK SMILES IDX 47 68 40 69 42 70 43 71 44 72 45 73 69 74 70 75 78 76 71 77
REMARK SMILES IDX 73 78 79 79 72 80 74 81 75 82 76 83 77 84 54 85 55 86 63 87
REMARK SMILES IDX 56 88 58 89 64 90 57 91 59 92 60 93 61 94 62 95
REMARK H PARENT 20 6 5 14 25 29 84 48 52 59
REMARK Flexibility Score: inf
ROOT
ATOM      1  C   UNL A   1      31.292  30.904  26.274  1.00  0.00     0.023 C 
ENDROOT
BRANCH   1   2
ATOM      2  C   UNL A   1      32.457  30.080  26.815  1.00  0.00     0.116 C 
BRANCH   2   3
ATOM      3  N   UNL A   1      32.499  28.734  26.287  1.00  0.00    -0.356 N 
ATOM      4  O   UNL A   1      31.381  27.859  28.075  1.00  0.00    -0.275 OA
ATOM      5  C   UNL A   1      31.864  27.697  26.950  1.00  0.00     0.222 C 
ATOM      6  H   UNL A   1      32.983  28.553  25.449  1.00  0.00     0.163 HD
BRANCH   5   7
ATOM      7  C   UNL A   1      31.912  26.198  26.193  1.00  0.00     0.128 C 
BRANCH   7   8
ATOM      8  C   UNL A   1      32.366  25.553  24.161  1.00  0.00     0.049 C 
ATOM      9  C   UNL A   1      31.758  26.096  22.498  1.00  0.00     0.029 C 
ATOM     10  C   UNL A   1      33.883  25.776  23.106  1.00  0.00     0.029 C 
ATOM     11  C   UNL A   1      33.125  26.668  22.128  1.00  0.00     0.005 C 
BRANCH   8  12
ATOM     12  N   UNL A   1      32.210  23.804  23.592  1.00  0.00    -0.349 N 
ATOM     13  C   UNL A   1      32.327  22.649  24.358  1.00  0.00     0.231 C 
ATOM     14  H   UNL A   1      32.022  23.673  22.634  1.00  0.00     0.164 HD
ATOM     15  O   UNL A   1      31.875  21.560  24.042  1.00  0.00    -0.274 OA
BRANCH  13  16
ATOM     16  C   UNL A   1      33.149  22.885  25.554  1.00  0.00     0.074 C 
ATOM     17  C   UNL A   1      32.746  23.807  26.666  1.00  0.00     0.023 C 
ATOM     18  C   UNL A   1      32.778  22.320  26.899  1.00  0.00     0.023 C 
BRANCH  16  19
ATOM     19  C   UNL A   1      34.526  22.781  25.041  1.00  0.00    -0.032 A 
ATOM     20  C   UNL A   1      35.228  21.135  24.825  1.00  0.00     0.005 A 
ATOM     21  C   UNL A   1      35.618  24.167  25.509  1.00  0.00     0.005 A 
ATOM     22  C   UNL A   1      36.982  20.862  25.058  1.00  0.00     0.000 A 
ATOM     23  C   UNL A   1      37.363  23.875  25.781  1.00  0.00     0.000 A 
ATOM     24  C   UNL A   1      38.045  22.233  25.499  1.00  0.00     0.000 A 
ENDBRANCH  16  19
ENDBRANCH  13  16
ENDBRANCH   8  12
ENDBRANCH   7   8
ENDBRANCH   5   7
ENDBRANCH   2   3
ENDBRANCH   1   2
BRANCH   1  25
ATOM     25  C   UNL A   1      31.384  32.420  26.497  1.00  0.00     0.023 C 
BRANCH  25  26
ATOM     26  C   UNL A   1      32.660  32.933  27.164  1.00  0.00     0.116 C 
BRANCH  26  27
ATOM     27  N   UNL A   1      32.493  34.247  27.762  1.00  0.00    -0.352 N 
ATOM     28  C   UNL A   1      33.121  34.850  28.824  1.00  0.00     0.251 C 
ATOM     29  H   UNL A   1      31.808  34.805  27.328  1.00  0.00     0.163 HD
ATOM     30  O   UNL A   1      32.671  35.916  29.243  1.00  0.00    -0.269 OA
BRANCH  28  31
ATOM     31  C   UNL A   1      34.309  34.255  29.487  1.00  0.00     0.039 A 
ATOM     32  C   UNL A   1      34.104  33.476  30.634  1.00  0.00     0.014 A 
ATOM     33  C   UNL A   1      35.615  34.521  29.065  1.00  0.00     0.014 A 
ATOM     34  C   UNL A   1      35.192  32.925  31.319  1.00  0.00     0.010 A 
ATOM     35  C   UNL A   1      36.700  33.931  29.723  1.00  0.00     0.010 A 
ATOM     36  C   UNL A   1      36.500  33.128  30.857  1.00  0.00    -0.014 A 
BRANCH  36  37
ATOM     37  C   UNL A   1      37.661  32.490  31.534  1.00  0.00     0.031 A 
ATOM     38  C   UNL A   1      38.383  31.330  30.903  1.00  0.00     0.074 A 
ATOM     39  C   UNL A   1      38.029  32.914  32.760  1.00  0.00     0.049 A 
ATOM     40  N   UNL A   1      39.382  30.628  31.375  1.00  0.00    -0.248 NA
ATOM     41  C   UNL A   1      37.914  30.892  29.580  1.00  0.00     0.031 C 
ATOM     42  C   UNL A   1      37.377  33.987  33.510  1.00  0.00     0.029 A 
ATOM     43  N   UNL A   1      39.021  32.474  33.601  1.00  0.00    -0.354 N 
ATOM     44  C   UNL A   1      39.644  29.649  30.424  1.00  0.00     0.074 A 
ATOM     45  C   UNL A   1      38.687  29.838  29.353  1.00  0.00     0.031 C 
ATOM     46  C   UNL A   1      37.981  34.118  34.703  1.00  0.00     0.029 A 
ATOM     47  C   UNL A   1      39.051  33.130  34.809  1.00  0.00     0.049 A 
ATOM     48  H   UNL A   1      39.652  31.757  33.361  1.00  0.00     0.167 HD
ATOM     49  C   UNL A   1      40.608  28.697  30.427  1.00  0.00     0.034 A 
ATOM     50  C   UNL A   1      39.846  32.958  35.885  1.00  0.00     0.034 A 
ATOM     51  C   UNL A   1      41.597  28.538  31.459  1.00  0.00     0.049 A 
ATOM     52  C   UNL A   1      40.937  31.924  35.840  1.00  0.00     0.074 A 
ATOM     53  C   UNL A   1      42.659  27.651  31.503  1.00  0.00     0.029 A 
ATOM     54  N   UNL A   1      41.650  29.283  32.626  1.00  0.00    -0.354 N 
ATOM     55  N   UNL A   1      41.264  31.111  34.865  1.00  0.00    -0.248 NA
ATOM     56  C   UNL A   1      41.793  31.806  37.032  1.00  0.00     0.031 C 
ATOM     57  C   UNL A   1      43.359  27.864  32.697  1.00  0.00     0.029 A 
ATOM     58  C   UNL A   1      42.726  28.876  33.398  1.00  0.00     0.049 A 
ATOM     59  H   UNL A   1      41.017  29.995  32.870  1.00  0.00     0.167 HD
ATOM     60  C   UNL A   1      42.373  30.405  35.313  1.00  0.00     0.074 A 
ATOM     61  C   UNL A   1      42.679  30.900  36.640  1.00  0.00     0.031 C 
ATOM     62  C   UNL A   1      43.062  29.419  34.689  1.00  0.00     0.034 A 
BRANCH  49  63
ATOM     63  C   UNL A   1      40.694  27.795  29.226  1.00  0.00     0.023 A 
ATOM     64  C   UNL A   1      39.845  26.673  29.155  1.00  0.00     0.012 A 
ATOM     65  C   UNL A   1      41.553  28.083  28.149  1.00  0.00     0.148 A 
ATOM     66  C   UNL A   1      39.862  25.839  28.039  1.00  0.00     0.002 A 
ATOM     67  C   UNL A   1      41.546  27.260  27.026  1.00  0.00     0.091 A 
ATOM     68  F   UNL A   1      42.376  29.137  28.244  1.00  0.00    -0.205 F 
ATOM     69  C   UNL A   1      40.704  26.137  26.971  1.00  0.00     0.022 A 
BRANCH  67  70
ATOM     70  S   UNL A   1      42.565  27.616  25.590  1.00  0.00     0.127 S 
ATOM     71  O   UNL A   1      42.272  26.475  24.726  1.00  0.00    -0.237 OA
ATOM     72  O   UNL A   1      42.020  28.891  25.117  1.00  0.00    -0.237 OA
ATOM     73  O   UNL A   1      43.927  27.701  26.097  1.00  0.00    -0.744 OA
ENDBRANCH  67  70
ENDBRANCH  49  63
BRANCH  50  74
ATOM     74  C   UNL A   1      39.687  33.852  37.062  1.00  0.00     0.023 A 
ATOM     75  C   UNL A   1      40.152  35.179  36.982  1.00  0.00     0.012 A 
ATOM     76  C   UNL A   1      39.033  33.424  38.233  1.00  0.00     0.148 A 
ATOM     77  C   UNL A   1      39.982  36.059  38.050  1.00  0.00     0.002 A 
ATOM     78  C   UNL A   1      38.824  34.320  39.276  1.00  0.00     0.091 A 
ATOM     79  F   UNL A   1      38.618  32.151  38.305  1.00  0.00    -0.205 F 
ATOM     80  C   UNL A   1      39.307  35.634  39.192  1.00  0.00     0.022 A 
BRANCH  78  81
ATOM     81  S   UNL A   1      37.841  33.869  40.711  1.00  0.00     0.127 S 
ATOM     82  O   UNL A   1      36.673  33.247  40.093  1.00  0.00    -0.237 OA
ATOM     83  O   UNL A   1      38.724  32.944  41.423  1.00  0.00    -0.237 OA
ATOM     84  O   UNL A   1      37.611  35.124  41.414  1.00  0.00    -0.744 OA
ENDBRANCH  78  81
ENDBRANCH  50  74
BRANCH  62  85
ATOM     85  C   UNL A   1      44.222  28.805  35.423  1.00  0.00     0.023 A 
ATOM     86  C   UNL A   1      45.518  29.312  35.206  1.00  0.00     0.012 A 
ATOM     87  C   UNL A   1      44.028  27.787  36.377  1.00  0.00     0.148 A 
ATOM     88  C   UNL A   1      46.606  28.805  35.915  1.00  0.00     0.002 A 
ATOM     89  C   UNL A   1      45.114  27.307  37.103  1.00  0.00     0.091 A 
ATOM     90  F   UNL A   1      42.793  27.295  36.553  1.00  0.00    -0.205 F 
ATOM     91  C   UNL A   1      46.404  27.812  36.871  1.00  0.00     0.022 A 
BRANCH  89  92
ATOM     92  S   UNL A   1      44.908  26.082  38.401  1.00  0.00     0.127 S 
ATOM     93  O   UNL A   1      44.804  24.843  37.634  1.00  0.00    -0.237 OA
ATOM     94  O   UNL A   1      46.144  26.217  39.173  1.00  0.00    -0.237 OA
ATOM     95  O   UNL A   1      43.709  26.488  39.123  1.00  0.00    -0.744 OA
ENDBRANCH  89  92
ENDBRANCH  62  85
ENDBRANCH  36  37
ENDBRANCH  28  31
ENDBRANCH  26  27
ENDBRANCH  25  26
ENDBRANCH   1  25
TORSDOF 18
ENDMDL
MODEL 2
REMARK VINA RESULT:     -12.4      2.339      8.238
REMARK SMILES O=C(CC1(NC(=O)C2(c3ccccc3)CC2)CCC1)NCCCCNC(=O)c1ccc(-c2c3nc(c(-c4cccc(S(=O)(=O)[O-])c4F)c4ccc([nH]4)c(-c4cccc(S(=O)(=O)[O-])c4F)c4nc(c(-c5cccc(S(=O)(=O)[O-])c5F)c5ccc2[nH]5)C=C4)C=C3)cc1
REMARK SMILES IDX 22 1 21 2 20 3 1 4 2 5 3 7 4 8 17 9 19 10 18 11 5 12 6 13
REMARK SMILES IDX 7 15 8 16 15 17 16 18 9 19 10 20 14 21 11 22 13 23 12 24
REMARK SMILES IDX 23 25 24 26 25 27 26 28 27 30 28 31 29 32 90 33 30 34 89 35
REMARK SMILES IDX 31 36 32 37 33 38 83 39 34 40 88 41 82 42 84 43 35 44 87 45
REMARK SMILES IDX 81 46 80 47 36 49 68 50 48 51 67 52 49 53 52 54 66 55 85 56
REMARK SMILES IDX 50 57 51 58 65 60 86 61 53 62 37 63 38 64 46 65 39 66 41 67
REMARK SMILES IDX 47 68 40 69 42 70 43 71 44 72 45 73 69 74 70 75 78 76 71 77
REMARK SMILES IDX 73 78 79 79 72 80 74 81 75 82 76 83 77 84 54 85 55 86 63 87
REMARK SMILES IDX 56 88 58 89 64 90 57 91 59 92 60 93 61 94 62 95
REMARK H PARENT 20 6 5 14 25 29 84 48 52 59
REMARK Flexibility Score: inf
ROOT
ATOM      1  C   UNL A   1      31.539  28.316  24.233  1.00  0.00     0.023 C 
ENDROOT
BRANCH   1   2
ATOM      2  C   UNL A   1      32.951  27.954  23.780  1.00  0.00     0.116 C 
BRANCH   2   3
ATOM      3  N   UNL A   1      33.245  26.543  23.896  1.00  0.00    -0.356 N 
ATOM      4  O   UNL A   1      33.654  26.312  21.662  1.00  0.00    -0.275 OA
ATOM      5  C   UNL A   1      33.665  25.818  22.793  1.00  0.00     0.222 C 
ATOM      6  H   UNL A   1      33.145  26.094  24.766  1.00  0.00     0.163 HD
BRANCH   5   7
ATOM      7  C   UNL A   1      34.057  24.209  23.075  1.00  0.00     0.128 C 
BRANCH   7   8
ATOM      8  C   UNL A   1      35.191  23.186  24.630  1.00  0.00     0.049 C 
ATOM      9  C   UNL A   1      35.930  21.492  24.747  1.00  0.00     0.029 C 
ATOM     10  C   UNL A   1      36.930  23.425  25.248  1.00  0.00     0.029 C 
ATOM     11  C   UNL A   1      37.351  22.054  24.727  1.00  0.00     0.005 C 
BRANCH   8  12
ATOM     12  N   UNL A   1      34.587  22.988  26.364  1.00  0.00    -0.349 N 
ATOM     13  C   UNL A   1      33.433  22.339  26.791  1.00  0.00     0.231 C 
ATOM     14  H   UNL A   1      35.147  23.389  27.067  1.00  0.00     0.164 HD
ATOM     15  O   UNL A   1      33.253  21.923  27.925  1.00  0.00    -0.274 OA
BRANCH  13  16
ATOM     16  C   UNL A   1      32.418  22.304  25.728  1.00  0.00     0.074 C 
ATOM     17  C   UNL A   1      30.979  22.665  25.947  1.00  0.00     0.023 C 
ATOM     18  C   UNL A   1      31.860  23.561  25.117  1.00  0.00     0.023 C 
BRANCH  16  19
ATOM     19  C   UNL A   1      32.857  21.180  24.884  1.00  0.00    -0.032 A 
ATOM     20  C   UNL A   1      32.474  21.242  23.123  1.00  0.00     0.005 A 
ATOM     21  C   UNL A   1      32.906  19.564  25.734  1.00  0.00     0.005 A 
ATOM     22  C   UNL A   1      32.154  19.733  22.214  1.00  0.00     0.000 A 
ATOM     23  C   UNL A   1      32.543  18.066  24.824  1.00  0.00     0.000 A 
ATOM     24  C   UNL A   1      32.223  18.154  23.055  1.00  0.00     0.000 A 
ENDBRANCH  16  19
ENDBRANCH  13  16
ENDBRANCH   8  12
ENDBRANCH   7   8
ENDBRANCH   5   7
ENDBRANCH   2   3
ENDBRANCH   1   2
BRANCH   1  25
ATOM     25  C   UNL A   1      31.377  29.697  24.882  1.00  0.00     0.023 C 
BRANCH  25  26
ATOM     26  C   UNL A   1      32.404  30.071  25.951  1.00  0.00     0.116 C 
BRANCH  26  27
ATOM     27  N   UNL A   1      32.330  31.470  26.338  1.00  0.00    -0.352 N 
ATOM     28  C   UNL A   1      33.041  32.198  27.260  1.00  0.00     0.251 C 
ATOM     29  H   UNL A   1      31.648  31.988  25.853  1.00  0.00     0.163 HD
ATOM     30  O   UNL A   1      32.663  33.340  27.522  1.00  0.00    -0.269 OA
BRANCH  28  31
ATOM     31  C   UNL A   1      34.234  31.654  27.953  1.00  0.00     0.039 A 
ATOM     32  C   UNL A   1      35.284  32.532  28.251  1.00  0.00     0.014 A 
ATOM     33  C   UNL A   1      34.383  30.291  28.232  1.00  0.00     0.014 A 
ATOM     34  C   UNL A   1      36.448  32.063  28.869  1.00  0.00     0.010 A 
ATOM     35  C   UNL A   1      35.527  29.830  28.893  1.00  0.00     0.010 A 
ATOM     36  C   UNL A   1      36.572  30.710  29.217  1.00  0.00    -0.014 A 
BRANCH  36  37
ATOM     37  C   UNL A   1      37.773  30.210  29.939  1.00  0.00     0.031 A 
ATOM     38  C   UNL A   1      38.082  30.669  31.338  1.00  0.00     0.074 A 
ATOM     39  C   UNL A   1      38.633  29.387  29.304  1.00  0.00     0.049 A 
ATOM     40  N   UNL A   1      39.108  30.370  32.094  1.00  0.00    -0.248 NA
ATOM     41  C   UNL A   1      37.124  31.593  31.964  1.00  0.00     0.031 C 
ATOM     42  C   UNL A   1      38.484  28.914  27.927  1.00  0.00     0.029 A 
ATOM     43  N   UNL A   1      39.813  28.827  29.724  1.00  0.00    -0.354 N 
ATOM     44  C   UNL A   1      38.937  31.088  33.271  1.00  0.00     0.074 A 
ATOM     45  C   UNL A   1      37.715  31.851  33.124  1.00  0.00     0.031 C 
ATOM     46  C   UNL A   1      39.538  28.141  27.614  1.00  0.00     0.029 A 
ATOM     47  C   UNL A   1      40.442  28.077  28.759  1.00  0.00     0.049 A 
ATOM     48  H   UNL A   1      40.175  28.950  30.632  1.00  0.00     0.167 HD
ATOM     49  C   UNL A   1      39.710  31.093  34.384  1.00  0.00     0.034 A 
ATOM     50  C   UNL A   1      41.615  27.411  28.786  1.00  0.00     0.034 A 
ATOM     51  C   UNL A   1      40.894  30.296  34.560  1.00  0.00     0.049 A 
ATOM     52  C   UNL A   1      42.428  27.397  30.050  1.00  0.00     0.074 A 
ATOM     53  C   UNL A   1      41.694  30.181  35.685  1.00  0.00     0.029 A 
ATOM     54  N   UNL A   1      41.449  29.477  33.590  1.00  0.00    -0.354 N 
ATOM     55  N   UNL A   1      42.168  27.961  31.204  1.00  0.00    -0.248 NA
ATOM     56  C   UNL A   1      43.682  26.626  30.028  1.00  0.00     0.031 C 
ATOM     57  C   UNL A   1      42.730  29.285  35.396  1.00  0.00     0.029 A 
ATOM     58  C   UNL A   1      42.581  28.852  34.089  1.00  0.00     0.049 A 
ATOM     59  H   UNL A   1      41.093  29.358  32.681  1.00  0.00     0.167 HD
ATOM     60  C   UNL A   1      43.208  27.596  32.050  1.00  0.00     0.074 A 
ATOM     61  C   UNL A   1      44.093  26.743  31.284  1.00  0.00     0.031 C 
ATOM     62  C   UNL A   1      43.420  27.954  33.340  1.00  0.00     0.034 A 
BRANCH  49  63
ATOM     63  C   UNL A   1      39.250  31.934  35.543  1.00  0.00     0.023 A 
ATOM     64  C   UNL A   1      39.553  33.310  35.548  1.00  0.00     0.012 A 
ATOM     65  C   UNL A   1      38.473  31.391  36.583  1.00  0.00     0.148 A 
ATOM     66  C   UNL A   1      39.105  34.131  36.581  1.00  0.00     0.002 A 
ATOM     67  C   UNL A   1      38.007  32.223  37.598  1.00  0.00     0.091 A 
ATOM     68  F   UNL A   1      38.219  30.076  36.579  1.00  0.00    -0.205 F 
ATOM     69  C   UNL A   1      38.325  33.591  37.600  1.00  0.00     0.022 A 
BRANCH  67  70
ATOM     70  S   UNL A   1      36.950  31.606  38.913  1.00  0.00     0.127 S 
ATOM     71  O   UNL A   1      37.820  31.732  40.079  1.00  0.00    -0.237 OA
ATOM     72  O   UNL A   1      35.826  32.545  38.890  1.00  0.00    -0.237 OA
ATOM     73  O   UNL A   1      36.600  30.248  38.519  1.00  0.00    -0.744 OA
ENDBRANCH  67  70
ENDBRANCH  49  63
BRANCH  50  74
ATOM     74  C   UNL A   1      42.040  26.630  27.593  1.00  0.00     0.023 A 
ATOM     75  C   UNL A   1      42.777  27.274  26.581  1.00  0.00     0.012 A 
ATOM     76  C   UNL A   1      41.773  25.253  27.477  1.00  0.00     0.148 A 
ATOM     77  C   UNL A   1      43.229  26.565  25.469  1.00  0.00     0.002 A 
ATOM     78  C   UNL A   1      42.268  24.541  26.390  1.00  0.00     0.091 A 
ATOM     79  F   UNL A   1      41.049  24.659  28.436  1.00  0.00    -0.205 F 
ATOM     80  C   UNL A   1      42.987  25.196  25.378  1.00  0.00     0.022 A 
BRANCH  78  81
ATOM     81  S   UNL A   1      42.106  22.754  26.292  1.00  0.00     0.127 S 
ATOM     82  O   UNL A   1      42.803  22.321  27.499  1.00  0.00    -0.237 OA
ATOM     83  O   UNL A   1      40.654  22.566  26.320  1.00  0.00    -0.237 OA
ATOM     84  O   UNL A   1      42.722  22.394  25.022  1.00  0.00    -0.744 OA
ENDBRANCH  78  81
ENDBRANCH  50  74
BRANCH  62  85
ATOM     85  C   UNL A   1      44.654  27.425  34.017  1.00  0.00     0.023 A 
ATOM     86  C   UNL A   1      45.833  28.197  33.998  1.00  0.00     0.012 A 
ATOM     87  C   UNL A   1      44.633  26.213  34.734  1.00  0.00     0.148 A 
ATOM     88  C   UNL A   1      46.976  27.762  34.667  1.00  0.00     0.002 A 
ATOM     89  C   UNL A   1      45.769  25.801  35.424  1.00  0.00     0.091 A 
ATOM     90  F   UNL A   1      43.513  25.476  34.721  1.00  0.00    -0.205 F 
ATOM     91  C   UNL A   1      46.942  26.572  35.389  1.00  0.00     0.022 A 
BRANCH  89  92
ATOM     92  S   UNL A   1      45.765  24.315  36.435  1.00  0.00     0.127 S 
ATOM     93  O   UNL A   1      45.831  23.262  35.424  1.00  0.00    -0.237 OA
ATOM     94  O   UNL A   1      46.980  24.465  37.236  1.00  0.00    -0.237 OA
ATOM     95  O   UNL A   1      44.531  24.381  37.209  1.00  0.00    -0.744 OA
ENDBRANCH  89  92
ENDBRANCH  62  85
ENDBRANCH  36  37
ENDBRANCH  28  31
ENDBRANCH  26  27
ENDBRANCH  25  26
ENDBRANCH   1  25
TORSDOF 18
ENDMDL
MODEL 3
REMARK VINA RESULT:     -12.4      0.687      7.741
REMARK SMILES O=C(CC1(NC(=O)C2(c3ccccc3)CC2)CCC1)NCCCCNC(=O)c1ccc(-c2c3nc(c(-c4cccc(S(=O)(=O)[O-])c4F)c4ccc([nH]4)c(-c4cccc(S(=O)(=O)[O-])c4F)c4nc(c(-c5cccc(S(=O)(=O)[O-])c5F)c5ccc2[nH]5)C=C4)C=C3)cc1
REMARK SMILES IDX 22 1 21 2 20 3 1 4 2 5 3 7 4 8 17 9 19 10 18 11 5 12 6 13
REMARK SMILES IDX 7 15 8 16 15 17 16 18 9 19 10 20 14 21 11 22 13 23 12 24
REMARK SMILES IDX 23 25 24 26 25 27 26 28 27 30 28 31 29 32 90 33 30 34 89 35
REMARK SMILES IDX 31 36 32 37 33 38 83 39 34 40 88 41 82 42 84 43 35 44 87 45
REMARK SMILES IDX 81 46 80 47 36 49 68 50 48 51 67 52 49 53 52 54 66 55 85 56
REMARK SMILES IDX 50 57 51 58 65 60 86 61 53 62 37 63 38 64 46 65 39 66 41 67
REMARK SMILES IDX 47 68 40 69 42 70 43 71 44 72 45 73 69 74 70 75 78 76 71 77
REMARK SMILES IDX 73 78 79 79 72 80 74 81 75 82 76 83 77 84 54 85 55 86 63 87
REMARK SMILES IDX 56 88 58 89 64 90 57 91 59 92 60 93 61 94 62 95
REMARK H PARENT 20 6 5 14 25 29 84 48 52 59
REMARK Flexibility Score: inf
ROOT
ATOM      1  C   UNL A   1      31.465  30.893  26.197  1.00  0.00     0.023 C 
ENDROOT
BRANCH   1   2
ATOM      2  C   UNL A   1      32.218  29.814  26.971  1.00  0.00     0.116 C 
BRANCH   2   3
ATOM      3  N   UNL A   1      31.865  28.471  26.569  1.00  0.00    -0.356 N 
ATOM      4  O   UNL A   1      34.038  27.771  26.533  1.00  0.00    -0.275 OA
ATOM      5  C   UNL A   1      32.838  27.492  26.450  1.00  0.00     0.222 C 
ATOM      6  H   UNL A   1      30.925  28.249  26.378  1.00  0.00     0.163 HD
BRANCH   5   7
ATOM      7  C   UNL A   1      32.292  25.952  26.059  1.00  0.00     0.128 C 
BRANCH   7   8
ATOM      8  C   UNL A   1      32.343  24.755  24.239  1.00  0.00     0.049 C 
ATOM      9  C   UNL A   1      31.447  24.876  22.623  1.00  0.00     0.029 C 
ATOM     10  C   UNL A   1      33.640  24.574  22.916  1.00  0.00     0.029 C 
ATOM     11  C   UNL A   1      32.734  25.226  21.876  1.00  0.00     0.005 C 
BRANCH   8  12
ATOM     12  N   UNL A   1      32.042  22.934  24.212  1.00  0.00    -0.349 N 
ATOM     13  C   UNL A   1      32.219  22.029  25.254  1.00  0.00     0.231 C 
ATOM     14  H   UNL A   1      31.719  22.559  23.361  1.00  0.00     0.164 HD
ATOM     15  O   UNL A   1      31.686  20.933  25.317  1.00  0.00    -0.274 OA
BRANCH  13  16
ATOM     16  C   UNL A   1      33.207  22.523  26.225  1.00  0.00     0.074 C 
ATOM     17  C   UNL A   1      32.895  23.553  27.270  1.00  0.00     0.023 C 
ATOM     18  C   UNL A   1      33.162  22.128  27.677  1.00  0.00     0.023 C 
BRANCH  16  19
ATOM     19  C   UNL A   1      34.469  22.488  25.467  1.00  0.00    -0.032 A 
ATOM     20  C   UNL A   1      35.166  20.878  25.055  1.00  0.00     0.005 A 
ATOM     21  C   UNL A   1      35.589  23.893  25.791  1.00  0.00     0.005 A 
ATOM     22  C   UNL A   1      36.940  20.658  24.954  1.00  0.00     0.000 A 
ATOM     23  C   UNL A   1      37.362  23.653  25.730  1.00  0.00     0.000 A 
ATOM     24  C   UNL A   1      38.027  22.048  25.257  1.00  0.00     0.000 A 
ENDBRANCH  16  19
ENDBRANCH  13  16
ENDBRANCH   8  12
ENDBRANCH   7   8
ENDBRANCH   5   7
ENDBRANCH   2   3
ENDBRANCH   1   2
BRANCH   1  25
ATOM     25  C   UNL A   1      31.388  32.270  26.870  1.00  0.00     0.023 C 
BRANCH  25  26
ATOM     26  C   UNL A   1      32.709  33.021  27.038  1.00  0.00     0.116 C 
BRANCH  26  27
ATOM     27  N   UNL A   1      32.555  34.279  27.747  1.00  0.00    -0.352 N 
ATOM     28  C   UNL A   1      33.145  34.757  28.892  1.00  0.00     0.251 C 
ATOM     29  H   UNL A   1      31.914  34.901  27.333  1.00  0.00     0.163 HD
ATOM     30  O   UNL A   1      32.710  35.797  29.386  1.00  0.00    -0.269 OA
BRANCH  28  31
ATOM     31  C   UNL A   1      34.273  34.058  29.556  1.00  0.00     0.039 A 
ATOM     32  C   UNL A   1      35.574  34.332  29.111  1.00  0.00     0.014 A 
ATOM     33  C   UNL A   1      34.078  33.077  30.533  1.00  0.00     0.014 A 
ATOM     34  C   UNL A   1      36.670  33.672  29.677  1.00  0.00     0.010 A 
ATOM     35  C   UNL A   1      35.178  32.451  31.131  1.00  0.00     0.010 A 
ATOM     36  C   UNL A   1      36.484  32.741  30.708  1.00  0.00    -0.014 A 
BRANCH  36  37
ATOM     37  C   UNL A   1      37.646  32.084  31.367  1.00  0.00     0.031 A 
ATOM     38  C   UNL A   1      38.186  32.597  32.674  1.00  0.00     0.074 A 
ATOM     39  C   UNL A   1      38.264  31.056  30.749  1.00  0.00     0.049 A 
ATOM     40  N   UNL A   1      39.216  32.174  33.361  1.00  0.00    -0.248 NA
ATOM     41  C   UNL A   1      37.489  33.741  33.281  1.00  0.00     0.031 C 
ATOM     42  C   UNL A   1      37.880  30.500  29.452  1.00  0.00     0.029 A 
ATOM     43  N   UNL A   1      39.360  30.317  31.119  1.00  0.00    -0.354 N 
ATOM     44  C   UNL A   1      39.311  33.013  34.464  1.00  0.00     0.074 A 
ATOM     45  C   UNL A   1      38.241  33.982  34.347  1.00  0.00     0.031 C 
ATOM     46  C   UNL A   1      38.732  29.513  29.129  1.00  0.00     0.029 A 
ATOM     47  C   UNL A   1      39.730  29.377  30.187  1.00  0.00     0.049 A 
ATOM     48  H   UNL A   1      39.837  30.449  31.971  1.00  0.00     0.167 HD
ATOM     49  C   UNL A   1      40.189  32.967  35.495  1.00  0.00     0.034 A 
ATOM     50  C   UNL A   1      40.756  28.501  30.179  1.00  0.00     0.034 A 
ATOM     51  C   UNL A   1      41.219  31.975  35.648  1.00  0.00     0.049 A 
ATOM     52  C   UNL A   1      41.688  28.442  31.358  1.00  0.00     0.074 A 
ATOM     53  C   UNL A   1      42.103  31.807  36.700  1.00  0.00     0.029 A 
ATOM     54  N   UNL A   1      41.504  30.981  34.726  1.00  0.00    -0.354 N 
ATOM     55  N   UNL A   1      41.664  29.147  32.463  1.00  0.00    -0.248 NA
ATOM     56  C   UNL A   1      42.768  27.444  31.305  1.00  0.00     0.031 C 
ATOM     57  C   UNL A   1      42.919  30.705  36.417  1.00  0.00     0.029 A 
ATOM     58  C   UNL A   1      42.549  30.195  35.184  1.00  0.00     0.049 A 
ATOM     59  H   UNL A   1      41.033  30.852  33.871  1.00  0.00     0.167 HD
ATOM     60  C   UNL A   1      42.706  28.664  33.245  1.00  0.00     0.074 A 
ATOM     61  C   UNL A   1      43.329  27.590  32.498  1.00  0.00     0.031 C 
ATOM     62  C   UNL A   1      43.121  29.088  34.463  1.00  0.00     0.034 A 
BRANCH  49  63
ATOM     63  C   UNL A   1      40.022  33.981  36.593  1.00  0.00     0.023 A 
ATOM     64  C   UNL A   1      40.363  35.324  36.337  1.00  0.00     0.012 A 
ATOM     65  C   UNL A   1      39.475  33.631  37.841  1.00  0.00     0.148 A 
ATOM     66  C   UNL A   1      40.180  36.302  37.313  1.00  0.00     0.002 A 
ATOM     67  C   UNL A   1      39.271  34.617  38.802  1.00  0.00     0.091 A 
ATOM     68  F   UNL A   1      39.184  32.345  38.080  1.00  0.00    -0.205 F 
ATOM     69  C   UNL A   1      39.625  35.951  38.541  1.00  0.00     0.022 A 
BRANCH  67  70
ATOM     70  S   UNL A   1      38.509  34.247  40.387  1.00  0.00     0.127 S 
ATOM     71  O   UNL A   1      38.312  35.584  40.942  1.00  0.00    -0.237 OA
ATOM     72  O   UNL A   1      37.273  33.564  39.997  1.00  0.00    -0.237 OA
ATOM     73  O   UNL A   1      39.465  33.398  41.083  1.00  0.00    -0.744 OA
ENDBRANCH  67  70
ENDBRANCH  49  63
BRANCH  50  74
ATOM     74  C   UNL A   1      40.897  27.549  29.044  1.00  0.00     0.023 A 
ATOM     75  C   UNL A   1      40.068  26.412  28.999  1.00  0.00     0.012 A 
ATOM     76  C   UNL A   1      41.796  27.786  27.988  1.00  0.00     0.148 A 
ATOM     77  C   UNL A   1      40.142  25.520  27.930  1.00  0.00     0.002 A 
ATOM     78  C   UNL A   1      41.831  26.919  26.901  1.00  0.00     0.091 A 
ATOM     79  F   UNL A   1      42.596  28.859  28.057  1.00  0.00    -0.205 F 
ATOM     80  C   UNL A   1      41.013  25.779  26.874  1.00  0.00     0.022 A 
BRANCH  78  81
ATOM     81  S   UNL A   1      42.832  27.278  25.453  1.00  0.00     0.127 S 
ATOM     82  O   UNL A   1      44.140  27.539  26.046  1.00  0.00    -0.237 OA
ATOM     83  O   UNL A   1      42.742  26.033  24.688  1.00  0.00    -0.237 OA
ATOM     84  O   UNL A   1      42.171  28.409  24.815  1.00  0.00    -0.744 OA
ENDBRANCH  78  81
ENDBRANCH  50  74
BRANCH  62  85
ATOM     85  C   UNL A   1      44.304  28.392  35.079  1.00  0.00     0.023 A 
ATOM     86  C   UNL A   1      45.597  28.687  34.605  1.00  0.00     0.012 A 
ATOM     87  C   UNL A   1      44.151  27.512  36.168  1.00  0.00     0.148 A 
ATOM     88  C   UNL A   1      46.719  28.104  35.193  1.00  0.00     0.002 A 
ATOM     89  C   UNL A   1      45.276  26.958  36.770  1.00  0.00     0.091 A 
ATOM     90  F   UNL A   1      42.912  27.220  36.591  1.00  0.00    -0.205 F 
ATOM     91  C   UNL A   1      46.560  27.250  36.282  1.00  0.00     0.022 A 
BRANCH  89  92
ATOM     92  S   UNL A   1      45.143  25.910  38.223  1.00  0.00     0.127 S 
ATOM     93  O   UNL A   1      46.545  25.639  38.530  1.00  0.00    -0.237 OA
ATOM     94  O   UNL A   1      44.466  26.779  39.188  1.00  0.00    -0.237 OA
ATOM     95  O   UNL A   1      44.349  24.764  37.798  1.00  0.00    -0.744 OA
ENDBRANCH  89  92
ENDBRANCH  62  85
ENDBRANCH  36  37
ENDBRANCH  28  31
ENDBRANCH  26  27
ENDBRANCH  25  26
ENDBRANCH   1  25
TORSDOF 18
ENDMDL
