MODEL 1
REMARK VINA RESULT:     -11.8      0.000      0.000
REMARK SMILES [NH3+]C[C@@H](Cc1ccc(Br)cc1)C(=O)NCCCCNC(=O)c1ccc(-c2c3nc(c(-c4cccc(S(=O)(=O)[O-])c4F)c4ccc([nH]4)c(-c4cccc(S(=O)(=O)[O-])c4F)c4nc(c(-c5cccc(S(=O)(=O)[O-])c5F)c5ccc2[nH]5)C=C4)C=C3)cc1
REMARK SMILES IDX 17 1 16 2 15 3 14 4 12 5 13 6 3 8 2 9 1 10 4 14 5 15 6 16
REMARK SMILES IDX 11 17 7 18 10 19 8 20 9 21 18 22 19 23 20 24 21 26 22 27
REMARK SMILES IDX 23 28 84 29 24 30 83 31 25 32 26 33 27 34 77 35 28 36 82 37
REMARK SMILES IDX 76 38 78 39 29 40 81 41 75 42 74 43 30 45 62 46 42 47 61 48
REMARK SMILES IDX 43 49 46 50 60 51 79 52 44 53 45 54 59 56 80 57 47 58 31 59
REMARK SMILES IDX 32 60 40 61 33 62 35 63 41 64 34 65 36 66 37 67 38 68 39 69
REMARK SMILES IDX 63 70 64 71 72 72 65 73 67 74 73 75 66 76 68 77 69 78 70 79
REMARK SMILES IDX 71 80 48 81 49 82 57 83 50 84 52 85 58 86 51 87 53 88 54 89
REMARK SMILES IDX 55 90 56 91
REMARK H PARENT 14 7 1 11 1 12 1 13 19 25 78 44 46 55
REMARK Flexibility Score: inf
ROOT
ATOM      1  C   UNL A   1      31.828  30.294  25.765  1.00  0.00     0.023 C 
ENDROOT
BRANCH   1   2
ATOM      2  C   UNL A   1      31.913  28.840  25.298  1.00  0.00     0.023 C 
BRANCH   2   3
ATOM      3  C   UNL A   1      32.223  27.831  26.395  1.00  0.00     0.116 C 
BRANCH   3   4
ATOM      4  N   UNL A   1      31.114  26.960  26.721  1.00  0.00    -0.356 N 
ATOM      5  C   UNL A   1      30.381  26.127  25.938  1.00  0.00     0.229 C 
ATOM      6  O   UNL A   1      29.674  25.293  26.515  1.00  0.00    -0.275 OA
ATOM      7  H   UNL A   1      30.846  26.974  27.669  1.00  0.00     0.163 HD
BRANCH   5   8
ATOM      8  C   UNL A   1      30.391  26.157  24.407  1.00  0.00     0.137 C 
BRANCH   8   9
ATOM      9  C   UNL A   1      31.201  25.018  23.769  1.00  0.00     0.272 C 
BRANCH   9  10
ATOM     10  N   UNL A   1      30.650  23.684  24.030  1.00  0.00    -0.357 N 
ATOM     11  H   UNL A   1      31.409  23.043  24.268  1.00  0.00     0.344 HD
ATOM     12  H   UNL A   1      30.168  23.346  23.197  1.00  0.00     0.344 HD
ATOM     13  H   UNL A   1      29.991  23.733  24.807  1.00  0.00     0.344 HD
ENDBRANCH   9  10
ENDBRANCH   8   9
BRANCH   8  14
ATOM     14  C   UNL A   1      29.026  26.508  23.782  1.00  0.00     0.055 C 
BRANCH  14  15
ATOM     15  C   UNL A   1      28.848  27.876  23.172  1.00  0.00    -0.047 A 
ATOM     16  C   UNL A   1      27.622  28.551  23.257  1.00  0.00     0.005 A 
ATOM     17  C   UNL A   1      29.918  28.499  22.512  1.00  0.00     0.005 A 
ATOM     18  C   UNL A   1      27.484  29.841  22.737  1.00  0.00     0.016 A 
ATOM     19  C   UNL A   1      29.787  29.795  22.006  1.00  0.00     0.016 A 
ATOM     20  C   UNL A   1      28.572  30.462  22.128  1.00  0.00     0.017 A 
ATOM     21  Br  UNL A   1      28.397  32.226  21.474  1.00  0.00    -0.051 Br
ENDBRANCH  14  15
ENDBRANCH   8  14
ENDBRANCH   5   8
ENDBRANCH   3   4
ENDBRANCH   2   3
ENDBRANCH   1   2
BRANCH   1  22
ATOM     22  C   UNL A   1      32.541  30.635  27.076  1.00  0.00     0.116 C 
BRANCH  22  23
ATOM     23  N   UNL A   1      32.674  32.064  27.336  1.00  0.00    -0.352 N 
ATOM     24  C   UNL A   1      33.769  32.757  27.815  1.00  0.00     0.251 C 
ATOM     25  H   UNL A   1      31.876  32.608  27.145  1.00  0.00     0.163 HD
ATOM     26  O   UNL A   1      33.701  33.952  28.039  1.00  0.00    -0.269 OA
BRANCH  24  27
ATOM     27  C   UNL A   1      35.014  32.010  28.106  1.00  0.00     0.039 A 
ATOM     28  C   UNL A   1      36.209  32.727  28.222  1.00  0.00     0.014 A 
ATOM     29  C   UNL A   1      34.983  30.636  28.355  1.00  0.00     0.014 A 
ATOM     30  C   UNL A   1      37.350  32.083  28.705  1.00  0.00     0.010 A 
ATOM     31  C   UNL A   1      36.107  30.011  28.889  1.00  0.00     0.010 A 
ATOM     32  C   UNL A   1      37.289  30.737  29.105  1.00  0.00    -0.014 A 
BRANCH  32  33
ATOM     33  C   UNL A   1      38.403  30.113  29.861  1.00  0.00     0.031 A 
ATOM     34  C   UNL A   1      38.766  30.587  31.239  1.00  0.00     0.074 A 
ATOM     35  C   UNL A   1      39.171  29.191  29.242  1.00  0.00     0.049 A 
ATOM     36  N   UNL A   1      39.744  30.190  32.011  1.00  0.00    -0.248 NA
ATOM     37  C   UNL A   1      37.942  31.660  31.816  1.00  0.00     0.031 C 
ATOM     38  C   UNL A   1      38.981  28.722  27.866  1.00  0.00     0.029 A 
ATOM     39  N   UNL A   1      40.283  28.511  29.671  1.00  0.00    -0.354 N 
ATOM     40  C   UNL A   1      39.675  30.981  33.150  1.00  0.00     0.074 A 
ATOM     41  C   UNL A   1      38.570  31.897  32.961  1.00  0.00     0.031 C 
ATOM     42  C   UNL A   1      39.947  27.839  27.564  1.00  0.00     0.029 A 
ATOM     43  C   UNL A   1      40.835  27.693  28.711  1.00  0.00     0.049 A 
ATOM     44  H   UNL A   1      40.651  28.599  30.580  1.00  0.00     0.167 HD
ATOM     45  C   UNL A   1      40.444  30.930  34.263  1.00  0.00     0.034 A 
ATOM     46  C   UNL A   1      41.937  26.917  28.746  1.00  0.00     0.034 A 
ATOM     47  C   UNL A   1      41.510  29.986  34.469  1.00  0.00     0.049 A 
ATOM     48  C   UNL A   1      42.740  26.845  30.016  1.00  0.00     0.074 A 
ATOM     49  C   UNL A   1      42.266  29.778  35.610  1.00  0.00     0.029 A 
ATOM     50  N   UNL A   1      41.981  29.101  33.512  1.00  0.00    -0.354 N 
ATOM     51  N   UNL A   1      42.532  27.455  31.157  1.00  0.00    -0.248 NA
ATOM     52  C   UNL A   1      43.907  25.953  30.015  1.00  0.00     0.031 C 
ATOM     53  C   UNL A   1      43.205  28.777  35.337  1.00  0.00     0.029 A 
ATOM     54  C   UNL A   1      43.027  28.355  34.029  1.00  0.00     0.049 A 
ATOM     55  H   UNL A   1      41.624  29.015  32.598  1.00  0.00     0.167 HD
ATOM     56  C   UNL A   1      43.526  27.003  32.016  1.00  0.00     0.074 A 
ATOM     57  C   UNL A   1      44.318  26.045  31.273  1.00  0.00     0.031 C 
ATOM     58  C   UNL A   1      43.775  27.367  33.298  1.00  0.00     0.034 A 
BRANCH  45  59
ATOM     59  C   UNL A   1      40.121  31.877  35.387  1.00  0.00     0.023 A 
ATOM     60  C   UNL A   1      40.841  33.083  35.498  1.00  0.00     0.012 A 
ATOM     61  C   UNL A   1      39.054  31.623  36.271  1.00  0.00     0.148 A 
ATOM     62  C   UNL A   1      40.520  34.013  36.485  1.00  0.00     0.002 A 
ATOM     63  C   UNL A   1      38.717  32.570  37.230  1.00  0.00     0.091 A 
ATOM     64  F   UNL A   1      38.394  30.461  36.159  1.00  0.00    -0.205 F 
ATOM     65  C   UNL A   1      39.451  33.762  37.342  1.00  0.00     0.022 A 
BRANCH  63  66
ATOM     66  S   UNL A   1      37.317  32.377  38.339  1.00  0.00     0.127 S 
ATOM     67  O   UNL A   1      37.790  33.075  39.534  1.00  0.00    -0.237 OA
ATOM     68  O   UNL A   1      36.250  33.065  37.613  1.00  0.00    -0.237 OA
ATOM     69  O   UNL A   1      37.122  30.941  38.492  1.00  0.00    -0.744 OA
ENDBRANCH  63  66
ENDBRANCH  45  59
BRANCH  46  70
ATOM     70  C   UNL A   1      42.308  26.095  27.560  1.00  0.00     0.023 A 
ATOM     71  C   UNL A   1      43.087  26.672  26.539  1.00  0.00     0.012 A 
ATOM     72  C   UNL A   1      41.921  24.746  27.447  1.00  0.00     0.148 A 
ATOM     73  C   UNL A   1      43.445  25.933  25.411  1.00  0.00     0.002 A 
ATOM     74  C   UNL A   1      42.328  23.999  26.347  1.00  0.00     0.091 A 
ATOM     75  F   UNL A   1      41.163  24.216  28.418  1.00  0.00    -0.205 F 
ATOM     76  C   UNL A   1      43.075  24.593  25.320  1.00  0.00     0.022 A 
BRANCH  74  77
ATOM     77  S   UNL A   1      42.006  22.234  26.235  1.00  0.00     0.127 S 
ATOM     78  O   UNL A   1      40.549  22.199  26.148  1.00  0.00    -0.237 OA
ATOM     79  O   UNL A   1      42.707  21.866  25.004  1.00  0.00    -0.237 OA
ATOM     80  O   UNL A   1      42.593  21.666  27.442  1.00  0.00    -0.744 OA
ENDBRANCH  74  77
ENDBRANCH  46  70
BRANCH  58  81
ATOM     81  C   UNL A   1      44.948  26.724  33.989  1.00  0.00     0.023 A 
ATOM     82  C   UNL A   1      46.196  27.377  33.982  1.00  0.00     0.012 A 
ATOM     83  C   UNL A   1      44.799  25.518  34.701  1.00  0.00     0.148 A 
ATOM     84  C   UNL A   1      47.287  26.827  34.654  1.00  0.00     0.002 A 
ATOM     85  C   UNL A   1      45.880  24.998  35.404  1.00  0.00     0.091 A 
ATOM     86  F   UNL A   1      43.609  24.901  34.676  1.00  0.00    -0.205 F 
ATOM     87  C   UNL A   1      47.126  25.645  35.374  1.00  0.00     0.022 A 
BRANCH  85  88
ATOM     88  S   UNL A   1      45.738  23.529  36.430  1.00  0.00     0.127 S 
ATOM     89  O   UNL A   1      44.563  22.876  35.856  1.00  0.00    -0.237 OA
ATOM     90  O   UNL A   1      47.005  22.842  36.170  1.00  0.00    -0.237 OA
ATOM     91  O   UNL A   1      45.586  24.011  37.796  1.00  0.00    -0.744 OA
ENDBRANCH  85  88
ENDBRANCH  58  81
ENDBRANCH  32  33
ENDBRANCH  24  27
ENDBRANCH  22  23
ENDBRANCH   1  22
TORSDOF 18
ENDMDL
MODEL 2
REMARK VINA RESULT:     -11.7      5.861     11.006
REMARK SMILES [NH3+]C[C@@H](Cc1ccc(Br)cc1)C(=O)NCCCCNC(=O)c1ccc(-c2c3nc(c(-c4cccc(S(=O)(=O)[O-])c4F)c4ccc([nH]4)c(-c4cccc(S(=O)(=O)[O-])c4F)c4nc(c(-c5cccc(S(=O)(=O)[O-])c5F)c5ccc2[nH]5)C=C4)C=C3)cc1
REMARK SMILES IDX 17 1 16 2 15 3 14 4 12 5 13 6 3 8 2 9 1 10 4 14 5 15 6 16
REMARK SMILES IDX 11 17 7 18 10 19 8 20 9 21 18 22 19 23 20 24 21 26 22 27
REMARK SMILES IDX 23 28 84 29 24 30 83 31 25 32 26 33 27 34 77 35 28 36 82 37
REMARK SMILES IDX 76 38 78 39 29 40 81 41 75 42 74 43 30 45 62 46 42 47 61 48
REMARK SMILES IDX 43 49 46 50 60 51 79 52 44 53 45 54 59 56 80 57 47 58 31 59
REMARK SMILES IDX 32 60 40 61 33 62 35 63 41 64 34 65 36 66 37 67 38 68 39 69
REMARK SMILES IDX 63 70 64 71 72 72 65 73 67 74 73 75 66 76 68 77 69 78 70 79
REMARK SMILES IDX 71 80 48 81 49 82 57 83 50 84 52 85 58 86 51 87 53 88 54 89
REMARK SMILES IDX 55 90 56 91
REMARK H PARENT 14 7 1 11 1 12 1 13 19 25 78 44 46 55
REMARK Flexibility Score: inf
ROOT
ATOM      1  C   UNL A   1      36.909  22.026  23.846  1.00  0.00     0.023 C 
ENDROOT
BRANCH   1   2
ATOM      2  C   UNL A   1      35.898  23.152  23.621  1.00  0.00     0.023 C 
BRANCH   2   3
ATOM      3  C   UNL A   1      35.448  23.873  24.884  1.00  0.00     0.116 C 
BRANCH   3   4
ATOM      4  N   UNL A   1      34.371  24.817  24.669  1.00  0.00    -0.356 N 
ATOM      5  C   UNL A   1      33.032  24.692  24.862  1.00  0.00     0.229 C 
ATOM      6  O   UNL A   1      32.367  25.735  24.863  1.00  0.00    -0.275 OA
ATOM      7  H   UNL A   1      34.656  25.695  24.326  1.00  0.00     0.163 HD
BRANCH   5   8
ATOM      8  C   UNL A   1      32.317  23.357  25.084  1.00  0.00     0.137 C 
BRANCH   8   9
ATOM      9  C   UNL A   1      31.124  23.444  26.048  1.00  0.00     0.272 C 
BRANCH   9  10
ATOM     10  N   UNL A   1      30.345  22.204  26.138  1.00  0.00    -0.357 N 
ATOM     11  H   UNL A   1      30.246  21.796  25.208  1.00  0.00     0.344 HD
ATOM     12  H   UNL A   1      29.422  22.409  26.520  1.00  0.00     0.344 HD
ATOM     13  H   UNL A   1      30.826  21.544  26.749  1.00  0.00     0.344 HD
ENDBRANCH   9  10
ENDBRANCH   8   9
BRANCH   8  14
ATOM     14  C   UNL A   1      32.146  22.521  23.799  1.00  0.00     0.055 C 
BRANCH  14  15
ATOM     15  C   UNL A   1      32.619  21.089  23.808  1.00  0.00    -0.047 A 
ATOM     16  C   UNL A   1      33.521  20.632  24.779  1.00  0.00     0.005 A 
ATOM     17  C   UNL A   1      32.153  20.186  22.841  1.00  0.00     0.005 A 
ATOM     18  C   UNL A   1      33.909  19.290  24.813  1.00  0.00     0.016 A 
ATOM     19  C   UNL A   1      32.527  18.840  22.883  1.00  0.00     0.016 A 
ATOM     20  C   UNL A   1      33.399  18.398  23.874  1.00  0.00     0.017 A 
ATOM     21  Br  UNL A   1      33.884  16.574  23.954  1.00  0.00    -0.051 Br
ENDBRANCH  14  15
ENDBRANCH   8  14
ENDBRANCH   5   8
ENDBRANCH   3   4
ENDBRANCH   2   3
ENDBRANCH   1   2
BRANCH   1  22
ATOM     22  C   UNL A   1      37.144  21.598  25.297  1.00  0.00     0.116 C 
BRANCH  22  23
ATOM     23  N   UNL A   1      38.250  20.666  25.479  1.00  0.00    -0.352 N 
ATOM     24  C   UNL A   1      39.474  20.884  26.082  1.00  0.00     0.251 C 
ATOM     25  H   UNL A   1      38.106  19.759  25.125  1.00  0.00     0.163 HD
ATOM     26  O   UNL A   1      40.323  20.012  26.100  1.00  0.00    -0.269 OA
BRANCH  24  27
ATOM     27  C   UNL A   1      39.757  22.218  26.659  1.00  0.00     0.039 A 
ATOM     28  C   UNL A   1      40.773  22.329  27.612  1.00  0.00     0.014 A 
ATOM     29  C   UNL A   1      39.092  23.354  26.193  1.00  0.00     0.014 A 
ATOM     30  C   UNL A   1      41.205  23.597  28.010  1.00  0.00     0.010 A 
ATOM     31  C   UNL A   1      39.561  24.617  26.549  1.00  0.00     0.010 A 
ATOM     32  C   UNL A   1      40.647  24.749  27.431  1.00  0.00    -0.014 A 
BRANCH  32  33
ATOM     33  C   UNL A   1      41.263  26.084  27.636  1.00  0.00     0.031 A 
ATOM     34  C   UNL A   1      42.661  26.372  27.168  1.00  0.00     0.074 A 
ATOM     35  C   UNL A   1      40.593  27.002  28.364  1.00  0.00     0.049 A 
ATOM     36  N   UNL A   1      43.366  27.463  27.319  1.00  0.00    -0.248 NA
ATOM     37  C   UNL A   1      43.366  25.291  26.463  1.00  0.00     0.031 C 
ATOM     38  C   UNL A   1      39.269  26.803  28.961  1.00  0.00     0.029 A 
ATOM     39  N   UNL A   1      40.944  28.269  28.757  1.00  0.00    -0.354 N 
ATOM     40  C   UNL A   1      44.607  27.194  26.756  1.00  0.00     0.074 A 
ATOM     41  C   UNL A   1      44.566  25.828  26.278  1.00  0.00     0.031 C 
ATOM     42  C   UNL A   1      38.925  27.904  29.648  1.00  0.00     0.029 A 
ATOM     43  C   UNL A   1      40.007  28.878  29.561  1.00  0.00     0.049 A 
ATOM     44  H   UNL A   1      41.787  28.703  28.489  1.00  0.00     0.167 HD
ATOM     45  C   UNL A   1      45.673  28.019  26.626  1.00  0.00     0.034 A 
ATOM     46  C   UNL A   1      40.019  30.081  30.168  1.00  0.00     0.034 A 
ATOM     47  C   UNL A   1      45.693  29.391  27.058  1.00  0.00     0.049 A 
ATOM     48  C   UNL A   1      41.197  30.993  29.960  1.00  0.00     0.074 A 
ATOM     49  C   UNL A   1      46.682  30.339  26.862  1.00  0.00     0.029 A 
ATOM     50  N   UNL A   1      44.687  30.008  27.784  1.00  0.00    -0.354 N 
ATOM     51  N   UNL A   1      42.278  30.791  29.248  1.00  0.00    -0.248 NA
ATOM     52  C   UNL A   1      41.142  32.310  30.609  1.00  0.00     0.031 C 
ATOM     53  C   UNL A   1      46.280  31.527  27.482  1.00  0.00     0.029 A 
ATOM     54  C   UNL A   1      45.036  31.320  28.057  1.00  0.00     0.049 A 
ATOM     55  H   UNL A   1      43.847  29.578  28.063  1.00  0.00     0.167 HD
ATOM     56  C   UNL A   1      43.020  31.962  29.343  1.00  0.00     0.074 A 
ATOM     57  C   UNL A   1      42.251  32.880  30.157  1.00  0.00     0.031 C 
ATOM     58  C   UNL A   1      44.241  32.243  28.823  1.00  0.00     0.034 A 
BRANCH  45  59
ATOM     59  C   UNL A   1      46.892  27.488  25.922  1.00  0.00     0.023 A 
ATOM     60  C   UNL A   1      47.746  26.598  26.603  1.00  0.00     0.012 A 
ATOM     61  C   UNL A   1      47.144  27.792  24.570  1.00  0.00     0.148 A 
ATOM     62  C   UNL A   1      48.844  26.033  25.957  1.00  0.00     0.002 A 
ATOM     63  C   UNL A   1      48.221  27.198  23.922  1.00  0.00     0.091 A 
ATOM     64  F   UNL A   1      46.330  28.656  23.947  1.00  0.00    -0.205 F 
ATOM     65  C   UNL A   1      49.075  26.324  24.615  1.00  0.00     0.022 A 
BRANCH  63  66
ATOM     66  S   UNL A   1      48.568  27.453  22.178  1.00  0.00     0.127 S 
ATOM     67  O   UNL A   1      48.654  26.076  21.692  1.00  0.00    -0.237 OA
ATOM     68  O   UNL A   1      47.383  28.185  21.731  1.00  0.00    -0.237 OA
ATOM     69  O   UNL A   1      49.810  28.212  22.123  1.00  0.00    -0.744 OA
ENDBRANCH  63  66
ENDBRANCH  45  59
BRANCH  46  70
ATOM     70  C   UNL A   1      38.847  30.520  30.977  1.00  0.00     0.023 A 
ATOM     71  C   UNL A   1      38.844  30.289  32.366  1.00  0.00     0.012 A 
ATOM     72  C   UNL A   1      37.753  31.185  30.391  1.00  0.00     0.148 A 
ATOM     73  C   UNL A   1      37.759  30.680  33.152  1.00  0.00     0.002 A 
ATOM     74  C   UNL A   1      36.700  31.621  31.187  1.00  0.00     0.091 A 
ATOM     75  F   UNL A   1      37.761  31.381  29.064  1.00  0.00    -0.205 F 
ATOM     76  C   UNL A   1      36.692  31.356  32.564  1.00  0.00     0.022 A 
BRANCH  74  77
ATOM     77  S   UNL A   1      35.363  32.619  30.519  1.00  0.00     0.127 S 
ATOM     78  O   UNL A   1      36.062  33.841  30.135  1.00  0.00    -0.237 OA
ATOM     79  O   UNL A   1      34.889  31.800  29.402  1.00  0.00    -0.237 OA
ATOM     80  O   UNL A   1      34.403  32.743  31.609  1.00  0.00    -0.744 OA
ENDBRANCH  74  77
ENDBRANCH  46  70
BRANCH  58  81
ATOM     81  C   UNL A   1      44.823  33.601  29.109  1.00  0.00     0.023 A 
ATOM     82  C   UNL A   1      45.575  33.797  30.283  1.00  0.00     0.012 A 
ATOM     83  C   UNL A   1      44.689  34.657  28.186  1.00  0.00     0.148 A 
ATOM     84  C   UNL A   1      46.165  35.032  30.549  1.00  0.00     0.002 A 
ATOM     85  C   UNL A   1      45.316  35.872  28.437  1.00  0.00     0.091 A 
ATOM     86  F   UNL A   1      43.950  34.457  27.085  1.00  0.00    -0.205 F 
ATOM     87  C   UNL A   1      46.045  36.065  29.622  1.00  0.00     0.022 A 
BRANCH  85  88
ATOM     88  S   UNL A   1      45.288  37.226  27.256  1.00  0.00     0.127 S 
ATOM     89  O   UNL A   1      46.070  36.675  26.151  1.00  0.00    -0.237 OA
ATOM     90  O   UNL A   1      43.858  37.372  26.979  1.00  0.00    -0.237 OA
ATOM     91  O   UNL A   1      45.885  38.364  27.943  1.00  0.00    -0.744 OA
ENDBRANCH  85  88
ENDBRANCH  58  81
ENDBRANCH  32  33
ENDBRANCH  24  27
ENDBRANCH  22  23
ENDBRANCH   1  22
TORSDOF 18
ENDMDL
MODEL 3
REMARK VINA RESULT:     -11.7      2.497      3.441
REMARK SMILES [NH3+]C[C@@H](Cc1ccc(Br)cc1)C(=O)NCCCCNC(=O)c1ccc(-c2c3nc(c(-c4cccc(S(=O)(=O)[O-])c4F)c4ccc([nH]4)c(-c4cccc(S(=O)(=O)[O-])c4F)c4nc(c(-c5cccc(S(=O)(=O)[O-])c5F)c5ccc2[nH]5)C=C4)C=C3)cc1
REMARK SMILES IDX 17 1 16 2 15 3 14 4 12 5 13 6 3 8 2 9 1 10 4 14 5 15 6 16
REMARK SMILES IDX 11 17 7 18 10 19 8 20 9 21 18 22 19 23 20 24 21 26 22 27
REMARK SMILES IDX 23 28 84 29 24 30 83 31 25 32 26 33 27 34 77 35 28 36 82 37
REMARK SMILES IDX 76 38 78 39 29 40 81 41 75 42 74 43 30 45 62 46 42 47 61 48
REMARK SMILES IDX 43 49 46 50 60 51 79 52 44 53 45 54 59 56 80 57 47 58 31 59
REMARK SMILES IDX 32 60 40 61 33 62 35 63 41 64 34 65 36 66 37 67 38 68 39 69
REMARK SMILES IDX 63 70 64 71 72 72 65 73 67 74 73 75 66 76 68 77 69 78 70 79
REMARK SMILES IDX 71 80 48 81 49 82 57 83 50 84 52 85 58 86 51 87 53 88 54 89
REMARK SMILES IDX 55 90 56 91
REMARK H PARENT 14 7 1 11 1 12 1 13 19 25 78 44 46 55
REMARK Flexibility Score: inf
ROOT
ATOM      1  C   UNL A   1      31.780  29.972  25.441  1.00  0.00     0.023 C 
ENDROOT
BRANCH   1   2
ATOM      2  C   UNL A   1      32.685  29.162  24.510  1.00  0.00     0.023 C 
BRANCH   2   3
ATOM      3  C   UNL A   1      31.956  28.397  23.414  1.00  0.00     0.116 C 
BRANCH   3   4
ATOM      4  N   UNL A   1      32.827  27.595  22.580  1.00  0.00    -0.356 N 
ATOM      5  C   UNL A   1      33.213  26.297  22.693  1.00  0.00     0.229 C 
ATOM      6  O   UNL A   1      33.739  25.782  21.700  1.00  0.00    -0.275 OA
ATOM      7  H   UNL A   1      33.202  28.069  21.802  1.00  0.00     0.163 HD
BRANCH   5   8
ATOM      8  C   UNL A   1      33.026  25.452  23.955  1.00  0.00     0.137 C 
BRANCH   8   9
ATOM      9  C   UNL A   1      32.235  24.156  23.723  1.00  0.00     0.272 C 
BRANCH   9  10
ATOM     10  N   UNL A   1      31.253  24.250  22.637  1.00  0.00    -0.357 N 
ATOM     11  H   UNL A   1      31.172  23.345  22.172  1.00  0.00     0.344 HD
ATOM     12  H   UNL A   1      31.558  24.952  21.962  1.00  0.00     0.344 HD
ATOM     13  H   UNL A   1      30.346  24.518  23.019  1.00  0.00     0.344 HD
ENDBRANCH   9  10
ENDBRANCH   8   9
BRANCH   8  14
ATOM     14  C   UNL A   1      34.282  25.380  24.847  1.00  0.00     0.055 C 
BRANCH  14  15
ATOM     15  C   UNL A   1      35.076  24.098  24.862  1.00  0.00    -0.047 A 
ATOM     16  C   UNL A   1      35.054  23.248  25.977  1.00  0.00     0.005 A 
ATOM     17  C   UNL A   1      35.849  23.732  23.750  1.00  0.00     0.005 A 
ATOM     18  C   UNL A   1      35.748  22.035  25.960  1.00  0.00     0.016 A 
ATOM     19  C   UNL A   1      36.531  22.513  23.724  1.00  0.00     0.016 A 
ATOM     20  C   UNL A   1      36.471  21.667  24.828  1.00  0.00     0.017 A 
ATOM     21  Br  UNL A   1      37.365  20.004  24.787  1.00  0.00    -0.051 Br
ENDBRANCH  14  15
ENDBRANCH   8  14
ENDBRANCH   5   8
ENDBRANCH   3   4
ENDBRANCH   2   3
ENDBRANCH   1   2
BRANCH   1  22
ATOM     22  C   UNL A   1      32.360  30.337  26.810  1.00  0.00     0.116 C 
BRANCH  22  23
ATOM     23  N   UNL A   1      32.392  31.768  27.088  1.00  0.00    -0.352 N 
ATOM     24  C   UNL A   1      33.427  32.525  27.602  1.00  0.00     0.251 C 
ATOM     25  H   UNL A   1      31.566  32.261  26.882  1.00  0.00     0.163 HD
ATOM     26  O   UNL A   1      33.276  33.710  27.836  1.00  0.00    -0.269 OA
BRANCH  24  27
ATOM     27  C   UNL A   1      34.711  31.858  27.917  1.00  0.00     0.039 A 
ATOM     28  C   UNL A   1      35.853  32.649  28.073  1.00  0.00     0.014 A 
ATOM     29  C   UNL A   1      34.764  30.482  28.147  1.00  0.00     0.014 A 
ATOM     30  C   UNL A   1      37.021  32.076  28.579  1.00  0.00     0.010 A 
ATOM     31  C   UNL A   1      35.913  29.923  28.704  1.00  0.00     0.010 A 
ATOM     32  C   UNL A   1      37.039  30.723  28.960  1.00  0.00    -0.014 A 
BRANCH  32  33
ATOM     33  C   UNL A   1      38.172  30.162  29.738  1.00  0.00     0.031 A 
ATOM     34  C   UNL A   1      38.462  30.634  31.134  1.00  0.00     0.074 A 
ATOM     35  C   UNL A   1      39.018  29.307  29.126  1.00  0.00     0.049 A 
ATOM     36  N   UNL A   1      39.443  30.290  31.927  1.00  0.00    -0.248 NA
ATOM     37  C   UNL A   1      37.550  31.637  31.704  1.00  0.00     0.031 C 
ATOM     38  C   UNL A   1      38.901  28.853  27.737  1.00  0.00     0.029 A 
ATOM     39  N   UNL A   1      40.162  28.697  29.576  1.00  0.00    -0.354 N 
ATOM     40  C   UNL A   1      39.287  31.053  33.077  1.00  0.00     0.074 A 
ATOM     41  C   UNL A   1      38.127  31.894  32.871  1.00  0.00     0.031 C 
ATOM     42  C   UNL A   1      39.933  28.044  27.449  1.00  0.00     0.029 A 
ATOM     43  C   UNL A   1      40.796  27.937  28.619  1.00  0.00     0.049 A 
ATOM     44  H   UNL A   1      40.498  28.793  30.497  1.00  0.00     0.167 HD
ATOM     45  C   UNL A   1      40.027  31.034  34.211  1.00  0.00     0.034 A 
ATOM     46  C   UNL A   1      41.948  27.239  28.673  1.00  0.00     0.034 A 
ATOM     47  C   UNL A   1      41.149  30.161  34.432  1.00  0.00     0.049 A 
ATOM     48  C   UNL A   1      42.718  27.198  29.965  1.00  0.00     0.074 A 
ATOM     49  C   UNL A   1      41.885  29.984  35.591  1.00  0.00     0.029 A 
ATOM     50  N   UNL A   1      41.707  29.329  33.475  1.00  0.00    -0.354 N 
ATOM     51  N   UNL A   1      42.436  27.770  31.109  1.00  0.00    -0.248 NA
ATOM     52  C   UNL A   1      43.944  26.388  29.983  1.00  0.00     0.031 C 
ATOM     53  C   UNL A   1      42.898  29.056  35.329  1.00  0.00     0.029 A 
ATOM     54  C   UNL A   1      42.787  28.648  34.010  1.00  0.00     0.049 A 
ATOM     55  H   UNL A   1      41.382  29.236  32.550  1.00  0.00     0.167 HD
ATOM     56  C   UNL A   1      43.435  27.371  31.989  1.00  0.00     0.074 A 
ATOM     57  C   UNL A   1      44.311  26.484  31.254  1.00  0.00     0.031 C 
ATOM     58  C   UNL A   1      43.622  27.727  33.284  1.00  0.00     0.034 A 
BRANCH  45  59
ATOM     59  C   UNL A   1      39.607  31.935  35.341  1.00  0.00     0.023 A 
ATOM     60  C   UNL A   1      39.962  33.298  35.302  1.00  0.00     0.012 A 
ATOM     61  C   UNL A   1      38.790  31.462  36.387  1.00  0.00     0.148 A 
ATOM     62  C   UNL A   1      39.530  34.173  36.296  1.00  0.00     0.002 A 
ATOM     63  C   UNL A   1      38.334  32.347  37.356  1.00  0.00     0.091 A 
ATOM     64  F   UNL A   1      38.480  30.157  36.415  1.00  0.00    -0.205 F 
ATOM     65  C   UNL A   1      38.708  33.701  37.316  1.00  0.00     0.022 A 
BRANCH  63  66
ATOM     66  S   UNL A   1      37.217  31.856  38.674  1.00  0.00     0.127 S 
ATOM     67  O   UNL A   1      38.035  32.104  39.861  1.00  0.00    -0.237 OA
ATOM     68  O   UNL A   1      36.102  32.787  38.496  1.00  0.00    -0.237 OA
ATOM     69  O   UNL A   1      36.890  30.459  38.424  1.00  0.00    -0.744 OA
ENDBRANCH  63  66
ENDBRANCH  45  59
BRANCH  46  70
ATOM     70  C   UNL A   1      42.409  26.467  27.485  1.00  0.00     0.023 A 
ATOM     71  C   UNL A   1      43.197  27.108  26.510  1.00  0.00     0.012 A 
ATOM     72  C   UNL A   1      42.097  25.103  27.325  1.00  0.00     0.148 A 
ATOM     73  C   UNL A   1      43.638  26.417  25.382  1.00  0.00     0.002 A 
ATOM     74  C   UNL A   1      42.585  24.405  26.225  1.00  0.00     0.091 A 
ATOM     75  F   UNL A   1      41.328  24.511  28.250  1.00  0.00    -0.205 F 
ATOM     76  C   UNL A   1      43.341  25.063  25.244  1.00  0.00     0.022 A 
BRANCH  74  77
ATOM     77  S   UNL A   1      42.359  22.630  26.058  1.00  0.00     0.127 S 
ATOM     78  O   UNL A   1      40.905  22.510  26.063  1.00  0.00    -0.237 OA
ATOM     79  O   UNL A   1      42.998  22.353  24.771  1.00  0.00    -0.237 OA
ATOM     80  O   UNL A   1      43.056  22.052  27.201  1.00  0.00    -0.744 OA
ENDBRANCH  74  77
ENDBRANCH  46  70
BRANCH  58  81
ATOM     81  C   UNL A   1      44.816  27.153  33.998  1.00  0.00     0.023 A 
ATOM     82  C   UNL A   1      46.050  27.830  33.934  1.00  0.00     0.012 A 
ATOM     83  C   UNL A   1      44.702  25.991  34.786  1.00  0.00     0.148 A 
ATOM     84  C   UNL A   1      47.160  27.346  34.625  1.00  0.00     0.002 A 
ATOM     85  C   UNL A   1      45.802  25.539  35.506  1.00  0.00     0.091 A 
ATOM     86  F   UNL A   1      43.526  25.349  34.815  1.00  0.00    -0.205 F 
ATOM     87  C   UNL A   1      47.034  26.208  35.419  1.00  0.00     0.022 A 
BRANCH  85  88
ATOM     88  S   UNL A   1      45.705  24.134  36.622  1.00  0.00     0.127 S 
ATOM     89  O   UNL A   1      44.736  24.605  37.611  1.00  0.00    -0.237 OA
ATOM     90  O   UNL A   1      45.213  23.070  35.746  1.00  0.00    -0.237 OA
ATOM     91  O   UNL A   1      47.058  23.926  37.118  1.00  0.00    -0.744 OA
ENDBRANCH  85  88
ENDBRANCH  58  81
ENDBRANCH  32  33
ENDBRANCH  24  27
ENDBRANCH  22  23
ENDBRANCH   1  22
TORSDOF 18
ENDMDL
