MODEL 1
REMARK VINA RESULT:     -12.4      0.000      0.000
REMARK SMILES C[C@@]1(Oc2c[nH]c3ccc(Br)c(Cl)c23)O[C@@H](C(=O)NCCCCNC(=O)c2ccc(-c3c4nc(c(-c5cccc(S(=O)(=O)[O-])c5F)c5ccc([nH]5)c(-c5cccc(S(=O)(=O)[O-])c5F)c5nc(c(-c6cccc(S(=O)(=O)[O-])c6F)c6ccc3[nH]6)C=C5)C=C4)cc2)[C@@](C)(O)[C@@](C)(O)[C@@]1(C)O
REMARK SMILES IDX 22 1 21 2 20 3 19 4 17 5 18 6 16 8 1 9 2 10 15 11 96 12
REMARK SMILES IDX 93 13 97 14 90 15 94 16 91 17 3 18 4 19 5 20 14 21 6 22 7 23
REMARK SMILES IDX 12 24 8 26 10 27 13 28 9 29 11 30 98 31 95 33 92 35 23 37
REMARK SMILES IDX 24 38 25 39 26 41 27 42 28 43 89 44 29 45 88 46 30 47 31 48
REMARK SMILES IDX 32 49 82 50 33 51 87 52 81 53 83 54 34 55 86 56 80 57 79 58
REMARK SMILES IDX 35 60 67 61 47 62 66 63 48 64 51 65 65 66 84 67 49 68 50 69
REMARK SMILES IDX 64 71 85 72 52 73 36 74 37 75 45 76 38 77 40 78 46 79 39 80
REMARK SMILES IDX 41 81 42 82 43 83 44 84 68 85 69 86 77 87 70 88 72 89 78 90
REMARK SMILES IDX 71 91 73 92 74 93 75 94 76 95 53 96 54 97 62 98 55 99 57 100
REMARK SMILES IDX 63 101 56 102 58 103 59 104 60 105 61 106
REMARK H PARENT 19 7 6 25 98 32 95 34 92 36 24 40 83 59 51 70
REMARK Flexibility Score: inf
ROOT
ATOM      1  C   UNL A   1      38.016  19.775  25.011  1.00  0.00     0.023 C 
ENDROOT
BRANCH   1   2
ATOM      2  C   UNL A   1      37.243  20.967  24.454  1.00  0.00     0.023 C 
BRANCH   2   3
ATOM      3  C   UNL A   1      36.873  22.081  25.452  1.00  0.00     0.116 C 
BRANCH   3   4
ATOM      4  N   UNL A   1      35.695  21.810  26.310  1.00  0.00    -0.354 N 
ATOM      5  C   UNL A   1      34.338  21.674  26.127  1.00  0.00     0.252 C 
ATOM      6  O   UNL A   1      33.807  20.914  26.955  1.00  0.00    -0.272 OA
ATOM      7  H   UNL A   1      35.948  21.699  27.255  1.00  0.00     0.163 HD
BRANCH   5   8
ATOM      8  C   UNL A   1      33.376  22.456  25.104  1.00  0.00     0.246 C 
ATOM      9  C   UNL A   1      34.808  24.921  26.215  1.00  0.00     0.094 C 
ATOM     10  C   UNL A   1      33.426  24.828  25.537  1.00  0.00     0.240 C 
ATOM     11  O   UNL A   1      33.568  23.775  24.588  1.00  0.00    -0.322 OA
ATOM     12  C   UNL A   1      32.011  24.645  26.363  1.00  0.00     0.158 C 
ATOM     13  C   UNL A   1      31.406  23.155  26.513  1.00  0.00     0.128 C 
ATOM     14  C   UNL A   1      30.900  25.459  25.659  1.00  0.00     0.053 C 
ATOM     15  C   UNL A   1      31.858  22.220  25.362  1.00  0.00     0.129 C 
ATOM     16  C   UNL A   1      29.875  23.118  26.777  1.00  0.00     0.049 C 
ATOM     17  C   UNL A   1      31.062  22.414  24.054  1.00  0.00     0.049 C 
BRANCH  10  18
ATOM     18  O   UNL A   1      33.435  26.220  25.056  1.00  0.00    -0.457 OA
BRANCH  18  19
ATOM     19  C   UNL A   1      32.779  26.518  23.922  1.00  0.00     0.150 A 
ATOM     20  C   UNL A   1      32.646  25.734  22.807  1.00  0.00     0.130 A 
ATOM     21  C   UNL A   1      32.121  27.757  23.690  1.00  0.00     0.061 A 
ATOM     22  N   UNL A   1      31.755  26.373  21.983  1.00  0.00    -0.358 N 
ATOM     23  C   UNL A   1      31.283  27.516  22.599  1.00  0.00     0.051 A 
ATOM     24  C   UNL A   1      32.001  28.987  24.372  1.00  0.00     0.068 A 
ATOM     25  H   UNL A   1      31.492  26.064  21.086  1.00  0.00     0.166 HD
ATOM     26  C   UNL A   1      30.206  28.352  22.294  1.00  0.00     0.028 A 
ATOM     27  C   UNL A   1      30.870  29.772  24.163  1.00  0.00     0.037 A 
ATOM     28  Cl  UNL A   1      33.292  29.405  25.429  1.00  0.00    -0.082 Cl
ATOM     29  C   UNL A   1      29.968  29.436  23.153  1.00  0.00     0.019 A 
ATOM     30  Br  UNL A   1      30.450  31.241  25.292  1.00  0.00    -0.049 Br
ENDBRANCH  18  19
ENDBRANCH  10  18
BRANCH  12  31
ATOM     31  O   UNL A   1      32.117  25.272  27.660  1.00  0.00    -0.380 OA
ATOM     32  H   UNL A   1      32.579  26.121  27.572  1.00  0.00     0.211 HD
ENDBRANCH  12  31
BRANCH  13  33
ATOM     33  O   UNL A   1      31.798  22.508  27.734  1.00  0.00    -0.384 OA
ATOM     34  H   UNL A   1      31.495  21.588  27.724  1.00  0.00     0.211 HD
ENDBRANCH  13  33
BRANCH  15  35
ATOM     35  O   UNL A   1      31.635  20.840  25.731  1.00  0.00    -0.384 OA
ATOM     36  H   UNL A   1      31.996  20.259  25.042  1.00  0.00     0.211 HD
ENDBRANCH  15  35
ENDBRANCH   5   8
ENDBRANCH   3   4
ENDBRANCH   2   3
ENDBRANCH   1   2
BRANCH   1  37
ATOM     37  C   UNL A   1      39.259  20.136  25.810  1.00  0.00     0.116 C 
BRANCH  37  38
ATOM     38  N   UNL A   1      40.325  19.142  25.741  1.00  0.00    -0.352 N 
ATOM     39  C   UNL A   1      41.681  19.400  25.873  1.00  0.00     0.251 C 
ATOM     40  H   UNL A   1      40.058  18.207  25.585  1.00  0.00     0.163 HD
ATOM     41  O   UNL A   1      42.531  18.631  25.483  1.00  0.00    -0.269 OA
BRANCH  39  42
ATOM     42  C   UNL A   1      42.048  20.667  26.536  1.00  0.00     0.039 A 
ATOM     43  C   UNL A   1      42.478  21.765  25.790  1.00  0.00     0.014 A 
ATOM     44  C   UNL A   1      41.857  20.746  27.917  1.00  0.00     0.014 A 
ATOM     45  C   UNL A   1      42.648  22.983  26.440  1.00  0.00     0.010 A 
ATOM     46  C   UNL A   1      41.951  21.968  28.543  1.00  0.00     0.010 A 
ATOM     47  C   UNL A   1      42.367  23.080  27.811  1.00  0.00    -0.014 A 
BRANCH  47  48
ATOM     48  C   UNL A   1      42.423  24.376  28.473  1.00  0.00     0.031 A 
ATOM     49  C   UNL A   1      41.249  25.269  28.262  1.00  0.00     0.074 A 
ATOM     50  C   UNL A   1      43.373  24.677  29.383  1.00  0.00     0.049 A 
ATOM     51  N   UNL A   1      41.207  26.382  27.602  1.00  0.00    -0.248 NA
ATOM     52  C   UNL A   1      39.940  24.823  28.764  1.00  0.00     0.031 C 
ATOM     53  C   UNL A   1      44.400  23.795  29.949  1.00  0.00     0.029 A 
ATOM     54  N   UNL A   1      43.530  25.823  30.094  1.00  0.00    -0.354 N 
ATOM     55  C   UNL A   1      39.920  26.885  27.790  1.00  0.00     0.074 A 
ATOM     56  C   UNL A   1      39.143  25.817  28.364  1.00  0.00     0.031 C 
ATOM     57  C   UNL A   1      44.907  24.359  31.066  1.00  0.00     0.029 A 
ATOM     58  C   UNL A   1      44.371  25.699  31.194  1.00  0.00     0.049 A 
ATOM     59  H   UNL A   1      43.087  26.669  29.851  1.00  0.00     0.167 HD
ATOM     60  C   UNL A   1      39.636  28.213  27.674  1.00  0.00     0.034 A 
ATOM     61  C   UNL A   1      44.565  26.632  32.155  1.00  0.00     0.034 A 
ATOM     62  C   UNL A   1      40.714  28.948  27.072  1.00  0.00     0.049 A 
ATOM     63  C   UNL A   1      44.183  27.933  31.556  1.00  0.00     0.074 A 
ATOM     64  C   UNL A   1      41.363  28.927  25.856  1.00  0.00     0.029 A 
ATOM     65  N   UNL A   1      41.534  29.635  27.933  1.00  0.00    -0.354 N 
ATOM     66  N   UNL A   1      44.814  28.486  30.558  1.00  0.00    -0.248 NA
ATOM     67  C   UNL A   1      42.855  28.459  31.828  1.00  0.00     0.031 C 
ATOM     68  C   UNL A   1      42.730  29.191  26.168  1.00  0.00     0.029 A 
ATOM     69  C   UNL A   1      42.825  29.397  27.546  1.00  0.00     0.049 A 
ATOM     70  H   UNL A   1      41.246  30.194  28.690  1.00  0.00     0.167 HD
ATOM     71  C   UNL A   1      43.818  29.108  29.818  1.00  0.00     0.074 A 
ATOM     72  C   UNL A   1      42.667  29.171  30.714  1.00  0.00     0.031 C 
ATOM     73  C   UNL A   1      43.933  29.253  28.467  1.00  0.00     0.034 A 
BRANCH  60  74
ATOM     74  C   UNL A   1      38.534  28.927  28.411  1.00  0.00     0.023 A 
ATOM     75  C   UNL A   1      37.662  29.757  27.673  1.00  0.00     0.012 A 
ATOM     76  C   UNL A   1      38.482  29.029  29.819  1.00  0.00     0.148 A 
ATOM     77  C   UNL A   1      36.788  30.648  28.306  1.00  0.00     0.002 A 
ATOM     78  C   UNL A   1      37.555  29.856  30.444  1.00  0.00     0.091 A 
ATOM     79  F   UNL A   1      39.420  28.428  30.561  1.00  0.00    -0.205 F 
ATOM     80  C   UNL A   1      36.721  30.687  29.693  1.00  0.00     0.022 A 
BRANCH  78  81
ATOM     81  S   UNL A   1      37.403  29.899  32.233  1.00  0.00     0.127 S 
ATOM     82  O   UNL A   1      38.654  30.544  32.619  1.00  0.00    -0.237 OA
ATOM     83  O   UNL A   1      36.202  30.715  32.414  1.00  0.00    -0.237 OA
ATOM     84  O   UNL A   1      37.242  28.506  32.633  1.00  0.00    -0.744 OA
ENDBRANCH  78  81
ENDBRANCH  60  74
BRANCH  61  85
ATOM     85  C   UNL A   1      44.830  26.481  33.606  1.00  0.00     0.023 A 
ATOM     86  C   UNL A   1      46.103  26.832  34.102  1.00  0.00     0.012 A 
ATOM     87  C   UNL A   1      43.783  26.294  34.536  1.00  0.00     0.148 A 
ATOM     88  C   UNL A   1      46.310  27.062  35.467  1.00  0.00     0.002 A 
ATOM     89  C   UNL A   1      43.999  26.513  35.896  1.00  0.00     0.091 A 
ATOM     90  F   UNL A   1      42.556  26.003  34.085  1.00  0.00    -0.205 F 
ATOM     91  C   UNL A   1      45.256  26.917  36.362  1.00  0.00     0.022 A 
BRANCH  89  92
ATOM     92  S   UNL A   1      42.680  26.354  37.110  1.00  0.00     0.127 S 
ATOM     93  O   UNL A   1      41.805  27.476  36.763  1.00  0.00    -0.237 OA
ATOM     94  O   UNL A   1      42.135  25.035  36.796  1.00  0.00    -0.237 OA
ATOM     95  O   UNL A   1      43.325  26.483  38.410  1.00  0.00    -0.744 OA
ENDBRANCH  89  92
ENDBRANCH  61  85
BRANCH  73  96
ATOM     96  C   UNL A   1      45.271  28.967  27.835  1.00  0.00     0.023 A 
ATOM     97  C   UNL A   1      46.321  29.909  27.861  1.00  0.00     0.012 A 
ATOM     98  C   UNL A   1      45.539  27.655  27.414  1.00  0.00     0.148 A 
ATOM     99  C   UNL A   1      47.614  29.547  27.472  1.00  0.00     0.002 A 
ATOM    100  C   UNL A   1      46.833  27.289  27.067  1.00  0.00     0.091 A 
ATOM    101  F   UNL A   1      44.528  26.773  27.418  1.00  0.00    -0.205 F 
ATOM    102  C   UNL A   1      47.873  28.232  27.090  1.00  0.00     0.022 A 
BRANCH 100 103
ATOM    103  S   UNL A   1      47.268  25.591  26.680  1.00  0.00     0.127 S 
ATOM    104  O   UNL A   1      46.941  24.899  27.926  1.00  0.00    -0.237 OA
ATOM    105  O   UNL A   1      46.374  25.291  25.561  1.00  0.00    -0.237 OA
ATOM    106  O   UNL A   1      48.684  25.602  26.333  1.00  0.00    -0.744 OA
ENDBRANCH 100 103
ENDBRANCH  73  96
ENDBRANCH  47  48
ENDBRANCH  39  42
ENDBRANCH  37  38
ENDBRANCH   1  37
TORSDOF 19
ENDMDL
MODEL 2
REMARK VINA RESULT:     -12.4      3.092      8.219
REMARK SMILES C[C@@]1(Oc2c[nH]c3ccc(Br)c(Cl)c23)O[C@@H](C(=O)NCCCCNC(=O)c2ccc(-c3c4nc(c(-c5cccc(S(=O)(=O)[O-])c5F)c5ccc([nH]5)c(-c5cccc(S(=O)(=O)[O-])c5F)c5nc(c(-c6cccc(S(=O)(=O)[O-])c6F)c6ccc3[nH]6)C=C5)C=C4)cc2)[C@@](C)(O)[C@@](C)(O)[C@@]1(C)O
REMARK SMILES IDX 22 1 21 2 20 3 19 4 17 5 18 6 16 8 1 9 2 10 15 11 96 12
REMARK SMILES IDX 93 13 97 14 90 15 94 16 91 17 3 18 4 19 5 20 14 21 6 22 7 23
REMARK SMILES IDX 12 24 8 26 10 27 13 28 9 29 11 30 98 31 95 33 92 35 23 37
REMARK SMILES IDX 24 38 25 39 26 41 27 42 28 43 89 44 29 45 88 46 30 47 31 48
REMARK SMILES IDX 32 49 82 50 33 51 87 52 81 53 83 54 34 55 86 56 80 57 79 58
REMARK SMILES IDX 35 60 67 61 47 62 66 63 48 64 51 65 65 66 84 67 49 68 50 69
REMARK SMILES IDX 64 71 85 72 52 73 36 74 37 75 45 76 38 77 40 78 46 79 39 80
REMARK SMILES IDX 41 81 42 82 43 83 44 84 68 85 69 86 77 87 70 88 72 89 78 90
REMARK SMILES IDX 71 91 73 92 74 93 75 94 76 95 53 96 54 97 62 98 55 99 57 100
REMARK SMILES IDX 63 101 56 102 58 103 59 104 60 105 61 106
REMARK H PARENT 19 7 6 25 98 32 95 34 92 36 24 40 83 59 51 70
REMARK Flexibility Score: inf
ROOT
ATOM      1  C   UNL A   1      34.118  31.313  27.608  1.00  0.00     0.023 C 
ENDROOT
BRANCH   1   2
ATOM      2  C   UNL A   1      32.637  31.514  27.300  1.00  0.00     0.023 C 
BRANCH   2   3
ATOM      3  C   UNL A   1      31.845  30.270  26.856  1.00  0.00     0.116 C 
BRANCH   3   4
ATOM      4  N   UNL A   1      31.656  30.116  25.394  1.00  0.00    -0.354 N 
ATOM      5  C   UNL A   1      31.061  29.201  24.557  1.00  0.00     0.252 C 
ATOM      6  O   UNL A   1      30.635  29.705  23.504  1.00  0.00    -0.272 OA
ATOM      7  H   UNL A   1      32.060  30.860  24.893  1.00  0.00     0.163 HD
BRANCH   5   8
ATOM      8  C   UNL A   1      30.981  27.602  24.706  1.00  0.00     0.246 C 
ATOM      9  C   UNL A   1      33.907  27.900  25.548  1.00  0.00     0.094 C 
ATOM     10  C   UNL A   1      33.185  26.663  24.977  1.00  0.00     0.240 C 
ATOM     11  O   UNL A   1      31.854  26.770  25.472  1.00  0.00    -0.322 OA
ATOM     12  C   UNL A   1      33.154  26.281  23.374  1.00  0.00     0.158 C 
ATOM     13  C   UNL A   1      31.861  26.726  22.512  1.00  0.00     0.128 C 
ATOM     14  C   UNL A   1      33.231  24.744  23.212  1.00  0.00     0.053 C 
ATOM     15  C   UNL A   1      30.591  26.865  23.389  1.00  0.00     0.129 C 
ATOM     16  C   UNL A   1      31.638  25.883  21.226  1.00  0.00     0.049 C 
ATOM     17  C   UNL A   1      29.911  25.519  23.717  1.00  0.00     0.049 C 
BRANCH  10  18
ATOM     18  O   UNL A   1      34.099  25.692  25.603  1.00  0.00    -0.457 OA
BRANCH  18  19
ATOM     19  C   UNL A   1      33.585  24.573  26.141  1.00  0.00     0.150 A 
ATOM     20  C   UNL A   1      32.355  24.418  26.723  1.00  0.00     0.130 A 
ATOM     21  C   UNL A   1      34.283  23.336  26.214  1.00  0.00     0.061 A 
ATOM     22  N   UNL A   1      32.202  23.076  26.964  1.00  0.00    -0.358 N 
ATOM     23  C   UNL A   1      33.296  22.385  26.481  1.00  0.00     0.051 A 
ATOM     24  C   UNL A   1      35.587  22.887  25.915  1.00  0.00     0.068 A 
ATOM     25  H   UNL A   1      31.427  22.667  27.414  1.00  0.00     0.166 HD
ATOM     26  C   UNL A   1      33.504  21.021  26.260  1.00  0.00     0.028 A 
ATOM     27  C   UNL A   1      35.784  21.550  25.577  1.00  0.00     0.037 A 
ATOM     28  Cl  UNL A   1      36.838  24.065  25.989  1.00  0.00    -0.082 Cl
ATOM     29  C   UNL A   1      34.740  20.637  25.721  1.00  0.00     0.019 A 
ATOM     30  Br  UNL A   1      37.413  20.943  24.813  1.00  0.00    -0.049 Br
ENDBRANCH  18  19
ENDBRANCH  10  18
BRANCH  12  31
ATOM     31  O   UNL A   1      34.362  26.747  22.735  1.00  0.00    -0.380 OA
ATOM     32  H   UNL A   1      35.053  26.875  23.404  1.00  0.00     0.211 HD
ENDBRANCH  12  31
BRANCH  13  33
ATOM     33  O   UNL A   1      32.034  27.990  21.851  1.00  0.00    -0.384 OA
ATOM     34  H   UNL A   1      32.585  27.869  21.063  1.00  0.00     0.211 HD
ENDBRANCH  13  33
BRANCH  15  35
ATOM     35  O   UNL A   1      29.585  27.627  22.685  1.00  0.00    -0.384 OA
ATOM     36  H   UNL A   1      29.704  28.572  22.871  1.00  0.00     0.211 HD
ENDBRANCH  15  35
ENDBRANCH   5   8
ENDBRANCH   3   4
ENDBRANCH   2   3
ENDBRANCH   1   2
BRANCH   1  37
ATOM     37  C   UNL A   1      34.841  32.553  28.111  1.00  0.00     0.116 C 
BRANCH  37  38
ATOM     38  N   UNL A   1      34.557  32.889  29.502  1.00  0.00    -0.352 N 
ATOM     39  C   UNL A   1      35.103  32.264  30.613  1.00  0.00     0.251 C 
ATOM     40  H   UNL A   1      33.921  33.623  29.666  1.00  0.00     0.163 HD
ATOM     41  O   UNL A   1      34.602  32.338  31.713  1.00  0.00    -0.269 OA
BRANCH  39  42
ATOM     42  C   UNL A   1      36.350  31.505  30.394  1.00  0.00     0.039 A 
ATOM     43  C   UNL A   1      37.558  32.166  30.169  1.00  0.00     0.014 A 
ATOM     44  C   UNL A   1      36.283  30.115  30.514  1.00  0.00     0.014 A 
ATOM     45  C   UNL A   1      38.729  31.416  30.138  1.00  0.00     0.010 A 
ATOM     46  C   UNL A   1      37.449  29.385  30.560  1.00  0.00     0.010 A 
ATOM     47  C   UNL A   1      38.668  30.031  30.350  1.00  0.00    -0.014 A 
BRANCH  47  48
ATOM     48  C   UNL A   1      39.898  29.257  30.442  1.00  0.00     0.031 A 
ATOM     49  C   UNL A   1      40.540  29.207  31.786  1.00  0.00     0.074 A 
ATOM     50  C   UNL A   1      40.325  28.466  29.436  1.00  0.00     0.049 A 
ATOM     51  N   UNL A   1      41.663  29.739  32.148  1.00  0.00    -0.248 NA
ATOM     52  C   UNL A   1      39.799  28.571  32.885  1.00  0.00     0.031 C 
ATOM     53  C   UNL A   1      39.638  28.144  28.180  1.00  0.00     0.029 A 
ATOM     54  N   UNL A   1      41.427  27.673  29.393  1.00  0.00    -0.354 N 
ATOM     55  C   UNL A   1      41.875  29.320  33.461  1.00  0.00     0.074 A 
ATOM     56  C   UNL A   1      40.630  28.751  33.913  1.00  0.00     0.031 C 
ATOM     57  C   UNL A   1      40.216  27.060  27.619  1.00  0.00     0.029 A 
ATOM     58  C   UNL A   1      41.404  26.723  28.379  1.00  0.00     0.049 A 
ATOM     59  H   UNL A   1      42.177  27.764  30.025  1.00  0.00     0.167 HD
ATOM     60  C   UNL A   1      43.119  29.260  34.013  1.00  0.00     0.034 A 
ATOM     61  C   UNL A   1      42.287  25.710  28.218  1.00  0.00     0.034 A 
ATOM     62  C   UNL A   1      44.102  29.932  33.209  1.00  0.00     0.049 A 
ATOM     63  C   UNL A   1      43.519  26.114  28.936  1.00  0.00     0.074 A 
ATOM     64  C   UNL A   1      44.301  31.224  32.772  1.00  0.00     0.029 A 
ATOM     65  N   UNL A   1      44.882  29.132  32.411  1.00  0.00    -0.354 N 
ATOM     66  N   UNL A   1      44.259  27.131  28.593  1.00  0.00    -0.248 NA
ATOM     67  C   UNL A   1      43.738  25.604  30.280  1.00  0.00     0.031 C 
ATOM     68  C   UNL A   1      44.821  31.086  31.450  1.00  0.00     0.029 A 
ATOM     69  C   UNL A   1      44.945  29.722  31.178  1.00  0.00     0.049 A 
ATOM     70  H   UNL A   1      45.316  28.289  32.677  1.00  0.00     0.167 HD
ATOM     71  C   UNL A   1      44.711  27.655  29.796  1.00  0.00     0.074 A 
ATOM     72  C   UNL A   1      44.471  26.602  30.779  1.00  0.00     0.031 C 
ATOM     73  C   UNL A   1      44.971  28.987  29.930  1.00  0.00     0.034 A 
BRANCH  60  74
ATOM     74  C   UNL A   1      43.535  28.304  35.101  1.00  0.00     0.023 A 
ATOM     75  C   UNL A   1      44.162  28.831  36.252  1.00  0.00     0.012 A 
ATOM     76  C   UNL A   1      43.581  26.903  34.927  1.00  0.00     0.148 A 
ATOM     77  C   UNL A   1      44.806  28.004  37.178  1.00  0.00     0.002 A 
ATOM     78  C   UNL A   1      44.152  26.080  35.890  1.00  0.00     0.091 A 
ATOM     79  F   UNL A   1      43.193  26.368  33.763  1.00  0.00    -0.205 F 
ATOM     80  C   UNL A   1      44.788  26.625  37.007  1.00  0.00     0.022 A 
BRANCH  78  81
ATOM     81  S   UNL A   1      44.105  24.292  35.733  1.00  0.00     0.127 S 
ATOM     82  O   UNL A   1      44.734  23.871  36.981  1.00  0.00    -0.237 OA
ATOM     83  O   UNL A   1      42.668  24.034  35.644  1.00  0.00    -0.237 OA
ATOM     84  O   UNL A   1      44.839  23.999  34.508  1.00  0.00    -0.744 OA
ENDBRANCH  78  81
ENDBRANCH  60  74
BRANCH  61  85
ATOM     85  C   UNL A   1      42.094  24.334  27.700  1.00  0.00     0.023 A 
ATOM     86  C   UNL A   1      40.798  23.776  27.724  1.00  0.00     0.012 A 
ATOM     87  C   UNL A   1      43.079  23.691  26.918  1.00  0.00     0.148 A 
ATOM     88  C   UNL A   1      40.474  22.663  26.940  1.00  0.00     0.002 A 
ATOM     89  C   UNL A   1      42.754  22.574  26.150  1.00  0.00     0.091 A 
ATOM     90  F   UNL A   1      44.305  24.226  26.846  1.00  0.00    -0.205 F 
ATOM     91  C   UNL A   1      41.447  22.070  26.143  1.00  0.00     0.022 A 
BRANCH  89  92
ATOM     92  S   UNL A   1      43.958  21.762  25.087  1.00  0.00     0.127 S 
ATOM     93  O   UNL A   1      43.402  20.413  24.967  1.00  0.00    -0.237 OA
ATOM     94  O   UNL A   1      43.880  22.565  23.870  1.00  0.00    -0.237 OA
ATOM     95  O   UNL A   1      45.223  21.821  25.810  1.00  0.00    -0.744 OA
ENDBRANCH  89  92
ENDBRANCH  61  85
BRANCH  73  96
ATOM     96  C   UNL A   1      45.013  29.829  28.681  1.00  0.00     0.023 A 
ATOM     97  C   UNL A   1      43.838  30.191  27.989  1.00  0.00     0.012 A 
ATOM     98  C   UNL A   1      46.228  30.443  28.334  1.00  0.00     0.148 A 
ATOM     99  C   UNL A   1      43.875  31.148  26.971  1.00  0.00     0.002 A 
ATOM    100  C   UNL A   1      46.254  31.421  27.349  1.00  0.00     0.091 A 
ATOM    101  F   UNL A   1      47.327  30.095  29.020  1.00  0.00    -0.205 F 
ATOM    102  C   UNL A   1      45.081  31.774  26.661  1.00  0.00     0.022 A 
BRANCH 100 103
ATOM    103  S   UNL A   1      47.741  32.355  26.979  1.00  0.00     0.127 S 
ATOM    104  O   UNL A   1      48.069  32.937  28.279  1.00  0.00    -0.237 OA
ATOM    105  O   UNL A   1      48.658  31.308  26.528  1.00  0.00    -0.237 OA
ATOM    106  O   UNL A   1      47.372  33.316  25.947  1.00  0.00    -0.744 OA
ENDBRANCH 100 103
ENDBRANCH  73  96
ENDBRANCH  47  48
ENDBRANCH  39  42
ENDBRANCH  37  38
ENDBRANCH   1  37
TORSDOF 19
ENDMDL
MODEL 3
REMARK VINA RESULT:     -12.3      3.344      8.163
REMARK SMILES C[C@@]1(Oc2c[nH]c3ccc(Br)c(Cl)c23)O[C@@H](C(=O)NCCCCNC(=O)c2ccc(-c3c4nc(c(-c5cccc(S(=O)(=O)[O-])c5F)c5ccc([nH]5)c(-c5cccc(S(=O)(=O)[O-])c5F)c5nc(c(-c6cccc(S(=O)(=O)[O-])c6F)c6ccc3[nH]6)C=C5)C=C4)cc2)[C@@](C)(O)[C@@](C)(O)[C@@]1(C)O
REMARK SMILES IDX 22 1 21 2 20 3 19 4 17 5 18 6 16 8 1 9 2 10 15 11 96 12
REMARK SMILES IDX 93 13 97 14 90 15 94 16 91 17 3 18 4 19 5 20 14 21 6 22 7 23
REMARK SMILES IDX 12 24 8 26 10 27 13 28 9 29 11 30 98 31 95 33 92 35 23 37
REMARK SMILES IDX 24 38 25 39 26 41 27 42 28 43 89 44 29 45 88 46 30 47 31 48
REMARK SMILES IDX 32 49 82 50 33 51 87 52 81 53 83 54 34 55 86 56 80 57 79 58
REMARK SMILES IDX 35 60 67 61 47 62 66 63 48 64 51 65 65 66 84 67 49 68 50 69
REMARK SMILES IDX 64 71 85 72 52 73 36 74 37 75 45 76 38 77 40 78 46 79 39 80
REMARK SMILES IDX 41 81 42 82 43 83 44 84 68 85 69 86 77 87 70 88 72 89 78 90
REMARK SMILES IDX 71 91 73 92 74 93 75 94 76 95 53 96 54 97 62 98 55 99 57 100
REMARK SMILES IDX 63 101 56 102 58 103 59 104 60 105 61 106
REMARK H PARENT 19 7 6 25 98 32 95 34 92 36 24 40 83 59 51 70
REMARK Flexibility Score: inf
ROOT
ATOM      1  C   UNL A   1      33.539  32.265  27.474  1.00  0.00     0.023 C 
ENDROOT
BRANCH   1   2
ATOM      2  C   UNL A   1      33.524  30.833  26.950  1.00  0.00     0.023 C 
BRANCH   2   3
ATOM      3  C   UNL A   1      32.146  30.156  26.816  1.00  0.00     0.116 C 
BRANCH   3   4
ATOM      4  N   UNL A   1      31.389  30.480  25.584  1.00  0.00    -0.354 N 
ATOM      5  C   UNL A   1      30.652  29.783  24.655  1.00  0.00     0.252 C 
ATOM      6  O   UNL A   1      29.749  30.462  24.137  1.00  0.00    -0.272 OA
ATOM      7  H   UNL A   1      31.421  31.442  25.376  1.00  0.00     0.163 HD
BRANCH   5   8
ATOM      8  C   UNL A   1      30.898  28.301  24.080  1.00  0.00     0.246 C 
ATOM      9  C   UNL A   1      31.880  27.755  26.925  1.00  0.00     0.094 C 
ATOM     10  C   UNL A   1      32.215  26.999  25.623  1.00  0.00     0.240 C 
ATOM     11  O   UNL A   1      31.029  27.099  24.841  1.00  0.00    -0.322 OA
ATOM     12  C   UNL A   1      33.530  27.330  24.685  1.00  0.00     0.158 C 
ATOM     13  C   UNL A   1      33.326  28.291  23.402  1.00  0.00     0.128 C 
ATOM     14  C   UNL A   1      34.091  26.008  24.108  1.00  0.00     0.053 C 
ATOM     15  C   UNL A   1      31.873  28.251  22.865  1.00  0.00     0.129 C 
ATOM     16  C   UNL A   1      34.402  28.107  22.297  1.00  0.00     0.049 C 
ATOM     17  C   UNL A   1      31.566  27.017  21.991  1.00  0.00     0.049 C 
BRANCH  10  18
ATOM     18  O   UNL A   1      32.513  25.724  26.298  1.00  0.00    -0.457 OA
BRANCH  18  19
ATOM     19  C   UNL A   1      31.836  24.624  25.933  1.00  0.00     0.150 A 
ATOM     20  C   UNL A   1      30.487  24.508  25.722  1.00  0.00     0.130 A 
ATOM     21  C   UNL A   1      32.439  23.353  25.727  1.00  0.00     0.061 A 
ATOM     22  N   UNL A   1      30.278  23.258  25.197  1.00  0.00    -0.358 N 
ATOM     23  C   UNL A   1      31.489  22.617  25.017  1.00  0.00     0.051 A 
ATOM     24  C   UNL A   1      33.728  22.802  25.897  1.00  0.00     0.068 A 
ATOM     25  H   UNL A   1      29.397  22.876  24.979  1.00  0.00     0.166 HD
ATOM     26  C   UNL A   1      31.827  21.464  24.303  1.00  0.00     0.028 A 
ATOM     27  C   UNL A   1      34.116  21.725  25.102  1.00  0.00     0.037 A 
ATOM     28  Cl  UNL A   1      34.724  23.537  27.091  1.00  0.00    -0.082 Cl
ATOM     29  C   UNL A   1      33.177  21.086  24.292  1.00  0.00     0.019 A 
ATOM     30  Br  UNL A   1      35.926  21.160  25.001  1.00  0.00    -0.049 Br
ENDBRANCH  18  19
ENDBRANCH  10  18
BRANCH  12  31
ATOM     31  O   UNL A   1      34.609  27.822  25.510  1.00  0.00    -0.380 OA
ATOM     32  H   UNL A   1      35.379  28.015  24.952  1.00  0.00     0.211 HD
ENDBRANCH  12  31
BRANCH  13  33
ATOM     33  O   UNL A   1      33.614  29.670  23.682  1.00  0.00    -0.384 OA
ATOM     34  H   UNL A   1      34.341  29.725  24.321  1.00  0.00     0.211 HD
ENDBRANCH  13  33
BRANCH  15  35
ATOM     35  O   UNL A   1      31.634  29.386  22.002  1.00  0.00    -0.384 OA
ATOM     36  H   UNL A   1      31.932  30.198  22.444  1.00  0.00     0.211 HD
ENDBRANCH  15  35
ENDBRANCH   5   8
ENDBRANCH   3   4
ENDBRANCH   2   3
ENDBRANCH   1   2
BRANCH   1  37
ATOM     37  C   UNL A   1      34.801  32.657  28.229  1.00  0.00     0.116 C 
BRANCH  37  38
ATOM     38  N   UNL A   1      34.598  32.895  29.654  1.00  0.00    -0.352 N 
ATOM     39  C   UNL A   1      35.247  32.231  30.685  1.00  0.00     0.251 C 
ATOM     40  H   UNL A   1      33.943  33.586  29.905  1.00  0.00     0.163 HD
ATOM     41  O   UNL A   1      34.820  32.215  31.818  1.00  0.00    -0.269 OA
BRANCH  39  42
ATOM     42  C   UNL A   1      36.509  31.550  30.337  1.00  0.00     0.039 A 
ATOM     43  C   UNL A   1      37.707  32.261  30.258  1.00  0.00     0.014 A 
ATOM     44  C   UNL A   1      36.466  30.162  30.184  1.00  0.00     0.014 A 
ATOM     45  C   UNL A   1      38.891  31.549  30.095  1.00  0.00     0.010 A 
ATOM     46  C   UNL A   1      37.644  29.455  30.101  1.00  0.00     0.010 A 
ATOM     47  C   UNL A   1      38.853  30.148  30.034  1.00  0.00    -0.014 A 
BRANCH  47  48
ATOM     48  C   UNL A   1      40.096  29.390  29.987  1.00  0.00     0.031 A 
ATOM     49  C   UNL A   1      40.737  29.106  31.303  1.00  0.00     0.074 A 
ATOM     50  C   UNL A   1      40.537  28.804  28.856  1.00  0.00     0.049 A 
ATOM     51  N   UNL A   1      41.851  29.581  31.760  1.00  0.00    -0.248 NA
ATOM     52  C   UNL A   1      40.006  28.268  32.264  1.00  0.00     0.031 C 
ATOM     53  C   UNL A   1      39.857  28.706  27.560  1.00  0.00     0.029 A 
ATOM     54  N   UNL A   1      41.652  28.051  28.673  1.00  0.00    -0.354 N 
ATOM     55  C   UNL A   1      42.068  28.933  32.976  1.00  0.00     0.074 A 
ATOM     56  C   UNL A   1      40.833  28.271  33.311  1.00  0.00     0.031 C 
ATOM     57  C   UNL A   1      40.453  27.752  26.813  1.00  0.00     0.029 A 
ATOM     58  C   UNL A   1      41.646  27.301  27.502  1.00  0.00     0.049 A 
ATOM     59  H   UNL A   1      42.399  28.036  29.314  1.00  0.00     0.167 HD
ATOM     60  C   UNL A   1      43.313  28.793  33.512  1.00  0.00     0.034 A 
ATOM     61  C   UNL A   1      42.546  26.349  27.163  1.00  0.00     0.034 A 
ATOM     62  C   UNL A   1      44.285  29.617  32.848  1.00  0.00     0.049 A 
ATOM     63  C   UNL A   1      43.770  26.635  27.948  1.00  0.00     0.074 A 
ATOM     64  C   UNL A   1      44.463  30.970  32.655  1.00  0.00     0.029 A 
ATOM     65  N   UNL A   1      45.080  28.989  31.921  1.00  0.00    -0.354 N 
ATOM     66  N   UNL A   1      44.493  27.710  27.799  1.00  0.00    -0.248 NA
ATOM     67  C   UNL A   1      43.996  25.892  29.177  1.00  0.00     0.031 C 
ATOM     68  C   UNL A   1      44.986  31.084  31.333  1.00  0.00     0.029 A 
ATOM     69  C   UNL A   1      45.133  29.795  30.816  1.00  0.00     0.049 A 
ATOM     70  H   UNL A   1      45.527  28.119  32.031  1.00  0.00     0.167 HD
ATOM     71  C   UNL A   1      44.935  28.012  29.080  1.00  0.00     0.074 A 
ATOM     72  C   UNL A   1      44.712  26.794  29.853  1.00  0.00     0.031 C 
ATOM     73  C   UNL A   1      45.173  29.302  29.456  1.00  0.00     0.034 A 
BRANCH  60  74
ATOM     74  C   UNL A   1      43.744  27.662  34.409  1.00  0.00     0.023 A 
ATOM     75  C   UNL A   1      44.393  27.979  35.622  1.00  0.00     0.012 A 
ATOM     76  C   UNL A   1      43.780  26.313  33.992  1.00  0.00     0.148 A 
ATOM     77  C   UNL A   1      45.050  27.002  36.379  1.00  0.00     0.002 A 
ATOM     78  C   UNL A   1      44.364  25.333  34.787  1.00  0.00     0.091 A 
ATOM     79  F   UNL A   1      43.369  25.990  32.760  1.00  0.00    -0.205 F 
ATOM     80  C   UNL A   1      45.022  25.674  35.970  1.00  0.00     0.022 A 
BRANCH  78  81
ATOM     81  S   UNL A   1      44.307  23.600  34.321  1.00  0.00     0.127 S 
ATOM     82  O   UNL A   1      45.103  22.985  35.379  1.00  0.00    -0.237 OA
ATOM     83  O   UNL A   1      42.872  23.319  34.380  1.00  0.00    -0.237 OA
ATOM     84  O   UNL A   1      44.868  23.550  32.976  1.00  0.00    -0.744 OA
ENDBRANCH  78  81
ENDBRANCH  60  74
BRANCH  61  85
ATOM     85  C   UNL A   1      42.376  25.088  26.401  1.00  0.00     0.023 A 
ATOM     86  C   UNL A   1      43.337  24.752  25.424  1.00  0.00     0.012 A 
ATOM     87  C   UNL A   1      41.476  24.083  26.821  1.00  0.00     0.148 A 
ATOM     88  C   UNL A   1      43.448  23.445  24.937  1.00  0.00     0.002 A 
ATOM     89  C   UNL A   1      41.583  22.786  26.323  1.00  0.00     0.091 A 
ATOM     90  F   UNL A   1      40.583  24.367  27.778  1.00  0.00    -0.205 F 
ATOM     91  C   UNL A   1      42.581  22.459  25.396  1.00  0.00     0.022 A 
BRANCH  89  92
ATOM     92  S   UNL A   1      40.504  21.457  26.878  1.00  0.00     0.127 S 
ATOM     93  O   UNL A   1      41.016  20.310  26.126  1.00  0.00    -0.237 OA
ATOM     94  O   UNL A   1      40.778  21.421  28.311  1.00  0.00    -0.237 OA
ATOM     95  O   UNL A   1      39.156  21.862  26.497  1.00  0.00    -0.744 OA
ENDBRANCH  89  92
ENDBRANCH  61  85
BRANCH  73  96
ATOM     96  C   UNL A   1      45.202  30.358  28.382  1.00  0.00     0.023 A 
ATOM     97  C   UNL A   1      44.021  30.960  27.899  1.00  0.00     0.012 A 
ATOM     98  C   UNL A   1      46.445  30.903  28.020  1.00  0.00     0.148 A 
ATOM     99  C   UNL A   1      44.080  32.085  27.072  1.00  0.00     0.002 A 
ATOM    100  C   UNL A   1      46.498  32.045  27.230  1.00  0.00     0.091 A 
ATOM    101  F   UNL A   1      47.552  30.324  28.508  1.00  0.00    -0.205 F 
ATOM    102  C   UNL A   1      45.319  32.636  26.750  1.00  0.00     0.022 A 
BRANCH 100 103
ATOM    103  S   UNL A   1      48.046  32.881  26.874  1.00  0.00     0.127 S 
ATOM    104  O   UNL A   1      47.663  33.786  25.792  1.00  0.00    -0.237 OA
ATOM    105  O   UNL A   1      48.340  33.539  28.148  1.00  0.00    -0.237 OA
ATOM    106  O   UNL A   1      48.995  31.839  26.501  1.00  0.00    -0.744 OA
ENDBRANCH 100 103
ENDBRANCH  73  96
ENDBRANCH  47  48
ENDBRANCH  39  42
ENDBRANCH  37  38
ENDBRANCH   1  37
TORSDOF 19
ENDMDL
