MODEL 1
REMARK VINA RESULT:     -11.8      0.000      0.000
REMARK SMILES CC[C@](C)(NS(=O)(=O)c1cc(C)c(Br)s1)C(=O)NCCCCNC(=O)c1ccc(-c2c3nc(c(-c4cccc(S(=O)(=O)[O-])c4F)c4ccc([nH]4)c(-c4cccc(S(=O)(=O)[O-])c4F)c4nc(c(-c5cccc(S(=O)(=O)[O-])c5F)c5ccc2[nH]5)C=C4)C=C3)cc1
REMARK SMILES IDX 20 1 19 2 18 3 16 4 17 5 3 7 4 8 2 9 1 10 5 11 6 13 7 14
REMARK SMILES IDX 8 15 9 16 10 17 15 18 11 19 13 20 12 21 14 22 21 23 22 24
REMARK SMILES IDX 23 25 24 26 25 28 26 29 27 30 88 31 28 32 87 33 29 34 30 35
REMARK SMILES IDX 31 36 81 37 32 38 86 39 80 40 82 41 33 42 85 43 79 44 78 45
REMARK SMILES IDX 34 47 66 48 46 49 65 50 47 51 50 52 64 53 83 54 48 55 49 56
REMARK SMILES IDX 63 58 84 59 51 60 35 61 36 62 44 63 37 64 39 65 45 66 38 67
REMARK SMILES IDX 40 68 41 69 42 70 43 71 67 72 68 73 76 74 69 75 71 76 77 77
REMARK SMILES IDX 70 78 72 79 73 80 74 81 75 82 52 83 53 84 61 85 54 86 56 87
REMARK SMILES IDX 62 88 55 89 57 90 58 91 59 92 60 93
REMARK H PARENT 18 6 5 12 23 27 82 46 50 57
REMARK Flexibility Score: inf
ROOT
ATOM      1  C   UNL A   1      37.159  20.272  24.570  1.00  0.00     0.023 C 
ENDROOT
BRANCH   1   2
ATOM      2  C   UNL A   1      35.697  20.111  25.023  1.00  0.00     0.116 C 
BRANCH   2   3
ATOM      3  N   UNL A   1      35.188  20.904  26.135  1.00  0.00    -0.354 N 
ATOM      4  C   UNL A   1      33.932  21.308  26.510  1.00  0.00     0.241 C 
ATOM      5  O   UNL A   1      33.752  21.419  27.729  1.00  0.00    -0.273 OA
ATOM      6  H   UNL A   1      35.895  21.214  26.745  1.00  0.00     0.163 HD
BRANCH   4   7
ATOM      7  C   UNL A   1      32.814  21.718  25.539  1.00  0.00     0.108 C 
ATOM      8  C   UNL A   1      32.300  20.458  24.755  1.00  0.00     0.040 C 
BRANCH   7   9
ATOM      9  C   UNL A   1      33.414  22.642  24.439  1.00  0.00     0.030 C 
ATOM     10  C   UNL A   1      34.353  23.755  24.877  1.00  0.00     0.006 C 
ENDBRANCH   7   9
BRANCH   7  11
ATOM     11  N   UNL A   1      31.572  22.244  26.145  1.00  0.00    -0.195 NA
ATOM     12  H   UNL A   1      31.425  21.624  26.942  1.00  0.00     0.142 HD
BRANCH  11  13
ATOM     13  S   UNL A   1      31.107  23.722  26.734  1.00  0.00     0.251 S 
ATOM     14  O   UNL A   1      29.719  23.552  27.115  1.00  0.00    -0.206 OA
ATOM     15  O   UNL A   1      32.054  23.993  27.800  1.00  0.00    -0.206 OA
BRANCH  13  16
ATOM     16  C   UNL A   1      31.093  25.246  25.820  1.00  0.00     0.136 A 
ATOM     17  C   UNL A   1      31.638  26.488  26.149  1.00  0.00     0.038 A 
ATOM     18  S   UNL A   1      30.454  25.338  24.250  1.00  0.00    -0.115 S 
ATOM     19  C   UNL A   1      31.228  27.552  25.269  1.00  0.00    -0.025 A 
ATOM     20  C   UNL A   1      30.374  27.031  24.321  1.00  0.00     0.074 A 
ATOM     21  C   UNL A   1      31.608  28.988  25.417  1.00  0.00     0.046 C 
ATOM     22  Br  UNL A   1      29.273  28.051  23.195  1.00  0.00    -0.039 Br
ENDBRANCH  13  16
ENDBRANCH  11  13
ENDBRANCH   7  11
ENDBRANCH   4   7
ENDBRANCH   2   3
ENDBRANCH   1   2
BRANCH   1  23
ATOM     23  C   UNL A   1      38.224  19.264  25.011  1.00  0.00     0.023 C 
BRANCH  23  24
ATOM     24  C   UNL A   1      39.396  19.867  25.763  1.00  0.00     0.116 C 
BRANCH  24  25
ATOM     25  N   UNL A   1      40.528  18.931  25.914  1.00  0.00    -0.352 N 
ATOM     26  C   UNL A   1      41.894  19.204  25.963  1.00  0.00     0.251 C 
ATOM     27  H   UNL A   1      40.284  17.981  25.990  1.00  0.00     0.163 HD
ATOM     28  O   UNL A   1      42.728  18.349  25.745  1.00  0.00    -0.269 OA
BRANCH  26  29
ATOM     29  C   UNL A   1      42.291  20.573  26.333  1.00  0.00     0.039 A 
ATOM     30  C   UNL A   1      42.905  21.481  25.463  1.00  0.00     0.014 A 
ATOM     31  C   UNL A   1      41.936  20.946  27.617  1.00  0.00     0.014 A 
ATOM     32  C   UNL A   1      43.111  22.782  25.917  1.00  0.00     0.010 A 
ATOM     33  C   UNL A   1      41.783  22.263  27.884  1.00  0.00     0.010 A 
ATOM     34  C   UNL A   1      42.545  23.145  27.143  1.00  0.00    -0.014 A 
BRANCH  34  35
ATOM     35  C   UNL A   1      42.700  24.437  27.776  1.00  0.00     0.031 A 
ATOM     36  C   UNL A   1      41.451  25.232  27.818  1.00  0.00     0.074 A 
ATOM     37  C   UNL A   1      43.784  24.665  28.556  1.00  0.00     0.049 A 
ATOM     38  N   UNL A   1      41.174  26.299  27.148  1.00  0.00    -0.248 NA
ATOM     39  C   UNL A   1      40.292  24.660  28.529  1.00  0.00     0.031 C 
ATOM     40  C   UNL A   1      44.873  23.730  28.910  1.00  0.00     0.029 A 
ATOM     41  N   UNL A   1      44.054  25.725  29.353  1.00  0.00    -0.354 N 
ATOM     42  C   UNL A   1      39.897  26.669  27.565  1.00  0.00     0.074 A 
ATOM     43  C   UNL A   1      39.320  25.494  28.154  1.00  0.00     0.031 C 
ATOM     44  C   UNL A   1      45.505  24.168  30.021  1.00  0.00     0.029 A 
ATOM     45  C   UNL A   1      44.989  25.480  30.356  1.00  0.00     0.049 A 
ATOM     46  H   UNL A   1      43.623  26.602  29.233  1.00  0.00     0.167 HD
ATOM     47  C   UNL A   1      39.542  27.980  27.677  1.00  0.00     0.034 A 
ATOM     48  C   UNL A   1      45.259  26.282  31.416  1.00  0.00     0.034 A 
ATOM     49  C   UNL A   1      40.545  28.826  27.075  1.00  0.00     0.049 A 
ATOM     50  C   UNL A   1      44.697  27.617  31.092  1.00  0.00     0.074 A 
ATOM     51  C   UNL A   1      41.078  28.959  25.810  1.00  0.00     0.029 A 
ATOM     52  N   UNL A   1      41.451  29.400  27.938  1.00  0.00    -0.354 N 
ATOM     53  N   UNL A   1      45.128  28.356  30.107  1.00  0.00    -0.248 NA
ATOM     54  C   UNL A   1      43.344  27.900  31.543  1.00  0.00     0.031 C 
ATOM     55  C   UNL A   1      42.471  29.173  26.024  1.00  0.00     0.029 A 
ATOM     56  C   UNL A   1      42.701  29.250  27.401  1.00  0.00     0.049 A 
ATOM     57  H   UNL A   1      41.237  29.842  28.791  1.00  0.00     0.167 HD
ATOM     58  C   UNL A   1      43.972  28.865  29.524  1.00  0.00     0.074 A 
ATOM     59  C   UNL A   1      42.916  28.633  30.510  1.00  0.00     0.031 C 
ATOM     60  C   UNL A   1      43.914  29.131  28.185  1.00  0.00     0.034 A 
BRANCH  47  61
ATOM     61  C   UNL A   1      38.525  28.555  28.641  1.00  0.00     0.023 A 
ATOM     62  C   UNL A   1      37.526  29.387  28.083  1.00  0.00     0.012 A 
ATOM     63  C   UNL A   1      38.623  28.548  30.052  1.00  0.00     0.148 A 
ATOM     64  C   UNL A   1      36.725  30.217  28.873  1.00  0.00     0.002 A 
ATOM     65  C   UNL A   1      37.773  29.319  30.840  1.00  0.00     0.091 A 
ATOM     66  F   UNL A   1      39.616  27.898  30.659  1.00  0.00    -0.205 F 
ATOM     67  C   UNL A   1      36.847  30.182  30.255  1.00  0.00     0.022 A 
BRANCH  65  68
ATOM     68  S   UNL A   1      37.858  29.279  32.636  1.00  0.00     0.127 S 
ATOM     69  O   UNL A   1      36.703  30.095  33.001  1.00  0.00    -0.237 OA
ATOM     70  O   UNL A   1      37.717  27.848  32.909  1.00  0.00    -0.237 OA
ATOM     71  O   UNL A   1      39.163  29.826  32.982  1.00  0.00    -0.744 OA
ENDBRANCH  65  68
ENDBRANCH  47  61
BRANCH  48  72
ATOM     72  C   UNL A   1      45.695  25.917  32.787  1.00  0.00     0.023 A 
ATOM     73  C   UNL A   1      46.712  26.650  33.428  1.00  0.00     0.012 A 
ATOM     74  C   UNL A   1      44.933  25.018  33.569  1.00  0.00     0.148 A 
ATOM     75  C   UNL A   1      46.950  26.509  34.803  1.00  0.00     0.002 A 
ATOM     76  C   UNL A   1      45.179  24.874  34.932  1.00  0.00     0.091 A 
ATOM     77  F   UNL A   1      43.911  24.372  32.991  1.00  0.00    -0.205 F 
ATOM     78  C   UNL A   1      46.180  25.628  35.556  1.00  0.00     0.022 A 
BRANCH  76  79
ATOM     79  S   UNL A   1      44.213  23.766  35.969  1.00  0.00     0.127 S 
ATOM     80  O   UNL A   1      42.877  24.358  35.884  1.00  0.00    -0.237 OA
ATOM     81  O   UNL A   1      44.364  22.493  35.270  1.00  0.00    -0.237 OA
ATOM     82  O   UNL A   1      44.817  23.842  37.294  1.00  0.00    -0.744 OA
ENDBRANCH  76  79
ENDBRANCH  48  72
BRANCH  60  83
ATOM     83  C   UNL A   1      45.196  29.072  27.387  1.00  0.00     0.023 A 
ATOM     84  C   UNL A   1      46.177  30.085  27.445  1.00  0.00     0.012 A 
ATOM     85  C   UNL A   1      45.514  27.856  26.765  1.00  0.00     0.148 A 
ATOM     86  C   UNL A   1      47.448  29.886  26.895  1.00  0.00     0.002 A 
ATOM     87  C   UNL A   1      46.794  27.640  26.270  1.00  0.00     0.091 A 
ATOM     88  F   UNL A   1      44.569  26.904  26.721  1.00  0.00    -0.205 F 
ATOM     89  C   UNL A   1      47.762  28.656  26.325  1.00  0.00     0.022 A 
BRANCH  87  90
ATOM     90  S   UNL A   1      47.302  26.029  25.673  1.00  0.00     0.127 S 
ATOM     91  O   UNL A   1      46.367  25.803  24.574  1.00  0.00    -0.237 OA
ATOM     92  O   UNL A   1      48.686  26.270  25.262  1.00  0.00    -0.237 OA
ATOM     93  O   UNL A   1      47.169  25.119  26.805  1.00  0.00    -0.744 OA
ENDBRANCH  87  90
ENDBRANCH  60  83
ENDBRANCH  34  35
ENDBRANCH  26  29
ENDBRANCH  24  25
ENDBRANCH  23  24
ENDBRANCH   1  23
TORSDOF 18
ENDMDL
MODEL 2
REMARK VINA RESULT:     -11.7      2.095      2.594
REMARK SMILES CC[C@](C)(NS(=O)(=O)c1cc(C)c(Br)s1)C(=O)NCCCCNC(=O)c1ccc(-c2c3nc(c(-c4cccc(S(=O)(=O)[O-])c4F)c4ccc([nH]4)c(-c4cccc(S(=O)(=O)[O-])c4F)c4nc(c(-c5cccc(S(=O)(=O)[O-])c5F)c5ccc2[nH]5)C=C4)C=C3)cc1
REMARK SMILES IDX 20 1 19 2 18 3 16 4 17 5 3 7 4 8 2 9 1 10 5 11 6 13 7 14
REMARK SMILES IDX 8 15 9 16 10 17 15 18 11 19 13 20 12 21 14 22 21 23 22 24
REMARK SMILES IDX 23 25 24 26 25 28 26 29 27 30 88 31 28 32 87 33 29 34 30 35
REMARK SMILES IDX 31 36 81 37 32 38 86 39 80 40 82 41 33 42 85 43 79 44 78 45
REMARK SMILES IDX 34 47 66 48 46 49 65 50 47 51 50 52 64 53 83 54 48 55 49 56
REMARK SMILES IDX 63 58 84 59 51 60 35 61 36 62 44 63 37 64 39 65 45 66 38 67
REMARK SMILES IDX 40 68 41 69 42 70 43 71 67 72 68 73 76 74 69 75 71 76 77 77
REMARK SMILES IDX 70 78 72 79 73 80 74 81 75 82 52 83 53 84 61 85 54 86 56 87
REMARK SMILES IDX 62 88 55 89 57 90 58 91 59 92 60 93
REMARK H PARENT 18 6 5 12 23 27 82 46 50 57
REMARK Flexibility Score: inf
ROOT
ATOM      1  C   UNL A   1      36.009  21.812  25.588  1.00  0.00     0.023 C 
ENDROOT
BRANCH   1   2
ATOM      2  C   UNL A   1      34.977  21.634  26.715  1.00  0.00     0.116 C 
BRANCH   2   3
ATOM      3  N   UNL A   1      34.018  22.694  26.998  1.00  0.00    -0.354 N 
ATOM      4  C   UNL A   1      32.743  22.957  26.563  1.00  0.00     0.241 C 
ATOM      5  O   UNL A   1      32.009  23.520  27.383  1.00  0.00    -0.273 OA
ATOM      6  H   UNL A   1      34.356  23.362  27.637  1.00  0.00     0.163 HD
BRANCH   4   7
ATOM      7  C   UNL A   1      32.230  22.699  25.138  1.00  0.00     0.108 C 
ATOM      8  C   UNL A   1      30.843  23.406  24.935  1.00  0.00     0.040 C 
BRANCH   7   9
ATOM      9  C   UNL A   1      31.917  21.181  24.982  1.00  0.00     0.030 C 
ATOM     10  C   UNL A   1      32.730  20.386  23.971  1.00  0.00     0.006 C 
ENDBRANCH   7   9
BRANCH   7  11
ATOM     11  N   UNL A   1      33.037  23.256  24.033  1.00  0.00    -0.195 NA
ATOM     12  H   UNL A   1      32.461  23.069  23.211  1.00  0.00     0.142 HD
BRANCH  11  13
ATOM     13  S   UNL A   1      33.675  24.750  23.704  1.00  0.00     0.251 S 
ATOM     14  O   UNL A   1      34.684  24.958  24.724  1.00  0.00    -0.206 OA
ATOM     15  O   UNL A   1      34.138  24.645  22.332  1.00  0.00    -0.206 OA
BRANCH  13  16
ATOM     16  C   UNL A   1      32.778  26.285  23.703  1.00  0.00     0.136 A 
ATOM     17  C   UNL A   1      32.842  27.356  24.596  1.00  0.00     0.038 A 
ATOM     18  S   UNL A   1      31.731  26.703  22.433  1.00  0.00    -0.115 S 
ATOM     19  C   UNL A   1      31.797  28.330  24.405  1.00  0.00    -0.025 A 
ATOM     20  C   UNL A   1      30.995  27.914  23.366  1.00  0.00     0.074 A 
ATOM     21  C   UNL A   1      31.586  29.543  25.250  1.00  0.00     0.046 C 
ATOM     22  Br  UNL A   1      29.299  28.616  22.975  1.00  0.00    -0.039 Br
ENDBRANCH  13  16
ENDBRANCH  11  13
ENDBRANCH   7  11
ENDBRANCH   4   7
ENDBRANCH   2   3
ENDBRANCH   1   2
BRANCH   1  23
ATOM     23  C   UNL A   1      36.880  20.634  25.139  1.00  0.00     0.023 C 
BRANCH  23  24
ATOM     24  C   UNL A   1      38.372  20.910  25.149  1.00  0.00     0.116 C 
BRANCH  24  25
ATOM     25  N   UNL A   1      39.174  19.726  25.518  1.00  0.00    -0.352 N 
ATOM     26  C   UNL A   1      40.517  19.653  25.883  1.00  0.00     0.251 C 
ATOM     27  H   UNL A   1      38.693  18.868  25.504  1.00  0.00     0.163 HD
ATOM     28  O   UNL A   1      41.142  18.614  25.829  1.00  0.00    -0.269 OA
BRANCH  26  29
ATOM     29  C   UNL A   1      41.144  20.889  26.381  1.00  0.00     0.039 A 
ATOM     30  C   UNL A   1      41.974  21.718  25.617  1.00  0.00     0.014 A 
ATOM     31  C   UNL A   1      40.787  21.234  27.672  1.00  0.00     0.014 A 
ATOM     32  C   UNL A   1      42.395  22.920  26.184  1.00  0.00     0.010 A 
ATOM     33  C   UNL A   1      40.872  22.533  28.038  1.00  0.00     0.010 A 
ATOM     34  C   UNL A   1      41.834  23.299  27.407  1.00  0.00    -0.014 A 
BRANCH  34  35
ATOM     35  C   UNL A   1      42.192  24.489  28.149  1.00  0.00     0.031 A 
ATOM     36  C   UNL A   1      41.194  25.577  28.045  1.00  0.00     0.074 A 
ATOM     37  C   UNL A   1      43.145  24.406  29.109  1.00  0.00     0.049 A 
ATOM     38  N   UNL A   1      41.314  26.699  27.419  1.00  0.00    -0.248 NA
ATOM     39  C   UNL A   1      39.823  25.304  28.515  1.00  0.00     0.031 C 
ATOM     40  C   UNL A   1      43.886  23.212  29.566  1.00  0.00     0.029 A 
ATOM     41  N   UNL A   1      43.526  25.337  30.014  1.00  0.00    -0.354 N 
ATOM     42  C   UNL A   1      40.117  27.374  27.648  1.00  0.00     0.074 A 
ATOM     43  C   UNL A   1      39.171  26.371  28.049  1.00  0.00     0.031 C 
ATOM     44  C   UNL A   1      44.403  23.440  30.794  1.00  0.00     0.029 A 
ATOM     45  C   UNL A   1      44.180  24.830  31.135  1.00  0.00     0.049 A 
ATOM     46  H   UNL A   1      43.355  26.299  29.890  1.00  0.00     0.167 HD
ATOM     47  C   UNL A   1      40.086  28.728  27.796  1.00  0.00     0.034 A 
ATOM     48  C   UNL A   1      44.450  25.505  32.280  1.00  0.00     0.034 A 
ATOM     49  C   UNL A   1      41.359  29.304  27.428  1.00  0.00     0.049 A 
ATOM     50  C   UNL A   1      44.306  26.948  31.967  1.00  0.00     0.074 A 
ATOM     51  C   UNL A   1      42.121  29.331  26.279  1.00  0.00     0.029 A 
ATOM     52  N   UNL A   1      42.213  29.599  28.466  1.00  0.00    -0.354 N 
ATOM     53  N   UNL A   1      45.074  27.579  31.121  1.00  0.00    -0.248 NA
ATOM     54  C   UNL A   1      43.008  27.558  32.212  1.00  0.00     0.031 C 
ATOM     55  C   UNL A   1      43.463  29.171  26.732  1.00  0.00     0.029 A 
ATOM     56  C   UNL A   1      43.460  29.147  28.130  1.00  0.00     0.049 A 
ATOM     57  H   UNL A   1      41.970  30.056  29.303  1.00  0.00     0.167 HD
ATOM     58  C   UNL A   1      44.202  28.386  30.397  1.00  0.00     0.074 A 
ATOM     59  C   UNL A   1      42.965  28.406  31.179  1.00  0.00     0.031 C 
ATOM     60  C   UNL A   1      44.448  28.696  29.089  1.00  0.00     0.034 A 
BRANCH  47  61
ATOM     61  C   UNL A   1      39.092  29.519  28.622  1.00  0.00     0.023 A 
ATOM     62  C   UNL A   1      39.237  29.443  30.027  1.00  0.00     0.012 A 
ATOM     63  C   UNL A   1      37.899  30.109  28.143  1.00  0.00     0.148 A 
ATOM     64  C   UNL A   1      38.228  29.859  30.900  1.00  0.00     0.002 A 
ATOM     65  C   UNL A   1      36.929  30.591  29.016  1.00  0.00     0.091 A 
ATOM     66  F   UNL A   1      37.617  30.104  26.840  1.00  0.00    -0.205 F 
ATOM     67  C   UNL A   1      37.072  30.436  30.395  1.00  0.00     0.022 A 
BRANCH  65  68
ATOM     68  S   UNL A   1      35.432  31.388  28.417  1.00  0.00     0.127 S 
ATOM     69  O   UNL A   1      34.847  31.882  29.660  1.00  0.00    -0.237 OA
ATOM     70  O   UNL A   1      35.977  32.420  27.534  1.00  0.00    -0.237 OA
ATOM     71  O   UNL A   1      34.681  30.348  27.725  1.00  0.00    -0.744 OA
ENDBRANCH  65  68
ENDBRANCH  47  61
BRANCH  48  72
ATOM     72  C   UNL A   1      44.534  25.001  33.673  1.00  0.00     0.023 A 
ATOM     73  C   UNL A   1      43.377  24.551  34.338  1.00  0.00     0.012 A 
ATOM     74  C   UNL A   1      45.789  24.714  34.260  1.00  0.00     0.148 A 
ATOM     75  C   UNL A   1      43.464  23.823  35.534  1.00  0.00     0.002 A 
ATOM     76  C   UNL A   1      45.871  23.999  35.453  1.00  0.00     0.091 A 
ATOM     77  F   UNL A   1      46.901  25.066  33.601  1.00  0.00    -0.205 F 
ATOM     78  C   UNL A   1      44.710  23.541  36.087  1.00  0.00     0.022 A 
BRANCH  76  79
ATOM     79  S   UNL A   1      47.446  23.585  36.217  1.00  0.00     0.127 S 
ATOM     80  O   UNL A   1      47.820  24.853  36.846  1.00  0.00    -0.237 OA
ATOM     81  O   UNL A   1      47.059  22.530  37.148  1.00  0.00    -0.237 OA
ATOM     82  O   UNL A   1      48.321  23.182  35.122  1.00  0.00    -0.744 OA
ENDBRANCH  76  79
ENDBRANCH  48  72
BRANCH  60  83
ATOM     83  C   UNL A   1      45.794  28.331  28.508  1.00  0.00     0.023 A 
ATOM     84  C   UNL A   1      46.980  29.020  28.840  1.00  0.00     0.012 A 
ATOM     85  C   UNL A   1      45.888  27.119  27.809  1.00  0.00     0.148 A 
ATOM     86  C   UNL A   1      48.232  28.507  28.485  1.00  0.00     0.002 A 
ATOM     87  C   UNL A   1      47.134  26.584  27.506  1.00  0.00     0.091 A 
ATOM     88  F   UNL A   1      44.750  26.477  27.502  1.00  0.00    -0.205 F 
ATOM     89  C   UNL A   1      48.309  27.279  27.834  1.00  0.00     0.022 A 
BRANCH  87  90
ATOM     90  S   UNL A   1      47.298  24.938  26.817  1.00  0.00     0.127 S 
ATOM     91  O   UNL A   1      48.749  24.790  26.725  1.00  0.00    -0.237 OA
ATOM     92  O   UNL A   1      46.660  24.106  27.838  1.00  0.00    -0.237 OA
ATOM     93  O   UNL A   1      46.589  24.962  25.542  1.00  0.00    -0.744 OA
ENDBRANCH  87  90
ENDBRANCH  60  83
ENDBRANCH  34  35
ENDBRANCH  26  29
ENDBRANCH  24  25
ENDBRANCH  23  24
ENDBRANCH   1  23
TORSDOF 18
ENDMDL
MODEL 3
REMARK VINA RESULT:     -11.2      3.206      8.117
REMARK SMILES CC[C@](C)(NS(=O)(=O)c1cc(C)c(Br)s1)C(=O)NCCCCNC(=O)c1ccc(-c2c3nc(c(-c4cccc(S(=O)(=O)[O-])c4F)c4ccc([nH]4)c(-c4cccc(S(=O)(=O)[O-])c4F)c4nc(c(-c5cccc(S(=O)(=O)[O-])c5F)c5ccc2[nH]5)C=C4)C=C3)cc1
REMARK SMILES IDX 20 1 19 2 18 3 16 4 17 5 3 7 4 8 2 9 1 10 5 11 6 13 7 14
REMARK SMILES IDX 8 15 9 16 10 17 15 18 11 19 13 20 12 21 14 22 21 23 22 24
REMARK SMILES IDX 23 25 24 26 25 28 26 29 27 30 88 31 28 32 87 33 29 34 30 35
REMARK SMILES IDX 31 36 81 37 32 38 86 39 80 40 82 41 33 42 85 43 79 44 78 45
REMARK SMILES IDX 34 47 66 48 46 49 65 50 47 51 50 52 64 53 83 54 48 55 49 56
REMARK SMILES IDX 63 58 84 59 51 60 35 61 36 62 44 63 37 64 39 65 45 66 38 67
REMARK SMILES IDX 40 68 41 69 42 70 43 71 67 72 68 73 76 74 69 75 71 76 77 77
REMARK SMILES IDX 70 78 72 79 73 80 74 81 75 82 52 83 53 84 61 85 54 86 56 87
REMARK SMILES IDX 62 88 55 89 57 90 58 91 59 92 60 93
REMARK H PARENT 18 6 5 12 23 27 82 46 50 57
REMARK Flexibility Score: inf
ROOT
ATOM      1  C   UNL A   1      33.258  30.324  27.005  1.00  0.00     0.023 C 
ENDROOT
BRANCH   1   2
ATOM      2  C   UNL A   1      31.788  30.331  26.552  1.00  0.00     0.116 C 
BRANCH   2   3
ATOM      3  N   UNL A   1      31.461  30.205  25.137  1.00  0.00    -0.354 N 
ATOM      4  C   UNL A   1      31.100  29.147  24.341  1.00  0.00     0.241 C 
ATOM      5  O   UNL A   1      30.335  29.422  23.409  1.00  0.00    -0.273 OA
ATOM      6  H   UNL A   1      31.508  31.059  24.651  1.00  0.00     0.163 HD
BRANCH   4   7
ATOM      7  C   UNL A   1      31.654  27.720  24.471  1.00  0.00     0.108 C 
ATOM      8  C   UNL A   1      31.401  27.180  25.924  1.00  0.00     0.040 C 
BRANCH   7   9
ATOM      9  C   UNL A   1      33.205  27.767  24.340  1.00  0.00     0.030 C 
ATOM     10  C   UNL A   1      33.795  28.285  23.037  1.00  0.00     0.006 C 
ENDBRANCH   7   9
BRANCH   7  11
ATOM     11  N   UNL A   1      31.017  26.684  23.631  1.00  0.00    -0.195 NA
ATOM     12  H   UNL A   1      30.702  27.212  22.816  1.00  0.00     0.142 HD
BRANCH  11  13
ATOM     13  S   UNL A   1      31.529  25.253  22.970  1.00  0.00     0.251 S 
ATOM     14  O   UNL A   1      30.414  24.344  23.136  1.00  0.00    -0.206 OA
ATOM     15  O   UNL A   1      31.898  25.601  21.610  1.00  0.00    -0.206 OA
BRANCH  13  16
ATOM     16  C   UNL A   1      32.920  24.293  23.523  1.00  0.00     0.136 A 
ATOM     17  C   UNL A   1      34.248  24.321  23.095  1.00  0.00     0.038 A 
ATOM     18  S   UNL A   1      32.797  23.218  24.830  1.00  0.00    -0.115 S 
ATOM     19  C   UNL A   1      35.044  23.236  23.610  1.00  0.00    -0.025 A 
ATOM     20  C   UNL A   1      34.242  22.441  24.399  1.00  0.00     0.074 A 
ATOM     21  C   UNL A   1      36.477  22.983  23.274  1.00  0.00     0.046 C 
ATOM     22  Br  UNL A   1      34.688  20.714  24.983  1.00  0.00    -0.039 Br
ENDBRANCH  13  16
ENDBRANCH  11  13
ENDBRANCH   7  11
ENDBRANCH   4   7
ENDBRANCH   2   3
ENDBRANCH   1   2
BRANCH   1  23
ATOM     23  C   UNL A   1      33.899  31.589  27.585  1.00  0.00     0.023 C 
BRANCH  23  24
ATOM     24  C   UNL A   1      35.063  31.335  28.525  1.00  0.00     0.116 C 
BRANCH  24  25
ATOM     25  N   UNL A   1      34.935  32.054  29.809  1.00  0.00    -0.352 N 
ATOM     26  C   UNL A   1      35.486  31.741  31.050  1.00  0.00     0.251 C 
ATOM     27  H   UNL A   1      34.383  32.868  29.784  1.00  0.00     0.163 HD
ATOM     28  O   UNL A   1      35.041  32.198  32.083  1.00  0.00    -0.269 OA
BRANCH  26  29
ATOM     29  C   UNL A   1      36.664  30.858  31.057  1.00  0.00     0.039 A 
ATOM     30  C   UNL A   1      36.619  29.477  30.835  1.00  0.00     0.014 A 
ATOM     31  C   UNL A   1      37.870  31.513  31.225  1.00  0.00     0.014 A 
ATOM     32  C   UNL A   1      37.829  28.791  30.749  1.00  0.00     0.010 A 
ATOM     33  C   UNL A   1      38.993  30.923  30.757  1.00  0.00     0.010 A 
ATOM     34  C   UNL A   1      39.008  29.542  30.724  1.00  0.00    -0.014 A 
BRANCH  34  35
ATOM     35  C   UNL A   1      40.343  28.986  30.682  1.00  0.00     0.031 A 
ATOM     36  C   UNL A   1      41.014  28.949  32.001  1.00  0.00     0.074 A 
ATOM     37  C   UNL A   1      40.720  28.254  29.605  1.00  0.00     0.049 A 
ATOM     38  N   UNL A   1      42.009  29.667  32.400  1.00  0.00    -0.248 NA
ATOM     39  C   UNL A   1      40.374  28.172  33.079  1.00  0.00     0.031 C 
ATOM     40  C   UNL A   1      39.918  27.884  28.421  1.00  0.00     0.029 A 
ATOM     41  N   UNL A   1      41.846  27.526  29.421  1.00  0.00    -0.354 N 
ATOM     42  C   UNL A   1      42.276  29.232  33.696  1.00  0.00     0.074 A 
ATOM     43  C   UNL A   1      41.086  28.561  34.138  1.00  0.00     0.031 C 
ATOM     44  C   UNL A   1      40.479  26.819  27.806  1.00  0.00     0.029 A 
ATOM     45  C   UNL A   1      41.751  26.541  28.440  1.00  0.00     0.049 A 
ATOM     46  H   UNL A   1      42.668  27.680  29.940  1.00  0.00     0.167 HD
ATOM     47  C   UNL A   1      43.551  29.181  34.175  1.00  0.00     0.034 A 
ATOM     48  C   UNL A   1      42.635  25.535  28.224  1.00  0.00     0.034 A 
ATOM     49  C   UNL A   1      44.454  29.860  33.277  1.00  0.00     0.049 A 
ATOM     50  C   UNL A   1      43.888  25.914  28.923  1.00  0.00     0.074 A 
ATOM     51  C   UNL A   1      44.565  31.147  32.793  1.00  0.00     0.029 A 
ATOM     52  N   UNL A   1      45.163  29.059  32.410  1.00  0.00    -0.354 N 
ATOM     53  N   UNL A   1      44.608  26.952  28.593  1.00  0.00    -0.248 NA
ATOM     54  C   UNL A   1      44.064  25.438  30.286  1.00  0.00     0.031 C 
ATOM     55  C   UNL A   1      44.925  30.988  31.423  1.00  0.00     0.029 A 
ATOM     56  C   UNL A   1      45.103  29.625  31.166  1.00  0.00     0.049 A 
ATOM     57  H   UNL A   1      45.630  28.225  32.644  1.00  0.00     0.167 HD
ATOM     58  C   UNL A   1      44.967  27.525  29.809  1.00  0.00     0.074 A 
ATOM     59  C   UNL A   1      44.691  26.495  30.811  1.00  0.00     0.031 C 
ATOM     60  C   UNL A   1      45.148  28.875  29.927  1.00  0.00     0.034 A 
BRANCH  47  61
ATOM     61  C   UNL A   1      44.079  28.218  35.220  1.00  0.00     0.023 A 
ATOM     62  C   UNL A   1      44.826  28.784  36.279  1.00  0.00     0.012 A 
ATOM     63  C   UNL A   1      44.114  26.809  35.106  1.00  0.00     0.148 A 
ATOM     64  C   UNL A   1      45.619  28.005  37.127  1.00  0.00     0.002 A 
ATOM     65  C   UNL A   1      44.844  26.030  35.998  1.00  0.00     0.091 A 
ATOM     66  F   UNL A   1      43.549  26.199  34.064  1.00  0.00    -0.205 F 
ATOM     67  C   UNL A   1      45.627  26.624  36.987  1.00  0.00     0.022 A 
BRANCH  65  68
ATOM     68  S   UNL A   1      44.855  24.234  35.892  1.00  0.00     0.127 S 
ATOM     69  O   UNL A   1      45.506  23.871  37.147  1.00  0.00    -0.237 OA
ATOM     70  O   UNL A   1      43.425  23.931  35.824  1.00  0.00    -0.237 OA
ATOM     71  O   UNL A   1      45.590  23.915  34.674  1.00  0.00    -0.744 OA
ENDBRANCH  65  68
ENDBRANCH  47  61
BRANCH  48  72
ATOM     72  C   UNL A   1      42.395  24.161  27.719  1.00  0.00     0.023 A 
ATOM     73  C   UNL A   1      41.135  23.553  27.885  1.00  0.00     0.012 A 
ATOM     74  C   UNL A   1      43.318  23.546  26.842  1.00  0.00     0.148 A 
ATOM     75  C   UNL A   1      40.798  22.384  27.186  1.00  0.00     0.002 A 
ATOM     76  C   UNL A   1      42.982  22.380  26.158  1.00  0.00     0.091 A 
ATOM     77  F   UNL A   1      44.490  24.154  26.614  1.00  0.00    -0.205 F 
ATOM     78  C   UNL A   1      41.717  21.802  26.318  1.00  0.00     0.022 A 
BRANCH  76  79
ATOM     79  S   UNL A   1      44.114  21.582  25.009  1.00  0.00     0.127 S 
ATOM     80  O   UNL A   1      44.012  22.448  23.833  1.00  0.00    -0.237 OA
ATOM     81  O   UNL A   1      45.381  21.671  25.727  1.00  0.00    -0.237 OA
ATOM     82  O   UNL A   1      43.586  20.238  24.807  1.00  0.00    -0.744 OA
ENDBRANCH  76  79
ENDBRANCH  48  72
BRANCH  60  83
ATOM     83  C   UNL A   1      45.168  29.708  28.667  1.00  0.00     0.023 A 
ATOM     84  C   UNL A   1      43.990  30.107  27.998  1.00  0.00     0.012 A 
ATOM     85  C   UNL A   1      46.386  30.298  28.302  1.00  0.00     0.148 A 
ATOM     86  C   UNL A   1      44.030  31.075  26.990  1.00  0.00     0.002 A 
ATOM     87  C   UNL A   1      46.416  31.299  27.340  1.00  0.00     0.091 A 
ATOM     88  F   UNL A   1      47.495  29.907  28.949  1.00  0.00    -0.205 F 
ATOM     89  C   UNL A   1      45.241  31.686  26.674  1.00  0.00     0.022 A 
BRANCH  87  90
ATOM     90  S   UNL A   1      47.912  32.229  27.007  1.00  0.00     0.127 S 
ATOM     91  O   UNL A   1      47.450  33.207  26.025  1.00  0.00    -0.237 OA
ATOM     92  O   UNL A   1      48.233  32.785  28.323  1.00  0.00    -0.237 OA
ATOM     93  O   UNL A   1      48.887  31.262  26.517  1.00  0.00    -0.744 OA
ENDBRANCH  87  90
ENDBRANCH  60  83
ENDBRANCH  34  35
ENDBRANCH  26  29
ENDBRANCH  24  25
ENDBRANCH  23  24
ENDBRANCH   1  23
TORSDOF 18
ENDMDL
