MODEL 1
REMARK VINA RESULT:     -12.4      0.000      0.000
REMARK SMILES C[C@H](CN(Cc1ccccc1)C(=O)c1cc2ccccc2oc1=O)C(=O)NCCCCNC(=O)c1ccc(-c2c3nc(c(-c4cccc(S(=O)(=O)[O-])c4F)c4ccc([nH]4)c(-c4cccc(S(=O)(=O)[O-])c4F)c4nc(c(-c5cccc(S(=O)(=O)[O-])c5F)c5ccc2[nH]5)C=C4)C=C3)cc1
REMARK SMILES IDX 29 1 28 2 27 3 25 4 26 5 2 7 1 8 3 9 4 10 5 11 6 12 7 13
REMARK SMILES IDX 11 14 8 15 10 16 9 17 12 18 13 19 14 20 15 21 23 22 16 23
REMARK SMILES IDX 22 24 24 25 17 26 21 27 18 28 20 29 19 30 30 31 31 32 32 33
REMARK SMILES IDX 33 34 34 36 35 37 36 38 97 39 37 40 96 41 38 42 39 43 40 44
REMARK SMILES IDX 90 45 41 46 95 47 89 48 91 49 42 50 94 51 88 52 87 53 43 55
REMARK SMILES IDX 75 56 55 57 74 58 56 59 59 60 73 61 92 62 57 63 58 64 72 66
REMARK SMILES IDX 93 67 60 68 44 69 45 70 53 71 46 72 48 73 54 74 47 75 49 76
REMARK SMILES IDX 50 77 51 78 52 79 76 80 77 81 85 82 78 83 80 84 86 85 79 86
REMARK SMILES IDX 81 87 82 88 83 89 84 90 61 91 62 92 70 93 63 94 65 95 71 96
REMARK SMILES IDX 64 97 66 98 67 99 68 100 69 101
REMARK H PARENT 27 6 32 35 91 54 59 65
REMARK Flexibility Score: inf
ROOT
ATOM      1  C   UNL A   1      35.314  29.573  27.646  1.00  0.00     0.023 C 
ENDROOT
BRANCH   1   2
ATOM      2  C   UNL A   1      34.474  28.618  26.841  1.00  0.00     0.116 C 
BRANCH   2   3
ATOM      3  N   UNL A   1      33.247  28.354  27.570  1.00  0.00    -0.356 N 
ATOM      4  C   UNL A   1      31.940  28.411  27.160  1.00  0.00     0.224 C 
ATOM      5  O   UNL A   1      31.092  28.356  28.060  1.00  0.00    -0.275 OA
ATOM      6  H   UNL A   1      33.373  28.092  28.511  1.00  0.00     0.163 HD
BRANCH   4   7
ATOM      7  C   UNL A   1      31.465  28.527  25.664  1.00  0.00     0.095 C 
ATOM      8  C   UNL A   1      31.250  29.954  25.175  1.00  0.00     0.020 C 
BRANCH   7   9
ATOM      9  C   UNL A   1      30.510  27.413  25.058  1.00  0.00     0.133 C 
BRANCH   9  10
ATOM     10  N   UNL A   1      31.025  26.285  24.186  1.00  0.00    -0.333 N 
BRANCH  10  11
ATOM     11  C   UNL A   1      30.230  25.045  24.099  1.00  0.00     0.155 C 
BRANCH  11  12
ATOM     12  C   UNL A   1      31.061  23.813  24.440  1.00  0.00    -0.029 A 
ATOM     13  C   UNL A   1      31.366  22.875  23.443  1.00  0.00     0.005 A 
ATOM     14  C   UNL A   1      31.291  23.471  25.788  1.00  0.00     0.005 A 
ATOM     15  C   UNL A   1      31.794  21.592  23.794  1.00  0.00     0.000 A 
ATOM     16  C   UNL A   1      31.688  22.178  26.132  1.00  0.00     0.000 A 
ATOM     17  C   UNL A   1      31.924  21.235  25.135  1.00  0.00     0.000 A 
ENDBRANCH  11  12
ENDBRANCH  10  11
BRANCH  10  18
ATOM     18  C   UNL A   1      31.654  26.664  22.985  1.00  0.00     0.261 C 
ATOM     19  O   UNL A   1      31.138  27.567  22.315  1.00  0.00    -0.269 OA
BRANCH  18  20
ATOM     20  C   UNL A   1      33.089  26.175  22.640  1.00  0.00     0.126 A 
ATOM     21  C   UNL A   1      33.780  26.124  24.010  1.00  0.00     0.033 A 
ATOM     22  C   UNL A   1      33.423  24.842  21.254  1.00  0.00     0.349 A 
ATOM     23  C   UNL A   1      34.753  24.651  24.614  1.00  0.00     0.018 A 
ATOM     24  O   UNL A   1      34.382  23.431  21.902  1.00  0.00    -0.422 OA
ATOM     25  O   UNL A   1      33.077  24.904  20.077  1.00  0.00    -0.246 OA
ATOM     26  C   UNL A   1      34.941  24.509  25.955  1.00  0.00     0.012 A 
ATOM     27  C   UNL A   1      35.079  23.269  23.611  1.00  0.00     0.138 A 
ATOM     28  C   UNL A   1      35.272  23.198  26.359  1.00  0.00     0.001 A 
ATOM     29  C   UNL A   1      35.351  22.016  24.075  1.00  0.00     0.048 A 
ATOM     30  C   UNL A   1      35.433  22.028  25.484  1.00  0.00     0.004 A 
ENDBRANCH  18  20
ENDBRANCH  10  18
ENDBRANCH   9  10
ENDBRANCH   7   9
ENDBRANCH   4   7
ENDBRANCH   2   3
ENDBRANCH   1   2
BRANCH   1  31
ATOM     31  C   UNL A   1      34.979  31.224  27.652  1.00  0.00     0.023 C 
BRANCH  31  32
ATOM     32  C   UNL A   1      33.147  32.353  27.323  1.00  0.00     0.116 C 
BRANCH  32  33
ATOM     33  N   UNL A   1      32.696  33.802  27.757  1.00  0.00    -0.352 N 
ATOM     34  C   UNL A   1      33.260  34.643  28.712  1.00  0.00     0.251 C 
ATOM     35  H   UNL A   1      31.908  34.160  27.286  1.00  0.00     0.163 HD
ATOM     36  O   UNL A   1      32.674  35.683  29.011  1.00  0.00    -0.269 OA
BRANCH  34  37
ATOM     37  C   UNL A   1      34.489  34.263  29.464  1.00  0.00     0.039 A 
ATOM     38  C   UNL A   1      34.335  33.525  30.642  1.00  0.00     0.014 A 
ATOM     39  C   UNL A   1      35.776  34.576  29.020  1.00  0.00     0.014 A 
ATOM     40  C   UNL A   1      35.457  33.007  31.300  1.00  0.00     0.010 A 
ATOM     41  C   UNL A   1      36.888  33.973  29.618  1.00  0.00     0.010 A 
ATOM     42  C   UNL A   1      36.744  33.172  30.762  1.00  0.00    -0.014 A 
BRANCH  42  43
ATOM     43  C   UNL A   1      37.922  32.489  31.374  1.00  0.00     0.031 A 
ATOM     44  C   UNL A   1      38.515  32.983  32.670  1.00  0.00     0.074 A 
ATOM     45  C   UNL A   1      38.501  31.453  30.731  1.00  0.00     0.049 A 
ATOM     46  N   UNL A   1      39.529  32.508  33.346  1.00  0.00    -0.248 NA
ATOM     47  C   UNL A   1      37.907  34.180  33.272  1.00  0.00     0.031 C 
ATOM     48  C   UNL A   1      38.088  30.930  29.427  1.00  0.00     0.029 A 
ATOM     49  N   UNL A   1      39.570  30.658  31.077  1.00  0.00    -0.354 N 
ATOM     50  C   UNL A   1      39.703  33.364  34.428  1.00  0.00     0.074 A 
ATOM     51  C   UNL A   1      38.712  34.409  34.300  1.00  0.00     0.031 C 
ATOM     52  C   UNL A   1      38.873  29.892  29.095  1.00  0.00     0.029 A 
ATOM     53  C   UNL A   1      39.867  29.689  30.144  1.00  0.00     0.049 A 
ATOM     54  H   UNL A   1      40.074  30.771  31.914  1.00  0.00     0.167 HD
ATOM     55  C   UNL A   1      40.586  33.275  35.454  1.00  0.00     0.034 A 
ATOM     56  C   UNL A   1      40.827  28.743  30.133  1.00  0.00     0.034 A 
ATOM     57  C   UNL A   1      41.539  32.209  35.607  1.00  0.00     0.049 A 
ATOM     58  C   UNL A   1      41.757  28.630  31.312  1.00  0.00     0.074 A 
ATOM     59  C   UNL A   1      42.408  31.977  36.659  1.00  0.00     0.029 A 
ATOM     60  N   UNL A   1      41.752  31.199  34.682  1.00  0.00    -0.354 N 
ATOM     61  N   UNL A   1      41.790  29.351  32.408  1.00  0.00    -0.248 NA
ATOM     62  C   UNL A   1      42.758  27.553  31.274  1.00  0.00     0.031 C 
ATOM     63  C   UNL A   1      43.165  30.840  36.357  1.00  0.00     0.029 A 
ATOM     64  C   UNL A   1      42.748  30.348  35.131  1.00  0.00     0.049 A 
ATOM     65  H   UNL A   1      41.267  31.102  33.831  1.00  0.00     0.167 HD
ATOM     66  C   UNL A   1      42.786  28.794  33.201  1.00  0.00     0.074 A 
ATOM     67  C   UNL A   1      43.319  27.663  32.470  1.00  0.00     0.031 C 
ATOM     68  C   UNL A   1      43.231  29.193  34.418  1.00  0.00     0.034 A 
BRANCH  55  69
ATOM     69  C   UNL A   1      40.530  34.338  36.523  1.00  0.00     0.023 A 
ATOM     70  C   UNL A   1      41.037  35.626  36.252  1.00  0.00     0.012 A 
ATOM     71  C   UNL A   1      39.927  34.084  37.771  1.00  0.00     0.148 A 
ATOM     72  C   UNL A   1      40.981  36.631  37.217  1.00  0.00     0.002 A 
ATOM     73  C   UNL A   1      39.834  35.104  38.711  1.00  0.00     0.091 A 
ATOM     74  F   UNL A   1      39.465  32.850  38.018  1.00  0.00    -0.205 F 
ATOM     75  C   UNL A   1      40.371  36.373  38.441  1.00  0.00     0.022 A 
BRANCH  73  76
ATOM     76  S   UNL A   1      38.999  34.897  40.289  1.00  0.00     0.127 S 
ATOM     77  O   UNL A   1      37.892  34.015  39.924  1.00  0.00    -0.237 OA
ATOM     78  O   UNL A   1      40.037  34.266  41.105  1.00  0.00    -0.237 OA
ATOM     79  O   UNL A   1      38.616  36.234  40.720  1.00  0.00    -0.744 OA
ENDBRANCH  73  76
ENDBRANCH  55  69
BRANCH  56  80
ATOM     80  C   UNL A   1      40.913  27.773  29.001  1.00  0.00     0.023 A 
ATOM     81  C   UNL A   1      40.059  26.651  28.982  1.00  0.00     0.012 A 
ATOM     82  C   UNL A   1      41.812  27.965  27.935  1.00  0.00     0.148 A 
ATOM     83  C   UNL A   1      40.122  25.724  27.941  1.00  0.00     0.002 A 
ATOM     84  C   UNL A   1      41.830  27.069  26.871  1.00  0.00     0.091 A 
ATOM     85  F   UNL A   1      42.629  29.028  27.975  1.00  0.00    -0.205 F 
ATOM     86  C   UNL A   1      40.999  25.937  26.881  1.00  0.00     0.022 A 
BRANCH  84  87
ATOM     87  S   UNL A   1      42.831  27.338  25.404  1.00  0.00     0.127 S 
ATOM     88  O   UNL A   1      42.631  26.091  24.671  1.00  0.00    -0.237 OA
ATOM     89  O   UNL A   1      42.190  28.513  24.811  1.00  0.00    -0.237 OA
ATOM     90  O   UNL A   1      44.183  27.578  25.892  1.00  0.00    -0.744 OA
ENDBRANCH  84  87
ENDBRANCH  56  80
BRANCH  68  91
ATOM     91  C   UNL A   1      44.326  28.386  35.063  1.00  0.00     0.023 A 
ATOM     92  C   UNL A   1      45.674  28.661  34.757  1.00  0.00     0.012 A 
ATOM     93  C   UNL A   1      44.022  27.409  36.031  1.00  0.00     0.148 A 
ATOM     94  C   UNL A   1      46.700  27.954  35.382  1.00  0.00     0.002 A 
ATOM     95  C   UNL A   1      45.051  26.743  36.687  1.00  0.00     0.091 A 
ATOM     96  F   UNL A   1      42.733  27.148  36.293  1.00  0.00    -0.205 F 
ATOM     97  C   UNL A   1      46.391  27.006  36.355  1.00  0.00     0.022 A 
BRANCH  95  98
ATOM     98  S   UNL A   1      44.748  25.580  38.021  1.00  0.00     0.127 S 
ATOM     99  O   UNL A   1      43.989  26.398  38.963  1.00  0.00    -0.237 OA
ATOM    100  O   UNL A   1      43.969  24.536  37.353  1.00  0.00    -0.237 OA
ATOM    101  O   UNL A   1      46.061  25.150  38.482  1.00  0.00    -0.744 OA
ENDBRANCH  95  98
ENDBRANCH  68  91
ENDBRANCH  42  43
ENDBRANCH  34  37
ENDBRANCH  32  33
ENDBRANCH  31  32
ENDBRANCH   1  31
TORSDOF 20
ENDMDL
MODEL 2
REMARK VINA RESULT:     -12.3      1.424      7.934
REMARK SMILES C[C@H](CN(Cc1ccccc1)C(=O)c1cc2ccccc2oc1=O)C(=O)NCCCCNC(=O)c1ccc(-c2c3nc(c(-c4cccc(S(=O)(=O)[O-])c4F)c4ccc([nH]4)c(-c4cccc(S(=O)(=O)[O-])c4F)c4nc(c(-c5cccc(S(=O)(=O)[O-])c5F)c5ccc2[nH]5)C=C4)C=C3)cc1
REMARK SMILES IDX 29 1 28 2 27 3 25 4 26 5 2 7 1 8 3 9 4 10 5 11 6 12 7 13
REMARK SMILES IDX 11 14 8 15 10 16 9 17 12 18 13 19 14 20 15 21 23 22 16 23
REMARK SMILES IDX 22 24 24 25 17 26 21 27 18 28 20 29 19 30 30 31 31 32 32 33
REMARK SMILES IDX 33 34 34 36 35 37 36 38 97 39 37 40 96 41 38 42 39 43 40 44
REMARK SMILES IDX 90 45 41 46 95 47 89 48 91 49 42 50 94 51 88 52 87 53 43 55
REMARK SMILES IDX 75 56 55 57 74 58 56 59 59 60 73 61 92 62 57 63 58 64 72 66
REMARK SMILES IDX 93 67 60 68 44 69 45 70 53 71 46 72 48 73 54 74 47 75 49 76
REMARK SMILES IDX 50 77 51 78 52 79 76 80 77 81 85 82 78 83 80 84 86 85 79 86
REMARK SMILES IDX 81 87 82 88 83 89 84 90 61 91 62 92 70 93 63 94 65 95 71 96
REMARK SMILES IDX 64 97 66 98 67 99 68 100 69 101
REMARK H PARENT 27 6 32 35 91 54 59 65
REMARK Flexibility Score: inf
ROOT
ATOM      1  C   UNL A   1      35.229  30.006  27.962  1.00  0.00     0.023 C 
ENDROOT
BRANCH   1   2
ATOM      2  C   UNL A   1      34.653  28.937  27.073  1.00  0.00     0.116 C 
BRANCH   2   3
ATOM      3  N   UNL A   1      33.383  28.506  27.630  1.00  0.00    -0.356 N 
ATOM      4  C   UNL A   1      32.404  27.708  27.096  1.00  0.00     0.224 C 
ATOM      5  O   UNL A   1      31.327  27.698  27.707  1.00  0.00    -0.275 OA
ATOM      6  H   UNL A   1      33.194  28.842  28.536  1.00  0.00     0.163 HD
BRANCH   4   7
ATOM      7  C   UNL A   1      32.561  26.825  25.804  1.00  0.00     0.095 C 
ATOM      8  C   UNL A   1      33.748  25.869  25.828  1.00  0.00     0.020 C 
BRANCH   7   9
ATOM      9  C   UNL A   1      32.159  27.426  24.390  1.00  0.00     0.133 C 
BRANCH   9  10
ATOM     10  N   UNL A   1      31.037  26.850  23.550  1.00  0.00    -0.333 N 
BRANCH  10  11
ATOM     11  C   UNL A   1      30.441  27.695  22.498  1.00  0.00     0.155 C 
BRANCH  11  12
ATOM     12  C   UNL A   1      29.480  28.728  23.076  1.00  0.00    -0.029 A 
ATOM     13  C   UNL A   1      28.095  28.534  22.966  1.00  0.00     0.005 A 
ATOM     14  C   UNL A   1      29.959  29.993  23.470  1.00  0.00     0.005 A 
ATOM     15  C   UNL A   1      27.219  29.607  23.150  1.00  0.00     0.000 A 
ATOM     16  C   UNL A   1      29.081  31.067  23.620  1.00  0.00     0.000 A 
ATOM     17  C   UNL A   1      27.713  30.877  23.444  1.00  0.00     0.000 A 
ENDBRANCH  11  12
ENDBRANCH  10  11
BRANCH  10  18
ATOM     18  C   UNL A   1      31.146  25.487  23.214  1.00  0.00     0.261 C 
ATOM     19  O   UNL A   1      31.812  25.183  22.216  1.00  0.00    -0.269 OA
BRANCH  18  20
ATOM     20  C   UNL A   1      30.693  24.376  24.202  1.00  0.00     0.126 A 
ATOM     21  C   UNL A   1      31.656  23.220  23.895  1.00  0.00     0.033 A 
ATOM     22  C   UNL A   1      30.100  24.783  26.016  1.00  0.00     0.349 A 
ATOM     23  C   UNL A   1      32.596  22.290  25.210  1.00  0.00     0.018 A 
ATOM     24  O   UNL A   1      31.051  23.841  27.257  1.00  0.00    -0.422 OA
ATOM     25  O   UNL A   1      29.195  25.548  26.338  1.00  0.00    -0.246 OA
ATOM     26  C   UNL A   1      33.721  21.616  24.844  1.00  0.00     0.012 A 
ATOM     27  C   UNL A   1      32.346  22.563  26.909  1.00  0.00     0.138 A 
ATOM     28  C   UNL A   1      34.598  21.329  25.910  1.00  0.00     0.001 A 
ATOM     29  C   UNL A   1      33.262  22.297  27.884  1.00  0.00     0.048 A 
ATOM     30  C   UNL A   1      34.397  21.674  27.325  1.00  0.00     0.004 A 
ENDBRANCH  18  20
ENDBRANCH  10  18
ENDBRANCH   9  10
ENDBRANCH   7   9
ENDBRANCH   4   7
ENDBRANCH   2   3
ENDBRANCH   1   2
BRANCH   1  31
ATOM     31  C   UNL A   1      34.904  31.634  27.677  1.00  0.00     0.023 C 
BRANCH  31  32
ATOM     32  C   UNL A   1      33.047  32.735  27.398  1.00  0.00     0.116 C 
BRANCH  32  33
ATOM     33  N   UNL A   1      32.611  34.203  27.782  1.00  0.00    -0.352 N 
ATOM     34  C   UNL A   1      33.157  35.055  28.737  1.00  0.00     0.251 C 
ATOM     35  H   UNL A   1      31.847  34.565  27.275  1.00  0.00     0.163 HD
ATOM     36  O   UNL A   1      32.582  36.112  28.991  1.00  0.00    -0.269 OA
BRANCH  34  37
ATOM     37  C   UNL A   1      34.350  34.669  29.542  1.00  0.00     0.039 A 
ATOM     38  C   UNL A   1      34.135  34.111  30.806  1.00  0.00     0.014 A 
ATOM     39  C   UNL A   1      35.657  34.802  29.070  1.00  0.00     0.014 A 
ATOM     40  C   UNL A   1      35.209  33.587  31.536  1.00  0.00     0.010 A 
ATOM     41  C   UNL A   1      36.713  34.185  29.750  1.00  0.00     0.010 A 
ATOM     42  C   UNL A   1      36.503  33.561  30.990  1.00  0.00    -0.014 A 
BRANCH  42  43
ATOM     43  C   UNL A   1      37.618  32.862  31.695  1.00  0.00     0.031 A 
ATOM     44  C   UNL A   1      38.327  31.696  31.055  1.00  0.00     0.074 A 
ATOM     45  C   UNL A   1      37.957  33.240  32.946  1.00  0.00     0.049 A 
ATOM     46  N   UNL A   1      39.319  30.979  31.518  1.00  0.00    -0.248 NA
ATOM     47  C   UNL A   1      37.847  31.262  29.734  1.00  0.00     0.031 C 
ATOM     48  C   UNL A   1      37.293  34.291  33.721  1.00  0.00     0.029 A 
ATOM     49  N   UNL A   1      38.935  32.777  33.797  1.00  0.00    -0.354 N 
ATOM     50  C   UNL A   1      39.556  29.992  30.568  1.00  0.00     0.074 A 
ATOM     51  C   UNL A   1      38.581  30.180  29.516  1.00  0.00     0.031 C 
ATOM     52  C   UNL A   1      37.894  34.410  34.916  1.00  0.00     0.029 A 
ATOM     53  C   UNL A   1      38.968  33.426  35.011  1.00  0.00     0.049 A 
ATOM     54  H   UNL A   1      39.554  32.051  33.558  1.00  0.00     0.167 HD
ATOM     55  C   UNL A   1      40.515  29.033  30.552  1.00  0.00     0.034 A 
ATOM     56  C   UNL A   1      39.771  33.253  36.080  1.00  0.00     0.034 A 
ATOM     57  C   UNL A   1      41.515  28.878  31.574  1.00  0.00     0.049 A 
ATOM     58  C   UNL A   1      40.865  32.220  36.013  1.00  0.00     0.074 A 
ATOM     59  C   UNL A   1      42.587  28.003  31.602  1.00  0.00     0.029 A 
ATOM     60  N   UNL A   1      41.566  29.610  32.750  1.00  0.00    -0.354 N 
ATOM     61  N   UNL A   1      41.176  31.411  35.029  1.00  0.00    -0.248 NA
ATOM     62  C   UNL A   1      41.743  32.100  37.187  1.00  0.00     0.031 C 
ATOM     63  C   UNL A   1      43.271  28.189  32.808  1.00  0.00     0.029 A 
ATOM     64  C   UNL A   1      42.642  29.199  33.518  1.00  0.00     0.049 A 
ATOM     65  H   UNL A   1      40.930  30.317  33.002  1.00  0.00     0.167 HD
ATOM     66  C   UNL A   1      42.303  30.714  35.448  1.00  0.00     0.074 A 
ATOM     67  C   UNL A   1      42.634  31.210  36.768  1.00  0.00     0.031 C 
ATOM     68  C   UNL A   1      42.993  29.740  34.806  1.00  0.00     0.034 A 
BRANCH  55  69
ATOM     69  C   UNL A   1      40.561  28.104  29.365  1.00  0.00     0.023 A 
ATOM     70  C   UNL A   1      39.637  27.043  29.274  1.00  0.00     0.012 A 
ATOM     71  C   UNL A   1      41.476  28.313  28.313  1.00  0.00     0.148 A 
ATOM     72  C   UNL A   1      39.647  26.181  28.177  1.00  0.00     0.002 A 
ATOM     73  C   UNL A   1      41.450  27.477  27.202  1.00  0.00     0.091 A 
ATOM     74  F   UNL A   1      42.358  29.315  28.423  1.00  0.00    -0.205 F 
ATOM     75  C   UNL A   1      40.546  26.404  27.139  1.00  0.00     0.022 A 
BRANCH  73  76
ATOM     76  S   UNL A   1      42.514  27.725  25.775  1.00  0.00     0.127 S 
ATOM     77  O   UNL A   1      42.239  26.523  24.990  1.00  0.00    -0.237 OA
ATOM     78  O   UNL A   1      41.979  28.961  25.205  1.00  0.00    -0.237 OA
ATOM     79  O   UNL A   1      43.869  27.832  26.299  1.00  0.00    -0.744 OA
ENDBRANCH  73  76
ENDBRANCH  55  69
BRANCH  56  80
ATOM     80  C   UNL A   1      39.622  34.127  37.281  1.00  0.00     0.023 A 
ATOM     81  C   UNL A   1      40.099  35.453  37.237  1.00  0.00     0.012 A 
ATOM     82  C   UNL A   1      38.994  33.667  38.453  1.00  0.00     0.148 A 
ATOM     83  C   UNL A   1      39.982  36.292  38.346  1.00  0.00     0.002 A 
ATOM     84  C   UNL A   1      38.828  34.525  39.536  1.00  0.00     0.091 A 
ATOM     85  F   UNL A   1      38.560  32.398  38.486  1.00  0.00    -0.205 F 
ATOM     86  C   UNL A   1      39.337  35.832  39.491  1.00  0.00     0.022 A 
BRANCH  84  87
ATOM     87  S   UNL A   1      37.892  34.059  40.997  1.00  0.00     0.127 S 
ATOM     88  O   UNL A   1      38.849  33.216  41.709  1.00  0.00    -0.237 OA
ATOM     89  O   UNL A   1      37.632  35.358  41.617  1.00  0.00    -0.237 OA
ATOM     90  O   UNL A   1      36.700  33.385  40.499  1.00  0.00    -0.744 OA
ENDBRANCH  84  87
ENDBRANCH  56  80
BRANCH  68  91
ATOM     91  C   UNL A   1      44.199  29.162  35.498  1.00  0.00     0.023 A 
ATOM     92  C   UNL A   1      45.452  29.794  35.369  1.00  0.00     0.012 A 
ATOM     93  C   UNL A   1      44.074  28.040  36.339  1.00  0.00     0.148 A 
ATOM     94  C   UNL A   1      46.568  29.298  36.042  1.00  0.00     0.002 A 
ATOM     95  C   UNL A   1      45.179  27.581  37.046  1.00  0.00     0.091 A 
ATOM     96  F   UNL A   1      42.878  27.440  36.432  1.00  0.00    -0.205 F 
ATOM     97  C   UNL A   1      46.429  28.202  36.890  1.00  0.00     0.022 A 
BRANCH  95  98
ATOM     98  S   UNL A   1      45.072  26.238  38.234  1.00  0.00     0.127 S 
ATOM     99  O   UNL A   1      45.278  25.069  37.383  1.00  0.00    -0.237 OA
ATOM    100  O   UNL A   1      46.180  26.537  39.142  1.00  0.00    -0.237 OA
ATOM    101  O   UNL A   1      43.751  26.346  38.841  1.00  0.00    -0.744 OA
ENDBRANCH  95  98
ENDBRANCH  68  91
ENDBRANCH  42  43
ENDBRANCH  34  37
ENDBRANCH  32  33
ENDBRANCH  31  32
ENDBRANCH   1  31
TORSDOF 20
ENDMDL
MODEL 3
REMARK VINA RESULT:     -12.3      1.457      7.983
REMARK SMILES C[C@H](CN(Cc1ccccc1)C(=O)c1cc2ccccc2oc1=O)C(=O)NCCCCNC(=O)c1ccc(-c2c3nc(c(-c4cccc(S(=O)(=O)[O-])c4F)c4ccc([nH]4)c(-c4cccc(S(=O)(=O)[O-])c4F)c4nc(c(-c5cccc(S(=O)(=O)[O-])c5F)c5ccc2[nH]5)C=C4)C=C3)cc1
REMARK SMILES IDX 29 1 28 2 27 3 25 4 26 5 2 7 1 8 3 9 4 10 5 11 6 12 7 13
REMARK SMILES IDX 11 14 8 15 10 16 9 17 12 18 13 19 14 20 15 21 23 22 16 23
REMARK SMILES IDX 22 24 24 25 17 26 21 27 18 28 20 29 19 30 30 31 31 32 32 33
REMARK SMILES IDX 33 34 34 36 35 37 36 38 97 39 37 40 96 41 38 42 39 43 40 44
REMARK SMILES IDX 90 45 41 46 95 47 89 48 91 49 42 50 94 51 88 52 87 53 43 55
REMARK SMILES IDX 75 56 55 57 74 58 56 59 59 60 73 61 92 62 57 63 58 64 72 66
REMARK SMILES IDX 93 67 60 68 44 69 45 70 53 71 46 72 48 73 54 74 47 75 49 76
REMARK SMILES IDX 50 77 51 78 52 79 76 80 77 81 85 82 78 83 80 84 86 85 79 86
REMARK SMILES IDX 81 87 82 88 83 89 84 90 61 91 62 92 70 93 63 94 65 95 71 96
REMARK SMILES IDX 64 97 66 98 67 99 68 100 69 101
REMARK H PARENT 27 6 32 35 91 54 59 65
REMARK Flexibility Score: inf
ROOT
ATOM      1  C   UNL A   1      34.871  29.620  27.683  1.00  0.00     0.023 C 
ENDROOT
BRANCH   1   2
ATOM      2  C   UNL A   1      34.820  29.050  26.291  1.00  0.00     0.116 C 
BRANCH   2   3
ATOM      3  N   UNL A   1      33.648  29.580  25.617  1.00  0.00    -0.356 N 
ATOM      4  C   UNL A   1      32.381  29.067  25.505  1.00  0.00     0.224 C 
ATOM      5  O   UNL A   1      31.647  29.625  24.678  1.00  0.00    -0.275 OA
ATOM      6  H   UNL A   1      33.785  30.445  25.168  1.00  0.00     0.163 HD
BRANCH   4   7
ATOM      7  C   UNL A   1      31.815  27.862  26.342  1.00  0.00     0.095 C 
ATOM      8  C   UNL A   1      31.438  28.207  27.778  1.00  0.00     0.020 C 
BRANCH   7   9
ATOM      9  C   UNL A   1      32.374  26.398  26.084  1.00  0.00     0.133 C 
BRANCH   9  10
ATOM     10  N   UNL A   1      31.464  25.202  25.887  1.00  0.00    -0.333 N 
BRANCH  10  11
ATOM     11  C   UNL A   1      31.545  24.091  26.855  1.00  0.00     0.155 C 
BRANCH  11  12
ATOM     12  C   UNL A   1      32.424  22.955  26.343  1.00  0.00    -0.029 A 
ATOM     13  C   UNL A   1      32.135  22.345  25.115  1.00  0.00     0.005 A 
ATOM     14  C   UNL A   1      33.348  22.336  27.208  1.00  0.00     0.005 A 
ATOM     15  C   UNL A   1      32.680  21.096  24.805  1.00  0.00     0.000 A 
ATOM     16  C   UNL A   1      33.865  21.075  26.907  1.00  0.00     0.000 A 
ATOM     17  C   UNL A   1      33.518  20.449  25.713  1.00  0.00     0.000 A 
ENDBRANCH  11  12
ENDBRANCH  10  11
BRANCH  10  18
ATOM     18  C   UNL A   1      30.165  25.477  25.419  1.00  0.00     0.261 C 
ATOM     19  O   UNL A   1      29.270  25.659  26.254  1.00  0.00    -0.269 OA
BRANCH  18  20
ATOM     20  C   UNL A   1      29.905  25.822  23.927  1.00  0.00     0.126 A 
ATOM     21  C   UNL A   1      28.579  26.594  23.972  1.00  0.00     0.033 A 
ATOM     22  C   UNL A   1      31.350  26.304  22.708  1.00  0.00     0.349 A 
ATOM     23  C   UNL A   1      28.316  28.232  23.118  1.00  0.00     0.018 A 
ATOM     24  O   UNL A   1      31.034  27.909  21.900  1.00  0.00    -0.422 OA
ATOM     25  O   UNL A   1      32.354  25.641  22.461  1.00  0.00    -0.246 OA
ATOM     26  C   UNL A   1      27.310  29.036  23.562  1.00  0.00     0.012 A 
ATOM     27  C   UNL A   1      29.510  28.948  22.078  1.00  0.00     0.138 A 
ATOM     28  C   UNL A   1      27.448  30.391  23.197  1.00  0.00     0.001 A 
ATOM     29  C   UNL A   1      29.607  30.280  21.803  1.00  0.00     0.048 A 
ATOM     30  C   UNL A   1      28.536  30.977  22.401  1.00  0.00     0.004 A 
ENDBRANCH  18  20
ENDBRANCH  10  18
ENDBRANCH   9  10
ENDBRANCH   7   9
ENDBRANCH   4   7
ENDBRANCH   2   3
ENDBRANCH   1   2
BRANCH   1  31
ATOM     31  C   UNL A   1      34.515  31.242  27.966  1.00  0.00     0.023 C 
BRANCH  31  32
ATOM     32  C   UNL A   1      32.815  32.490  27.421  1.00  0.00     0.116 C 
BRANCH  32  33
ATOM     33  N   UNL A   1      32.478  34.007  27.693  1.00  0.00    -0.352 N 
ATOM     34  C   UNL A   1      33.095  34.897  28.567  1.00  0.00     0.251 C 
ATOM     35  H   UNL A   1      31.727  34.375  27.171  1.00  0.00     0.163 HD
ATOM     36  O   UNL A   1      32.591  36.005  28.745  1.00  0.00    -0.269 OA
BRANCH  34  37
ATOM     37  C   UNL A   1      34.280  34.502  29.380  1.00  0.00     0.039 A 
ATOM     38  C   UNL A   1      34.053  33.953  30.646  1.00  0.00     0.014 A 
ATOM     39  C   UNL A   1      35.591  34.619  28.914  1.00  0.00     0.014 A 
ATOM     40  C   UNL A   1      35.118  33.421  31.384  1.00  0.00     0.010 A 
ATOM     41  C   UNL A   1      36.637  33.994  29.603  1.00  0.00     0.010 A 
ATOM     42  C   UNL A   1      36.414  33.379  30.844  1.00  0.00    -0.014 A 
BRANCH  42  43
ATOM     43  C   UNL A   1      37.517  32.672  31.559  1.00  0.00     0.031 A 
ATOM     44  C   UNL A   1      38.236  31.512  30.917  1.00  0.00     0.074 A 
ATOM     45  C   UNL A   1      37.838  33.036  32.819  1.00  0.00     0.049 A 
ATOM     46  N   UNL A   1      39.220  30.789  31.388  1.00  0.00    -0.248 NA
ATOM     47  C   UNL A   1      37.775  31.093  29.584  1.00  0.00     0.031 C 
ATOM     48  C   UNL A   1      37.163  34.079  33.595  1.00  0.00     0.029 A 
ATOM     49  N   UNL A   1      38.802  32.564  33.679  1.00  0.00    -0.354 N 
ATOM     50  C   UNL A   1      39.471  29.812  30.430  1.00  0.00     0.074 A 
ATOM     51  C   UNL A   1      38.512  30.012  29.366  1.00  0.00     0.031 C 
ATOM     52  C   UNL A   1      37.746  34.185  34.800  1.00  0.00     0.029 A 
ATOM     53  C   UNL A   1      38.818  33.199  34.901  1.00  0.00     0.049 A 
ATOM     54  H   UNL A   1      39.425  31.839  33.442  1.00  0.00     0.167 HD
ATOM     55  C   UNL A   1      40.429  28.854  30.419  1.00  0.00     0.034 A 
ATOM     56  C   UNL A   1      39.605  33.014  35.980  1.00  0.00     0.034 A 
ATOM     57  C   UNL A   1      41.415  28.687  31.454  1.00  0.00     0.049 A 
ATOM     58  C   UNL A   1      40.699  31.982  35.918  1.00  0.00     0.074 A 
ATOM     59  C   UNL A   1      42.485  27.811  31.489  1.00  0.00     0.029 A 
ATOM     60  N   UNL A   1      41.448  29.406  32.638  1.00  0.00    -0.354 N 
ATOM     61  N   UNL A   1      41.025  31.183  34.930  1.00  0.00    -0.248 NA
ATOM     62  C   UNL A   1      41.560  31.849  37.104  1.00  0.00     0.031 C 
ATOM     63  C   UNL A   1      43.151  27.983  32.707  1.00  0.00     0.029 A 
ATOM     64  C   UNL A   1      42.512  28.986  33.418  1.00  0.00     0.049 A 
ATOM     65  H   UNL A   1      40.808  30.111  32.888  1.00  0.00     0.167 HD
ATOM     66  C   UNL A   1      42.145  30.481  35.359  1.00  0.00     0.074 A 
ATOM     67  C   UNL A   1      42.455  30.963  36.689  1.00  0.00     0.031 C 
ATOM     68  C   UNL A   1      42.843  29.513  34.717  1.00  0.00     0.034 A 
BRANCH  55  69
ATOM     69  C   UNL A   1      40.493  27.937  29.223  1.00  0.00     0.023 A 
ATOM     70  C   UNL A   1      39.599  26.851  29.128  1.00  0.00     0.012 A 
ATOM     71  C   UNL A   1      41.394  28.181  28.166  1.00  0.00     0.148 A 
ATOM     72  C   UNL A   1      39.625  26.000  28.023  1.00  0.00     0.002 A 
ATOM     73  C   UNL A   1      41.383  27.355  27.048  1.00  0.00     0.091 A 
ATOM     74  F   UNL A   1      42.249  29.207  28.279  1.00  0.00    -0.205 F 
ATOM     75  C   UNL A   1      40.509  26.258  26.981  1.00  0.00     0.022 A 
BRANCH  73  76
ATOM     76  S   UNL A   1      42.430  27.646  25.616  1.00  0.00     0.127 S 
ATOM     77  O   UNL A   1      43.757  27.698  26.226  1.00  0.00    -0.237 OA
ATOM     78  O   UNL A   1      42.178  26.455  24.805  1.00  0.00    -0.237 OA
ATOM     79  O   UNL A   1      41.964  28.894  25.026  1.00  0.00    -0.744 OA
ENDBRANCH  73  76
ENDBRANCH  55  69
BRANCH  56  80
ATOM     80  C   UNL A   1      39.438  33.876  37.188  1.00  0.00     0.023 A 
ATOM     81  C   UNL A   1      39.897  35.209  37.157  1.00  0.00     0.012 A 
ATOM     82  C   UNL A   1      38.811  33.396  38.353  1.00  0.00     0.148 A 
ATOM     83  C   UNL A   1      39.762  36.036  38.273  1.00  0.00     0.002 A 
ATOM     84  C   UNL A   1      38.628  34.242  39.442  1.00  0.00     0.091 A 
ATOM     85  F   UNL A   1      38.395  32.122  38.372  1.00  0.00    -0.205 F 
ATOM     86  C   UNL A   1      39.119  35.557  39.411  1.00  0.00     0.022 A 
BRANCH  84  87
ATOM     87  S   UNL A   1      37.693  33.751  40.895  1.00  0.00     0.127 S 
ATOM     88  O   UNL A   1      36.513  33.131  40.297  1.00  0.00    -0.237 OA
ATOM     89  O   UNL A   1      38.614  32.822  41.549  1.00  0.00    -0.237 OA
ATOM     90  O   UNL A   1      37.455  34.980  41.640  1.00  0.00    -0.744 OA
ENDBRANCH  84  87
ENDBRANCH  56  80
BRANCH  68  91
ATOM     91  C   UNL A   1      44.039  28.927  35.421  1.00  0.00     0.023 A 
ATOM     92  C   UNL A   1      45.312  29.505  35.241  1.00  0.00     0.012 A 
ATOM     93  C   UNL A   1      43.886  27.855  36.321  1.00  0.00     0.148 A 
ATOM     94  C   UNL A   1      46.419  29.003  35.923  1.00  0.00     0.002 A 
ATOM     95  C   UNL A   1      44.985  27.392  37.035  1.00  0.00     0.091 A 
ATOM     96  F   UNL A   1      42.671  27.307  36.463  1.00  0.00    -0.205 F 
ATOM     97  C   UNL A   1      46.255  27.957  36.829  1.00  0.00     0.022 A 
BRANCH  95  98
ATOM     98  S   UNL A   1      44.848  26.118  38.294  1.00  0.00     0.127 S 
ATOM     99  O   UNL A   1      46.232  25.994  38.744  1.00  0.00    -0.237 OA
ATOM    100  O   UNL A   1      43.943  26.735  39.264  1.00  0.00    -0.237 OA
ATOM    101  O   UNL A   1      44.302  24.948  37.620  1.00  0.00    -0.744 OA
ENDBRANCH  95  98
ENDBRANCH  68  91
ENDBRANCH  42  43
ENDBRANCH  34  37
ENDBRANCH  32  33
ENDBRANCH  31  32
ENDBRANCH   1  31
TORSDOF 20
ENDMDL
