MODEL 1
REMARK VINA RESULT:     -14.6      0.000      0.000
REMARK SMILES Cc1c(NC(=O)[C@@H]2CC=CC[C@@H]2C(=O)NCCCCNC(=O)c2ccc(-c3c4nc(c(-c5cccc(S(=O)(=O)[O-])c5F)c5ccc([nH]5)c(-c5cccc(S(=O)(=O)[O-])c5F)c5nc(c(-c6cccc(S(=O)(=O)[O-])c6F)c6ccc3[nH]6)C=C5)C=C4)cc2)cccc1C(=O)N1CCOCC1
REMARK SMILES IDX 17 1 16 2 15 3 13 4 14 5 12 7 7 8 8 9 9 10 11 11 10 12 5 13
REMARK SMILES IDX 4 14 6 16 3 17 1 18 2 19 89 20 86 21 88 22 87 23 90 24 91 25
REMARK SMILES IDX 92 26 93 27 97 28 94 29 96 30 95 31 18 32 19 33 20 34 21 35
REMARK SMILES IDX 22 37 23 38 24 39 85 40 25 41 84 42 26 43 27 44 28 45 78 46
REMARK SMILES IDX 29 47 83 48 77 49 79 50 30 51 82 52 76 53 75 54 31 56 63 57
REMARK SMILES IDX 43 58 62 59 44 60 47 61 61 62 80 63 45 64 46 65 60 67 81 68
REMARK SMILES IDX 48 69 32 70 33 71 41 72 34 73 36 74 42 75 35 76 37 77 38 78
REMARK SMILES IDX 39 79 40 80 64 81 65 82 73 83 66 84 68 85 74 86 67 87 69 88
REMARK SMILES IDX 70 89 71 90 72 91 49 92 50 93 58 94 51 95 53 96 59 97 52 98
REMARK SMILES IDX 54 99 55 100 56 101 57 102
REMARK H PARENT 15 6 4 15 20 36 79 55 47 66
REMARK Flexibility Score: inf
ROOT
ATOM      1  C   UNL A   1      34.172  29.092  27.411  1.00  0.00     0.023 C 
ENDROOT
BRANCH   1   2
ATOM      2  C   UNL A   1      33.811  28.232  26.161  1.00  0.00     0.116 C 
BRANCH   2   3
ATOM      3  N   UNL A   1      32.630  28.680  25.418  1.00  0.00    -0.356 N 
ATOM      4  C   UNL A   1      31.613  28.148  24.695  1.00  0.00     0.224 C 
ATOM      5  O   UNL A   1      30.748  28.985  24.375  1.00  0.00    -0.275 OA
ATOM      6  H   UNL A   1      32.551  29.662  25.454  1.00  0.00     0.163 HD
BRANCH   4   7
ATOM      7  C   UNL A   1      31.367  26.688  24.224  1.00  0.00     0.095 C 
ATOM      8  C   UNL A   1      32.309  25.526  24.567  1.00  0.00     0.095 C 
ATOM      9  C   UNL A   1      33.688  25.836  24.002  1.00  0.00     0.041 C 
ATOM     10  C   UNL A   1      33.647  26.149  22.538  1.00  0.00    -0.030 C 
ATOM     11  C   UNL A   1      31.205  26.678  22.675  1.00  0.00     0.041 C 
ATOM     12  C   UNL A   1      32.510  26.518  21.932  1.00  0.00    -0.030 C 
BRANCH   8  13
ATOM     13  C   UNL A   1      32.200  25.147  26.021  1.00  0.00     0.228 C 
ATOM     14  N   UNL A   1      32.757  24.034  26.548  1.00  0.00    -0.326 N 
ATOM     15  H   UNL A   1      32.638  23.999  27.524  1.00  0.00     0.169 HD
ATOM     16  O   UNL A   1      31.561  25.845  26.817  1.00  0.00    -0.274 OA
BRANCH  14  17
ATOM     17  C   UNL A   1      33.463  22.908  26.076  1.00  0.00     0.044 A 
ATOM     18  C   UNL A   1      31.230  22.076  25.378  1.00  0.00     0.047 C 
ATOM     19  C   UNL A   1      32.719  21.953  25.328  1.00  0.00    -0.015 A 
ATOM     20  C   UNL A   1      33.362  20.871  24.688  1.00  0.00     0.045 A 
ATOM     21  C   UNL A   1      34.817  22.681  26.295  1.00  0.00     0.026 A 
ATOM     22  C   UNL A   1      34.720  20.660  24.983  1.00  0.00     0.014 A 
ATOM     23  C   UNL A   1      35.429  21.531  25.806  1.00  0.00     0.003 A 
BRANCH  20  24
ATOM     24  C   UNL A   1      32.708  19.789  23.865  1.00  0.00     0.254 C 
ATOM     25  O   UNL A   1      32.100  20.129  22.846  1.00  0.00    -0.269 OA
ATOM     26  N   UNL A   1      32.877  18.441  24.155  1.00  0.00    -0.334 N 
ATOM     27  C   UNL A   1      32.583  17.778  25.433  1.00  0.00     0.148 C 
ATOM     28  C   UNL A   1      32.986  17.520  23.027  1.00  0.00     0.148 C 
ATOM     29  C   UNL A   1      33.496  16.552  25.669  1.00  0.00     0.181 C 
ATOM     30  C   UNL A   1      34.018  16.442  23.356  1.00  0.00     0.181 C 
ATOM     31  O   UNL A   1      33.594  15.704  24.514  1.00  0.00    -0.378 OA
ENDBRANCH  20  24
ENDBRANCH  14  17
ENDBRANCH   8  13
ENDBRANCH   4   7
ENDBRANCH   2   3
ENDBRANCH   1   2
BRANCH   1  32
ATOM     32  C   UNL A   1      34.756  30.498  27.233  1.00  0.00     0.023 C 
BRANCH  32  33
ATOM     33  C   UNL A   1      34.478  31.431  28.395  1.00  0.00     0.116 C 
BRANCH  33  34
ATOM     34  N   UNL A   1      35.567  32.154  29.071  1.00  0.00    -0.352 N 
ATOM     35  C   UNL A   1      36.736  31.680  29.728  1.00  0.00     0.251 C 
ATOM     36  H   UNL A   1      35.470  33.134  29.066  1.00  0.00     0.163 HD
ATOM     37  O   UNL A   1      37.415  32.494  30.354  1.00  0.00    -0.269 OA
BRANCH  35  38
ATOM     38  C   UNL A   1      37.284  30.294  29.476  1.00  0.00     0.039 A 
ATOM     39  C   UNL A   1      37.264  28.924  30.680  1.00  0.00     0.014 A 
ATOM     40  C   UNL A   1      38.544  30.306  28.233  1.00  0.00     0.014 A 
ATOM     41  C   UNL A   1      38.577  27.642  30.589  1.00  0.00     0.010 A 
ATOM     42  C   UNL A   1      39.931  29.242  28.271  1.00  0.00     0.010 A 
ATOM     43  C   UNL A   1      39.984  27.917  29.426  1.00  0.00    -0.014 A 
BRANCH  43  44
ATOM     44  C   UNL A   1      41.370  27.470  29.350  1.00  0.00     0.031 A 
ATOM     45  C   UNL A   1      41.498  26.155  28.738  1.00  0.00     0.074 A 
ATOM     46  C   UNL A   1      42.324  28.445  29.497  1.00  0.00     0.049 A 
ATOM     47  N   UNL A   1      42.076  25.124  29.233  1.00  0.00    -0.248 NA
ATOM     48  C   UNL A   1      40.823  25.884  27.458  1.00  0.00     0.031 C 
ATOM     49  C   UNL A   1      43.781  28.487  29.579  1.00  0.00     0.029 A 
ATOM     50  N   UNL A   1      42.059  29.757  29.924  1.00  0.00    -0.354 N 
ATOM     51  C   UNL A   1      42.274  24.306  28.135  1.00  0.00     0.074 A 
ATOM     52  C   UNL A   1      41.226  24.638  27.210  1.00  0.00     0.031 C 
ATOM     53  C   UNL A   1      44.117  29.394  30.542  1.00  0.00     0.029 A 
ATOM     54  C   UNL A   1      42.872  29.990  31.030  1.00  0.00     0.049 A 
ATOM     55  H   UNL A   1      41.422  30.390  29.519  1.00  0.00     0.167 HD
ATOM     56  C   UNL A   1      43.535  23.843  27.886  1.00  0.00     0.034 A 
ATOM     57  C   UNL A   1      42.256  29.836  32.251  1.00  0.00     0.034 A 
ATOM     58  C   UNL A   1      44.471  24.463  28.859  1.00  0.00     0.049 A 
ATOM     59  C   UNL A   1      42.776  28.544  32.846  1.00  0.00     0.074 A 
ATOM     60  C   UNL A   1      45.417  25.471  28.750  1.00  0.00     0.029 A 
ATOM     61  N   UNL A   1      44.208  24.345  30.227  1.00  0.00    -0.354 N 
ATOM     62  N   UNL A   1      43.063  27.482  32.138  1.00  0.00    -0.248 NA
ATOM     63  C   UNL A   1      43.252  28.456  34.221  1.00  0.00     0.031 C 
ATOM     64  C   UNL A   1      45.626  26.019  30.057  1.00  0.00     0.029 A 
ATOM     65  C   UNL A   1      44.748  25.408  30.941  1.00  0.00     0.049 A 
ATOM     66  H   UNL A   1      43.702  23.605  30.633  1.00  0.00     0.167 HD
ATOM     67  C   UNL A   1      43.871  26.655  32.863  1.00  0.00     0.074 A 
ATOM     68  C   UNL A   1      43.937  27.301  34.174  1.00  0.00     0.031 C 
ATOM     69  C   UNL A   1      44.491  25.534  32.376  1.00  0.00     0.034 A 
BRANCH  56  70
ATOM     70  C   UNL A   1      43.988  23.138  26.610  1.00  0.00     0.023 A 
ATOM     71  C   UNL A   1      44.691  23.922  25.668  1.00  0.00     0.012 A 
ATOM     72  C   UNL A   1      43.855  21.758  26.284  1.00  0.00     0.148 A 
ATOM     73  C   UNL A   1      45.199  23.400  24.473  1.00  0.00     0.002 A 
ATOM     74  C   UNL A   1      44.334  21.242  25.071  1.00  0.00     0.091 A 
ATOM     75  F   UNL A   1      43.337  20.907  27.172  1.00  0.00    -0.205 F 
ATOM     76  C   UNL A   1      45.011  22.063  24.167  1.00  0.00     0.022 A 
BRANCH  74  77
ATOM     77  S   UNL A   1      44.152  19.512  24.577  1.00  0.00     0.127 S 
ATOM     78  O   UNL A   1      44.441  19.571  23.143  1.00  0.00    -0.237 OA
ATOM     79  O   UNL A   1      45.187  18.853  25.373  1.00  0.00    -0.237 OA
ATOM     80  O   UNL A   1      42.783  19.131  24.899  1.00  0.00    -0.744 OA
ENDBRANCH  74  77
ENDBRANCH  56  70
BRANCH  57  81
ATOM     81  C   UNL A   1      40.778  30.310  32.204  1.00  0.00     0.023 A 
ATOM     82  C   UNL A   1      39.862  29.388  32.662  1.00  0.00     0.012 A 
ATOM     83  C   UNL A   1      40.534  31.650  32.589  1.00  0.00     0.148 A 
ATOM     84  C   UNL A   1      39.228  29.632  33.872  1.00  0.00     0.002 A 
ATOM     85  C   UNL A   1      39.839  32.191  33.993  1.00  0.00     0.091 A 
ATOM     86  F   UNL A   1      41.012  32.400  31.563  1.00  0.00    -0.205 F 
ATOM     87  C   UNL A   1      39.359  30.873  34.558  1.00  0.00     0.022 A 
BRANCH  85  88
ATOM     88  S   UNL A   1      39.709  34.584  34.921  1.00  0.00     0.127 S 
ATOM     89  O   UNL A   1      40.937  35.368  34.584  1.00  0.00    -0.237 OA
ATOM     90  O   UNL A   1      38.558  35.393  34.403  1.00  0.00    -0.237 OA
ATOM     91  O   UNL A   1      39.539  34.649  36.404  1.00  0.00    -0.744 OA
ENDBRANCH  85  88
ENDBRANCH  57  81
BRANCH  69  92
ATOM     92  C   UNL A   1      44.918  24.406  33.287  1.00  0.00     0.023 A 
ATOM     93  C   UNL A   1      44.106  23.269  33.465  1.00  0.00     0.012 A 
ATOM     94  C   UNL A   1      46.226  24.353  33.825  1.00  0.00     0.148 A 
ATOM     95  C   UNL A   1      44.515  22.183  34.231  1.00  0.00     0.002 A 
ATOM     96  C   UNL A   1      46.684  23.201  34.445  1.00  0.00     0.091 A 
ATOM     97  F   UNL A   1      47.037  25.416  33.745  1.00  0.00    -0.205 F 
ATOM     98  C   UNL A   1      45.816  22.137  34.700  1.00  0.00     0.022 A 
BRANCH  96  99
ATOM     99  S   UNL A   1      48.427  22.945  34.786  1.00  0.00     0.127 S 
ATOM    100  O   UNL A   1      48.512  23.343  36.190  1.00  0.00    -0.237 OA
ATOM    101  O   UNL A   1      48.572  21.508  34.547  1.00  0.00    -0.237 OA
ATOM    102  O   UNL A   1      49.147  23.788  33.841  1.00  0.00    -0.744 OA
ENDBRANCH  96  99
ENDBRANCH  69  92
ENDBRANCH  43  44
ENDBRANCH  35  38
ENDBRANCH  33  34
ENDBRANCH  32  33
ENDBRANCH   1  32
TORSDOF 17
ENDMDL
MODEL 2
REMARK VINA RESULT:     -14.1      2.269      3.216
REMARK SMILES Cc1c(NC(=O)[C@@H]2CC=CC[C@@H]2C(=O)NCCCCNC(=O)c2ccc(-c3c4nc(c(-c5cccc(S(=O)(=O)[O-])c5F)c5ccc([nH]5)c(-c5cccc(S(=O)(=O)[O-])c5F)c5nc(c(-c6cccc(S(=O)(=O)[O-])c6F)c6ccc3[nH]6)C=C5)C=C4)cc2)cccc1C(=O)N1CCOCC1
REMARK SMILES IDX 17 1 16 2 15 3 13 4 14 5 12 7 7 8 8 9 9 10 11 11 10 12 5 13
REMARK SMILES IDX 4 14 6 16 3 17 1 18 2 19 89 20 86 21 88 22 87 23 90 24 91 25
REMARK SMILES IDX 92 26 93 27 97 28 94 29 96 30 95 31 18 32 19 33 20 34 21 35
REMARK SMILES IDX 22 37 23 38 24 39 85 40 25 41 84 42 26 43 27 44 28 45 78 46
REMARK SMILES IDX 29 47 83 48 77 49 79 50 30 51 82 52 76 53 75 54 31 56 63 57
REMARK SMILES IDX 43 58 62 59 44 60 47 61 61 62 80 63 45 64 46 65 60 67 81 68
REMARK SMILES IDX 48 69 32 70 33 71 41 72 34 73 36 74 42 75 35 76 37 77 38 78
REMARK SMILES IDX 39 79 40 80 64 81 65 82 73 83 66 84 68 85 74 86 67 87 69 88
REMARK SMILES IDX 70 89 71 90 72 91 49 92 50 93 58 94 51 95 53 96 59 97 52 98
REMARK SMILES IDX 54 99 55 100 56 101 57 102
REMARK H PARENT 15 6 4 15 20 36 79 55 47 66
REMARK Flexibility Score: inf
ROOT
ATOM      1  C   UNL A   1      35.162  29.353  28.086  1.00  0.00     0.023 C 
ENDROOT
BRANCH   1   2
ATOM      2  C   UNL A   1      34.473  28.891  26.765  1.00  0.00     0.116 C 
BRANCH   2   3
ATOM      3  N   UNL A   1      33.331  29.707  26.342  1.00  0.00    -0.356 N 
ATOM      4  C   UNL A   1      32.173  29.565  25.650  1.00  0.00     0.224 C 
ATOM      5  O   UNL A   1      31.450  30.578  25.692  1.00  0.00    -0.275 OA
ATOM      6  H   UNL A   1      33.435  30.636  26.654  1.00  0.00     0.163 HD
BRANCH   4   7
ATOM      7  C   UNL A   1      31.624  28.359  24.840  1.00  0.00     0.095 C 
ATOM      8  C   UNL A   1      32.324  26.994  24.789  1.00  0.00     0.095 C 
ATOM      9  C   UNL A   1      33.718  27.185  24.208  1.00  0.00     0.041 C 
ATOM     10  C   UNL A   1      33.693  27.884  22.885  1.00  0.00    -0.030 C 
ATOM     11  C   UNL A   1      31.412  28.798  23.361  1.00  0.00     0.041 C 
ATOM     12  C   UNL A   1      32.634  28.607  22.493  1.00  0.00    -0.030 C 
BRANCH   8  13
ATOM     13  C   UNL A   1      32.189  26.263  26.099  1.00  0.00     0.228 C 
ATOM     14  N   UNL A   1      32.705  25.034  26.327  1.00  0.00    -0.326 N 
ATOM     15  H   UNL A   1      32.575  24.757  27.263  1.00  0.00     0.169 HD
ATOM     16  O   UNL A   1      31.564  26.756  27.045  1.00  0.00    -0.274 OA
BRANCH  14  17
ATOM     17  C   UNL A   1      33.380  24.042  25.586  1.00  0.00     0.044 A 
ATOM     18  C   UNL A   1      31.152  22.955  25.432  1.00  0.00     0.047 C 
ATOM     19  C   UNL A   1      32.574  23.038  24.979  1.00  0.00    -0.015 A 
ATOM     20  C   UNL A   1      33.137  22.090  24.097  1.00  0.00     0.045 A 
ATOM     21  C   UNL A   1      34.758  23.989  25.417  1.00  0.00     0.026 A 
ATOM     22  C   UNL A   1      34.540  22.049  24.002  1.00  0.00     0.014 A 
ATOM     23  C   UNL A   1      35.341  22.961  24.683  1.00  0.00     0.003 A 
BRANCH  20  24
ATOM     24  C   UNL A   1      32.413  20.976  23.383  1.00  0.00     0.254 C 
ATOM     25  O   UNL A   1      31.821  21.253  22.336  1.00  0.00    -0.269 OA
ATOM     26  N   UNL A   1      32.499  19.655  23.802  1.00  0.00    -0.334 N 
ATOM     27  C   UNL A   1      32.173  19.137  25.138  1.00  0.00     0.148 C 
ATOM     28  C   UNL A   1      32.544  18.624  22.768  1.00  0.00     0.148 C 
ATOM     29  C   UNL A   1      33.009  17.885  25.492  1.00  0.00     0.181 C 
ATOM     30  C   UNL A   1      33.509  17.521  23.200  1.00  0.00     0.181 C 
ATOM     31  O   UNL A   1      33.047  16.926  24.423  1.00  0.00    -0.378 OA
ENDBRANCH  20  24
ENDBRANCH  14  17
ENDBRANCH   8  13
ENDBRANCH   4   7
ENDBRANCH   2   3
ENDBRANCH   1   2
BRANCH   1  32
ATOM     32  C   UNL A   1      36.137  30.535  28.071  1.00  0.00     0.023 C 
BRANCH  32  33
ATOM     33  C   UNL A   1      35.461  31.891  28.096  1.00  0.00     0.116 C 
BRANCH  33  34
ATOM     34  N   UNL A   1      34.632  32.311  29.237  1.00  0.00    -0.352 N 
ATOM     35  C   UNL A   1      34.966  32.537  30.601  1.00  0.00     0.251 C 
ATOM     36  H   UNL A   1      33.684  32.463  29.019  1.00  0.00     0.163 HD
ATOM     37  O   UNL A   1      34.046  32.734  31.394  1.00  0.00    -0.269 OA
BRANCH  35  38
ATOM     38  C   UNL A   1      36.392  32.781  31.041  1.00  0.00     0.039 A 
ATOM     39  C   UNL A   1      37.578  33.876  30.190  1.00  0.00     0.014 A 
ATOM     40  C   UNL A   1      37.024  31.427  31.988  1.00  0.00     0.014 A 
ATOM     41  C   UNL A   1      39.373  33.502  30.307  1.00  0.00     0.010 A 
ATOM     42  C   UNL A   1      38.694  30.913  31.921  1.00  0.00     0.010 A 
ATOM     43  C   UNL A   1      39.883  31.912  31.094  1.00  0.00    -0.014 A 
BRANCH  43  44
ATOM     44  C   UNL A   1      41.043  31.033  31.001  1.00  0.00     0.031 A 
ATOM     45  C   UNL A   1      40.789  29.862  30.175  1.00  0.00     0.074 A 
ATOM     46  C   UNL A   1      42.246  31.589  31.356  1.00  0.00     0.049 A 
ATOM     47  N   UNL A   1      40.941  28.633  30.507  1.00  0.00    -0.248 NA
ATOM     48  C   UNL A   1      40.193  30.032  28.840  1.00  0.00     0.031 C 
ATOM     49  C   UNL A   1      43.619  31.116  31.506  1.00  0.00     0.029 A 
ATOM     50  N   UNL A   1      42.390  32.833  31.993  1.00  0.00    -0.354 N 
ATOM     51  C   UNL A   1      40.965  27.971  29.293  1.00  0.00     0.074 A 
ATOM     52  C   UNL A   1      40.182  28.776  28.396  1.00  0.00     0.031 C 
ATOM     53  C   UNL A   1      44.140  31.698  32.625  1.00  0.00     0.029 A 
ATOM     54  C   UNL A   1      43.120  32.605  33.156  1.00  0.00     0.049 A 
ATOM     55  H   UNL A   1      42.042  33.699  31.678  1.00  0.00     0.167 HD
ATOM     56  C   UNL A   1      42.019  27.146  29.021  1.00  0.00     0.034 A 
ATOM     57  C   UNL A   1      42.370  32.491  34.304  1.00  0.00     0.034 A 
ATOM     58  C   UNL A   1      43.007  27.254  30.126  1.00  0.00     0.049 A 
ATOM     59  C   UNL A   1      42.372  31.025  34.687  1.00  0.00     0.074 A 
ATOM     60  C   UNL A   1      44.239  27.882  30.235  1.00  0.00     0.029 A 
ATOM     61  N   UNL A   1      42.585  27.032  31.440  1.00  0.00    -0.354 N 
ATOM     62  N   UNL A   1      42.359  30.048  33.818  1.00  0.00    -0.248 NA
ATOM     63  C   UNL A   1      42.652  30.575  36.045  1.00  0.00     0.031 C 
ATOM     64  C   UNL A   1      44.487  28.123  31.625  1.00  0.00     0.029 A 
ATOM     65  C   UNL A   1      43.373  27.725  32.351  1.00  0.00     0.049 A 
ATOM     66  H   UNL A   1      41.825  26.458  31.689  1.00  0.00     0.167 HD
ATOM     67  C   UNL A   1      42.772  28.896  34.422  1.00  0.00     0.074 A 
ATOM     68  C   UNL A   1      42.917  29.276  35.826  1.00  0.00     0.031 C 
ATOM     69  C   UNL A   1      43.031  27.716  33.773  1.00  0.00     0.034 A 
BRANCH  56  70
ATOM     70  C   UNL A   1      42.338  26.528  27.662  1.00  0.00     0.023 A 
ATOM     71  C   UNL A   1      42.592  27.426  26.602  1.00  0.00     0.012 A 
ATOM     72  C   UNL A   1      42.486  25.147  27.347  1.00  0.00     0.148 A 
ATOM     73  C   UNL A   1      42.935  27.001  25.313  1.00  0.00     0.002 A 
ATOM     74  C   UNL A   1      42.796  24.720  26.048  1.00  0.00     0.091 A 
ATOM     75  F   UNL A   1      42.410  24.228  28.313  1.00  0.00    -0.205 F 
ATOM     76  C   UNL A   1      43.026  25.649  25.031  1.00  0.00     0.022 A 
BRANCH  74  77
ATOM     77  S   UNL A   1      42.949  22.982  25.574  1.00  0.00     0.127 S 
ATOM     78  O   UNL A   1      44.017  22.515  26.461  1.00  0.00    -0.237 OA
ATOM     79  O   UNL A   1      41.624  22.455  25.901  1.00  0.00    -0.237 OA
ATOM     80  O   UNL A   1      43.294  22.966  24.159  1.00  0.00    -0.744 OA
ENDBRANCH  74  77
ENDBRANCH  56  70
BRANCH  57  81
ATOM     81  C   UNL A   1      41.145  33.444  34.278  1.00  0.00     0.023 A 
ATOM     82  C   UNL A   1      39.928  32.816  34.123  1.00  0.00     0.012 A 
ATOM     83  C   UNL A   1      41.160  34.515  35.204  1.00  0.00     0.148 A 
ATOM     84  C   UNL A   1      39.062  32.777  35.207  1.00  0.00     0.002 A 
ATOM     85  C   UNL A   1      40.260  34.674  36.586  1.00  0.00     0.091 A 
ATOM     86  F   UNL A   1      42.090  35.379  34.720  1.00  0.00    -0.205 F 
ATOM     87  C   UNL A   1      39.312  33.511  36.401  1.00  0.00     0.022 A 
BRANCH  85  88
ATOM     88  S   UNL A   1      40.501  36.383  38.491  1.00  0.00     0.127 S 
ATOM     89  O   UNL A   1      39.399  37.392  38.462  1.00  0.00    -0.237 OA
ATOM     90  O   UNL A   1      40.473  35.792  39.867  1.00  0.00    -0.237 OA
ATOM     91  O   UNL A   1      41.790  37.139  38.464  1.00  0.00    -0.744 OA
ENDBRANCH  85  88
ENDBRANCH  57  81
BRANCH  69  92
ATOM     92  C   UNL A   1      42.968  26.388  34.491  1.00  0.00     0.023 A 
ATOM     93  C   UNL A   1      41.759  25.914  35.037  1.00  0.00     0.012 A 
ATOM     94  C   UNL A   1      44.057  25.485  34.460  1.00  0.00     0.148 A 
ATOM     95  C   UNL A   1      41.658  24.658  35.628  1.00  0.00     0.002 A 
ATOM     96  C   UNL A   1      43.900  24.180  34.901  1.00  0.00     0.091 A 
ATOM     97  F   UNL A   1      45.255  25.880  34.008  1.00  0.00    -0.205 F 
ATOM     98  C   UNL A   1      42.723  23.779  35.536  1.00  0.00     0.022 A 
BRANCH  96  99
ATOM     99  S   UNL A   1      45.109  22.907  34.525  1.00  0.00     0.127 S 
ATOM    100  O   UNL A   1      44.473  21.722  35.095  1.00  0.00    -0.237 OA
ATOM    101  O   UNL A   1      45.138  22.944  33.062  1.00  0.00    -0.237 OA
ATOM    102  O   UNL A   1      46.348  23.333  35.162  1.00  0.00    -0.744 OA
ENDBRANCH  96  99
ENDBRANCH  69  92
ENDBRANCH  43  44
ENDBRANCH  35  38
ENDBRANCH  33  34
ENDBRANCH  32  33
ENDBRANCH   1  32
TORSDOF 17
ENDMDL
MODEL 3
REMARK VINA RESULT:     -13.8      3.579     10.372
REMARK SMILES Cc1c(NC(=O)[C@@H]2CC=CC[C@@H]2C(=O)NCCCCNC(=O)c2ccc(-c3c4nc(c(-c5cccc(S(=O)(=O)[O-])c5F)c5ccc([nH]5)c(-c5cccc(S(=O)(=O)[O-])c5F)c5nc(c(-c6cccc(S(=O)(=O)[O-])c6F)c6ccc3[nH]6)C=C5)C=C4)cc2)cccc1C(=O)N1CCOCC1
REMARK SMILES IDX 17 1 16 2 15 3 13 4 14 5 12 7 7 8 8 9 9 10 11 11 10 12 5 13
REMARK SMILES IDX 4 14 6 16 3 17 1 18 2 19 89 20 86 21 88 22 87 23 90 24 91 25
REMARK SMILES IDX 92 26 93 27 97 28 94 29 96 30 95 31 18 32 19 33 20 34 21 35
REMARK SMILES IDX 22 37 23 38 24 39 85 40 25 41 84 42 26 43 27 44 28 45 78 46
REMARK SMILES IDX 29 47 83 48 77 49 79 50 30 51 82 52 76 53 75 54 31 56 63 57
REMARK SMILES IDX 43 58 62 59 44 60 47 61 61 62 80 63 45 64 46 65 60 67 81 68
REMARK SMILES IDX 48 69 32 70 33 71 41 72 34 73 36 74 42 75 35 76 37 77 38 78
REMARK SMILES IDX 39 79 40 80 64 81 65 82 73 83 66 84 68 85 74 86 67 87 69 88
REMARK SMILES IDX 70 89 71 90 72 91 49 92 50 93 58 94 51 95 53 96 59 97 52 98
REMARK SMILES IDX 54 99 55 100 56 101 57 102
REMARK H PARENT 15 6 4 15 20 36 79 55 47 66
REMARK Flexibility Score: inf
ROOT
ATOM      1  C   UNL A   1      37.402  23.426  25.124  1.00  0.00     0.023 C 
ENDROOT
BRANCH   1   2
ATOM      2  C   UNL A   1      36.027  22.691  25.060  1.00  0.00     0.116 C 
BRANCH   2   3
ATOM      3  N   UNL A   1      35.299  22.843  23.797  1.00  0.00    -0.356 N 
ATOM      4  C   UNL A   1      34.034  22.717  23.324  1.00  0.00     0.224 C 
ATOM      5  O   UNL A   1      33.908  23.114  22.151  1.00  0.00    -0.275 OA
ATOM      6  H   UNL A   1      35.911  23.121  23.077  1.00  0.00     0.163 HD
BRANCH   4   7
ATOM      7  C   UNL A   1      32.751  22.171  24.010  1.00  0.00     0.095 C 
ATOM      8  C   UNL A   1      32.782  21.164  25.168  1.00  0.00     0.095 C 
ATOM      9  C   UNL A   1      33.475  19.896  24.689  1.00  0.00     0.041 C 
ATOM     10  C   UNL A   1      32.855  19.343  23.443  1.00  0.00    -0.030 C 
ATOM     11  C   UNL A   1      31.818  21.561  22.923  1.00  0.00     0.041 C 
ATOM     12  C   UNL A   1      32.087  20.101  22.647  1.00  0.00    -0.030 C 
BRANCH   8  13
ATOM     13  C   UNL A   1      33.270  21.809  26.438  1.00  0.00     0.228 C 
ATOM     14  N   UNL A   1      32.786  22.977  26.919  1.00  0.00    -0.326 N 
ATOM     15  H   UNL A   1      33.179  23.196  27.794  1.00  0.00     0.169 HD
ATOM     16  O   UNL A   1      34.176  21.299  27.108  1.00  0.00    -0.274 OA
BRANCH  14  17
ATOM     17  C   UNL A   1      31.869  23.965  26.504  1.00  0.00     0.044 A 
ATOM     18  C   UNL A   1      33.891  25.329  26.036  1.00  0.00     0.047 C 
ATOM     19  C   UNL A   1      32.416  25.130  25.897  1.00  0.00    -0.015 A 
ATOM     20  C   UNL A   1      31.579  26.107  25.315  1.00  0.00     0.045 A 
ATOM     21  C   UNL A   1      30.491  23.869  26.651  1.00  0.00     0.026 A 
ATOM     22  C   UNL A   1      30.195  25.987  25.536  1.00  0.00     0.014 A 
ATOM     23  C   UNL A   1      29.661  24.903  26.228  1.00  0.00     0.003 A 
BRANCH  20  24
ATOM     24  C   UNL A   1      32.012  27.384  24.640  1.00  0.00     0.254 C 
ATOM     25  O   UNL A   1      31.942  27.436  23.409  1.00  0.00    -0.269 OA
ATOM     26  N   UNL A   1      32.362  28.517  25.362  1.00  0.00    -0.334 N 
ATOM     27  C   UNL A   1      33.395  28.607  26.404  1.00  0.00     0.148 C 
ATOM     28  C   UNL A   1      31.967  29.812  24.814  1.00  0.00     0.148 C 
ATOM     29  C   UNL A   1      33.064  29.694  27.453  1.00  0.00     0.181 C 
ATOM     30  C   UNL A   1      31.543  30.734  25.956  1.00  0.00     0.181 C 
ATOM     31  O   UNL A   1      32.647  30.932  26.854  1.00  0.00    -0.378 OA
ENDBRANCH  20  24
ENDBRANCH  14  17
ENDBRANCH   8  13
ENDBRANCH   4   7
ENDBRANCH   2   3
ENDBRANCH   1   2
BRANCH   1  32
ATOM     32  C   UNL A   1      38.053  23.721  26.479  1.00  0.00     0.023 C 
BRANCH  32  33
ATOM     33  C   UNL A   1      39.565  23.600  26.475  1.00  0.00     0.116 C 
BRANCH  33  34
ATOM     34  N   UNL A   1      40.414  24.663  25.915  1.00  0.00    -0.352 N 
ATOM     35  C   UNL A   1      40.786  25.934  26.436  1.00  0.00     0.251 C 
ATOM     36  H   UNL A   1      40.791  24.459  25.028  1.00  0.00     0.163 HD
ATOM     37  O   UNL A   1      41.388  26.707  25.691  1.00  0.00    -0.269 OA
BRANCH  35  38
ATOM     38  C   UNL A   1      40.685  26.249  27.911  1.00  0.00     0.039 A 
ATOM     39  C   UNL A   1      39.284  25.793  28.986  1.00  0.00     0.014 A 
ATOM     40  C   UNL A   1      41.653  27.666  28.343  1.00  0.00     0.014 A 
ATOM     41  C   UNL A   1      38.902  26.846  30.442  1.00  0.00     0.010 A 
ATOM     42  C   UNL A   1      41.171  28.811  29.573  1.00  0.00     0.010 A 
ATOM     43  C   UNL A   1      39.812  28.441  30.627  1.00  0.00    -0.014 A 
BRANCH  43  44
ATOM     44  C   UNL A   1      39.549  29.716  31.284  1.00  0.00     0.031 A 
ATOM     45  C   UNL A   1      38.817  30.641  30.431  1.00  0.00     0.074 A 
ATOM     46  C   UNL A   1      39.673  29.724  32.650  1.00  0.00     0.049 A 
ATOM     47  N   UNL A   1      39.157  31.835  30.114  1.00  0.00    -0.248 NA
ATOM     48  C   UNL A   1      37.600  30.182  29.741  1.00  0.00     0.031 C 
ATOM     49  C   UNL A   1      39.598  30.728  33.707  1.00  0.00     0.029 A 
ATOM     50  N   UNL A   1      40.234  28.679  33.403  1.00  0.00    -0.354 N 
ATOM     51  C   UNL A   1      37.979  32.396  29.654  1.00  0.00     0.074 A 
ATOM     52  C   UNL A   1      37.206  31.302  29.135  1.00  0.00     0.031 C 
ATOM     53  C   UNL A   1      40.591  30.462  34.605  1.00  0.00     0.029 A 
ATOM     54  C   UNL A   1      41.261  29.238  34.159  1.00  0.00     0.049 A 
ATOM     55  H   UNL A   1      39.956  27.734  33.397  1.00  0.00     0.167 HD
ATOM     56  C   UNL A   1      37.557  33.571  30.208  1.00  0.00     0.034 A 
ATOM     57  C   UNL A   1      42.524  29.080  33.638  1.00  0.00     0.034 A 
ATOM     58  C   UNL A   1      38.470  33.927  31.323  1.00  0.00     0.049 A 
ATOM     59  C   UNL A   1      42.948  30.430  33.096  1.00  0.00     0.074 A 
ATOM     60  C   UNL A   1      38.344  33.871  32.703  1.00  0.00     0.029 A 
ATOM     61  N   UNL A   1      39.844  34.011  31.078  1.00  0.00    -0.354 N 
ATOM     62  N   UNL A   1      42.126  31.277  32.532  1.00  0.00    -0.248 NA
ATOM     63  C   UNL A   1      44.251  31.013  33.392  1.00  0.00     0.031 C 
ATOM     64  C   UNL A   1      39.662  33.814  33.262  1.00  0.00     0.029 A 
ATOM     65  C   UNL A   1      40.582  33.746  32.225  1.00  0.00     0.049 A 
ATOM     66  H   UNL A   1      40.238  34.230  30.203  1.00  0.00     0.167 HD
ATOM     67  C   UNL A   1      42.687  32.521  32.526  1.00  0.00     0.074 A 
ATOM     68  C   UNL A   1      44.032  32.296  33.053  1.00  0.00     0.031 C 
ATOM     69  C   UNL A   1      42.042  33.673  32.158  1.00  0.00     0.034 A 
BRANCH  56  70
ATOM     70  C   UNL A   1      36.183  34.206  30.004  1.00  0.00     0.023 A 
ATOM     71  C   UNL A   1      35.719  34.297  28.674  1.00  0.00     0.012 A 
ATOM     72  C   UNL A   1      35.274  34.650  31.006  1.00  0.00     0.148 A 
ATOM     73  C   UNL A   1      34.463  34.820  28.342  1.00  0.00     0.002 A 
ATOM     74  C   UNL A   1      34.030  35.206  30.672  1.00  0.00     0.091 A 
ATOM     75  F   UNL A   1      35.559  34.471  32.297  1.00  0.00    -0.205 F 
ATOM     76  C   UNL A   1      33.622  35.286  29.339  1.00  0.00     0.022 A 
BRANCH  74  77
ATOM     77  S   UNL A   1      32.853  35.833  31.892  1.00  0.00     0.127 S 
ATOM     78  O   UNL A   1      33.679  36.765  32.663  1.00  0.00    -0.237 OA
ATOM     79  O   UNL A   1      31.847  36.479  31.049  1.00  0.00    -0.237 OA
ATOM     80  O   UNL A   1      32.384  34.680  32.648  1.00  0.00    -0.744 OA
ENDBRANCH  74  77
ENDBRANCH  56  70
BRANCH  57  81
ATOM     81  C   UNL A   1      42.679  27.706  32.933  1.00  0.00     0.023 A 
ATOM     82  C   UNL A   1      43.276  27.757  31.692  1.00  0.00     0.012 A 
ATOM     83  C   UNL A   1      43.075  26.619  33.751  1.00  0.00     0.148 A 
ATOM     84  C   UNL A   1      44.559  27.248  31.554  1.00  0.00     0.002 A 
ATOM     85  C   UNL A   1      44.554  25.874  33.802  1.00  0.00     0.091 A 
ATOM     86  F   UNL A   1      41.980  26.332  34.501  1.00  0.00    -0.205 F 
ATOM     87  C   UNL A   1      45.201  26.522  32.598  1.00  0.00     0.022 A 
BRANCH  85  88
ATOM     88  S   UNL A   1      45.454  24.171  35.503  1.00  0.00     0.127 S 
ATOM     89  O   UNL A   1      46.869  24.470  35.878  1.00  0.00    -0.237 OA
ATOM     90  O   UNL A   1      44.696  24.118  36.795  1.00  0.00    -0.237 OA
ATOM     91  O   UNL A   1      45.416  22.757  35.020  1.00  0.00    -0.744 OA
ENDBRANCH  85  88
ENDBRANCH  57  81
BRANCH  69  92
ATOM     92  C   UNL A   1      42.802  34.886  31.673  1.00  0.00     0.023 A 
ATOM     93  C   UNL A   1      42.931  35.161  30.298  1.00  0.00     0.012 A 
ATOM     94  C   UNL A   1      43.229  35.892  32.573  1.00  0.00     0.148 A 
ATOM     95  C   UNL A   1      43.554  36.313  29.830  1.00  0.00     0.002 A 
ATOM     96  C   UNL A   1      43.696  37.107  32.097  1.00  0.00     0.091 A 
ATOM     97  F   UNL A   1      43.190  35.682  33.895  1.00  0.00    -0.205 F 
ATOM     98  C   UNL A   1      43.913  37.301  30.731  1.00  0.00     0.022 A 
BRANCH  96  99
ATOM     99  S   UNL A   1      43.874  38.534  33.172  1.00  0.00     0.127 S 
ATOM    100  O   UNL A   1      45.166  38.266  33.801  1.00  0.00    -0.237 OA
ATOM    101  O   UNL A   1      43.878  39.636  32.210  1.00  0.00    -0.237 OA
ATOM    102  O   UNL A   1      42.718  38.512  34.058  1.00  0.00    -0.744 OA
ENDBRANCH  96  99
ENDBRANCH  69  92
ENDBRANCH  43  44
ENDBRANCH  35  38
ENDBRANCH  33  34
ENDBRANCH  32  33
ENDBRANCH   1  32
TORSDOF 17
ENDMDL
