MODEL 1
REMARK VINA RESULT:     -12.4      0.000      0.000
REMARK SMILES COc1ccc(NC(=O)[C@@H]2CC=CC[C@H]2C(=O)NCCCCNC(=O)c2ccc(-c3c4nc(c(-c5cccc(S(=O)(=O)[O-])c5F)c5ccc([nH]5)c(-c5cccc(S(=O)(=O)[O-])c5F)c5nc(c(-c6cccc(S(=O)(=O)[O-])c6F)c6ccc3[nH]6)C=C5)C=C4)cc2)cc1Cl
REMARK SMILES IDX 20 1 19 2 18 3 16 4 17 5 15 7 10 8 11 9 12 10 14 11 13 12
REMARK SMILES IDX 8 13 7 14 9 16 6 17 3 18 4 19 90 20 5 21 89 22 91 23 2 24
REMARK SMILES IDX 1 25 21 26 22 27 23 28 24 29 25 31 26 32 27 33 88 34 28 35
REMARK SMILES IDX 87 36 29 37 30 38 31 39 81 40 32 41 86 42 80 43 82 44 33 45
REMARK SMILES IDX 85 46 79 47 78 48 34 50 66 51 46 52 65 53 47 54 50 55 64 56
REMARK SMILES IDX 83 57 48 58 49 59 63 61 84 62 51 63 35 64 36 65 44 66 37 67
REMARK SMILES IDX 39 68 45 69 38 70 40 71 41 72 42 73 43 74 67 75 68 76 76 77
REMARK SMILES IDX 69 78 71 79 77 80 70 81 72 82 73 83 74 84 75 85 52 86 53 87
REMARK SMILES IDX 61 88 54 89 56 90 62 91 55 92 57 93 58 94 59 95 60 96
REMARK H PARENT 18 6 7 15 23 30 82 49 50 60
REMARK Flexibility Score: inf
ROOT
ATOM      1  C   UNL A   1      31.284  27.644  26.459  1.00  0.00     0.023 C 
ENDROOT
BRANCH   1   2
ATOM      2  C   UNL A   1      32.147  26.383  26.239  1.00  0.00     0.116 C 
BRANCH   2   3
ATOM      3  N   UNL A   1      31.696  25.150  26.868  1.00  0.00    -0.356 N 
ATOM      4  C   UNL A   1      32.046  23.836  26.733  1.00  0.00     0.224 C 
ATOM      5  O   UNL A   1      31.524  23.047  27.531  1.00  0.00    -0.275 OA
ATOM      6  H   UNL A   1      30.984  25.294  27.533  1.00  0.00     0.163 HD
BRANCH   4   7
ATOM      7  C   UNL A   1      33.086  23.310  25.738  1.00  0.00     0.095 C 
ATOM      8  C   UNL A   1      33.402  24.164  24.478  1.00  0.00     0.095 C 
ATOM      9  C   UNL A   1      34.901  24.002  24.049  1.00  0.00     0.041 C 
ATOM     10  C   UNL A   1      35.926  23.861  25.118  1.00  0.00    -0.030 C 
ATOM     11  C   UNL A   1      34.259  22.949  26.699  1.00  0.00     0.041 C 
ATOM     12  C   UNL A   1      35.634  23.358  26.315  1.00  0.00    -0.030 C 
BRANCH   8  13
ATOM     13  C   UNL A   1      32.601  23.943  23.138  1.00  0.00     0.228 C 
ATOM     14  N   UNL A   1      31.592  24.656  22.574  1.00  0.00    -0.326 N 
ATOM     15  H   UNL A   1      31.357  24.285  21.694  1.00  0.00     0.169 HD
ATOM     16  O   UNL A   1      32.950  23.014  22.383  1.00  0.00    -0.274 OA
BRANCH  14  17
ATOM     17  C   UNL A   1      30.787  25.760  22.871  1.00  0.00     0.042 A 
ATOM     18  C   UNL A   1      29.025  27.938  23.157  1.00  0.00     0.137 A 
ATOM     19  C   UNL A   1      28.731  26.719  23.739  1.00  0.00     0.050 A 
ATOM     20  C   UNL A   1      30.266  28.115  22.544  1.00  0.00     0.085 A 
ATOM     21  C   UNL A   1      29.649  25.672  23.628  1.00  0.00     0.030 A 
ATOM     22  C   UNL A   1      31.137  27.024  22.389  1.00  0.00     0.050 A 
ATOM     23  Cl  UNL A   1      30.745  29.656  21.938  1.00  0.00    -0.080 Cl
BRANCH  18  24
ATOM     24  O   UNL A   1      28.124  28.957  23.269  1.00  0.00    -0.495 OA
ATOM     25  C   UNL A   1      26.795  28.455  23.440  1.00  0.00     0.278 C 
ENDBRANCH  18  24
ENDBRANCH  14  17
ENDBRANCH   8  13
ENDBRANCH   4   7
ENDBRANCH   2   3
ENDBRANCH   1   2
BRANCH   1  26
ATOM     26  C   UNL A   1      31.872  28.860  27.179  1.00  0.00     0.023 C 
BRANCH  26  27
ATOM     27  C   UNL A   1      32.983  29.606  26.473  1.00  0.00     0.116 C 
BRANCH  27  28
ATOM     28  N   UNL A   1      32.933  31.027  26.746  1.00  0.00    -0.352 N 
ATOM     29  C   UNL A   1      33.742  31.808  27.527  1.00  0.00     0.251 C 
ATOM     30  H   UNL A   1      32.200  31.509  26.297  1.00  0.00     0.163 HD
ATOM     31  O   UNL A   1      33.402  32.971  27.737  1.00  0.00    -0.269 OA
BRANCH  29  32
ATOM     32  C   UNL A   1      34.986  31.277  28.134  1.00  0.00     0.039 A 
ATOM     33  C   UNL A   1      36.097  32.124  28.182  1.00  0.00     0.014 A 
ATOM     34  C   UNL A   1      35.097  29.967  28.609  1.00  0.00     0.014 A 
ATOM     35  C   UNL A   1      37.299  31.669  28.727  1.00  0.00     0.010 A 
ATOM     36  C   UNL A   1      36.273  29.543  29.232  1.00  0.00     0.010 A 
ATOM     37  C   UNL A   1      37.393  30.383  29.281  1.00  0.00    -0.014 A 
BRANCH  37  38
ATOM     38  C   UNL A   1      38.658  29.934  29.918  1.00  0.00     0.031 A 
ATOM     39  C   UNL A   1      39.070  30.447  31.273  1.00  0.00     0.074 A 
ATOM     40  C   UNL A   1      39.455  29.072  29.257  1.00  0.00     0.049 A 
ATOM     41  N   UNL A   1      40.093  30.093  32.008  1.00  0.00    -0.248 NA
ATOM     42  C   UNL A   1      38.244  31.506  31.877  1.00  0.00     0.031 C 
ATOM     43  C   UNL A   1      39.216  28.572  27.899  1.00  0.00     0.029 A 
ATOM     44  N   UNL A   1      40.627  28.465  29.629  1.00  0.00    -0.354 N 
ATOM     45  C   UNL A   1      40.055  30.904  33.137  1.00  0.00     0.074 A 
ATOM     46  C   UNL A   1      38.922  31.789  32.980  1.00  0.00     0.031 C 
ATOM     47  C   UNL A   1      40.193  27.712  27.567  1.00  0.00     0.029 A 
ATOM     48  C   UNL A   1      41.140  27.617  28.673  1.00  0.00     0.049 A 
ATOM     49  H   UNL A   1      41.062  28.620  30.500  1.00  0.00     0.167 HD
ATOM     50  C   UNL A   1      40.872  30.895  34.217  1.00  0.00     0.034 A 
ATOM     51  C   UNL A   1      42.241  26.842  28.690  1.00  0.00     0.034 A 
ATOM     52  C   UNL A   1      41.971  29.982  34.392  1.00  0.00     0.049 A 
ATOM     53  C   UNL A   1      43.093  26.812  29.930  1.00  0.00     0.074 A 
ATOM     54  C   UNL A   1      42.787  29.819  35.497  1.00  0.00     0.029 A 
ATOM     55  N   UNL A   1      42.420  29.091  33.430  1.00  0.00    -0.354 N 
ATOM     56  N   UNL A   1      42.922  27.442  31.067  1.00  0.00    -0.248 NA
ATOM     57  C   UNL A   1      44.267  25.929  29.903  1.00  0.00     0.031 C 
ATOM     58  C   UNL A   1      43.753  28.854  35.191  1.00  0.00     0.029 A 
ATOM     59  C   UNL A   1      43.514  28.389  33.908  1.00  0.00     0.049 A 
ATOM     60  H   UNL A   1      42.020  28.974  32.538  1.00  0.00     0.167 HD
ATOM     61  C   UNL A   1      43.945  27.006  31.900  1.00  0.00     0.074 A 
ATOM     62  C   UNL A   1      44.708  26.031  31.149  1.00  0.00     0.031 C 
ATOM     63  C   UNL A   1      44.239  27.390  33.168  1.00  0.00     0.034 A 
BRANCH  50  64
ATOM     64  C   UNL A   1      40.589  31.872  35.330  1.00  0.00     0.023 A 
ATOM     65  C   UNL A   1      41.366  33.042  35.450  1.00  0.00     0.012 A 
ATOM     66  C   UNL A   1      39.496  31.677  36.199  1.00  0.00     0.148 A 
ATOM     67  C   UNL A   1      41.077  33.990  36.432  1.00  0.00     0.002 A 
ATOM     68  C   UNL A   1      39.187  32.647  37.145  1.00  0.00     0.091 A 
ATOM     69  F   UNL A   1      38.781  30.549  36.083  1.00  0.00    -0.205 F 
ATOM     70  C   UNL A   1      39.982  33.799  37.269  1.00  0.00     0.022 A 
BRANCH  68  71
ATOM     71  S   UNL A   1      37.750  32.538  38.217  1.00  0.00     0.127 S 
ATOM     72  O   UNL A   1      38.111  33.464  39.289  1.00  0.00    -0.237 OA
ATOM     73  O   UNL A   1      36.677  33.007  37.341  1.00  0.00    -0.237 OA
ATOM     74  O   UNL A   1      37.647  31.139  38.614  1.00  0.00    -0.744 OA
ENDBRANCH  68  71
ENDBRANCH  50  64
BRANCH  51  75
ATOM     75  C   UNL A   1      42.569  25.972  27.524  1.00  0.00     0.023 A 
ATOM     76  C   UNL A   1      43.341  26.494  26.467  1.00  0.00     0.012 A 
ATOM     77  C   UNL A   1      42.121  24.640  27.453  1.00  0.00     0.148 A 
ATOM     78  C   UNL A   1      43.619  25.721  25.340  1.00  0.00     0.002 A 
ATOM     79  C   UNL A   1      42.452  23.856  26.354  1.00  0.00     0.091 A 
ATOM     80  F   UNL A   1      41.376  24.165  28.461  1.00  0.00    -0.205 F 
ATOM     81  C   UNL A   1      43.183  24.400  25.286  1.00  0.00     0.022 A 
BRANCH  79  82
ATOM     82  S   UNL A   1      42.046  22.110  26.265  1.00  0.00     0.127 S 
ATOM     83  O   UNL A   1      40.607  22.149  26.024  1.00  0.00    -0.237 OA
ATOM     84  O   UNL A   1      42.852  21.667  25.126  1.00  0.00    -0.237 OA
ATOM     85  O   UNL A   1      42.462  21.548  27.544  1.00  0.00    -0.744 OA
ENDBRANCH  79  82
ENDBRANCH  51  75
BRANCH  63  86
ATOM     86  C   UNL A   1      45.420  26.730  33.833  1.00  0.00     0.023 A 
ATOM     87  C   UNL A   1      46.695  27.328  33.757  1.00  0.00     0.012 A 
ATOM     88  C   UNL A   1      45.263  25.534  34.561  1.00  0.00     0.148 A 
ATOM     89  C   UNL A   1      47.802  26.718  34.346  1.00  0.00     0.002 A 
ATOM     90  C   UNL A   1      46.360  24.962  35.193  1.00  0.00     0.091 A 
ATOM     91  F   UNL A   1      44.048  24.969  34.610  1.00  0.00    -0.205 F 
ATOM     92  C   UNL A   1      47.633  25.542  35.072  1.00  0.00     0.022 A 
BRANCH  90  93
ATOM     93  S   UNL A   1      46.215  23.503  36.231  1.00  0.00     0.127 S 
ATOM     94  O   UNL A   1      45.777  22.494  35.268  1.00  0.00    -0.237 OA
ATOM     95  O   UNL A   1      47.583  23.329  36.718  1.00  0.00    -0.237 OA
ATOM     96  O   UNL A   1      45.247  23.846  37.265  1.00  0.00    -0.744 OA
ENDBRANCH  90  93
ENDBRANCH  63  86
ENDBRANCH  37  38
ENDBRANCH  29  32
ENDBRANCH  27  28
ENDBRANCH  26  27
ENDBRANCH   1  26
TORSDOF 17
ENDMDL
MODEL 2
REMARK VINA RESULT:     -12.4      2.138      3.724
REMARK SMILES COc1ccc(NC(=O)[C@@H]2CC=CC[C@H]2C(=O)NCCCCNC(=O)c2ccc(-c3c4nc(c(-c5cccc(S(=O)(=O)[O-])c5F)c5ccc([nH]5)c(-c5cccc(S(=O)(=O)[O-])c5F)c5nc(c(-c6cccc(S(=O)(=O)[O-])c6F)c6ccc3[nH]6)C=C5)C=C4)cc2)cc1Cl
REMARK SMILES IDX 20 1 19 2 18 3 16 4 17 5 15 7 10 8 11 9 12 10 14 11 13 12
REMARK SMILES IDX 8 13 7 14 9 16 6 17 3 18 4 19 90 20 5 21 89 22 91 23 2 24
REMARK SMILES IDX 1 25 21 26 22 27 23 28 24 29 25 31 26 32 27 33 88 34 28 35
REMARK SMILES IDX 87 36 29 37 30 38 31 39 81 40 32 41 86 42 80 43 82 44 33 45
REMARK SMILES IDX 85 46 79 47 78 48 34 50 66 51 46 52 65 53 47 54 50 55 64 56
REMARK SMILES IDX 83 57 48 58 49 59 63 61 84 62 51 63 35 64 36 65 44 66 37 67
REMARK SMILES IDX 39 68 45 69 38 70 40 71 41 72 42 73 43 74 67 75 68 76 76 77
REMARK SMILES IDX 69 78 71 79 77 80 70 81 72 82 73 83 74 84 75 85 52 86 53 87
REMARK SMILES IDX 61 88 54 89 56 90 62 91 55 92 57 93 58 94 59 95 60 96
REMARK H PARENT 18 6 7 15 23 30 82 49 50 60
REMARK Flexibility Score: inf
ROOT
ATOM      1  C   UNL A   1      31.594  28.746  23.414  1.00  0.00     0.023 C 
ENDROOT
BRANCH   1   2
ATOM      2  C   UNL A   1      31.027  27.847  22.295  1.00  0.00     0.116 C 
BRANCH   2   3
ATOM      3  N   UNL A   1      31.915  26.833  21.743  1.00  0.00    -0.356 N 
ATOM      4  C   UNL A   1      32.343  25.611  22.179  1.00  0.00     0.224 C 
ATOM      5  O   UNL A   1      33.020  24.952  21.380  1.00  0.00    -0.275 OA
ATOM      6  H   UNL A   1      32.288  27.084  20.867  1.00  0.00     0.163 HD
BRANCH   4   7
ATOM      7  C   UNL A   1      31.967  24.988  23.528  1.00  0.00     0.095 C 
ATOM      8  C   UNL A   1      32.747  25.440  24.794  1.00  0.00     0.095 C 
ATOM      9  C   UNL A   1      31.825  25.415  26.062  1.00  0.00     0.041 C 
ATOM     10  C   UNL A   1      30.398  25.801  25.900  1.00  0.00    -0.030 C 
ATOM     11  C   UNL A   1      30.418  25.160  23.513  1.00  0.00     0.041 C 
ATOM     12  C   UNL A   1      29.754  25.660  24.744  1.00  0.00    -0.030 C 
BRANCH   8  13
ATOM     13  C   UNL A   1      34.043  24.670  25.256  1.00  0.00     0.228 C 
ATOM     14  N   UNL A   1      34.308  23.340  25.340  1.00  0.00    -0.326 N 
ATOM     15  H   UNL A   1      35.244  23.192  25.605  1.00  0.00     0.169 HD
ATOM     16  O   UNL A   1      35.059  25.334  25.539  1.00  0.00    -0.274 OA
BRANCH  14  17
ATOM     17  C   UNL A   1      33.650  22.120  25.163  1.00  0.00     0.042 A 
ATOM     18  C   UNL A   1      32.621  19.544  24.679  1.00  0.00     0.137 A 
ATOM     19  C   UNL A   1      33.024  19.910  25.951  1.00  0.00     0.050 A 
ATOM     20  C   UNL A   1      32.602  20.508  23.671  1.00  0.00     0.085 A 
ATOM     21  C   UNL A   1      33.479  21.211  26.173  1.00  0.00     0.030 A 
ATOM     22  C   UNL A   1      33.129  21.788  23.910  1.00  0.00     0.050 A 
ATOM     23  Cl  UNL A   1      31.966  20.147  22.110  1.00  0.00    -0.080 Cl
BRANCH  18  24
ATOM     24  O   UNL A   1      32.178  18.270  24.468  1.00  0.00    -0.495 OA
ATOM     25  C   UNL A   1      32.538  17.411  25.554  1.00  0.00     0.278 C 
ENDBRANCH  18  24
ENDBRANCH  14  17
ENDBRANCH   8  13
ENDBRANCH   4   7
ENDBRANCH   2   3
ENDBRANCH   1   2
BRANCH   1  26
ATOM     26  C   UNL A   1      33.108  28.879  23.600  1.00  0.00     0.023 C 
BRANCH  26  27
ATOM     27  C   UNL A   1      33.607  29.177  24.997  1.00  0.00     0.116 C 
BRANCH  27  28
ATOM     28  N   UNL A   1      32.942  30.327  25.571  1.00  0.00    -0.352 N 
ATOM     29  C   UNL A   1      33.224  31.039  26.705  1.00  0.00     0.251 C 
ATOM     30  H   UNL A   1      32.160  30.648  25.064  1.00  0.00     0.163 HD
ATOM     31  O   UNL A   1      32.412  31.884  27.080  1.00  0.00    -0.269 OA
BRANCH  29  32
ATOM     32  C   UNL A   1      34.459  30.797  27.488  1.00  0.00     0.039 A 
ATOM     33  C   UNL A   1      34.615  29.542  28.083  1.00  0.00     0.014 A 
ATOM     34  C   UNL A   1      35.435  31.779  27.686  1.00  0.00     0.014 A 
ATOM     35  C   UNL A   1      35.751  29.266  28.845  1.00  0.00     0.010 A 
ATOM     36  C   UNL A   1      36.610  31.473  28.375  1.00  0.00     0.010 A 
ATOM     37  C   UNL A   1      36.773  30.219  28.979  1.00  0.00    -0.014 A 
BRANCH  37  38
ATOM     38  C   UNL A   1      38.008  29.890  29.737  1.00  0.00     0.031 A 
ATOM     39  C   UNL A   1      38.230  30.420  31.130  1.00  0.00     0.074 A 
ATOM     40  C   UNL A   1      38.949  29.121  29.155  1.00  0.00     0.049 A 
ATOM     41  N   UNL A   1      39.206  30.159  31.961  1.00  0.00    -0.248 NA
ATOM     42  C   UNL A   1      37.246  31.383  31.653  1.00  0.00     0.031 C 
ATOM     43  C   UNL A   1      38.897  28.621  27.778  1.00  0.00     0.029 A 
ATOM     44  N   UNL A   1      40.134  28.628  29.639  1.00  0.00    -0.354 N 
ATOM     45  C   UNL A   1      38.974  30.944  33.085  1.00  0.00     0.074 A 
ATOM     46  C   UNL A   1      37.780  31.714  32.820  1.00  0.00     0.031 C 
ATOM     47  C   UNL A   1      39.983  27.867  27.540  1.00  0.00     0.029 A 
ATOM     48  C   UNL A   1      40.821  27.850  28.735  1.00  0.00     0.049 A 
ATOM     49  H   UNL A   1      40.462  28.813  30.550  1.00  0.00     0.167 HD
ATOM     50  C   UNL A   1      39.677  31.000  34.241  1.00  0.00     0.034 A 
ATOM     51  C   UNL A   1      41.988  27.189  28.857  1.00  0.00     0.034 A 
ATOM     52  C   UNL A   1      40.840  30.199  34.520  1.00  0.00     0.049 A 
ATOM     53  C   UNL A   1      42.711  27.225  30.176  1.00  0.00     0.074 A 
ATOM     54  C   UNL A   1      41.554  30.101  35.700  1.00  0.00     0.029 A 
ATOM     55  N   UNL A   1      41.470  29.372  33.603  1.00  0.00    -0.354 N 
ATOM     56  N   UNL A   1      42.366  27.817  31.294  1.00  0.00    -0.248 NA
ATOM     57  C   UNL A   1      43.965  26.464  30.263  1.00  0.00     0.031 C 
ATOM     58  C   UNL A   1      42.638  29.243  35.488  1.00  0.00     0.029 A 
ATOM     59  C   UNL A   1      42.576  28.776  34.185  1.00  0.00     0.049 A 
ATOM     60  H   UNL A   1      41.174  29.229  32.676  1.00  0.00     0.167 HD
ATOM     61  C   UNL A   1      43.340  27.473  32.223  1.00  0.00     0.074 A 
ATOM     62  C   UNL A   1      44.268  26.590  31.547  1.00  0.00     0.031 C 
ATOM     63  C   UNL A   1      43.467  27.865  33.516  1.00  0.00     0.034 A 
BRANCH  50  64
ATOM     64  C   UNL A   1      39.188  31.928  35.325  1.00  0.00     0.023 A 
ATOM     65  C   UNL A   1      38.270  31.459  36.286  1.00  0.00     0.012 A 
ATOM     66  C   UNL A   1      39.708  33.232  35.446  1.00  0.00     0.148 A 
ATOM     67  C   UNL A   1      37.856  32.281  37.335  1.00  0.00     0.002 A 
ATOM     68  C   UNL A   1      39.326  34.029  36.518  1.00  0.00     0.091 A 
ATOM     69  F   UNL A   1      40.565  33.667  34.511  1.00  0.00    -0.205 F 
ATOM     70  C   UNL A   1      38.393  33.559  37.458  1.00  0.00     0.022 A 
BRANCH  68  71
ATOM     71  S   UNL A   1      40.020  35.659  36.815  1.00  0.00     0.127 S 
ATOM     72  O   UNL A   1      39.410  36.010  38.097  1.00  0.00    -0.237 OA
ATOM     73  O   UNL A   1      41.454  35.376  36.879  1.00  0.00    -0.237 OA
ATOM     74  O   UNL A   1      39.610  36.484  35.686  1.00  0.00    -0.744 OA
ENDBRANCH  68  71
ENDBRANCH  50  64
BRANCH  51  75
ATOM     75  C   UNL A   1      42.515  26.373  27.726  1.00  0.00     0.023 A 
ATOM     76  C   UNL A   1      43.402  26.962  26.804  1.00  0.00     0.012 A 
ATOM     77  C   UNL A   1      42.143  25.027  27.556  1.00  0.00     0.148 A 
ATOM     78  C   UNL A   1      43.871  26.241  25.706  1.00  0.00     0.002 A 
ATOM     79  C   UNL A   1      42.661  24.295  26.492  1.00  0.00     0.091 A 
ATOM     80  F   UNL A   1      41.288  24.487  28.435  1.00  0.00    -0.205 F 
ATOM     81  C   UNL A   1      43.508  24.905  25.554  1.00  0.00     0.022 A 
BRANCH  79  82
ATOM     82  S   UNL A   1      42.352  22.538  26.299  1.00  0.00     0.127 S 
ATOM     83  O   UNL A   1      40.899  22.501  26.166  1.00  0.00    -0.237 OA
ATOM     84  O   UNL A   1      43.093  22.231  25.074  1.00  0.00    -0.237 OA
ATOM     85  O   UNL A   1      42.897  21.912  27.497  1.00  0.00    -0.744 OA
ENDBRANCH  79  82
ENDBRANCH  51  75
BRANCH  63  86
ATOM     86  C   UNL A   1      44.637  27.316  34.292  1.00  0.00     0.023 A 
ATOM     87  C   UNL A   1      45.861  28.016  34.308  1.00  0.00     0.012 A 
ATOM     88  C   UNL A   1      44.516  26.123  35.032  1.00  0.00     0.148 A 
ATOM     89  C   UNL A   1      46.960  27.509  35.002  1.00  0.00     0.002 A 
ATOM     90  C   UNL A   1      45.598  25.654  35.767  1.00  0.00     0.091 A 
ATOM     91  F   UNL A   1      43.351  25.460  34.993  1.00  0.00    -0.205 F 
ATOM     92  C   UNL A   1      46.825  26.335  35.738  1.00  0.00     0.022 A 
BRANCH  90  93
ATOM     93  S   UNL A   1      45.484  24.205  36.823  1.00  0.00     0.127 S 
ATOM     94  O   UNL A   1      46.866  24.052  37.270  1.00  0.00    -0.237 OA
ATOM     95  O   UNL A   1      44.552  24.649  37.860  1.00  0.00    -0.237 OA
ATOM     96  O   UNL A   1      44.975  23.135  35.975  1.00  0.00    -0.744 OA
ENDBRANCH  90  93
ENDBRANCH  63  86
ENDBRANCH  37  38
ENDBRANCH  29  32
ENDBRANCH  27  28
ENDBRANCH  26  27
ENDBRANCH   1  26
TORSDOF 17
ENDMDL
MODEL 3
REMARK VINA RESULT:     -12.2      5.090     10.124
REMARK SMILES COc1ccc(NC(=O)[C@@H]2CC=CC[C@H]2C(=O)NCCCCNC(=O)c2ccc(-c3c4nc(c(-c5cccc(S(=O)(=O)[O-])c5F)c5ccc([nH]5)c(-c5cccc(S(=O)(=O)[O-])c5F)c5nc(c(-c6cccc(S(=O)(=O)[O-])c6F)c6ccc3[nH]6)C=C5)C=C4)cc2)cc1Cl
REMARK SMILES IDX 20 1 19 2 18 3 16 4 17 5 15 7 10 8 11 9 12 10 14 11 13 12
REMARK SMILES IDX 8 13 7 14 9 16 6 17 3 18 4 19 90 20 5 21 89 22 91 23 2 24
REMARK SMILES IDX 1 25 21 26 22 27 23 28 24 29 25 31 26 32 27 33 88 34 28 35
REMARK SMILES IDX 87 36 29 37 30 38 31 39 81 40 32 41 86 42 80 43 82 44 33 45
REMARK SMILES IDX 85 46 79 47 78 48 34 50 66 51 46 52 65 53 47 54 50 55 64 56
REMARK SMILES IDX 83 57 48 58 49 59 63 61 84 62 51 63 35 64 36 65 44 66 37 67
REMARK SMILES IDX 39 68 45 69 38 70 40 71 41 72 42 73 43 74 67 75 68 76 76 77
REMARK SMILES IDX 69 78 71 79 77 80 70 81 72 82 73 83 74 84 75 85 52 86 53 87
REMARK SMILES IDX 61 88 54 89 56 90 62 91 55 92 57 93 58 94 59 95 60 96
REMARK H PARENT 18 6 7 15 23 30 82 49 50 60
REMARK Flexibility Score: inf
ROOT
ATOM      1  C   UNL A   1      35.903  23.056  23.426  1.00  0.00     0.023 C 
ENDROOT
BRANCH   1   2
ATOM      2  C   UNL A   1      34.649  23.957  23.403  1.00  0.00     0.116 C 
BRANCH   2   3
ATOM      3  N   UNL A   1      34.489  24.902  24.498  1.00  0.00    -0.356 N 
ATOM      4  C   UNL A   1      33.703  26.004  24.690  1.00  0.00     0.224 C 
ATOM      5  O   UNL A   1      33.742  26.513  25.816  1.00  0.00    -0.275 OA
ATOM      6  H   UNL A   1      35.073  24.705  25.266  1.00  0.00     0.163 HD
BRANCH   4   7
ATOM      7  C   UNL A   1      32.735  26.574  23.647  1.00  0.00     0.095 C 
ATOM      8  C   UNL A   1      31.354  27.099  24.130  1.00  0.00     0.095 C 
ATOM      9  C   UNL A   1      30.870  28.303  23.251  1.00  0.00     0.041 C 
ATOM     10  C   UNL A   1      31.891  29.266  22.755  1.00  0.00    -0.030 C 
ATOM     11  C   UNL A   1      33.671  27.555  22.879  1.00  0.00     0.041 C 
ATOM     12  C   UNL A   1      33.160  28.914  22.565  1.00  0.00    -0.030 C 
BRANCH   8  13
ATOM     13  C   UNL A   1      30.103  26.141  24.177  1.00  0.00     0.228 C 
ATOM     14  N   UNL A   1      29.970  24.869  24.635  1.00  0.00    -0.326 N 
ATOM     15  H   UNL A   1      29.031  24.579  24.579  1.00  0.00     0.169 HD
ATOM     16  O   UNL A   1      28.998  26.588  23.810  1.00  0.00    -0.274 OA
BRANCH  14  17
ATOM     17  C   UNL A   1      30.767  23.850  25.162  1.00  0.00     0.042 A 
ATOM     18  C   UNL A   1      32.641  21.959  26.081  1.00  0.00     0.137 A 
ATOM     19  C   UNL A   1      32.175  22.950  26.925  1.00  0.00     0.050 A 
ATOM     20  C   UNL A   1      32.071  21.823  24.815  1.00  0.00     0.085 A 
ATOM     21  C   UNL A   1      31.205  23.841  26.460  1.00  0.00     0.030 A 
ATOM     22  C   UNL A   1      31.148  22.776  24.353  1.00  0.00     0.050 A 
ATOM     23  Cl  UNL A   1      32.504  20.514  23.782  1.00  0.00    -0.080 Cl
BRANCH  18  24
ATOM     24  O   UNL A   1      33.590  21.092  26.541  1.00  0.00    -0.495 OA
ATOM     25  C   UNL A   1      34.114  21.522  27.801  1.00  0.00     0.278 C 
ENDBRANCH  18  24
ENDBRANCH  14  17
ENDBRANCH   8  13
ENDBRANCH   4   7
ENDBRANCH   2   3
ENDBRANCH   1   2
BRANCH   1  26
ATOM     26  C   UNL A   1      36.049  21.973  24.499  1.00  0.00     0.023 C 
BRANCH  26  27
ATOM     27  C   UNL A   1      36.886  22.315  25.713  1.00  0.00     0.116 C 
BRANCH  27  28
ATOM     28  N   UNL A   1      37.948  21.354  25.920  1.00  0.00    -0.352 N 
ATOM     29  C   UNL A   1      39.256  21.542  26.278  1.00  0.00     0.251 C 
ATOM     30  H   UNL A   1      37.687  20.414  25.783  1.00  0.00     0.163 HD
ATOM     31  O   UNL A   1      40.016  20.577  26.233  1.00  0.00    -0.269 OA
BRANCH  29  32
ATOM     32  C   UNL A   1      39.766  22.872  26.687  1.00  0.00     0.039 A 
ATOM     33  C   UNL A   1      40.683  22.920  27.741  1.00  0.00     0.014 A 
ATOM     34  C   UNL A   1      39.336  24.064  26.096  1.00  0.00     0.014 A 
ATOM     35  C   UNL A   1      41.183  24.147  28.178  1.00  0.00     0.010 A 
ATOM     36  C   UNL A   1      39.902  25.282  26.476  1.00  0.00     0.010 A 
ATOM     37  C   UNL A   1      40.817  25.340  27.535  1.00  0.00    -0.014 A 
BRANCH  37  38
ATOM     38  C   UNL A   1      41.408  26.633  27.966  1.00  0.00     0.031 A 
ATOM     39  C   UNL A   1      42.842  26.974  27.657  1.00  0.00     0.074 A 
ATOM     40  C   UNL A   1      40.648  27.500  28.664  1.00  0.00     0.049 A 
ATOM     41  N   UNL A   1      43.487  28.091  27.882  1.00  0.00    -0.248 NA
ATOM     42  C   UNL A   1      43.669  25.927  27.034  1.00  0.00     0.031 C 
ATOM     43  C   UNL A   1      39.273  27.250  29.109  1.00  0.00     0.029 A 
ATOM     44  N   UNL A   1      40.919  28.762  29.128  1.00  0.00    -0.354 N 
ATOM     45  C   UNL A   1      44.794  27.871  27.463  1.00  0.00     0.074 A 
ATOM     46  C   UNL A   1      44.861  26.505  26.995  1.00  0.00     0.031 C 
ATOM     47  C   UNL A   1      38.813  28.336  29.751  1.00  0.00     0.029 A 
ATOM     48  C   UNL A   1      39.863  29.348  29.788  1.00  0.00     0.049 A 
ATOM     49  H   UNL A   1      41.788  29.208  29.000  1.00  0.00     0.167 HD
ATOM     50  C   UNL A   1      45.837  28.735  27.447  1.00  0.00     0.034 A 
ATOM     51  C   UNL A   1      39.749  30.566  30.351  1.00  0.00     0.034 A 
ATOM     52  C   UNL A   1      45.756  30.108  27.870  1.00  0.00     0.049 A 
ATOM     53  C   UNL A   1      40.907  31.522  30.260  1.00  0.00     0.074 A 
ATOM     54  C   UNL A   1      46.724  31.093  27.788  1.00  0.00     0.029 A 
ATOM     55  N   UNL A   1      44.650  30.687  28.473  1.00  0.00    -0.354 N 
ATOM     56  N   UNL A   1      42.072  31.359  29.679  1.00  0.00    -0.248 NA
ATOM     57  C   UNL A   1      40.719  32.847  30.866  1.00  0.00     0.031 C 
ATOM     58  C   UNL A   1      46.217  32.258  28.374  1.00  0.00     0.029 A 
ATOM     59  C   UNL A   1      44.918  32.009  28.786  1.00  0.00     0.049 A 
ATOM     60  H   UNL A   1      43.799  30.226  28.652  1.00  0.00     0.167 HD
ATOM     61  C   UNL A   1      42.739  32.570  29.820  1.00  0.00     0.074 A 
ATOM     62  C   UNL A   1      41.835  33.467  30.509  1.00  0.00     0.031 C 
ATOM     63  C   UNL A   1      43.995  32.905  29.432  1.00  0.00     0.034 A 
BRANCH  50  64
ATOM     64  C   UNL A   1      47.158  28.244  26.909  1.00  0.00     0.023 A 
ATOM     65  C   UNL A   1      48.179  27.862  27.801  1.00  0.00     0.012 A 
ATOM     66  C   UNL A   1      47.353  28.075  25.523  1.00  0.00     0.148 A 
ATOM     67  C   UNL A   1      49.383  27.343  27.325  1.00  0.00     0.002 A 
ATOM     68  C   UNL A   1      48.537  27.516  25.058  1.00  0.00     0.091 A 
ATOM     69  F   UNL A   1      46.377  28.463  24.689  1.00  0.00    -0.205 F 
ATOM     70  C   UNL A   1      49.556  27.159  25.956  1.00  0.00     0.022 A 
BRANCH  68  71
ATOM     71  S   UNL A   1      48.828  27.158  23.322  1.00  0.00     0.127 S 
ATOM     72  O   UNL A   1      48.213  28.316  22.675  1.00  0.00    -0.237 OA
ATOM     73  O   UNL A   1      50.289  27.125  23.256  1.00  0.00    -0.237 OA
ATOM     74  O   UNL A   1      48.176  25.881  23.058  1.00  0.00    -0.744 OA
ENDBRANCH  68  71
ENDBRANCH  50  64
BRANCH  51  75
ATOM     75  C   UNL A   1      38.468  30.987  30.987  1.00  0.00     0.023 A 
ATOM     76  C   UNL A   1      38.260  30.733  32.357  1.00  0.00     0.012 A 
ATOM     77  C   UNL A   1      37.457  31.630  30.248  1.00  0.00     0.148 A 
ATOM     78  C   UNL A   1      37.051  31.067  32.968  1.00  0.00     0.002 A 
ATOM     79  C   UNL A   1      36.278  32.014  30.877  1.00  0.00     0.091 A 
ATOM     80  F   UNL A   1      37.667  31.852  28.943  1.00  0.00    -0.205 F 
ATOM     81  C   UNL A   1      36.064  31.715  32.231  1.00  0.00     0.022 A 
BRANCH  79  82
ATOM     82  S   UNL A   1      35.013  32.971  30.037  1.00  0.00     0.127 S 
ATOM     83  O   UNL A   1      34.474  31.994  29.095  1.00  0.00    -0.237 OA
ATOM     84  O   UNL A   1      34.117  33.324  31.140  1.00  0.00    -0.237 OA
ATOM     85  O   UNL A   1      35.709  34.107  29.448  1.00  0.00    -0.744 OA
ENDBRANCH  79  82
ENDBRANCH  51  75
BRANCH  63  86
ATOM     86  C   UNL A   1      44.453  34.314  29.715  1.00  0.00     0.023 A 
ATOM     87  C   UNL A   1      45.077  34.616  30.943  1.00  0.00     0.012 A 
ATOM     88  C   UNL A   1      44.294  35.331  28.754  1.00  0.00     0.148 A 
ATOM     89  C   UNL A   1      45.485  35.918  31.230  1.00  0.00     0.002 A 
ATOM     90  C   UNL A   1      44.754  36.614  29.026  1.00  0.00     0.091 A 
ATOM     91  F   UNL A   1      43.683  35.032  27.599  1.00  0.00    -0.205 F 
ATOM     92  C   UNL A   1      45.333  36.914  30.269  1.00  0.00     0.022 A 
BRANCH  90  93
ATOM     93  S   UNL A   1      44.689  37.933  27.807  1.00  0.00     0.127 S 
ATOM     94  O   UNL A   1      45.243  39.059  28.556  1.00  0.00    -0.237 OA
ATOM     95  O   UNL A   1      45.555  37.419  26.746  1.00  0.00    -0.237 OA
ATOM     96  O   UNL A   1      43.286  38.058  27.432  1.00  0.00    -0.744 OA
ENDBRANCH  90  93
ENDBRANCH  63  86
ENDBRANCH  37  38
ENDBRANCH  29  32
ENDBRANCH  27  28
ENDBRANCH  26  27
ENDBRANCH   1  26
TORSDOF 17
ENDMDL
