MODEL 1
REMARK VINA RESULT:     -12.7      0.000      0.000
REMARK SMILES O=C(NCCCCNC(=O)c1cc2nn[nH]n2n1)c1ccc(-c2c3nc(c(-c4cccc(S(=O)(=O)[O-])c4F)c4ccc([nH]4)c(-c4cccc(S(=O)(=O)[O-])c4F)c4nc(c(-c5cccc(S(=O)(=O)[O-])c5F)c5ccc2[nH]5)C=C4)C=C3)cc1
REMARK SMILES IDX 4 1 3 2 1 3 2 4 19 6 20 7 81 8 21 9 80 10 22 11 23 12 24 13
REMARK SMILES IDX 74 14 25 15 79 16 73 17 75 18 26 19 78 20 72 21 71 22 27 24
REMARK SMILES IDX 59 25 39 26 58 27 40 28 43 29 57 30 76 31 41 32 42 33 56 35
REMARK SMILES IDX 77 36 44 37 28 38 29 39 37 40 30 41 32 42 38 43 31 44 33 45
REMARK SMILES IDX 34 46 35 47 36 48 60 49 61 50 69 51 62 52 64 53 70 54 63 55
REMARK SMILES IDX 65 56 66 57 67 58 68 59 45 60 46 61 54 62 47 63 49 64 55 65
REMARK SMILES IDX 48 66 50 67 51 68 52 69 53 70 5 71 6 72 7 73 8 74 9 75 10 77
REMARK SMILES IDX 11 78 12 79 18 80 13 81 17 82 14 83 16 84 15 85
REMARK H PARENT 3 5 75 23 43 34 8 76 16 86
REMARK Flexibility Score: inf
ROOT
ATOM      1  C   UNL A   1      33.556  30.738  27.396  1.00  0.00     0.116 C 
ENDROOT
BRANCH   1   2
ATOM      2  N   UNL A   1      34.217  31.995  27.681  1.00  0.00    -0.352 N 
ATOM      3  O   UNL A   1      35.693  33.595  27.990  1.00  0.00    -0.269 OA
ATOM      4  C   UNL A   1      35.501  32.375  27.969  1.00  0.00     0.251 C 
ATOM      5  H   UNL A   1      33.595  32.758  27.662  1.00  0.00     0.163 HD
BRANCH   4   6
ATOM      6  C   UNL A   1      36.633  31.461  28.298  1.00  0.00     0.039 A 
ATOM      7  C   UNL A   1      36.729  30.116  27.942  1.00  0.00     0.014 A 
ATOM      8  C   UNL A   1      37.691  32.033  29.035  1.00  0.00     0.014 A 
ATOM      9  C   UNL A   1      37.829  29.356  28.347  1.00  0.00     0.010 A 
ATOM     10  C   UNL A   1      38.792  31.279  29.441  1.00  0.00     0.010 A 
ATOM     11  C   UNL A   1      38.855  29.931  29.106  1.00  0.00    -0.014 A 
BRANCH  11  12
ATOM     12  C   UNL A   1      40.061  29.138  29.348  1.00  0.00     0.031 A 
ATOM     13  C   UNL A   1      40.288  28.789  30.780  1.00  0.00     0.074 A 
ATOM     14  C   UNL A   1      40.861  28.614  28.396  1.00  0.00     0.049 A 
ATOM     15  N   UNL A   1      41.248  29.182  31.552  1.00  0.00    -0.248 NA
ATOM     16  C   UNL A   1      39.255  27.999  31.463  1.00  0.00     0.031 C 
ATOM     17  C   UNL A   1      40.618  28.568  26.954  1.00  0.00     0.029 A 
ATOM     18  N   UNL A   1      42.017  27.893  28.541  1.00  0.00    -0.354 N 
ATOM     19  C   UNL A   1      41.063  28.507  32.760  1.00  0.00     0.074 A 
ATOM     20  C   UNL A   1      39.740  27.944  32.704  1.00  0.00     0.031 C 
ATOM     21  C   UNL A   1      41.463  27.674  26.391  1.00  0.00     0.029 A 
ATOM     22  C   UNL A   1      42.386  27.185  27.402  1.00  0.00     0.049 A 
ATOM     23  H   UNL A   1      42.539  27.879  29.375  1.00  0.00     0.167 HD
ATOM     24  C   UNL A   1      42.100  28.272  33.612  1.00  0.00     0.034 A 
ATOM     25  C   UNL A   1      43.337  26.221  27.310  1.00  0.00     0.034 A 
ATOM     26  C   UNL A   1      43.233  29.108  33.304  1.00  0.00     0.049 A 
ATOM     27  C   UNL A   1      44.245  26.370  28.467  1.00  0.00     0.074 A 
ATOM     28  C   UNL A   1      43.466  30.466  33.210  1.00  0.00     0.029 A 
ATOM     29  N   UNL A   1      44.304  28.498  32.701  1.00  0.00    -0.354 N 
ATOM     30  N   UNL A   1      45.088  27.351  28.611  1.00  0.00    -0.248 NA
ATOM     31  C   UNL A   1      43.987  25.580  29.660  1.00  0.00     0.031 C 
ATOM     32  C   UNL A   1      44.423  30.605  32.163  1.00  0.00     0.029 A 
ATOM     33  C   UNL A   1      44.752  29.325  31.712  1.00  0.00     0.049 A 
ATOM     34  H   UNL A   1      44.681  27.621  32.939  1.00  0.00     0.167 HD
ATOM     35  C   UNL A   1      45.103  27.587  29.977  1.00  0.00     0.074 A 
ATOM     36  C   UNL A   1      44.527  26.387  30.575  1.00  0.00     0.031 C 
ATOM     37  C   UNL A   1      45.306  28.845  30.466  1.00  0.00     0.034 A 
BRANCH  24  38
ATOM     38  C   UNL A   1      42.269  27.031  34.475  1.00  0.00     0.023 A 
ATOM     39  C   UNL A   1      41.861  27.136  35.829  1.00  0.00     0.012 A 
ATOM     40  C   UNL A   1      43.061  25.910  34.141  1.00  0.00     0.148 A 
ATOM     41  C   UNL A   1      42.309  26.244  36.810  1.00  0.00     0.002 A 
ATOM     42  C   UNL A   1      43.439  24.981  35.106  1.00  0.00     0.091 A 
ATOM     43  F   UNL A   1      43.568  25.785  32.913  1.00  0.00    -0.205 F 
ATOM     44  C   UNL A   1      43.102  25.165  36.448  1.00  0.00     0.022 A 
BRANCH  42  45
ATOM     45  S   UNL A   1      44.415  23.530  34.687  1.00  0.00     0.127 S 
ATOM     46  O   UNL A   1      43.545  22.862  33.724  1.00  0.00    -0.237 OA
ATOM     47  O   UNL A   1      45.620  24.137  34.119  1.00  0.00    -0.237 OA
ATOM     48  O   UNL A   1      44.639  22.830  35.945  1.00  0.00    -0.744 OA
ENDBRANCH  42  45
ENDBRANCH  24  38
BRANCH  25  49
ATOM     49  C   UNL A   1      43.449  25.049  26.411  1.00  0.00     0.023 A 
ATOM     50  C   UNL A   1      44.540  24.954  25.522  1.00  0.00     0.012 A 
ATOM     51  C   UNL A   1      42.666  23.895  26.625  1.00  0.00     0.148 A 
ATOM     52  C   UNL A   1      44.868  23.742  24.903  1.00  0.00     0.002 A 
ATOM     53  C   UNL A   1      42.991  22.693  26.002  1.00  0.00     0.091 A 
ATOM     54  F   UNL A   1      41.665  23.952  27.514  1.00  0.00    -0.205 F 
ATOM     55  C   UNL A   1      44.100  22.608  25.151  1.00  0.00     0.022 A 
BRANCH  53  56
ATOM     56  S   UNL A   1      42.060  21.182  26.296  1.00  0.00     0.127 S 
ATOM     57  O   UNL A   1      42.251  20.982  27.733  1.00  0.00    -0.237 OA
ATOM     58  O   UNL A   1      40.710  21.579  25.907  1.00  0.00    -0.237 OA
ATOM     59  O   UNL A   1      42.687  20.163  25.462  1.00  0.00    -0.744 OA
ENDBRANCH  53  56
ENDBRANCH  25  49
BRANCH  37  60
ATOM     60  C   UNL A   1      45.889  29.889  29.551  1.00  0.00     0.023 A 
ATOM     61  C   UNL A   1      47.276  30.103  29.422  1.00  0.00     0.012 A 
ATOM     62  C   UNL A   1      45.011  30.558  28.680  1.00  0.00     0.148 A 
ATOM     63  C   UNL A   1      47.774  30.986  28.461  1.00  0.00     0.002 A 
ATOM     64  C   UNL A   1      45.514  31.391  27.689  1.00  0.00     0.091 A 
ATOM     65  F   UNL A   1      43.693  30.350  28.819  1.00  0.00    -0.205 F 
ATOM     66  C   UNL A   1      46.895  31.617  27.584  1.00  0.00     0.022 A 
BRANCH  64  67
ATOM     67  S   UNL A   1      44.436  32.109  26.448  1.00  0.00     0.127 S 
ATOM     68  O   UNL A   1      43.846  33.234  27.169  1.00  0.00    -0.237 OA
ATOM     69  O   UNL A   1      45.376  32.485  25.390  1.00  0.00    -0.237 OA
ATOM     70  O   UNL A   1      43.512  31.048  26.066  1.00  0.00    -0.744 OA
ENDBRANCH  64  67
ENDBRANCH  37  60
ENDBRANCH  11  12
ENDBRANCH   4   6
ENDBRANCH   1   2
BRANCH   1  71
ATOM     71  C   UNL A   1      32.264  30.864  26.590  1.00  0.00     0.023 C 
BRANCH  71  72
ATOM     72  C   UNL A   1      31.684  29.548  26.055  1.00  0.00     0.023 C 
BRANCH  72  73
ATOM     73  C   UNL A   1      31.680  29.380  24.536  1.00  0.00     0.116 C 
BRANCH  73  74
ATOM     74  N   UNL A   1      30.817  28.300  24.088  1.00  0.00    -0.351 N 
ATOM     75  C   UNL A   1      29.637  28.351  23.376  1.00  0.00     0.271 C 
ATOM     76  H   UNL A   1      31.122  27.395  24.328  1.00  0.00     0.163 HD
ATOM     77  O   UNL A   1      29.018  27.311  23.186  1.00  0.00    -0.267 OA
BRANCH  75  78
ATOM     78  C   UNL A   1      29.180  29.647  22.853  1.00  0.00     0.154 A 
ATOM     79  C   UNL A   1      28.729  30.790  23.610  1.00  0.00     0.089 A 
ATOM     80  N   UNL A   1      29.174  29.907  21.518  1.00  0.00    -0.143 NA
ATOM     81  C   UNL A   1      28.411  31.712  22.654  1.00  0.00     0.199 A 
ATOM     82  N   UNL A   1      28.694  31.132  21.488  1.00  0.00    -0.135 N 
ATOM     83  N   UNL A   1      27.929  32.956  22.429  1.00  0.00    -0.109 NA
ATOM     84  N   UNL A   1      28.349  31.990  20.551  1.00  0.00    -0.177 N 
ATOM     85  N   UNL A   1      27.928  33.154  21.161  1.00  0.00    -0.050 NA
ATOM     86  H   UNL A   1      28.385  31.830  19.580  1.00  0.00     0.216 HD
ENDBRANCH  75  78
ENDBRANCH  73  74
ENDBRANCH  72  73
ENDBRANCH  71  72
ENDBRANCH   1  71
TORSDOF 14
ENDMDL
MODEL 2
REMARK VINA RESULT:     -12.5      5.247     10.169
REMARK SMILES O=C(NCCCCNC(=O)c1cc2nn[nH]n2n1)c1ccc(-c2c3nc(c(-c4cccc(S(=O)(=O)[O-])c4F)c4ccc([nH]4)c(-c4cccc(S(=O)(=O)[O-])c4F)c4nc(c(-c5cccc(S(=O)(=O)[O-])c5F)c5ccc2[nH]5)C=C4)C=C3)cc1
REMARK SMILES IDX 4 1 3 2 1 3 2 4 19 6 20 7 81 8 21 9 80 10 22 11 23 12 24 13
REMARK SMILES IDX 74 14 25 15 79 16 73 17 75 18 26 19 78 20 72 21 71 22 27 24
REMARK SMILES IDX 59 25 39 26 58 27 40 28 43 29 57 30 76 31 41 32 42 33 56 35
REMARK SMILES IDX 77 36 44 37 28 38 29 39 37 40 30 41 32 42 38 43 31 44 33 45
REMARK SMILES IDX 34 46 35 47 36 48 60 49 61 50 69 51 62 52 64 53 70 54 63 55
REMARK SMILES IDX 65 56 66 57 67 58 68 59 45 60 46 61 54 62 47 63 49 64 55 65
REMARK SMILES IDX 48 66 50 67 51 68 52 69 53 70 5 71 6 72 7 73 8 74 9 75 10 77
REMARK SMILES IDX 11 78 12 79 18 80 13 81 17 82 14 83 16 84 15 85
REMARK H PARENT 3 5 75 23 43 34 8 76 16 86
REMARK Flexibility Score: inf
ROOT
ATOM      1  C   UNL A   1      37.118  22.582  24.711  1.00  0.00     0.116 C 
ENDROOT
BRANCH   1   2
ATOM      2  N   UNL A   1      38.164  21.679  25.144  1.00  0.00    -0.352 N 
ATOM      3  O   UNL A   1      39.783  20.677  26.245  1.00  0.00    -0.269 OA
ATOM      4  C   UNL A   1      39.194  21.745  26.044  1.00  0.00     0.251 C 
ATOM      5  H   UNL A   1      38.125  20.811  24.681  1.00  0.00     0.163 HD
BRANCH   4   6
ATOM      6  C   UNL A   1      39.675  22.974  26.739  1.00  0.00     0.039 A 
ATOM      7  C   UNL A   1      40.793  23.062  27.567  1.00  0.00     0.014 A 
ATOM      8  C   UNL A   1      38.914  24.142  26.522  1.00  0.00     0.014 A 
ATOM      9  C   UNL A   1      41.116  24.268  28.193  1.00  0.00     0.010 A 
ATOM     10  C   UNL A   1      39.232  25.349  27.142  1.00  0.00     0.010 A 
ATOM     11  C   UNL A   1      40.331  25.410  27.991  1.00  0.00    -0.014 A 
BRANCH  11  12
ATOM     12  C   UNL A   1      40.816  26.683  28.525  1.00  0.00     0.031 A 
ATOM     13  C   UNL A   1      42.148  27.101  27.998  1.00  0.00     0.074 A 
ATOM     14  C   UNL A   1      40.114  27.525  29.313  1.00  0.00     0.049 A 
ATOM     15  N   UNL A   1      43.260  27.215  28.648  1.00  0.00    -0.248 NA
ATOM     16  C   UNL A   1      42.276  27.302  26.548  1.00  0.00     0.031 C 
ATOM     17  C   UNL A   1      38.695  27.447  29.657  1.00  0.00     0.029 A 
ATOM     18  N   UNL A   1      40.508  28.710  29.875  1.00  0.00    -0.354 N 
ATOM     19  C   UNL A   1      44.183  27.721  27.731  1.00  0.00     0.074 A 
ATOM     20  C   UNL A   1      43.575  27.584  26.434  1.00  0.00     0.031 C 
ATOM     21  C   UNL A   1      38.297  28.635  30.168  1.00  0.00     0.029 A 
ATOM     22  C   UNL A   1      39.452  29.507  30.306  1.00  0.00     0.049 A 
ATOM     23  H   UNL A   1      41.452  28.973  29.966  1.00  0.00     0.167 HD
ATOM     24  C   UNL A   1      45.278  28.424  28.135  1.00  0.00     0.034 A 
ATOM     25  C   UNL A   1      39.511  30.808  30.688  1.00  0.00     0.034 A 
ATOM     26  C   UNL A   1      45.537  28.230  29.540  1.00  0.00     0.049 A 
ATOM     27  C   UNL A   1      40.914  31.112  31.038  1.00  0.00     0.074 A 
ATOM     28  C   UNL A   1      45.784  27.150  30.362  1.00  0.00     0.029 A 
ATOM     29  N   UNL A   1      45.233  29.278  30.373  1.00  0.00    -0.354 N 
ATOM     30  N   UNL A   1      41.519  30.653  32.095  1.00  0.00    -0.248 NA
ATOM     31  C   UNL A   1      41.777  31.685  30.018  1.00  0.00     0.031 C 
ATOM     32  C   UNL A   1      45.172  27.483  31.605  1.00  0.00     0.029 A 
ATOM     33  C   UNL A   1      44.630  28.764  31.484  1.00  0.00     0.049 A 
ATOM     34  H   UNL A   1      45.417  30.229  30.200  1.00  0.00     0.167 HD
ATOM     35  C   UNL A   1      42.827  30.456  31.680  1.00  0.00     0.074 A 
ATOM     36  C   UNL A   1      42.956  31.235  30.453  1.00  0.00     0.031 C 
ATOM     37  C   UNL A   1      43.581  29.448  32.207  1.00  0.00     0.034 A 
BRANCH  24  38
ATOM     38  C   UNL A   1      45.899  29.597  27.390  1.00  0.00     0.023 A 
ATOM     39  C   UNL A   1      47.310  29.715  27.451  1.00  0.00     0.012 A 
ATOM     40  C   UNL A   1      45.191  30.723  26.915  1.00  0.00     0.148 A 
ATOM     41  C   UNL A   1      47.966  30.918  27.166  1.00  0.00     0.002 A 
ATOM     42  C   UNL A   1      45.856  31.893  26.556  1.00  0.00     0.091 A 
ATOM     43  F   UNL A   1      43.857  30.732  26.916  1.00  0.00    -0.205 F 
ATOM     44  C   UNL A   1      47.238  32.010  26.719  1.00  0.00     0.022 A 
BRANCH  42  45
ATOM     45  S   UNL A   1      44.972  33.321  25.914  1.00  0.00     0.127 S 
ATOM     46  O   UNL A   1      46.075  34.200  25.537  1.00  0.00    -0.237 OA
ATOM     47  O   UNL A   1      44.235  32.735  24.795  1.00  0.00    -0.237 OA
ATOM     48  O   UNL A   1      44.127  33.784  27.007  1.00  0.00    -0.744 OA
ENDBRANCH  42  45
ENDBRANCH  24  38
BRANCH  25  49
ATOM     49  C   UNL A   1      38.501  31.890  30.613  1.00  0.00     0.023 A 
ATOM     50  C   UNL A   1      37.828  32.132  29.396  1.00  0.00     0.012 A 
ATOM     51  C   UNL A   1      37.986  32.481  31.785  1.00  0.00     0.148 A 
ATOM     52  C   UNL A   1      36.658  32.899  29.356  1.00  0.00     0.002 A 
ATOM     53  C   UNL A   1      36.825  33.248  31.739  1.00  0.00     0.091 A 
ATOM     54  F   UNL A   1      38.576  32.210  32.957  1.00  0.00    -0.205 F 
ATOM     55  C   UNL A   1      36.150  33.448  30.529  1.00  0.00     0.022 A 
BRANCH  53  56
ATOM     56  S   UNL A   1      36.096  33.967  33.218  1.00  0.00     0.127 S 
ATOM     57  O   UNL A   1      37.211  34.744  33.760  1.00  0.00    -0.237 OA
ATOM     58  O   UNL A   1      35.008  34.765  32.661  1.00  0.00    -0.237 OA
ATOM     59  O   UNL A   1      35.694  32.839  34.049  1.00  0.00    -0.744 OA
ENDBRANCH  53  56
ENDBRANCH  25  49
BRANCH  37  60
ATOM     60  C   UNL A   1      43.133  28.808  33.493  1.00  0.00     0.023 A 
ATOM     61  C   UNL A   1      42.189  27.763  33.538  1.00  0.00     0.012 A 
ATOM     62  C   UNL A   1      43.809  29.168  34.673  1.00  0.00     0.148 A 
ATOM     63  C   UNL A   1      41.907  27.109  34.740  1.00  0.00     0.002 A 
ATOM     64  C   UNL A   1      43.567  28.477  35.853  1.00  0.00     0.091 A 
ATOM     65  F   UNL A   1      44.700  30.170  34.616  1.00  0.00    -0.205 F 
ATOM     66  C   UNL A   1      42.608  27.455  35.893  1.00  0.00     0.022 A 
BRANCH  64  67
ATOM     67  S   UNL A   1      44.546  28.787  37.324  1.00  0.00     0.127 S 
ATOM     68  O   UNL A   1      44.220  27.632  38.157  1.00  0.00    -0.237 OA
ATOM     69  O   UNL A   1      45.913  28.798  36.798  1.00  0.00    -0.237 OA
ATOM     70  O   UNL A   1      44.099  30.079  37.831  1.00  0.00    -0.744 OA
ENDBRANCH  64  67
ENDBRANCH  37  60
ENDBRANCH  11  12
ENDBRANCH   4   6
ENDBRANCH   1   2
BRANCH   1  71
ATOM     71  C   UNL A   1      35.708  21.995  24.760  1.00  0.00     0.023 C 
BRANCH  71  72
ATOM     72  C   UNL A   1      35.169  21.678  26.162  1.00  0.00     0.023 C 
BRANCH  72  73
ATOM     73  C   UNL A   1      33.809  20.983  26.221  1.00  0.00     0.116 C 
BRANCH  73  74
ATOM     74  N   UNL A   1      33.064  21.089  24.979  1.00  0.00    -0.351 N 
ATOM     75  C   UNL A   1      32.704  20.107  24.078  1.00  0.00     0.271 C 
ATOM     76  H   UNL A   1      32.769  21.999  24.745  1.00  0.00     0.163 HD
ATOM     77  O   UNL A   1      32.152  20.438  23.036  1.00  0.00    -0.267 OA
BRANCH  75  78
ATOM     78  C   UNL A   1      32.976  18.702  24.415  1.00  0.00     0.154 A 
ATOM     79  C   UNL A   1      34.224  17.990  24.269  1.00  0.00     0.089 A 
ATOM     80  N   UNL A   1      32.017  17.909  24.961  1.00  0.00    -0.143 NA
ATOM     81  C   UNL A   1      33.934  16.729  24.708  1.00  0.00     0.199 A 
ATOM     82  N   UNL A   1      32.656  16.765  25.086  1.00  0.00    -0.135 N 
ATOM     83  N   UNL A   1      34.422  15.482  24.903  1.00  0.00    -0.109 NA
ATOM     84  N   UNL A   1      32.346  15.544  25.467  1.00  0.00    -0.177 N 
ATOM     85  N   UNL A   1      33.484  14.766  25.405  1.00  0.00    -0.050 NA
ATOM     86  H   UNL A   1      31.454  15.238  25.751  1.00  0.00     0.216 HD
ENDBRANCH  75  78
ENDBRANCH  73  74
ENDBRANCH  72  73
ENDBRANCH  71  72
ENDBRANCH   1  71
TORSDOF 14
ENDMDL
MODEL 3
REMARK VINA RESULT:     -12.3      1.502      1.869
REMARK SMILES O=C(NCCCCNC(=O)c1cc2nn[nH]n2n1)c1ccc(-c2c3nc(c(-c4cccc(S(=O)(=O)[O-])c4F)c4ccc([nH]4)c(-c4cccc(S(=O)(=O)[O-])c4F)c4nc(c(-c5cccc(S(=O)(=O)[O-])c5F)c5ccc2[nH]5)C=C4)C=C3)cc1
REMARK SMILES IDX 4 1 3 2 1 3 2 4 19 6 20 7 81 8 21 9 80 10 22 11 23 12 24 13
REMARK SMILES IDX 74 14 25 15 79 16 73 17 75 18 26 19 78 20 72 21 71 22 27 24
REMARK SMILES IDX 59 25 39 26 58 27 40 28 43 29 57 30 76 31 41 32 42 33 56 35
REMARK SMILES IDX 77 36 44 37 28 38 29 39 37 40 30 41 32 42 38 43 31 44 33 45
REMARK SMILES IDX 34 46 35 47 36 48 60 49 61 50 69 51 62 52 64 53 70 54 63 55
REMARK SMILES IDX 65 56 66 57 67 58 68 59 45 60 46 61 54 62 47 63 49 64 55 65
REMARK SMILES IDX 48 66 50 67 51 68 52 69 53 70 5 71 6 72 7 73 8 74 9 75 10 77
REMARK SMILES IDX 11 78 12 79 18 80 13 81 17 82 14 83 16 84 15 85
REMARK H PARENT 3 5 75 23 43 34 8 76 16 86
REMARK Flexibility Score: inf
ROOT
ATOM      1  C   UNL A   1      33.551  30.431  26.687  1.00  0.00     0.116 C 
ENDROOT
BRANCH   1   2
ATOM      2  N   UNL A   1      33.666  31.374  27.781  1.00  0.00    -0.352 N 
ATOM      3  O   UNL A   1      34.405  32.721  29.354  1.00  0.00    -0.269 OA
ATOM      4  C   UNL A   1      34.659  31.737  28.651  1.00  0.00     0.251 C 
ATOM      5  H   UNL A   1      32.831  31.872  27.935  1.00  0.00     0.163 HD
BRANCH   4   6
ATOM      6  C   UNL A   1      35.958  31.030  28.843  1.00  0.00     0.039 A 
ATOM      7  C   UNL A   1      36.132  29.651  28.945  1.00  0.00     0.014 A 
ATOM      8  C   UNL A   1      37.101  31.854  28.924  1.00  0.00     0.014 A 
ATOM      9  C   UNL A   1      37.403  29.114  29.165  1.00  0.00     0.010 A 
ATOM     10  C   UNL A   1      38.372  31.323  29.141  1.00  0.00     0.010 A 
ATOM     11  C   UNL A   1      38.522  29.948  29.275  1.00  0.00    -0.014 A 
BRANCH  11  12
ATOM     12  C   UNL A   1      39.845  29.323  29.325  1.00  0.00     0.031 A 
ATOM     13  C   UNL A   1      40.400  29.172  30.701  1.00  0.00     0.074 A 
ATOM     14  C   UNL A   1      40.497  28.778  28.276  1.00  0.00     0.049 A 
ATOM     15  N   UNL A   1      41.438  29.755  31.208  1.00  0.00    -0.248 NA
ATOM     16  C   UNL A   1      39.638  28.363  31.661  1.00  0.00     0.031 C 
ATOM     17  C   UNL A   1      39.976  28.535  26.931  1.00  0.00     0.029 A 
ATOM     18  N   UNL A   1      41.742  28.208  28.237  1.00  0.00    -0.354 N 
ATOM     19  C   UNL A   1      41.589  29.213  32.485  1.00  0.00     0.074 A 
ATOM     20  C   UNL A   1      40.368  28.509  32.768  1.00  0.00     0.031 C 
ATOM     21  C   UNL A   1      40.798  27.676  26.286  1.00  0.00     0.029 A 
ATOM     22  C   UNL A   1      41.962  27.413  27.116  1.00  0.00     0.049 A 
ATOM     23  H   UNL A   1      42.419  28.349  28.937  1.00  0.00     0.167 HD
ATOM     24  C   UNL A   1      42.799  29.194  33.112  1.00  0.00     0.034 A 
ATOM     25  C   UNL A   1      42.991  26.553  26.913  1.00  0.00     0.034 A 
ATOM     26  C   UNL A   1      43.728  30.104  32.491  1.00  0.00     0.049 A 
ATOM     27  C   UNL A   1      44.087  26.935  27.828  1.00  0.00     0.074 A 
ATOM     28  C   UNL A   1      43.759  31.457  32.222  1.00  0.00     0.029 A 
ATOM     29  N   UNL A   1      44.724  29.544  31.731  1.00  0.00    -0.354 N 
ATOM     30  N   UNL A   1      44.807  28.011  27.695  1.00  0.00    -0.248 NA
ATOM     31  C   UNL A   1      44.181  26.269  29.117  1.00  0.00     0.031 C 
ATOM     32  C   UNL A   1      44.458  31.573  30.985  1.00  0.00     0.029 A 
ATOM     33  C   UNL A   1      44.852  30.292  30.596  1.00  0.00     0.049 A 
ATOM     34  H   UNL A   1      45.253  28.748  31.964  1.00  0.00     0.167 HD
ATOM     35  C   UNL A   1      45.068  28.407  28.997  1.00  0.00     0.074 A 
ATOM     36  C   UNL A   1      44.785  27.232  29.815  1.00  0.00     0.031 C 
ATOM     37  C   UNL A   1      45.200  29.729  29.311  1.00  0.00     0.034 A 
BRANCH  24  38
ATOM     38  C   UNL A   1      43.299  28.089  34.032  1.00  0.00     0.023 A 
ATOM     39  C   UNL A   1      43.886  28.497  35.256  1.00  0.00     0.012 A 
ATOM     40  C   UNL A   1      43.507  26.745  33.649  1.00  0.00     0.148 A 
ATOM     41  C   UNL A   1      44.722  27.652  35.994  1.00  0.00     0.002 A 
ATOM     42  C   UNL A   1      44.275  25.885  34.428  1.00  0.00     0.091 A 
ATOM     43  F   UNL A   1      43.072  26.306  32.467  1.00  0.00    -0.205 F 
ATOM     44  C   UNL A   1      44.919  26.344  35.579  1.00  0.00     0.022 A 
BRANCH  42  45
ATOM     45  S   UNL A   1      44.517  24.163  33.972  1.00  0.00     0.127 S 
ATOM     46  O   UNL A   1      45.545  23.751  34.924  1.00  0.00    -0.237 OA
ATOM     47  O   UNL A   1      43.187  23.602  34.214  1.00  0.00    -0.237 OA
ATOM     48  O   UNL A   1      44.910  24.179  32.569  1.00  0.00    -0.744 OA
ENDBRANCH  42  45
ENDBRANCH  24  38
BRANCH  25  49
ATOM     49  C   UNL A   1      43.070  25.300  26.124  1.00  0.00     0.023 A 
ATOM     50  C   UNL A   1      44.099  25.140  25.171  1.00  0.00     0.012 A 
ATOM     51  C   UNL A   1      42.335  24.158  26.505  1.00  0.00     0.148 A 
ATOM     52  C   UNL A   1      44.413  23.880  24.649  1.00  0.00     0.002 A 
ATOM     53  C   UNL A   1      42.646  22.907  25.978  1.00  0.00     0.091 A 
ATOM     54  F   UNL A   1      41.397  24.282  27.454  1.00  0.00    -0.205 F 
ATOM     55  C   UNL A   1      43.694  22.761  25.061  1.00  0.00     0.022 A 
BRANCH  53  56
ATOM     56  S   UNL A   1      41.779  21.415  26.482  1.00  0.00     0.127 S 
ATOM     57  O   UNL A   1      40.394  21.736  26.136  1.00  0.00    -0.237 OA
ATOM     58  O   UNL A   1      42.402  20.403  25.635  1.00  0.00    -0.237 OA
ATOM     59  O   UNL A   1      42.021  21.282  27.914  1.00  0.00    -0.744 OA
ENDBRANCH  53  56
ENDBRANCH  25  49
BRANCH  37  60
ATOM     60  C   UNL A   1      45.445  30.713  28.199  1.00  0.00     0.023 A 
ATOM     61  C   UNL A   1      44.402  31.333  27.483  1.00  0.00     0.012 A 
ATOM     62  C   UNL A   1      46.767  31.142  27.985  1.00  0.00     0.148 A 
ATOM     63  C   UNL A   1      44.675  32.339  26.554  1.00  0.00     0.002 A 
ATOM     64  C   UNL A   1      47.029  32.182  27.103  1.00  0.00     0.091 A 
ATOM     65  F   UNL A   1      47.752  30.538  28.668  1.00  0.00    -0.205 F 
ATOM     66  C   UNL A   1      45.985  32.776  26.376  1.00  0.00     0.022 A 
BRANCH  64  67
ATOM     67  S   UNL A   1      48.676  32.874  26.949  1.00  0.00     0.127 S 
ATOM     68  O   UNL A   1      49.452  31.721  26.499  1.00  0.00    -0.237 OA
ATOM     69  O   UNL A   1      48.488  33.918  25.939  1.00  0.00    -0.237 OA
ATOM     70  O   UNL A   1      49.014  33.387  28.271  1.00  0.00    -0.744 OA
ENDBRANCH  64  67
ENDBRANCH  37  60
ENDBRANCH  11  12
ENDBRANCH   4   6
ENDBRANCH   1   2
BRANCH   1  71
ATOM     71  C   UNL A   1      32.117  30.117  26.264  1.00  0.00     0.023 C 
BRANCH  71  72
ATOM     72  C   UNL A   1      31.960  28.987  25.237  1.00  0.00     0.023 C 
BRANCH  72  73
ATOM     73  C   UNL A   1      31.161  29.324  23.979  1.00  0.00     0.116 C 
BRANCH  73  74
ATOM     74  N   UNL A   1      30.079  28.388  23.727  1.00  0.00    -0.351 N 
ATOM     75  C   UNL A   1      28.844  28.601  23.150  1.00  0.00     0.271 C 
ATOM     76  H   UNL A   1      30.253  27.462  24.011  1.00  0.00     0.163 HD
ATOM     77  O   UNL A   1      28.039  27.678  23.124  1.00  0.00    -0.267 OA
BRANCH  75  78
ATOM     78  C   UNL A   1      28.551  29.919  22.568  1.00  0.00     0.154 A 
ATOM     79  C   UNL A   1      28.571  31.199  23.236  1.00  0.00     0.089 A 
ATOM     80  N   UNL A   1      28.247  30.058  21.250  1.00  0.00    -0.143 NA
ATOM     81  C   UNL A   1      28.215  32.085  22.260  1.00  0.00     0.199 A 
ATOM     82  N   UNL A   1      28.048  31.355  21.157  1.00  0.00    -0.135 N 
ATOM     83  N   UNL A   1      27.966  33.384  21.977  1.00  0.00    -0.109 NA
ATOM     84  N   UNL A   1      27.657  32.187  20.215  1.00  0.00    -0.177 N 
ATOM     85  N   UNL A   1      27.671  33.467  20.731  1.00  0.00    -0.050 NA
ATOM     86  H   UNL A   1      27.400  31.940  19.297  1.00  0.00     0.216 HD
ENDBRANCH  75  78
ENDBRANCH  73  74
ENDBRANCH  72  73
ENDBRANCH  71  72
ENDBRANCH   1  71
TORSDOF 14
ENDMDL
