MODEL 1
REMARK VINA RESULT:     -11.6      0.000      0.000
REMARK SMILES Cc1occc1C(=O)NN1C(=O)/C(=C\c2ccc(O[C@H](C)C(=O)NCCCCNC(=O)c3ccc(-c4c5nc(c(-c6cccc(S(=O)(=O)[O-])c6F)c6ccc([nH]6)c(-c6cccc(S(=O)(=O)[O-])c6F)c6nc(c(-c7cccc(S(=O)(=O)[O-])c7F)c7ccc4[nH]7)C=C6)C=C5)cc3)cc2)SC1=S
REMARK SMILES IDX 25 1 24 2 22 3 23 4 20 6 21 7 19 8 18 9 15 10 16 11 96 12
REMARK SMILES IDX 17 13 95 14 14 15 10 16 11 17 98 18 12 19 13 20 97 21 99 22
REMARK SMILES IDX 9 23 7 24 8 25 6 27 1 28 2 29 3 30 4 31 5 32 26 33 27 34
REMARK SMILES IDX 28 35 29 36 30 37 31 39 32 40 33 41 94 42 34 43 93 44 35 45
REMARK SMILES IDX 36 46 37 47 87 48 38 49 92 50 86 51 88 52 39 53 91 54 85 55
REMARK SMILES IDX 84 56 40 58 72 59 52 60 71 61 53 62 56 63 70 64 89 65 54 66
REMARK SMILES IDX 55 67 69 69 90 70 57 71 41 72 42 73 50 74 43 75 45 76 51 77
REMARK SMILES IDX 44 78 46 79 47 80 48 81 49 82 73 83 74 84 82 85 75 86 77 87
REMARK SMILES IDX 83 88 76 89 78 90 79 91 80 92 81 93 58 94 59 95 67 96 60 97
REMARK SMILES IDX 62 98 68 99 61 100 63 101 64 102 65 103 66 104
REMARK H PARENT 24 5 9 26 29 38 88 57 56 68
REMARK Flexibility Score: inf
ROOT
ATOM      1  C   UNL A   1      34.711  29.827  27.043  1.00  0.00     0.116 C 
ENDROOT
BRANCH   1   2
ATOM      2  N   UNL A   1      33.530  29.296  27.679  1.00  0.00    -0.353 N 
ATOM      3  C   UNL A   1      32.246  29.197  27.241  1.00  0.00     0.260 C 
ATOM      4  O   UNL A   1      31.478  28.532  27.951  1.00  0.00    -0.271 OA
ATOM      5  H   UNL A   1      33.679  28.943  28.586  1.00  0.00     0.163 HD
BRANCH   3   6
ATOM      6  C   UNL A   1      31.680  29.950  26.004  1.00  0.00     0.258 C 
ATOM      7  C   UNL A   1      31.404  31.406  26.376  1.00  0.00     0.064 C 
BRANCH   6   8
ATOM      8  O   UNL A   1      32.119  29.658  24.684  1.00  0.00    -0.481 OA
BRANCH   8   9
ATOM      9  C   UNL A   1      32.120  28.435  24.097  1.00  0.00     0.120 A 
ATOM     10  C   UNL A   1      32.433  25.963  22.785  1.00  0.00    -0.024 A 
ATOM     11  C   UNL A   1      31.164  26.452  23.098  1.00  0.00     0.012 A 
ATOM     12  C   UNL A   1      33.557  26.709  23.138  1.00  0.00     0.012 A 
ATOM     13  C   UNL A   1      31.011  27.670  23.763  1.00  0.00     0.047 A 
ATOM     14  C   UNL A   1      33.395  27.929  23.806  1.00  0.00     0.047 A 
BRANCH  10  15
ATOM     15  C   UNL A   1      32.494  24.632  22.176  1.00  0.00     0.029 C 
ATOM     16  N   UNL A   1      33.016  22.041  24.671  1.00  0.00    -0.198 N 
ATOM     17  C   UNL A   1      32.881  23.381  24.344  1.00  0.00     0.285 C 
ATOM     18  C   UNL A   1      32.635  21.101  23.739  1.00  0.00     0.168 C 
ATOM     19  O   UNL A   1      32.960  24.298  25.143  1.00  0.00    -0.266 OA
ATOM     20  C   UNL A   1      32.599  23.500  22.884  1.00  0.00     0.082 C 
ATOM     21  S   UNL A   1      32.362  21.925  22.201  1.00  0.00    -0.052 SA
ATOM     22  S   UNL A   1      32.426  19.462  23.957  1.00  0.00    -0.050 S 
BRANCH  16  23
ATOM     23  N   UNL A   1      33.300  21.756  25.999  1.00  0.00    -0.254 N 
ATOM     24  C   UNL A   1      34.537  21.738  26.598  1.00  0.00     0.273 C 
ATOM     25  O   UNL A   1      34.554  21.705  27.832  1.00  0.00    -0.267 OA
ATOM     26  H   UNL A   1      32.531  21.543  26.576  1.00  0.00     0.192 HD
BRANCH  24  27
ATOM     27  C   UNL A   1      35.787  21.620  25.851  1.00  0.00     0.082 A 
ATOM     28  C   UNL A   1      37.273  23.829  26.056  1.00  0.00     0.088 C 
ATOM     29  C   UNL A   1      36.857  22.478  25.632  1.00  0.00     0.113 A 
ATOM     30  O   UNL A   1      37.797  21.867  24.847  1.00  0.00    -0.469 OA
ATOM     31  C   UNL A   1      37.385  20.603  24.613  1.00  0.00     0.196 A 
ATOM     32  C   UNL A   1      36.178  20.389  25.221  1.00  0.00     0.056 A 
ENDBRANCH  24  27
ENDBRANCH  16  23
ENDBRANCH  10  15
ENDBRANCH   8   9
ENDBRANCH   6   8
ENDBRANCH   3   6
ENDBRANCH   1   2
BRANCH   1  33
ATOM     33  C   UNL A   1      35.215  31.114  27.692  1.00  0.00     0.023 C 
BRANCH  33  34
ATOM     34  C   UNL A   1      34.111  31.987  28.297  1.00  0.00     0.023 C 
BRANCH  34  35
ATOM     35  C   UNL A   1      34.098  33.444  27.838  1.00  0.00     0.116 C 
BRANCH  35  36
ATOM     36  N   UNL A   1      33.295  34.325  28.677  1.00  0.00    -0.352 N 
ATOM     37  C   UNL A   1      33.493  34.646  30.001  1.00  0.00     0.251 C 
ATOM     38  H   UNL A   1      32.516  34.742  28.243  1.00  0.00     0.163 HD
ATOM     39  O   UNL A   1      32.676  35.340  30.598  1.00  0.00    -0.269 OA
BRANCH  37  40
ATOM     40  C   UNL A   1      34.679  34.105  30.702  1.00  0.00     0.039 A 
ATOM     41  C   UNL A   1      34.505  33.075  31.629  1.00  0.00     0.014 A 
ATOM     42  C   UNL A   1      35.961  34.570  30.396  1.00  0.00     0.014 A 
ATOM     43  C   UNL A   1      35.626  32.454  32.186  1.00  0.00     0.010 A 
ATOM     44  C   UNL A   1      37.074  33.904  30.898  1.00  0.00     0.010 A 
ATOM     45  C   UNL A   1      36.921  32.833  31.791  1.00  0.00    -0.014 A 
BRANCH  45  46
ATOM     46  C   UNL A   1      38.116  32.087  32.262  1.00  0.00     0.031 A 
ATOM     47  C   UNL A   1      38.794  32.456  33.554  1.00  0.00     0.074 A 
ATOM     48  C   UNL A   1      38.651  31.132  31.474  1.00  0.00     0.049 A 
ATOM     49  N   UNL A   1      39.853  31.924  34.108  1.00  0.00    -0.248 NA
ATOM     50  C   UNL A   1      38.228  33.588  34.307  1.00  0.00     0.031 C 
ATOM     51  C   UNL A   1      38.154  30.753  30.149  1.00  0.00     0.029 A 
ATOM     52  N   UNL A   1      39.745  30.324  31.660  1.00  0.00    -0.354 N 
ATOM     53  C   UNL A   1      40.098  32.669  35.255  1.00  0.00     0.074 A 
ATOM     54  C   UNL A   1      39.100  33.717  35.297  1.00  0.00     0.031 C 
ATOM     55  C   UNL A   1      38.931  29.781  29.648  1.00  0.00     0.029 A 
ATOM     56  C   UNL A   1      39.993  29.479  30.602  1.00  0.00     0.049 A 
ATOM     57  H   UNL A   1      40.300  30.346  32.472  1.00  0.00     0.167 HD
ATOM     58  C   UNL A   1      41.044  32.480  36.205  1.00  0.00     0.034 A 
ATOM     59  C   UNL A   1      40.962  28.560  30.423  1.00  0.00     0.034 A 
ATOM     60  C   UNL A   1      42.005  31.410  36.185  1.00  0.00     0.049 A 
ATOM     61  C   UNL A   1      41.961  28.324  31.524  1.00  0.00     0.074 A 
ATOM     62  C   UNL A   1      42.934  31.070  37.153  1.00  0.00     0.029 A 
ATOM     63  N   UNL A   1      42.164  30.509  35.145  1.00  0.00    -0.354 N 
ATOM     64  N   UNL A   1      42.056  28.917  32.691  1.00  0.00    -0.248 NA
ATOM     65  C   UNL A   1      42.958  27.268  31.303  1.00  0.00     0.031 C 
ATOM     66  C   UNL A   1      43.666  29.971  36.689  1.00  0.00     0.029 A 
ATOM     67  C   UNL A   1      43.182  29.618  35.441  1.00  0.00     0.049 A 
ATOM     68  H   UNL A   1      41.632  30.502  34.317  1.00  0.00     0.167 HD
ATOM     69  C   UNL A   1      43.104  28.287  33.353  1.00  0.00     0.074 A 
ATOM     70  C   UNL A   1      43.591  27.248  32.469  1.00  0.00     0.031 C 
ATOM     71  C   UNL A   1      43.626  28.556  34.575  1.00  0.00     0.034 A 
BRANCH  58  72
ATOM     72  C   UNL A   1      41.042  33.413  37.387  1.00  0.00     0.023 A 
ATOM     73  C   UNL A   1      41.889  34.540  37.379  1.00  0.00     0.012 A 
ATOM     74  C   UNL A   1      40.170  33.214  38.475  1.00  0.00     0.148 A 
ATOM     75  C   UNL A   1      41.893  35.436  38.446  1.00  0.00     0.002 A 
ATOM     76  C   UNL A   1      40.149  34.135  39.516  1.00  0.00     0.091 A 
ATOM     77  F   UNL A   1      39.388  32.125  38.478  1.00  0.00    -0.205 F 
ATOM     78  C   UNL A   1      41.017  35.240  39.509  1.00  0.00     0.022 A 
BRANCH  76  79
ATOM     79  S   UNL A   1      39.004  34.011  40.896  1.00  0.00     0.127 S 
ATOM     80  O   UNL A   1      39.570  32.894  41.650  1.00  0.00    -0.237 OA
ATOM     81  O   UNL A   1      39.152  35.318  41.539  1.00  0.00    -0.237 OA
ATOM     82  O   UNL A   1      37.694  33.772  40.306  1.00  0.00    -0.744 OA
ENDBRANCH  76  79
ENDBRANCH  58  72
BRANCH  59  83
ATOM     83  C   UNL A   1      40.978  27.730  29.186  1.00  0.00     0.023 A 
ATOM     84  C   UNL A   1      40.095  26.637  29.077  1.00  0.00     0.012 A 
ATOM     85  C   UNL A   1      41.828  28.034  28.105  1.00  0.00     0.148 A 
ATOM     86  C   UNL A   1      40.079  25.845  27.930  1.00  0.00     0.002 A 
ATOM     87  C   UNL A   1      41.769  27.272  26.942  1.00  0.00     0.091 A 
ATOM     88  F   UNL A   1      42.672  29.068  28.231  1.00  0.00    -0.205 F 
ATOM     89  C   UNL A   1      40.908  26.168  26.859  1.00  0.00     0.022 A 
BRANCH  87  90
ATOM     90  S   UNL A   1      42.699  27.703  25.467  1.00  0.00     0.127 S 
ATOM     91  O   UNL A   1      42.498  26.523  24.631  1.00  0.00    -0.237 OA
ATOM     92  O   UNL A   1      42.005  28.909  25.011  1.00  0.00    -0.237 OA
ATOM     93  O   UNL A   1      44.064  27.937  25.921  1.00  0.00    -0.744 OA
ENDBRANCH  87  90
ENDBRANCH  59  83
BRANCH  71  94
ATOM     94  C   UNL A   1      44.777  27.705  35.042  1.00  0.00     0.023 A 
ATOM     95  C   UNL A   1      46.098  28.159  34.855  1.00  0.00     0.012 A 
ATOM     96  C   UNL A   1      44.553  26.494  35.724  1.00  0.00     0.148 A 
ATOM     97  C   UNL A   1      47.179  27.405  35.309  1.00  0.00     0.002 A 
ATOM     98  C   UNL A   1      45.633  25.770  36.216  1.00  0.00     0.091 A 
ATOM     99  F   UNL A   1      43.290  26.067  35.875  1.00  0.00    -0.205 F 
ATOM    100  C   UNL A   1      46.947  26.217  35.999  1.00  0.00     0.022 A 
BRANCH  98 101
ATOM    101  S   UNL A   1      45.420  24.278  37.195  1.00  0.00     0.127 S 
ATOM    102  O   UNL A   1      44.739  23.395  36.250  1.00  0.00    -0.237 OA
ATOM    103  O   UNL A   1      46.802  23.900  37.495  1.00  0.00    -0.237 OA
ATOM    104  O   UNL A   1      44.641  24.676  38.360  1.00  0.00    -0.744 OA
ENDBRANCH  98 101
ENDBRANCH  71  94
ENDBRANCH  45  46
ENDBRANCH  37  40
ENDBRANCH  35  36
ENDBRANCH  34  35
ENDBRANCH  33  34
ENDBRANCH   1  33
TORSDOF 19
ENDMDL
MODEL 2
REMARK VINA RESULT:     -10.6      2.738      3.620
REMARK SMILES Cc1occc1C(=O)NN1C(=O)/C(=C\c2ccc(O[C@H](C)C(=O)NCCCCNC(=O)c3ccc(-c4c5nc(c(-c6cccc(S(=O)(=O)[O-])c6F)c6ccc([nH]6)c(-c6cccc(S(=O)(=O)[O-])c6F)c6nc(c(-c7cccc(S(=O)(=O)[O-])c7F)c7ccc4[nH]7)C=C6)C=C5)cc3)cc2)SC1=S
REMARK SMILES IDX 25 1 24 2 22 3 23 4 20 6 21 7 19 8 18 9 15 10 16 11 96 12
REMARK SMILES IDX 17 13 95 14 14 15 10 16 11 17 98 18 12 19 13 20 97 21 99 22
REMARK SMILES IDX 9 23 7 24 8 25 6 27 1 28 2 29 3 30 4 31 5 32 26 33 27 34
REMARK SMILES IDX 28 35 29 36 30 37 31 39 32 40 33 41 94 42 34 43 93 44 35 45
REMARK SMILES IDX 36 46 37 47 87 48 38 49 92 50 86 51 88 52 39 53 91 54 85 55
REMARK SMILES IDX 84 56 40 58 72 59 52 60 71 61 53 62 56 63 70 64 89 65 54 66
REMARK SMILES IDX 55 67 69 69 90 70 57 71 41 72 42 73 50 74 43 75 45 76 51 77
REMARK SMILES IDX 44 78 46 79 47 80 48 81 49 82 73 83 74 84 82 85 75 86 77 87
REMARK SMILES IDX 83 88 76 89 78 90 79 91 80 92 81 93 58 94 59 95 67 96 60 97
REMARK SMILES IDX 62 98 68 99 61 100 63 101 64 102 65 103 66 104
REMARK H PARENT 24 5 9 26 29 38 88 57 56 68
REMARK Flexibility Score: inf
ROOT
ATOM      1  C   UNL A   1      34.218  28.442  26.287  1.00  0.00     0.116 C 
ENDROOT
BRANCH   1   2
ATOM      2  N   UNL A   1      33.059  28.109  27.079  1.00  0.00    -0.353 N 
ATOM      3  C   UNL A   1      31.732  28.299  26.847  1.00  0.00     0.260 C 
ATOM      4  O   UNL A   1      30.956  27.749  27.640  1.00  0.00    -0.271 OA
ATOM      5  H   UNL A   1      33.263  27.667  27.934  1.00  0.00     0.163 HD
BRANCH   3   6
ATOM      6  C   UNL A   1      31.160  29.239  25.748  1.00  0.00     0.258 C 
ATOM      7  C   UNL A   1      31.453  30.692  26.117  1.00  0.00     0.064 C 
BRANCH   6   8
ATOM      8  O   UNL A   1      31.161  28.874  24.374  1.00  0.00    -0.481 OA
BRANCH   8   9
ATOM      9  C   UNL A   1      31.283  27.614  23.885  1.00  0.00     0.120 A 
ATOM     10  C   UNL A   1      31.804  25.111  22.704  1.00  0.00    -0.024 A 
ATOM     11  C   UNL A   1      30.556  25.396  23.259  1.00  0.00     0.012 A 
ATOM     12  C   UNL A   1      32.807  26.080  22.748  1.00  0.00     0.012 A 
ATOM     13  C   UNL A   1      30.303  26.632  23.858  1.00  0.00     0.047 A 
ATOM     14  C   UNL A   1      32.546  27.317  23.352  1.00  0.00     0.047 A 
BRANCH  10  15
ATOM     15  C   UNL A   1      32.002  23.755  22.188  1.00  0.00     0.029 C 
ATOM     16  N   UNL A   1      32.826  21.416  24.846  1.00  0.00    -0.198 N 
ATOM     17  C   UNL A   1      32.544  22.709  24.429  1.00  0.00     0.285 C 
ATOM     18  C   UNL A   1      32.538  20.378  23.987  1.00  0.00     0.168 C 
ATOM     19  O   UNL A   1      32.531  23.682  25.162  1.00  0.00    -0.266 OA
ATOM     20  C   UNL A   1      32.236  22.693  22.970  1.00  0.00     0.082 C 
ATOM     21  S   UNL A   1      32.162  21.058  22.401  1.00  0.00    -0.052 SA
ATOM     22  S   UNL A   1      32.509  18.745  24.321  1.00  0.00    -0.050 S 
BRANCH  16  23
ATOM     23  N   UNL A   1      33.152  21.258  26.184  1.00  0.00    -0.254 N 
ATOM     24  C   UNL A   1      34.288  21.701  26.821  1.00  0.00     0.273 C 
ATOM     25  O   UNL A   1      34.276  21.676  28.054  1.00  0.00    -0.267 OA
ATOM     26  H   UNL A   1      32.500  20.773  26.741  1.00  0.00     0.192 HD
BRANCH  24  27
ATOM     27  C   UNL A   1      35.514  22.056  26.113  1.00  0.00     0.082 A 
ATOM     28  C   UNL A   1      36.614  19.937  24.916  1.00  0.00     0.088 C 
ATOM     29  C   UNL A   1      36.440  21.329  25.374  1.00  0.00     0.113 A 
ATOM     30  O   UNL A   1      37.426  22.156  24.910  1.00  0.00    -0.469 OA
ATOM     31  C   UNL A   1      37.117  23.418  25.277  1.00  0.00     0.196 A 
ATOM     32  C   UNL A   1      35.950  23.421  25.991  1.00  0.00     0.056 A 
ENDBRANCH  24  27
ENDBRANCH  16  23
ENDBRANCH  10  15
ENDBRANCH   8   9
ENDBRANCH   6   8
ENDBRANCH   3   6
ENDBRANCH   1   2
BRANCH   1  33
ATOM     33  C   UNL A   1      35.209  29.342  27.020  1.00  0.00     0.023 C 
BRANCH  33  34
ATOM     34  C   UNL A   1      34.563  30.298  28.027  1.00  0.00     0.023 C 
BRANCH  34  35
ATOM     35  C   UNL A   1      34.558  31.773  27.626  1.00  0.00     0.116 C 
BRANCH  35  36
ATOM     36  N   UNL A   1      34.408  32.693  28.745  1.00  0.00    -0.352 N 
ATOM     37  C   UNL A   1      35.188  32.786  29.876  1.00  0.00     0.251 C 
ATOM     38  H   UNL A   1      33.658  33.328  28.685  1.00  0.00     0.163 HD
ATOM     39  O   UNL A   1      34.882  33.562  30.777  1.00  0.00    -0.269 OA
BRANCH  37  40
ATOM     40  C   UNL A   1      36.369  31.905  30.009  1.00  0.00     0.039 A 
ATOM     41  C   UNL A   1      37.571  32.290  29.413  1.00  0.00     0.014 A 
ATOM     42  C   UNL A   1      36.304  30.738  30.775  1.00  0.00     0.014 A 
ATOM     43  C   UNL A   1      38.729  31.546  29.654  1.00  0.00     0.010 A 
ATOM     44  C   UNL A   1      37.470  30.040  31.071  1.00  0.00     0.010 A 
ATOM     45  C   UNL A   1      38.698  30.441  30.522  1.00  0.00    -0.014 A 
BRANCH  45  46
ATOM     46  C   UNL A   1      39.945  29.729  30.905  1.00  0.00     0.031 A 
ATOM     47  C   UNL A   1      40.713  30.130  32.135  1.00  0.00     0.074 A 
ATOM     48  C   UNL A   1      40.439  28.777  30.086  1.00  0.00     0.049 A 
ATOM     49  N   UNL A   1      41.825  29.630  32.609  1.00  0.00    -0.248 NA
ATOM     50  C   UNL A   1      40.181  31.257  32.918  1.00  0.00     0.031 C 
ATOM     51  C   UNL A   1      39.848  28.370  28.809  1.00  0.00     0.029 A 
ATOM     52  N   UNL A   1      41.563  27.997  30.194  1.00  0.00    -0.354 N 
ATOM     53  C   UNL A   1      42.141  30.395  33.725  1.00  0.00     0.074 A 
ATOM     54  C   UNL A   1      41.124  31.419  33.835  1.00  0.00     0.031 C 
ATOM     55  C   UNL A   1      40.607  27.410  28.258  1.00  0.00     0.029 A 
ATOM     56  C   UNL A   1      41.748  27.145  29.129  1.00  0.00     0.049 A 
ATOM     57  H   UNL A   1      42.180  28.042  30.960  1.00  0.00     0.167 HD
ATOM     58  C   UNL A   1      43.164  30.240  34.599  1.00  0.00     0.034 A 
ATOM     59  C   UNL A   1      42.723  26.247  28.884  1.00  0.00     0.034 A 
ATOM     60  C   UNL A   1      44.145  29.193  34.515  1.00  0.00     0.049 A 
ATOM     61  C   UNL A   1      43.810  26.049  29.905  1.00  0.00     0.074 A 
ATOM     62  C   UNL A   1      45.156  28.887  35.410  1.00  0.00     0.029 A 
ATOM     63  N   UNL A   1      44.245  28.282  33.475  1.00  0.00    -0.354 N 
ATOM     64  N   UNL A   1      43.983  26.658  31.054  1.00  0.00    -0.248 NA
ATOM     65  C   UNL A   1      44.813  25.014  29.617  1.00  0.00     0.031 C 
ATOM     66  C   UNL A   1      45.876  27.800  34.902  1.00  0.00     0.029 A 
ATOM     67  C   UNL A   1      45.304  27.419  33.699  1.00  0.00     0.049 A 
ATOM     68  H   UNL A   1      43.649  28.253  32.692  1.00  0.00     0.167 HD
ATOM     69  C   UNL A   1      45.094  26.061  31.638  1.00  0.00     0.074 A 
ATOM     70  C   UNL A   1      45.536  25.024  30.729  1.00  0.00     0.031 C 
ATOM     71  C   UNL A   1      45.705  26.358  32.812  1.00  0.00     0.034 A 
BRANCH  58  72
ATOM     72  C   UNL A   1      43.231  31.188  35.768  1.00  0.00     0.023 A 
ATOM     73  C   UNL A   1      42.612  30.829  36.984  1.00  0.00     0.012 A 
ATOM     74  C   UNL A   1      43.948  32.397  35.690  1.00  0.00     0.148 A 
ATOM     75  C   UNL A   1      42.677  31.672  38.091  1.00  0.00     0.002 A 
ATOM     76  C   UNL A   1      44.044  33.213  36.812  1.00  0.00     0.091 A 
ATOM     77  F   UNL A   1      44.511  32.733  34.521  1.00  0.00    -0.205 F 
ATOM     78  C   UNL A   1      43.401  32.857  38.009  1.00  0.00     0.022 A 
BRANCH  76  79
ATOM     79  S   UNL A   1      45.016  34.725  36.829  1.00  0.00     0.127 S 
ATOM     80  O   UNL A   1      44.568  35.348  38.073  1.00  0.00    -0.237 OA
ATOM     81  O   UNL A   1      46.386  34.211  36.864  1.00  0.00    -0.237 OA
ATOM     82  O   UNL A   1      44.667  35.437  35.608  1.00  0.00    -0.744 OA
ENDBRANCH  76  79
ENDBRANCH  58  72
BRANCH  59  83
ATOM     83  C   UNL A   1      42.662  25.402  27.658  1.00  0.00     0.023 A 
ATOM     84  C   UNL A   1      43.166  25.911  26.445  1.00  0.00     0.012 A 
ATOM     85  C   UNL A   1      42.147  24.092  27.690  1.00  0.00     0.148 A 
ATOM     86  C   UNL A   1      43.131  25.144  25.281  1.00  0.00     0.002 A 
ATOM     87  C   UNL A   1      42.166  23.313  26.538  1.00  0.00     0.091 A 
ATOM     88  F   UNL A   1      41.659  23.629  28.850  1.00  0.00    -0.205 F 
ATOM     89  C   UNL A   1      42.641  23.842  25.329  1.00  0.00     0.022 A 
BRANCH  87  90
ATOM     90  S   UNL A   1      41.683  21.583  26.545  1.00  0.00     0.127 S 
ATOM     91  O   UNL A   1      41.871  21.225  27.948  1.00  0.00    -0.237 OA
ATOM     92  O   UNL A   1      40.288  21.654  26.108  1.00  0.00    -0.237 OA
ATOM     93  O   UNL A   1      42.572  20.926  25.596  1.00  0.00    -0.744 OA
ENDBRANCH  87  90
ENDBRANCH  59  83
BRANCH  71  94
ATOM     94  C   UNL A   1      46.909  25.541  33.196  1.00  0.00     0.023 A 
ATOM     95  C   UNL A   1      48.189  25.941  32.761  1.00  0.00     0.012 A 
ATOM     96  C   UNL A   1      46.786  24.419  34.039  1.00  0.00     0.148 A 
ATOM     97  C   UNL A   1      49.322  25.219  33.131  1.00  0.00     0.002 A 
ATOM     98  C   UNL A   1      47.925  23.732  34.443  1.00  0.00     0.091 A 
ATOM     99  F   UNL A   1      45.559  24.041  34.426  1.00  0.00    -0.205 F 
ATOM    100  C   UNL A   1      49.192  24.123  33.981  1.00  0.00     0.022 A 
BRANCH  98 101
ATOM    101  S   UNL A   1      47.856  22.366  35.608  1.00  0.00     0.127 S 
ATOM    102  O   UNL A   1      47.213  22.990  36.763  1.00  0.00    -0.237 OA
ATOM    103  O   UNL A   1      47.024  21.392  34.901  1.00  0.00    -0.237 OA
ATOM    104  O   UNL A   1      49.236  21.945  35.808  1.00  0.00    -0.744 OA
ENDBRANCH  98 101
ENDBRANCH  71  94
ENDBRANCH  45  46
ENDBRANCH  37  40
ENDBRANCH  35  36
ENDBRANCH  34  35
ENDBRANCH  33  34
ENDBRANCH   1  33
TORSDOF 19
ENDMDL
MODEL 3
REMARK VINA RESULT:     -10.5      5.035     12.512
REMARK SMILES Cc1occc1C(=O)NN1C(=O)/C(=C\c2ccc(O[C@H](C)C(=O)NCCCCNC(=O)c3ccc(-c4c5nc(c(-c6cccc(S(=O)(=O)[O-])c6F)c6ccc([nH]6)c(-c6cccc(S(=O)(=O)[O-])c6F)c6nc(c(-c7cccc(S(=O)(=O)[O-])c7F)c7ccc4[nH]7)C=C6)C=C5)cc3)cc2)SC1=S
REMARK SMILES IDX 25 1 24 2 22 3 23 4 20 6 21 7 19 8 18 9 15 10 16 11 96 12
REMARK SMILES IDX 17 13 95 14 14 15 10 16 11 17 98 18 12 19 13 20 97 21 99 22
REMARK SMILES IDX 9 23 7 24 8 25 6 27 1 28 2 29 3 30 4 31 5 32 26 33 27 34
REMARK SMILES IDX 28 35 29 36 30 37 31 39 32 40 33 41 94 42 34 43 93 44 35 45
REMARK SMILES IDX 36 46 37 47 87 48 38 49 92 50 86 51 88 52 39 53 91 54 85 55
REMARK SMILES IDX 84 56 40 58 72 59 52 60 71 61 53 62 56 63 70 64 89 65 54 66
REMARK SMILES IDX 55 67 69 69 90 70 57 71 41 72 42 73 50 74 43 75 45 76 51 77
REMARK SMILES IDX 44 78 46 79 47 80 48 81 49 82 73 83 74 84 82 85 75 86 77 87
REMARK SMILES IDX 83 88 76 89 78 90 79 91 80 92 81 93 58 94 59 95 67 96 60 97
REMARK SMILES IDX 62 98 68 99 61 100 63 101 64 102 65 103 66 104
REMARK H PARENT 24 5 9 26 29 38 88 57 56 68
REMARK Flexibility Score: inf
ROOT
ATOM      1  C   UNL A   1      43.650  23.371  29.867  1.00  0.00     0.116 C 
ENDROOT
BRANCH   1   2
ATOM      2  N   UNL A   1      44.663  24.399  29.855  1.00  0.00    -0.353 N 
ATOM      3  C   UNL A   1      44.876  25.454  30.686  1.00  0.00     0.260 C 
ATOM      4  O   UNL A   1      45.938  26.071  30.521  1.00  0.00    -0.271 OA
ATOM      5  H   UNL A   1      45.312  24.322  29.120  1.00  0.00     0.163 HD
BRANCH   3   6
ATOM      6  C   UNL A   1      43.838  25.984  31.716  1.00  0.00     0.258 C 
ATOM      7  C   UNL A   1      44.176  25.443  33.104  1.00  0.00     0.064 C 
BRANCH   6   8
ATOM      8  O   UNL A   1      43.277  27.286  31.612  1.00  0.00    -0.481 OA
BRANCH   8   9
ATOM      9  C   UNL A   1      43.392  28.279  32.528  1.00  0.00     0.120 A 
ATOM     10  C   UNL A   1      43.866  30.468  34.235  1.00  0.00    -0.024 A 
ATOM     11  C   UNL A   1      43.195  29.334  34.694  1.00  0.00     0.012 A 
ATOM     12  C   UNL A   1      44.296  30.516  32.909  1.00  0.00     0.012 A 
ATOM     13  C   UNL A   1      42.946  28.256  33.843  1.00  0.00     0.047 A 
ATOM     14  C   UNL A   1      44.041  29.430  32.061  1.00  0.00     0.047 A 
BRANCH  10  15
ATOM     15  C   UNL A   1      43.992  31.584  35.175  1.00  0.00     0.029 C 
ATOM     16  N   UNL A   1      41.168  33.861  34.936  1.00  0.00    -0.198 N 
ATOM     17  C   UNL A   1      41.836  32.728  34.497  1.00  0.00     0.285 C 
ATOM     18  C   UNL A   1      41.541  34.411  36.143  1.00  0.00     0.168 C 
ATOM     19  O   UNL A   1      41.461  32.017  33.581  1.00  0.00    -0.266 OA
ATOM     20  C   UNL A   1      43.048  32.519  35.342  1.00  0.00     0.082 C 
ATOM     21  S   UNL A   1      43.051  33.651  36.655  1.00  0.00    -0.052 SA
ATOM     22  S   UNL A   1      40.748  35.576  37.032  1.00  0.00    -0.050 S 
BRANCH  16  23
ATOM     23  N   UNL A   1      40.020  34.208  34.239  1.00  0.00    -0.254 N 
ATOM     24  C   UNL A   1      38.720  33.924  34.586  1.00  0.00     0.273 C 
ATOM     25  O   UNL A   1      37.838  34.528  33.970  1.00  0.00    -0.267 OA
ATOM     26  H   UNL A   1      40.150  34.713  33.404  1.00  0.00     0.192 HD
BRANCH  24  27
ATOM     27  C   UNL A   1      38.356  32.869  35.527  1.00  0.00     0.082 A 
ATOM     28  C   UNL A   1      38.553  30.446  34.420  1.00  0.00     0.088 C 
ATOM     29  C   UNL A   1      38.276  31.485  35.432  1.00  0.00     0.113 A 
ATOM     30  O   UNL A   1      37.881  30.953  36.629  1.00  0.00    -0.469 OA
ATOM     31  C   UNL A   1      37.770  31.963  37.517  1.00  0.00     0.196 A 
ATOM     32  C   UNL A   1      38.072  33.151  36.908  1.00  0.00     0.056 A 
ENDBRANCH  24  27
ENDBRANCH  16  23
ENDBRANCH  10  15
ENDBRANCH   8   9
ENDBRANCH   6   8
ENDBRANCH   3   6
ENDBRANCH   1   2
BRANCH   1  33
ATOM     33  C   UNL A   1      42.683  23.466  28.690  1.00  0.00     0.023 C 
BRANCH  33  34
ATOM     34  C   UNL A   1      42.319  22.116  28.065  1.00  0.00     0.023 C 
BRANCH  34  35
ATOM     35  C   UNL A   1      41.968  22.152  26.578  1.00  0.00     0.116 C 
BRANCH  35  36
ATOM     36  N   UNL A   1      40.582  21.811  26.286  1.00  0.00    -0.352 N 
ATOM     37  C   UNL A   1      39.472  22.621  26.383  1.00  0.00     0.251 C 
ATOM     38  H   UNL A   1      40.418  20.890  25.980  1.00  0.00     0.163 HD
ATOM     39  O   UNL A   1      38.352  22.162  26.182  1.00  0.00    -0.269 OA
BRANCH  37  40
ATOM     40  C   UNL A   1      39.647  24.036  26.779  1.00  0.00     0.039 A 
ATOM     41  C   UNL A   1      39.362  24.413  28.092  1.00  0.00     0.014 A 
ATOM     42  C   UNL A   1      40.153  24.971  25.871  1.00  0.00     0.014 A 
ATOM     43  C   UNL A   1      39.664  25.709  28.519  1.00  0.00     0.010 A 
ATOM     44  C   UNL A   1      40.518  26.238  26.316  1.00  0.00     0.010 A 
ATOM     45  C   UNL A   1      40.286  26.619  27.646  1.00  0.00    -0.014 A 
BRANCH  45  46
ATOM     46  C   UNL A   1      40.746  27.948  28.124  1.00  0.00     0.031 A 
ATOM     47  C   UNL A   1      42.211  28.291  28.151  1.00  0.00     0.074 A 
ATOM     48  C   UNL A   1      39.845  28.817  28.626  1.00  0.00     0.049 A 
ATOM     49  N   UNL A   1      42.790  29.395  28.549  1.00  0.00    -0.248 NA
ATOM     50  C   UNL A   1      43.150  27.251  27.701  1.00  0.00     0.031 C 
ATOM     51  C   UNL A   1      38.408  28.564  28.757  1.00  0.00     0.029 A 
ATOM     52  N   UNL A   1      40.006  30.079  29.142  1.00  0.00    -0.354 N 
ATOM     53  C   UNL A   1      44.156  29.175  28.426  1.00  0.00     0.074 A 
ATOM     54  C   UNL A   1      44.322  27.817  27.953  1.00  0.00     0.031 C 
ATOM     55  C   UNL A   1      37.819  29.638  29.305  1.00  0.00     0.029 A 
ATOM     56  C   UNL A   1      38.834  30.649  29.584  1.00  0.00     0.049 A 
ATOM     57  H   UNL A   1      40.878  30.534  29.192  1.00  0.00     0.167 HD
ATOM     58  C   UNL A   1      45.179  30.033  28.652  1.00  0.00     0.034 A 
ATOM     59  C   UNL A   1      38.601  31.852  30.144  1.00  0.00     0.034 A 
ATOM     60  C   UNL A   1      45.009  31.397  29.075  1.00  0.00     0.049 A 
ATOM     61  C   UNL A   1      39.747  32.812  30.321  1.00  0.00     0.074 A 
ATOM     62  C   UNL A   1      45.975  32.377  29.229  1.00  0.00     0.029 A 
ATOM     63  N   UNL A   1      43.797  31.974  29.419  1.00  0.00    -0.354 N 
ATOM     64  N   UNL A   1      41.012  32.650  30.017  1.00  0.00    -0.248 NA
ATOM     65  C   UNL A   1      39.427  34.133  30.879  1.00  0.00     0.031 C 
ATOM     66  C   UNL A   1      45.346  33.543  29.680  1.00  0.00     0.029 A 
ATOM     67  C   UNL A   1      43.988  33.293  29.792  1.00  0.00     0.049 A 
ATOM     68  H   UNL A   1      42.927  31.513  29.400  1.00  0.00     0.167 HD
ATOM     69  C   UNL A   1      41.634  33.855  30.320  1.00  0.00     0.074 A 
ATOM     70  C   UNL A   1      40.601  34.748  30.803  1.00  0.00     0.031 C 
ATOM     71  C   UNL A   1      42.945  34.188  30.224  1.00  0.00     0.034 A 
BRANCH  58  72
ATOM     72  C   UNL A   1      46.576  29.542  28.375  1.00  0.00     0.023 A 
ATOM     73  C   UNL A   1      47.089  29.625  27.064  1.00  0.00     0.012 A 
ATOM     74  C   UNL A   1      47.399  29.055  29.408  1.00  0.00     0.148 A 
ATOM     75  C   UNL A   1      48.386  29.202  26.779  1.00  0.00     0.002 A 
ATOM     76  C   UNL A   1      48.706  28.675  29.124  1.00  0.00     0.091 A 
ATOM     77  F   UNL A   1      46.888  28.961  30.644  1.00  0.00    -0.205 F 
ATOM     78  C   UNL A   1      49.197  28.737  27.809  1.00  0.00     0.022 A 
BRANCH  76  79
ATOM     79  S   UNL A   1      49.854  28.132  30.396  1.00  0.00     0.127 S 
ATOM     80  O   UNL A   1      49.991  26.711  30.082  1.00  0.00    -0.237 OA
ATOM     81  O   UNL A   1      51.041  28.937  30.104  1.00  0.00    -0.237 OA
ATOM     82  O   UNL A   1      49.214  28.437  31.668  1.00  0.00    -0.744 OA
ENDBRANCH  76  79
ENDBRANCH  58  72
BRANCH  59  83
ATOM     83  C   UNL A   1      37.208  32.251  30.493  1.00  0.00     0.023 A 
ATOM     84  C   UNL A   1      36.742  32.045  31.807  1.00  0.00     0.012 A 
ATOM     85  C   UNL A   1      36.359  32.864  29.553  1.00  0.00     0.148 A 
ATOM     86  C   UNL A   1      35.447  32.413  32.169  1.00  0.00     0.002 A 
ATOM     87  C   UNL A   1      35.088  33.279  29.935  1.00  0.00     0.091 A 
ATOM     88  F   UNL A   1      36.815  33.040  28.304  1.00  0.00    -0.205 F 
ATOM     89  C   UNL A   1      34.623  33.040  31.237  1.00  0.00     0.022 A 
BRANCH  87  90
ATOM     90  S   UNL A   1      34.016  34.216  28.839  1.00  0.00     0.127 S 
ATOM     91  O   UNL A   1      32.915  34.572  29.730  1.00  0.00    -0.237 OA
ATOM     92  O   UNL A   1      34.880  35.332  28.450  1.00  0.00    -0.237 OA
ATOM     93  O   UNL A   1      33.685  33.310  27.748  1.00  0.00    -0.744 OA
ENDBRANCH  87  90
ENDBRANCH  59  83
BRANCH  71  94
ATOM     94  C   UNL A   1      43.341  35.581  30.633  1.00  0.00     0.023 A 
ATOM     95  C   UNL A   1      43.460  36.587  29.653  1.00  0.00     0.012 A 
ATOM     96  C   UNL A   1      43.530  35.913  31.989  1.00  0.00     0.148 A 
ATOM     97  C   UNL A   1      43.793  37.892  30.011  1.00  0.00     0.002 A 
ATOM     98  C   UNL A   1      43.815  37.226  32.344  1.00  0.00     0.091 A 
ATOM     99  F   UNL A   1      43.433  34.939  32.906  1.00  0.00    -0.205 F 
ATOM    100  C   UNL A   1      43.959  38.215  31.356  1.00  0.00     0.022 A 
BRANCH  98 101
ATOM    101  S   UNL A   1      43.954  37.746  34.058  1.00  0.00     0.127 S 
ATOM    102  O   UNL A   1      44.946  36.806  34.576  1.00  0.00    -0.237 OA
ATOM    103  O   UNL A   1      44.429  39.125  33.931  1.00  0.00    -0.237 OA
ATOM    104  O   UNL A   1      42.616  37.623  34.620  1.00  0.00    -0.744 OA
ENDBRANCH  98 101
ENDBRANCH  71  94
ENDBRANCH  45  46
ENDBRANCH  37  40
ENDBRANCH  35  36
ENDBRANCH  34  35
ENDBRANCH  33  34
ENDBRANCH   1  33
TORSDOF 19
ENDMDL
