MODEL 1
REMARK VINA RESULT:     -10.1      0.000      0.000
REMARK SMILES COc1ccc(-c2nc(NCC(=O)NCCCCNC(=O)c3ccc(-c4c5nc(c(-c6cccc(S(=O)(=O)[O-])c6F)c6ccc([nH]6)c(-c6cccc(S(=O)(=O)[O-])c6F)c6nc(c(-c7cccc(S(=O)(=O)[O-])c7F)c7ccc4[nH]7)C=C6)C=C5)cc3)sc2-c2ccc(OC)cc2)cc1
REMARK SMILES IDX 16 1 15 2 14 3 12 4 13 5 11 7 10 8 9 10 7 11 8 12 86 13
REMARK SMILES IDX 85 14 6 15 3 16 4 17 96 18 5 19 95 20 2 21 1 22 87 23 88 24
REMARK SMILES IDX 94 25 89 26 93 27 90 28 91 29 92 30 17 31 18 32 19 33 20 34
REMARK SMILES IDX 21 36 22 37 23 38 84 39 24 40 83 41 25 42 26 43 27 44 77 45
REMARK SMILES IDX 28 46 82 47 76 48 78 49 29 50 81 51 75 52 74 53 30 55 62 56
REMARK SMILES IDX 42 57 61 58 43 59 46 60 60 61 79 62 44 63 45 64 59 66 80 67
REMARK SMILES IDX 47 68 31 69 32 70 40 71 33 72 35 73 41 74 34 75 36 76 37 77
REMARK SMILES IDX 38 78 39 79 63 80 64 81 72 82 65 83 67 84 73 85 66 86 68 87
REMARK SMILES IDX 69 88 70 89 71 90 48 91 49 92 57 93 50 94 52 95 58 96 51 97
REMARK SMILES IDX 53 98 54 99 55 100 56 101
REMARK H PARENT 14 6 10 9 19 35 78 54 46 65
REMARK Flexibility Score: inf
ROOT
ATOM      1  C   UNL A   1      36.161  33.136  31.779  1.00  0.00     0.023 C 
ENDROOT
BRANCH   1   2
ATOM      2  C   UNL A   1      35.185  32.153  31.133  1.00  0.00     0.116 C 
BRANCH   2   3
ATOM      3  N   UNL A   1      35.875  31.031  30.528  1.00  0.00    -0.355 N 
ATOM      4  C   UNL A   1      35.785  30.570  29.243  1.00  0.00     0.239 C 
ATOM      5  O   UNL A   1      36.420  29.561  28.930  1.00  0.00    -0.273 OA
ATOM      6  H   UNL A   1      36.489  30.537  31.119  1.00  0.00     0.163 HD
BRANCH   4   7
ATOM      7  C   UNL A   1      34.950  31.336  28.210  1.00  0.00     0.215 C 
BRANCH   7   8
ATOM      8  N   UNL A   1      33.601  30.804  28.103  1.00  0.00    -0.352 N 
ATOM      9  H   UNL A   1      32.992  30.966  28.861  1.00  0.00     0.163 HD
BRANCH   8  10
ATOM     10  C   UNL A   1      33.112  30.108  27.056  1.00  0.00     0.184 A 
ATOM     11  C   UNL A   1      31.891  29.755  25.240  1.00  0.00     0.091 A 
ATOM     12  N   UNL A   1      32.147  30.595  26.309  1.00  0.00    -0.220 NA
ATOM     13  C   UNL A   1      32.718  28.645  25.141  1.00  0.00     0.064 A 
ATOM     14  S   UNL A   1      33.692  28.564  26.546  1.00  0.00    -0.096 S 
BRANCH  11  15
ATOM     15  C   UNL A   1      30.851  30.053  24.268  1.00  0.00     0.002 A 
ATOM     16  C   UNL A   1      28.686  30.501  22.544  1.00  0.00     0.118 A 
ATOM     17  C   UNL A   1      28.925  31.372  23.606  1.00  0.00     0.047 A 
ATOM     18  C   UNL A   1      29.563  29.439  22.306  1.00  0.00     0.047 A 
ATOM     19  C   UNL A   1      29.998  31.147  24.468  1.00  0.00     0.014 A 
ATOM     20  C   UNL A   1      30.647  29.218  23.165  1.00  0.00     0.014 A 
BRANCH  16  21
ATOM     21  O   UNL A   1      27.598  30.800  21.771  1.00  0.00    -0.497 OA
ATOM     22  C   UNL A   1      27.790  31.899  20.885  1.00  0.00     0.278 C 
ENDBRANCH  16  21
ENDBRANCH  11  15
BRANCH  13  23
ATOM     23  C   UNL A   1      32.861  27.653  24.072  1.00  0.00    -0.006 A 
ATOM     24  C   UNL A   1      32.187  26.429  24.107  1.00  0.00     0.013 A 
ATOM     25  C   UNL A   1      33.665  27.946  22.959  1.00  0.00     0.013 A 
ATOM     26  C   UNL A   1      32.292  25.535  23.037  1.00  0.00     0.047 A 
ATOM     27  C   UNL A   1      33.763  27.055  21.887  1.00  0.00     0.047 A 
ATOM     28  C   UNL A   1      33.063  25.851  21.915  1.00  0.00     0.118 A 
BRANCH  28  29
ATOM     29  O   UNL A   1      33.052  24.909  20.923  1.00  0.00    -0.497 OA
ATOM     30  C   UNL A   1      32.532  25.325  19.664  1.00  0.00     0.278 C 
ENDBRANCH  28  29
ENDBRANCH  13  23
ENDBRANCH   8  10
ENDBRANCH   7   8
ENDBRANCH   4   7
ENDBRANCH   2   3
ENDBRANCH   1   2
BRANCH   1  31
ATOM     31  C   UNL A   1      36.350  32.930  33.285  1.00  0.00     0.023 C 
BRANCH  31  32
ATOM     32  C   UNL A   1      37.612  32.172  33.686  1.00  0.00     0.116 C 
BRANCH  32  33
ATOM     33  N   UNL A   1      37.455  30.725  33.624  1.00  0.00    -0.352 N 
ATOM     34  C   UNL A   1      38.206  29.812  32.924  1.00  0.00     0.251 C 
ATOM     35  H   UNL A   1      36.713  30.353  34.153  1.00  0.00     0.163 HD
ATOM     36  O   UNL A   1      37.860  28.633  32.884  1.00  0.00    -0.269 OA
BRANCH  34  37
ATOM     37  C   UNL A   1      39.410  30.261  32.192  1.00  0.00     0.039 A 
ATOM     38  C   UNL A   1      39.332  30.440  30.809  1.00  0.00     0.014 A 
ATOM     39  C   UNL A   1      40.603  30.531  32.870  1.00  0.00     0.014 A 
ATOM     40  C   UNL A   1      40.429  30.955  30.114  1.00  0.00     0.010 A 
ATOM     41  C   UNL A   1      41.671  31.105  32.186  1.00  0.00     0.010 A 
ATOM     42  C   UNL A   1      41.596  31.326  30.803  1.00  0.00    -0.014 A 
BRANCH  42  43
ATOM     43  C   UNL A   1      42.737  31.970  30.100  1.00  0.00     0.031 A 
ATOM     44  C   UNL A   1      43.976  31.179  29.776  1.00  0.00     0.074 A 
ATOM     45  C   UNL A   1      42.697  33.294  29.843  1.00  0.00     0.049 A 
ATOM     46  N   UNL A   1      45.093  31.586  29.232  1.00  0.00    -0.248 NA
ATOM     47  C   UNL A   1      43.971  29.751  30.134  1.00  0.00     0.031 C 
ATOM     48  C   UNL A   1      41.591  34.191  30.186  1.00  0.00     0.029 A 
ATOM     49  N   UNL A   1      43.625  34.123  29.263  1.00  0.00    -0.354 N 
ATOM     50  C   UNL A   1      45.937  30.481  29.219  1.00  0.00     0.074 A 
ATOM     51  C   UNL A   1      45.211  29.390  29.832  1.00  0.00     0.031 C 
ATOM     52  C   UNL A   1      41.908  35.442  29.817  1.00  0.00     0.029 A 
ATOM     53  C   UNL A   1      43.246  35.445  29.236  1.00  0.00     0.049 A 
ATOM     54  H   UNL A   1      44.484  33.802  28.902  1.00  0.00     0.167 HD
ATOM     55  C   UNL A   1      47.190  30.376  28.719  1.00  0.00     0.034 A 
ATOM     56  C   UNL A   1      43.904  36.539  28.802  1.00  0.00     0.034 A 
ATOM     57  C   UNL A   1      47.888  31.446  28.059  1.00  0.00     0.049 A 
ATOM     58  C   UNL A   1      45.273  36.378  28.197  1.00  0.00     0.074 A 
ATOM     59  C   UNL A   1      49.117  31.405  27.424  1.00  0.00     0.029 A 
ATOM     60  N   UNL A   1      47.425  32.747  27.951  1.00  0.00    -0.354 N 
ATOM     61  N   UNL A   1      45.978  35.285  28.031  1.00  0.00    -0.248 NA
ATOM     62  C   UNL A   1      45.922  37.594  27.684  1.00  0.00     0.031 C 
ATOM     63  C   UNL A   1      49.406  32.687  26.948  1.00  0.00     0.029 A 
ATOM     64  C   UNL A   1      48.347  33.521  27.267  1.00  0.00     0.049 A 
ATOM     65  H   UNL A   1      46.567  33.072  28.307  1.00  0.00     0.167 HD
ATOM     66  C   UNL A   1      47.133  35.675  27.361  1.00  0.00     0.074 A 
ATOM     67  C   UNL A   1      47.023  37.101  27.131  1.00  0.00     0.031 C 
ATOM     68  C   UNL A   1      48.197  34.924  26.987  1.00  0.00     0.034 A 
BRANCH  55  69
ATOM     69  C   UNL A   1      47.878  29.040  28.806  1.00  0.00     0.023 A 
ATOM     70  C   UNL A   1      48.670  28.740  29.933  1.00  0.00     0.012 A 
ATOM     71  C   UNL A   1      47.665  28.050  27.826  1.00  0.00     0.148 A 
ATOM     72  C   UNL A   1      49.258  27.484  30.072  1.00  0.00     0.002 A 
ATOM     73  C   UNL A   1      48.220  26.788  27.993  1.00  0.00     0.091 A 
ATOM     74  F   UNL A   1      46.923  28.362  26.754  1.00  0.00    -0.205 F 
ATOM     75  C   UNL A   1      49.025  26.506  29.110  1.00  0.00     0.022 A 
BRANCH  73  76
ATOM     76  S   UNL A   1      47.916  25.432  26.854  1.00  0.00     0.127 S 
ATOM     77  O   UNL A   1      48.710  24.360  27.453  1.00  0.00    -0.237 OA
ATOM     78  O   UNL A   1      46.469  25.255  26.967  1.00  0.00    -0.237 OA
ATOM     79  O   UNL A   1      48.375  25.890  25.550  1.00  0.00    -0.744 OA
ENDBRANCH  73  76
ENDBRANCH  55  69
BRANCH  56  80
ATOM     80  C   UNL A   1      43.256  37.880  28.867  1.00  0.00     0.023 A 
ATOM     81  C   UNL A   1      42.356  38.264  27.852  1.00  0.00     0.012 A 
ATOM     82  C   UNL A   1      43.520  38.773  29.922  1.00  0.00     0.148 A 
ATOM     83  C   UNL A   1      41.763  39.527  27.866  1.00  0.00     0.002 A 
ATOM     84  C   UNL A   1      42.882  40.008  29.959  1.00  0.00     0.091 A 
ATOM     85  F   UNL A   1      44.390  38.400  30.871  1.00  0.00    -0.205 F 
ATOM     86  C   UNL A   1      42.018  40.395  28.923  1.00  0.00     0.022 A 
BRANCH  84  87
ATOM     87  S   UNL A   1      43.053  41.127  31.354  1.00  0.00     0.127 S 
ATOM     88  O   UNL A   1      44.495  41.353  31.383  1.00  0.00    -0.237 OA
ATOM     89  O   UNL A   1      42.256  42.277  30.926  1.00  0.00    -0.237 OA
ATOM     90  O   UNL A   1      42.495  40.410  32.494  1.00  0.00    -0.744 OA
ENDBRANCH  84  87
ENDBRANCH  56  80
BRANCH  68  91
ATOM     91  C   UNL A   1      49.316  35.611  26.250  1.00  0.00     0.023 A 
ATOM     92  C   UNL A   1      49.295  35.671  24.842  1.00  0.00     0.012 A 
ATOM     93  C   UNL A   1      50.344  36.268  26.955  1.00  0.00     0.148 A 
ATOM     94  C   UNL A   1      50.298  36.346  24.147  1.00  0.00     0.002 A 
ATOM     95  C   UNL A   1      51.312  36.980  26.257  1.00  0.00     0.091 A 
ATOM     96  F   UNL A   1      50.357  36.184  28.293  1.00  0.00    -0.205 F 
ATOM     97  C   UNL A   1      51.297  37.010  24.854  1.00  0.00     0.022 A 
BRANCH  95  98
ATOM     98  S   UNL A   1      52.579  37.945  27.088  1.00  0.00     0.127 S 
ATOM     99  O   UNL A   1      53.016  38.844  26.022  1.00  0.00    -0.237 OA
ATOM    100  O   UNL A   1      51.823  38.594  28.162  1.00  0.00    -0.237 OA
ATOM    101  O   UNL A   1      53.575  36.986  27.549  1.00  0.00    -0.744 OA
ENDBRANCH  95  98
ENDBRANCH  68  91
ENDBRANCH  42  43
ENDBRANCH  34  37
ENDBRANCH  32  33
ENDBRANCH  31  32
ENDBRANCH   1  31
TORSDOF 20
ENDMDL
MODEL 2
REMARK VINA RESULT:     -10.1      7.326      9.598
REMARK SMILES COc1ccc(-c2nc(NCC(=O)NCCCCNC(=O)c3ccc(-c4c5nc(c(-c6cccc(S(=O)(=O)[O-])c6F)c6ccc([nH]6)c(-c6cccc(S(=O)(=O)[O-])c6F)c6nc(c(-c7cccc(S(=O)(=O)[O-])c7F)c7ccc4[nH]7)C=C6)C=C5)cc3)sc2-c2ccc(OC)cc2)cc1
REMARK SMILES IDX 16 1 15 2 14 3 12 4 13 5 11 7 10 8 9 10 7 11 8 12 86 13
REMARK SMILES IDX 85 14 6 15 3 16 4 17 96 18 5 19 95 20 2 21 1 22 87 23 88 24
REMARK SMILES IDX 94 25 89 26 93 27 90 28 91 29 92 30 17 31 18 32 19 33 20 34
REMARK SMILES IDX 21 36 22 37 23 38 84 39 24 40 83 41 25 42 26 43 27 44 77 45
REMARK SMILES IDX 28 46 82 47 76 48 78 49 29 50 81 51 75 52 74 53 30 55 62 56
REMARK SMILES IDX 42 57 61 58 43 59 46 60 60 61 79 62 44 63 45 64 59 66 80 67
REMARK SMILES IDX 47 68 31 69 32 70 40 71 33 72 35 73 41 74 34 75 36 76 37 77
REMARK SMILES IDX 38 78 39 79 63 80 64 81 72 82 65 83 67 84 73 85 66 86 68 87
REMARK SMILES IDX 69 88 70 89 71 90 48 91 49 92 57 93 50 94 52 95 58 96 51 97
REMARK SMILES IDX 53 98 54 99 55 100 56 101
REMARK H PARENT 14 6 10 9 19 35 78 54 46 65
REMARK Flexibility Score: inf
ROOT
ATOM      1  C   UNL A   1      40.313  27.754  27.919  1.00  0.00     0.023 C 
ENDROOT
BRANCH   1   2
ATOM      2  C   UNL A   1      40.544  27.137  26.540  1.00  0.00     0.116 C 
BRANCH   2   3
ATOM      3  N   UNL A   1      41.426  25.989  26.606  1.00  0.00    -0.355 N 
ATOM      4  C   UNL A   1      41.119  24.700  26.947  1.00  0.00     0.239 C 
ATOM      5  O   UNL A   1      42.027  23.868  26.995  1.00  0.00    -0.273 OA
ATOM      6  H   UNL A   1      42.368  26.158  26.376  1.00  0.00     0.163 HD
BRANCH   4   7
ATOM      7  C   UNL A   1      39.662  24.303  27.209  1.00  0.00     0.215 C 
BRANCH   7   8
ATOM      8  N   UNL A   1      38.976  23.922  25.984  1.00  0.00    -0.352 N 
ATOM      9  H   UNL A   1      39.485  23.993  25.144  1.00  0.00     0.163 HD
BRANCH   8  10
ATOM     10  C   UNL A   1      37.704  23.481  25.900  1.00  0.00     0.184 A 
ATOM     11  C   UNL A   1      35.493  23.641  25.866  1.00  0.00     0.091 A 
ATOM     12  N   UNL A   1      36.690  24.289  26.116  1.00  0.00    -0.220 NA
ATOM     13  C   UNL A   1      35.605  22.341  25.393  1.00  0.00     0.064 A 
ATOM     14  S   UNL A   1      37.249  21.872  25.471  1.00  0.00    -0.096 S 
BRANCH  11  15
ATOM     15  C   UNL A   1      34.213  24.307  26.049  1.00  0.00     0.002 A 
ATOM     16  C   UNL A   1      31.669  25.476  26.191  1.00  0.00     0.118 A 
ATOM     17  C   UNL A   1      31.896  24.224  26.762  1.00  0.00     0.047 A 
ATOM     18  C   UNL A   1      32.727  26.172  25.602  1.00  0.00     0.047 A 
ATOM     19  C   UNL A   1      33.160  23.639  26.686  1.00  0.00     0.014 A 
ATOM     20  C   UNL A   1      34.000  25.590  25.535  1.00  0.00     0.014 A 
BRANCH  16  21
ATOM     21  O   UNL A   1      30.391  25.950  26.303  1.00  0.00    -0.497 OA
ATOM     22  C   UNL A   1      29.677  26.012  25.072  1.00  0.00     0.278 C 
ENDBRANCH  16  21
ENDBRANCH  11  15
BRANCH  13  23
ATOM     23  C   UNL A   1      34.589  21.427  24.864  1.00  0.00    -0.006 A 
ATOM     24  C   UNL A   1      33.718  21.807  23.839  1.00  0.00     0.013 A 
ATOM     25  C   UNL A   1      34.505  20.120  25.368  1.00  0.00     0.013 A 
ATOM     26  C   UNL A   1      32.807  20.886  23.312  1.00  0.00     0.047 A 
ATOM     27  C   UNL A   1      33.599  19.198  24.834  1.00  0.00     0.047 A 
ATOM     28  C   UNL A   1      32.757  19.575  23.791  1.00  0.00     0.118 A 
BRANCH  28  29
ATOM     29  O   UNL A   1      31.849  18.765  23.165  1.00  0.00    -0.497 OA
ATOM     30  C   UNL A   1      32.270  18.174  21.940  1.00  0.00     0.278 C 
ENDBRANCH  28  29
ENDBRANCH  13  23
ENDBRANCH   8  10
ENDBRANCH   7   8
ENDBRANCH   4   7
ENDBRANCH   2   3
ENDBRANCH   1   2
BRANCH   1  31
ATOM     31  C   UNL A   1      38.885  28.262  28.145  1.00  0.00     0.023 C 
BRANCH  31  32
ATOM     32  C   UNL A   1      38.719  29.778  28.106  1.00  0.00     0.116 C 
BRANCH  32  33
ATOM     33  N   UNL A   1      38.042  30.311  29.280  1.00  0.00    -0.352 N 
ATOM     34  C   UNL A   1      38.488  30.355  30.580  1.00  0.00     0.251 C 
ATOM     35  H   UNL A   1      37.147  30.689  29.122  1.00  0.00     0.163 HD
ATOM     36  O   UNL A   1      37.735  30.731  31.476  1.00  0.00    -0.269 OA
BRANCH  34  37
ATOM     37  C   UNL A   1      39.865  29.917  30.897  1.00  0.00     0.039 A 
ATOM     38  C   UNL A   1      40.053  28.676  31.510  1.00  0.00     0.014 A 
ATOM     39  C   UNL A   1      40.965  30.713  30.567  1.00  0.00     0.014 A 
ATOM     40  C   UNL A   1      41.350  28.203  31.730  1.00  0.00     0.010 A 
ATOM     41  C   UNL A   1      42.254  30.211  30.728  1.00  0.00     0.010 A 
ATOM     42  C   UNL A   1      42.461  28.951  31.308  1.00  0.00    -0.014 A 
BRANCH  42  43
ATOM     43  C   UNL A   1      43.844  28.422  31.439  1.00  0.00     0.031 A 
ATOM     44  C   UNL A   1      44.481  27.666  30.304  1.00  0.00     0.074 A 
ATOM     45  C   UNL A   1      44.490  28.536  32.619  1.00  0.00     0.049 A 
ATOM     46  N   UNL A   1      45.646  27.074  30.262  1.00  0.00    -0.248 NA
ATOM     47  C   UNL A   1      43.698  27.533  29.065  1.00  0.00     0.031 C 
ATOM     48  C   UNL A   1      43.947  29.168  33.823  1.00  0.00     0.029 A 
ATOM     49  N   UNL A   1      45.729  28.094  33.009  1.00  0.00    -0.354 N 
ATOM     50  C   UNL A   1      45.721  26.466  29.014  1.00  0.00     0.074 A 
ATOM     51  C   UNL A   1      44.472  26.740  28.337  1.00  0.00     0.031 C 
ATOM     52  C   UNL A   1      44.846  29.068  34.817  1.00  0.00     0.029 A 
ATOM     53  C   UNL A   1      46.015  28.343  34.331  1.00  0.00     0.049 A 
ATOM     54  H   UNL A   1      46.356  27.640  32.399  1.00  0.00     0.167 HD
ATOM     55  C   UNL A   1      46.744  25.766  28.470  1.00  0.00     0.034 A 
ATOM     56  C   UNL A   1      47.092  28.017  35.073  1.00  0.00     0.034 A 
ATOM     57  C   UNL A   1      48.006  25.544  29.122  1.00  0.00     0.049 A 
ATOM     58  C   UNL A   1      48.237  27.290  34.422  1.00  0.00     0.074 A 
ATOM     59  C   UNL A   1      49.142  24.940  28.611  1.00  0.00     0.029 A 
ATOM     60  N   UNL A   1      48.300  25.909  30.426  1.00  0.00    -0.354 N 
ATOM     61  N   UNL A   1      48.358  26.883  33.181  1.00  0.00    -0.248 NA
ATOM     62  C   UNL A   1      49.413  27.010  35.260  1.00  0.00     0.031 C 
ATOM     63  C   UNL A   1      50.117  24.924  29.612  1.00  0.00     0.029 A 
ATOM     64  C   UNL A   1      49.596  25.537  30.740  1.00  0.00     0.049 A 
ATOM     65  H   UNL A   1      47.679  26.365  31.038  1.00  0.00     0.167 HD
ATOM     66  C   UNL A   1      49.633  26.337  33.081  1.00  0.00     0.074 A 
ATOM     67  C   UNL A   1      50.255  26.485  34.380  1.00  0.00     0.031 C 
ATOM     68  C   UNL A   1      50.227  25.749  32.015  1.00  0.00     0.034 A 
BRANCH  55  69
ATOM     69  C   UNL A   1      46.575  25.236  27.072  1.00  0.00     0.023 A 
ATOM     70  C   UNL A   1      47.136  25.945  25.990  1.00  0.00     0.012 A 
ATOM     71  C   UNL A   1      45.950  23.996  26.837  1.00  0.00     0.148 A 
ATOM     72  C   UNL A   1      47.057  25.440  24.693  1.00  0.00     0.002 A 
ATOM     73  C   UNL A   1      45.913  23.478  25.547  1.00  0.00     0.091 A 
ATOM     74  F   UNL A   1      45.408  23.346  27.877  1.00  0.00    -0.205 F 
ATOM     75  C   UNL A   1      46.457  24.203  24.474  1.00  0.00     0.022 A 
BRANCH  73  76
ATOM     76  S   UNL A   1      45.235  21.859  25.168  1.00  0.00     0.127 S 
ATOM     77  O   UNL A   1      46.381  20.990  25.435  1.00  0.00    -0.237 OA
ATOM     78  O   UNL A   1      44.146  21.747  26.137  1.00  0.00    -0.237 OA
ATOM     79  O   UNL A   1      44.810  21.915  23.776  1.00  0.00    -0.744 OA
ENDBRANCH  73  76
ENDBRANCH  55  69
BRANCH  56  80
ATOM     80  C   UNL A   1      47.168  28.424  36.505  1.00  0.00     0.023 A 
ATOM     81  C   UNL A   1      47.734  29.671  36.841  1.00  0.00     0.012 A 
ATOM     82  C   UNL A   1      46.684  27.593  37.533  1.00  0.00     0.148 A 
ATOM     83  C   UNL A   1      47.854  30.063  38.174  1.00  0.00     0.002 A 
ATOM     84  C   UNL A   1      46.755  28.015  38.856  1.00  0.00     0.091 A 
ATOM     85  F   UNL A   1      46.164  26.403  37.199  1.00  0.00    -0.205 F 
ATOM     86  C   UNL A   1      47.356  29.241  39.181  1.00  0.00     0.022 A 
BRANCH  84  87
ATOM     87  S   UNL A   1      46.016  27.076  40.197  1.00  0.00     0.127 S 
ATOM     88  O   UNL A   1      44.592  27.310  39.978  1.00  0.00    -0.237 OA
ATOM     89  O   UNL A   1      46.470  25.715  39.906  1.00  0.00    -0.237 OA
ATOM     90  O   UNL A   1      46.577  27.640  41.418  1.00  0.00    -0.744 OA
ENDBRANCH  84  87
ENDBRANCH  56  80
BRANCH  68  91
ATOM     91  C   UNL A   1      51.641  25.255  32.183  1.00  0.00     0.023 A 
ATOM     92  C   UNL A   1      52.715  26.161  32.086  1.00  0.00     0.012 A 
ATOM     93  C   UNL A   1      51.897  23.911  32.519  1.00  0.00     0.148 A 
ATOM     94  C   UNL A   1      54.025  25.730  32.289  1.00  0.00     0.002 A 
ATOM     95  C   UNL A   1      53.200  23.500  32.768  1.00  0.00     0.091 A 
ATOM     96  F   UNL A   1      50.862  23.060  32.588  1.00  0.00    -0.205 F 
ATOM     97  C   UNL A   1      54.266  24.405  32.642  1.00  0.00     0.022 A 
BRANCH  95  98
ATOM     98  S   UNL A   1      53.593  21.836  33.321  1.00  0.00     0.127 S 
ATOM     99  O   UNL A   1      54.957  22.003  33.821  1.00  0.00    -0.237 OA
ATOM    100  O   UNL A   1      52.587  21.608  34.361  1.00  0.00    -0.237 OA
ATOM    101  O   UNL A   1      53.453  20.981  32.151  1.00  0.00    -0.744 OA
ENDBRANCH  95  98
ENDBRANCH  68  91
ENDBRANCH  42  43
ENDBRANCH  34  37
ENDBRANCH  32  33
ENDBRANCH  31  32
ENDBRANCH   1  31
TORSDOF 20
ENDMDL
MODEL 3
REMARK VINA RESULT:     -10.0      7.349     10.530
REMARK SMILES COc1ccc(-c2nc(NCC(=O)NCCCCNC(=O)c3ccc(-c4c5nc(c(-c6cccc(S(=O)(=O)[O-])c6F)c6ccc([nH]6)c(-c6cccc(S(=O)(=O)[O-])c6F)c6nc(c(-c7cccc(S(=O)(=O)[O-])c7F)c7ccc4[nH]7)C=C6)C=C5)cc3)sc2-c2ccc(OC)cc2)cc1
REMARK SMILES IDX 16 1 15 2 14 3 12 4 13 5 11 7 10 8 9 10 7 11 8 12 86 13
REMARK SMILES IDX 85 14 6 15 3 16 4 17 96 18 5 19 95 20 2 21 1 22 87 23 88 24
REMARK SMILES IDX 94 25 89 26 93 27 90 28 91 29 92 30 17 31 18 32 19 33 20 34
REMARK SMILES IDX 21 36 22 37 23 38 84 39 24 40 83 41 25 42 26 43 27 44 77 45
REMARK SMILES IDX 28 46 82 47 76 48 78 49 29 50 81 51 75 52 74 53 30 55 62 56
REMARK SMILES IDX 42 57 61 58 43 59 46 60 60 61 79 62 44 63 45 64 59 66 80 67
REMARK SMILES IDX 47 68 31 69 32 70 40 71 33 72 35 73 41 74 34 75 36 76 37 77
REMARK SMILES IDX 38 78 39 79 63 80 64 81 72 82 65 83 67 84 73 85 66 86 68 87
REMARK SMILES IDX 69 88 70 89 71 90 48 91 49 92 57 93 50 94 52 95 58 96 51 97
REMARK SMILES IDX 53 98 54 99 55 100 56 101
REMARK H PARENT 14 6 10 9 19 35 78 54 46 65
REMARK Flexibility Score: inf
ROOT
ATOM      1  C   UNL A   1      39.297  28.536  28.363  1.00  0.00     0.023 C 
ENDROOT
BRANCH   1   2
ATOM      2  C   UNL A   1      39.322  27.057  27.981  1.00  0.00     0.116 C 
BRANCH   2   3
ATOM      3  N   UNL A   1      40.374  26.767  27.026  1.00  0.00    -0.355 N 
ATOM      4  C   UNL A   1      40.759  25.553  26.527  1.00  0.00     0.239 C 
ATOM      5  O   UNL A   1      41.718  25.507  25.755  1.00  0.00    -0.273 OA
ATOM      6  H   UNL A   1      40.877  27.546  26.694  1.00  0.00     0.163 HD
BRANCH   4   7
ATOM      7  C   UNL A   1      39.967  24.290  26.888  1.00  0.00     0.215 C 
BRANCH   7   8
ATOM      8  N   UNL A   1      39.254  23.753  25.740  1.00  0.00    -0.352 N 
ATOM      9  H   UNL A   1      39.739  23.720  24.884  1.00  0.00     0.163 HD
BRANCH   8  10
ATOM     10  C   UNL A   1      37.985  23.295  25.748  1.00  0.00     0.184 A 
ATOM     11  C   UNL A   1      35.791  23.373  25.436  1.00  0.00     0.091 A 
ATOM     12  N   UNL A   1      36.975  24.089  25.472  1.00  0.00    -0.220 NA
ATOM     13  C   UNL A   1      35.916  22.004  25.625  1.00  0.00     0.064 A 
ATOM     14  S   UNL A   1      37.533  21.659  26.063  1.00  0.00    -0.096 S 
BRANCH  11  15
ATOM     15  C   UNL A   1      34.517  24.021  25.171  1.00  0.00     0.002 A 
ATOM     16  C   UNL A   1      32.190  25.457  24.551  1.00  0.00     0.118 A 
ATOM     17  C   UNL A   1      32.734  24.571  23.621  1.00  0.00     0.047 A 
ATOM     18  C   UNL A   1      32.774  25.582  25.813  1.00  0.00     0.047 A 
ATOM     19  C   UNL A   1      33.895  23.861  23.926  1.00  0.00     0.014 A 
ATOM     20  C   UNL A   1      33.934  24.861  26.125  1.00  0.00     0.014 A 
BRANCH  16  21
ATOM     21  O   UNL A   1      31.063  26.118  24.145  1.00  0.00    -0.497 OA
ATOM     22  C   UNL A   1      30.222  25.366  23.275  1.00  0.00     0.278 C 
ENDBRANCH  16  21
ENDBRANCH  11  15
BRANCH  13  23
ATOM     23  C   UNL A   1      34.932  20.927  25.480  1.00  0.00    -0.006 A 
ATOM     24  C   UNL A   1      33.635  21.040  25.989  1.00  0.00     0.013 A 
ATOM     25  C   UNL A   1      35.281  19.762  24.780  1.00  0.00     0.013 A 
ATOM     26  C   UNL A   1      32.702  20.021  25.772  1.00  0.00     0.047 A 
ATOM     27  C   UNL A   1      34.344  18.748  24.557  1.00  0.00     0.047 A 
ATOM     28  C   UNL A   1      33.045  18.882  25.040  1.00  0.00     0.118 A 
BRANCH  28  29
ATOM     29  O   UNL A   1      32.031  17.979  24.868  1.00  0.00    -0.497 OA
ATOM     30  C   UNL A   1      32.329  16.625  25.192  1.00  0.00     0.278 C 
ENDBRANCH  28  29
ENDBRANCH  13  23
ENDBRANCH   8  10
ENDBRANCH   7   8
ENDBRANCH   4   7
ENDBRANCH   2   3
ENDBRANCH   1   2
BRANCH   1  31
ATOM     31  C   UNL A   1      37.889  29.136  28.448  1.00  0.00     0.023 C 
BRANCH  31  32
ATOM     32  C   UNL A   1      37.804  30.509  29.106  1.00  0.00     0.116 C 
BRANCH  32  33
ATOM     33  N   UNL A   1      37.014  30.511  30.330  1.00  0.00    -0.352 N 
ATOM     34  C   UNL A   1      37.377  30.080  31.584  1.00  0.00     0.251 C 
ATOM     35  H   UNL A   1      36.101  30.867  30.248  1.00  0.00     0.163 HD
ATOM     36  O   UNL A   1      36.541  30.038  32.485  1.00  0.00    -0.269 OA
BRANCH  34  37
ATOM     37  C   UNL A   1      38.765  29.635  31.832  1.00  0.00     0.039 A 
ATOM     38  C   UNL A   1      38.989  28.317  32.239  1.00  0.00     0.014 A 
ATOM     39  C   UNL A   1      39.842  30.505  31.640  1.00  0.00     0.014 A 
ATOM     40  C   UNL A   1      40.298  27.852  32.386  1.00  0.00     0.010 A 
ATOM     41  C   UNL A   1      41.145  30.020  31.723  1.00  0.00     0.010 A 
ATOM     42  C   UNL A   1      41.388  28.689  32.094  1.00  0.00    -0.014 A 
BRANCH  42  43
ATOM     43  C   UNL A   1      42.785  28.185  32.145  1.00  0.00     0.031 A 
ATOM     44  C   UNL A   1      43.607  28.343  33.396  1.00  0.00     0.074 A 
ATOM     45  C   UNL A   1      43.349  27.674  31.030  1.00  0.00     0.049 A 
ATOM     46  N   UNL A   1      44.859  28.030  33.603  1.00  0.00    -0.248 NA
ATOM     47  C   UNL A   1      42.945  28.959  34.558  1.00  0.00     0.031 C 
ATOM     48  C   UNL A   1      42.687  27.547  29.729  1.00  0.00     0.029 A 
ATOM     49  N   UNL A   1      44.616  27.197  30.803  1.00  0.00    -0.354 N 
ATOM     50  C   UNL A   1      45.148  28.444  34.898  1.00  0.00     0.074 A 
ATOM     51  C   UNL A   1      43.945  29.055  35.423  1.00  0.00     0.031 C 
ATOM     52  C   UNL A   1      43.555  27.033  28.842  1.00  0.00     0.029 A 
ATOM     53  C   UNL A   1      44.840  26.819  29.500  1.00  0.00     0.049 A 
ATOM     54  H   UNL A   1      45.301  27.133  31.508  1.00  0.00     0.167 HD
ATOM     55  C   UNL A   1      46.299  28.307  35.597  1.00  0.00     0.034 A 
ATOM     56  C   UNL A   1      45.956  26.361  28.898  1.00  0.00     0.034 A 
ATOM     57  C   UNL A   1      47.474  27.649  35.095  1.00  0.00     0.049 A 
ATOM     58  C   UNL A   1      47.202  26.164  29.718  1.00  0.00     0.074 A 
ATOM     59  C   UNL A   1      48.652  27.364  35.765  1.00  0.00     0.029 A 
ATOM     60  N   UNL A   1      47.627  27.177  33.801  1.00  0.00    -0.354 N 
ATOM     61  N   UNL A   1      47.395  26.395  30.994  1.00  0.00    -0.248 NA
ATOM     62  C   UNL A   1      48.374  25.605  29.027  1.00  0.00     0.031 C 
ATOM     63  C   UNL A   1      49.524  26.737  34.871  1.00  0.00     0.029 A 
ATOM     64  C   UNL A   1      48.881  26.611  33.650  1.00  0.00     0.049 A 
ATOM     65  H   UNL A   1      46.944  27.236  33.094  1.00  0.00     0.167 HD
ATOM     66  C   UNL A   1      48.693  25.975  31.266  1.00  0.00     0.074 A 
ATOM     67  C   UNL A   1      49.232  25.453  30.027  1.00  0.00     0.031 C 
ATOM     68  C   UNL A   1      49.383  26.035  32.431  1.00  0.00     0.034 A 
BRANCH  55  69
ATOM     69  C   UNL A   1      46.335  28.822  37.011  1.00  0.00     0.023 A 
ATOM     70  C   UNL A   1      46.555  30.195  37.243  1.00  0.00     0.012 A 
ATOM     71  C   UNL A   1      46.058  27.971  38.099  1.00  0.00     0.148 A 
ATOM     72  C   UNL A   1      46.521  30.710  38.538  1.00  0.00     0.002 A 
ATOM     73  C   UNL A   1      45.984  28.500  39.382  1.00  0.00     0.091 A 
ATOM     74  F   UNL A   1      45.869  26.666  37.858  1.00  0.00    -0.205 F 
ATOM     75  C   UNL A   1      46.225  29.866  39.605  1.00  0.00     0.022 A 
BRANCH  73  76
ATOM     76  S   UNL A   1      45.531  27.515  40.816  1.00  0.00     0.127 S 
ATOM     77  O   UNL A   1      46.552  26.468  40.788  1.00  0.00    -0.237 OA
ATOM     78  O   UNL A   1      45.675  28.478  41.907  1.00  0.00    -0.237 OA
ATOM     79  O   UNL A   1      44.169  27.060  40.578  1.00  0.00    -0.744 OA
ENDBRANCH  73  76
ENDBRANCH  55  69
BRANCH  56  80
ATOM     80  C   UNL A   1      45.934  25.998  27.452  1.00  0.00     0.023 A 
ATOM     81  C   UNL A   1      46.348  26.947  26.494  1.00  0.00     0.012 A 
ATOM     82  C   UNL A   1      45.513  24.727  27.019  1.00  0.00     0.148 A 
ATOM     83  C   UNL A   1      46.303  26.649  25.132  1.00  0.00     0.002 A 
ATOM     84  C   UNL A   1      45.524  24.418  25.663  1.00  0.00     0.091 A 
ATOM     85  F   UNL A   1      45.107  23.842  27.940  1.00  0.00    -0.205 F 
ATOM     86  C   UNL A   1      45.901  25.383  24.716  1.00  0.00     0.022 A 
BRANCH  84  87
ATOM     87  S   UNL A   1      45.150  22.769  25.058  1.00  0.00     0.127 S 
ATOM     88  O   UNL A   1      45.251  22.949  23.613  1.00  0.00    -0.237 OA
ATOM     89  O   UNL A   1      46.221  21.971  25.657  1.00  0.00    -0.237 OA
ATOM     90  O   UNL A   1      43.822  22.461  25.573  1.00  0.00    -0.744 OA
ENDBRANCH  84  87
ENDBRANCH  56  80
BRANCH  68  91
ATOM     91  C   UNL A   1      50.785  25.485  32.445  1.00  0.00     0.023 A 
ATOM     92  C   UNL A   1      51.880  26.357  32.291  1.00  0.00     0.012 A 
ATOM     93  C   UNL A   1      51.017  24.118  32.693  1.00  0.00     0.148 A 
ATOM     94  C   UNL A   1      53.186  25.870  32.352  1.00  0.00     0.002 A 
ATOM     95  C   UNL A   1      52.321  23.649  32.800  1.00  0.00     0.091 A 
ATOM     96  F   UNL A   1      49.961  23.301  32.817  1.00  0.00    -0.205 F 
ATOM     97  C   UNL A   1      53.406  24.522  32.619  1.00  0.00     0.022 A 
BRANCH  95  98
ATOM     98  S   UNL A   1      52.697  21.948  33.238  1.00  0.00     0.127 S 
ATOM     99  O   UNL A   1      52.138  21.217  32.101  1.00  0.00    -0.237 OA
ATOM    100  O   UNL A   1      54.160  21.957  33.296  1.00  0.00    -0.237 OA
ATOM    101  O   UNL A   1      52.045  21.710  34.519  1.00  0.00    -0.744 OA
ENDBRANCH  95  98
ENDBRANCH  68  91
ENDBRANCH  42  43
ENDBRANCH  34  37
ENDBRANCH  32  33
ENDBRANCH  31  32
ENDBRANCH   1  31
TORSDOF 20
ENDMDL
