MODEL 1
REMARK VINA RESULT:     -11.5      0.000      0.000
REMARK SMILES CC(C)c1ccc(NC(=O)C(=O)N/N=C/c2ccccc2C(=O)NCCCCNC(=O)c2ccc(-c3c4nc(c(-c5cccc(S(=O)(=O)[O-])c5F)c5ccc([nH]5)c(-c5cccc(S(=O)(=O)[O-])c5F)c5nc(c(-c6cccc(S(=O)(=O)[O-])c6F)c6ccc3[nH]6)C=C5)C=C4)cc2)cc1
REMARK SMILES IDX 25 1 24 2 22 3 23 4 21 6 16 7 17 8 18 9 20 10 19 11 15 12
REMARK SMILES IDX 14 13 13 14 11 15 12 16 9 18 8 19 10 21 7 22 4 23 5 24 96 25
REMARK SMILES IDX 6 26 95 27 2 28 1 29 3 30 26 31 27 32 28 33 29 34 30 35
REMARK SMILES IDX 31 37 32 38 33 39 94 40 34 41 93 42 35 43 36 44 37 45 87 46
REMARK SMILES IDX 38 47 92 48 86 49 88 50 39 51 91 52 85 53 84 54 40 56 72 57
REMARK SMILES IDX 52 58 71 59 53 60 56 61 70 62 89 63 54 64 55 65 69 67 90 68
REMARK SMILES IDX 57 69 41 70 42 71 50 72 43 73 45 74 51 75 44 76 46 77 47 78
REMARK SMILES IDX 48 79 49 80 73 81 74 82 82 83 75 84 77 85 83 86 76 87 78 88
REMARK SMILES IDX 79 89 80 90 81 91 58 92 59 93 67 94 60 95 62 96 68 97 61 98
REMARK SMILES IDX 63 99 64 100 65 101 66 102
REMARK H PARENT 24 5 13 17 8 20 29 36 88 55 56 66
REMARK Flexibility Score: inf
ROOT
ATOM      1  C   UNL A   1      38.439  23.704  26.071  1.00  0.00     0.116 C 
ENDROOT
BRANCH   1   2
ATOM      2  N   UNL A   1      37.782  23.465  24.817  1.00  0.00    -0.352 N 
ATOM      3  C   UNL A   1      36.449  23.369  24.507  1.00  0.00     0.251 C 
ATOM      4  O   UNL A   1      36.182  23.260  23.305  1.00  0.00    -0.269 OA
ATOM      5  H   UNL A   1      38.390  23.351  24.051  1.00  0.00     0.163 HD
BRANCH   3   6
ATOM      6  C   UNL A   1      35.303  23.293  25.472  1.00  0.00     0.048 A 
ATOM      7  C   UNL A   1      34.200  24.139  25.648  1.00  0.00     0.007 A 
ATOM      8  C   UNL A   1      33.177  23.820  26.569  1.00  0.00     0.010 A 
ATOM      9  C   UNL A   1      33.234  22.660  27.334  1.00  0.00     0.001 A 
ATOM     10  C   UNL A   1      35.330  22.124  26.273  1.00  0.00     0.014 A 
ATOM     11  C   UNL A   1      34.321  21.814  27.194  1.00  0.00     0.001 A 
BRANCH   7  12
ATOM     12  C   UNL A   1      34.011  25.482  25.103  1.00  0.00     0.142 C 
ATOM     13  N   UNL A   1      32.966  26.218  25.299  1.00  0.00    -0.180 NA
BRANCH  13  14
ATOM     14  N   UNL A   1      33.019  27.518  24.786  1.00  0.00    -0.239 N 
ATOM     15  C   UNL A   1      31.889  28.200  24.345  1.00  0.00     0.329 C 
ATOM     16  O   UNL A   1      31.017  28.621  25.093  1.00  0.00    -0.262 OA
ATOM     17  H   UNL A   1      33.893  27.970  24.733  1.00  0.00     0.194 HD
BRANCH  15  18
ATOM     18  C   UNL A   1      31.685  28.221  22.824  1.00  0.00     0.315 C 
ATOM     19  N   UNL A   1      31.817  27.072  22.073  1.00  0.00    -0.318 N 
ATOM     20  H   UNL A   1      31.929  27.242  21.109  1.00  0.00     0.170 HD
ATOM     21  O   UNL A   1      31.533  29.302  22.256  1.00  0.00    -0.263 OA
BRANCH  19  22
ATOM     22  C   UNL A   1      31.825  25.707  22.409  1.00  0.00     0.041 A 
ATOM     23  C   UNL A   1      31.950  22.907  22.869  1.00  0.00    -0.045 A 
ATOM     24  C   UNL A   1      30.888  23.681  23.351  1.00  0.00     0.006 A 
ATOM     25  C   UNL A   1      32.958  23.559  22.154  1.00  0.00     0.006 A 
ATOM     26  C   UNL A   1      30.819  25.059  23.111  1.00  0.00     0.026 A 
ATOM     27  C   UNL A   1      32.896  24.942  21.929  1.00  0.00     0.026 A 
BRANCH  23  28
ATOM     28  C   UNL A   1      31.908  21.403  23.080  1.00  0.00     0.013 C 
ATOM     29  C   UNL A   1      31.851  20.700  21.720  1.00  0.00     0.012 C 
ATOM     30  C   UNL A   1      33.056  20.834  23.919  1.00  0.00     0.012 C 
ENDBRANCH  23  28
ENDBRANCH  19  22
ENDBRANCH  15  18
ENDBRANCH  13  14
ENDBRANCH   7  12
ENDBRANCH   3   6
ENDBRANCH   1   2
BRANCH   1  31
ATOM     31  C   UNL A   1      39.325  22.582  26.598  1.00  0.00     0.023 C 
BRANCH  31  32
ATOM     32  C   UNL A   1      39.436  21.277  25.808  1.00  0.00     0.023 C 
BRANCH  32  33
ATOM     33  C   UNL A   1      39.815  19.990  26.530  1.00  0.00     0.116 C 
BRANCH  33  34
ATOM     34  N   UNL A   1      41.040  19.354  26.073  1.00  0.00    -0.352 N 
ATOM     35  C   UNL A   1      42.339  19.799  26.126  1.00  0.00     0.251 C 
ATOM     36  H   UNL A   1      40.920  18.466  25.662  1.00  0.00     0.163 HD
ATOM     37  O   UNL A   1      43.276  19.045  25.868  1.00  0.00    -0.269 OA
BRANCH  35  38
ATOM     38  C   UNL A   1      42.627  21.214  26.428  1.00  0.00     0.039 A 
ATOM     39  C   UNL A   1      42.781  22.107  25.361  1.00  0.00     0.014 A 
ATOM     40  C   UNL A   1      42.725  21.663  27.744  1.00  0.00     0.014 A 
ATOM     41  C   UNL A   1      42.974  23.467  25.614  1.00  0.00     0.010 A 
ATOM     42  C   UNL A   1      42.837  23.026  27.993  1.00  0.00     0.010 A 
ATOM     43  C   UNL A   1      42.976  23.939  26.934  1.00  0.00    -0.014 A 
BRANCH  43  44
ATOM     44  C   UNL A   1      43.185  25.372  27.259  1.00  0.00     0.031 A 
ATOM     45  C   UNL A   1      44.568  25.949  27.123  1.00  0.00     0.074 A 
ATOM     46  C   UNL A   1      42.184  26.105  27.784  1.00  0.00     0.049 A 
ATOM     47  N   UNL A   1      45.027  27.103  27.526  1.00  0.00    -0.248 NA
ATOM     48  C   UNL A   1      45.582  25.086  26.491  1.00  0.00     0.031 C 
ATOM     49  C   UNL A   1      40.819  25.632  28.024  1.00  0.00     0.029 A 
ATOM     50  N   UNL A   1      42.174  27.396  28.250  1.00  0.00    -0.354 N 
ATOM     51  C   UNL A   1      46.393  27.076  27.262  1.00  0.00     0.074 A 
ATOM     52  C   UNL A   1      46.690  25.784  26.685  1.00  0.00     0.031 C 
ATOM     53  C   UNL A   1      40.108  26.614  28.604  1.00  0.00     0.029 A 
ATOM     54  C   UNL A   1      40.970  27.775  28.799  1.00  0.00     0.049 A 
ATOM     55  H   UNL A   1      42.954  27.994  28.198  1.00  0.00     0.167 HD
ATOM     56  C   UNL A   1      47.312  28.051  27.459  1.00  0.00     0.034 A 
ATOM     57  C   UNL A   1      40.611  28.930  29.397  1.00  0.00     0.034 A 
ATOM     58  C   UNL A   1      46.988  29.360  27.952  1.00  0.00     0.049 A 
ATOM     59  C   UNL A   1      41.625  30.040  29.491  1.00  0.00     0.074 A 
ATOM     60  C   UNL A   1      47.821  30.452  28.112  1.00  0.00     0.029 A 
ATOM     61  N   UNL A   1      45.719  29.759  28.344  1.00  0.00    -0.354 N 
ATOM     62  N   UNL A   1      42.883  30.042  29.121  1.00  0.00    -0.248 NA
ATOM     63  C   UNL A   1      41.162  31.321  30.044  1.00  0.00     0.031 C 
ATOM     64  C   UNL A   1      47.051  31.518  28.592  1.00  0.00     0.029 A 
ATOM     65  C   UNL A   1      45.738  31.089  28.724  1.00  0.00     0.049 A 
ATOM     66  H   UNL A   1      44.922  29.181  28.351  1.00  0.00     0.167 HD
ATOM     67  C   UNL A   1      43.350  31.330  29.355  1.00  0.00     0.074 A 
ATOM     68  C   UNL A   1      42.232  32.087  29.883  1.00  0.00     0.031 C 
ATOM     69  C   UNL A   1      44.593  31.838  29.169  1.00  0.00     0.034 A 
BRANCH  56  70
ATOM     70  C   UNL A   1      48.736  27.753  27.072  1.00  0.00     0.023 A 
ATOM     71  C   UNL A   1      49.645  27.314  28.057  1.00  0.00     0.012 A 
ATOM     72  C   UNL A   1      49.172  27.875  25.737  1.00  0.00     0.148 A 
ATOM     73  C   UNL A   1      50.973  27.044  27.732  1.00  0.00     0.002 A 
ATOM     74  C   UNL A   1      50.487  27.560  25.411  1.00  0.00     0.091 A 
ATOM     75  F   UNL A   1      48.302  28.315  24.817  1.00  0.00    -0.205 F 
ATOM     76  C   UNL A   1      51.391  27.157  26.409  1.00  0.00     0.022 A 
BRANCH  74  77
ATOM     77  S   UNL A   1      51.104  27.599  23.725  1.00  0.00     0.127 S 
ATOM     78  O   UNL A   1      51.180  29.037  23.471  1.00  0.00    -0.237 OA
ATOM     79  O   UNL A   1      52.401  26.934  23.856  1.00  0.00    -0.237 OA
ATOM     80  O   UNL A   1      50.128  26.872  22.925  1.00  0.00    -0.744 OA
ENDBRANCH  74  77
ENDBRANCH  56  70
BRANCH  57  81
ATOM     81  C   UNL A   1      39.207  29.128  29.857  1.00  0.00     0.023 A 
ATOM     82  C   UNL A   1      38.860  28.756  31.172  1.00  0.00     0.012 A 
ATOM     83  C   UNL A   1      38.224  29.703  29.028  1.00  0.00     0.148 A 
ATOM     84  C   UNL A   1      37.557  28.923  31.642  1.00  0.00     0.002 A 
ATOM     85  C   UNL A   1      36.939  29.913  29.520  1.00  0.00     0.091 A 
ATOM     86  F   UNL A   1      38.564  30.037  27.775  1.00  0.00    -0.205 F 
ATOM     87  C   UNL A   1      36.600  29.510  30.821  1.00  0.00     0.022 A 
BRANCH  85  88
ATOM     88  S   UNL A   1      35.682  30.781  28.573  1.00  0.00     0.127 S 
ATOM     89  O   UNL A   1      35.006  29.681  27.891  1.00  0.00    -0.237 OA
ATOM     90  O   UNL A   1      34.896  31.429  29.625  1.00  0.00    -0.237 OA
ATOM     91  O   UNL A   1      36.415  31.710  27.722  1.00  0.00    -0.744 OA
ENDBRANCH  85  88
ENDBRANCH  57  81
BRANCH  69  92
ATOM     92  C   UNL A   1      44.805  33.294  29.484  1.00  0.00     0.023 A 
ATOM     93  C   UNL A   1      45.243  33.673  30.767  1.00  0.00     0.012 A 
ATOM     94  C   UNL A   1      44.654  34.273  28.484  1.00  0.00     0.148 A 
ATOM     95  C   UNL A   1      45.502  35.012  31.058  1.00  0.00     0.002 A 
ATOM     96  C   UNL A   1      44.956  35.599  28.768  1.00  0.00     0.091 A 
ATOM     97  F   UNL A   1      44.213  33.894  27.275  1.00  0.00    -0.205 F 
ATOM     98  C   UNL A   1      45.371  35.972  30.057  1.00  0.00     0.022 A 
BRANCH  96  99
ATOM     99  S   UNL A   1      44.901  36.874  27.503  1.00  0.00     0.127 S 
ATOM    100  O   UNL A   1      45.849  36.361  26.518  1.00  0.00    -0.237 OA
ATOM    101  O   UNL A   1      43.500  36.837  27.077  1.00  0.00    -0.237 OA
ATOM    102  O   UNL A   1      45.288  38.108  28.174  1.00  0.00    -0.744 OA
ENDBRANCH  96  99
ENDBRANCH  69  92
ENDBRANCH  43  44
ENDBRANCH  35  38
ENDBRANCH  33  34
ENDBRANCH  32  33
ENDBRANCH  31  32
ENDBRANCH   1  31
TORSDOF 19
ENDMDL
MODEL 2
REMARK VINA RESULT:     -11.4      1.574      7.465
REMARK SMILES CC(C)c1ccc(NC(=O)C(=O)N/N=C/c2ccccc2C(=O)NCCCCNC(=O)c2ccc(-c3c4nc(c(-c5cccc(S(=O)(=O)[O-])c5F)c5ccc([nH]5)c(-c5cccc(S(=O)(=O)[O-])c5F)c5nc(c(-c6cccc(S(=O)(=O)[O-])c6F)c6ccc3[nH]6)C=C5)C=C4)cc2)cc1
REMARK SMILES IDX 25 1 24 2 22 3 23 4 21 6 16 7 17 8 18 9 20 10 19 11 15 12
REMARK SMILES IDX 14 13 13 14 11 15 12 16 9 18 8 19 10 21 7 22 4 23 5 24 96 25
REMARK SMILES IDX 6 26 95 27 2 28 1 29 3 30 26 31 27 32 28 33 29 34 30 35
REMARK SMILES IDX 31 37 32 38 33 39 94 40 34 41 93 42 35 43 36 44 37 45 87 46
REMARK SMILES IDX 38 47 92 48 86 49 88 50 39 51 91 52 85 53 84 54 40 56 72 57
REMARK SMILES IDX 52 58 71 59 53 60 56 61 70 62 89 63 54 64 55 65 69 67 90 68
REMARK SMILES IDX 57 69 41 70 42 71 50 72 43 73 45 74 51 75 44 76 46 77 47 78
REMARK SMILES IDX 48 79 49 80 73 81 74 82 82 83 75 84 77 85 83 86 76 87 78 88
REMARK SMILES IDX 79 89 80 90 81 91 58 92 59 93 67 94 60 95 62 96 68 97 61 98
REMARK SMILES IDX 63 99 64 100 65 101 66 102
REMARK H PARENT 24 5 13 17 8 20 29 36 88 55 56 66
REMARK Flexibility Score: inf
ROOT
ATOM      1  C   UNL A   1      38.498  23.745  26.029  1.00  0.00     0.116 C 
ENDROOT
BRANCH   1   2
ATOM      2  N   UNL A   1      37.828  23.495  24.784  1.00  0.00    -0.352 N 
ATOM      3  C   UNL A   1      36.492  23.386  24.490  1.00  0.00     0.251 C 
ATOM      4  O   UNL A   1      36.211  23.269  23.292  1.00  0.00    -0.269 OA
ATOM      5  H   UNL A   1      38.428  23.382  24.011  1.00  0.00     0.163 HD
BRANCH   3   6
ATOM      6  C   UNL A   1      35.359  23.305  25.470  1.00  0.00     0.048 A 
ATOM      7  C   UNL A   1      34.256  24.148  25.661  1.00  0.00     0.007 A 
ATOM      8  C   UNL A   1      33.245  23.825  26.594  1.00  0.00     0.010 A 
ATOM      9  C   UNL A   1      33.314  22.664  27.355  1.00  0.00     0.001 A 
ATOM     10  C   UNL A   1      35.398  22.135  26.267  1.00  0.00     0.014 A 
ATOM     11  C   UNL A   1      34.402  21.820  27.201  1.00  0.00     0.001 A 
BRANCH   7  12
ATOM     12  C   UNL A   1      34.058  25.492  25.122  1.00  0.00     0.142 C 
ATOM     13  N   UNL A   1      33.013  26.225  25.331  1.00  0.00    -0.180 NA
BRANCH  13  14
ATOM     14  N   UNL A   1      33.057  27.527  24.821  1.00  0.00    -0.239 N 
ATOM     15  C   UNL A   1      31.925  28.194  24.361  1.00  0.00     0.329 C 
ATOM     16  O   UNL A   1      31.034  28.601  25.094  1.00  0.00    -0.262 OA
ATOM     17  H   UNL A   1      33.925  27.990  24.783  1.00  0.00     0.194 HD
BRANCH  15  18
ATOM     18  C   UNL A   1      31.747  28.213  22.837  1.00  0.00     0.315 C 
ATOM     19  N   UNL A   1      31.885  27.063  22.090  1.00  0.00    -0.318 N 
ATOM     20  H   UNL A   1      32.014  27.230  21.128  1.00  0.00     0.170 HD
ATOM     21  O   UNL A   1      31.611  29.295  22.265  1.00  0.00    -0.263 OA
BRANCH  19  22
ATOM     22  C   UNL A   1      31.878  25.698  22.427  1.00  0.00     0.041 A 
ATOM     23  C   UNL A   1      31.975  22.898  22.892  1.00  0.00    -0.045 A 
ATOM     24  C   UNL A   1      30.915  23.681  23.363  1.00  0.00     0.006 A 
ATOM     25  C   UNL A   1      32.995  23.541  22.185  1.00  0.00     0.006 A 
ATOM     26  C   UNL A   1      30.860  25.060  23.121  1.00  0.00     0.026 A 
ATOM     27  C   UNL A   1      32.946  24.923  21.958  1.00  0.00     0.026 A 
BRANCH  23  28
ATOM     28  C   UNL A   1      31.917  21.394  23.104  1.00  0.00     0.013 C 
ATOM     29  C   UNL A   1      31.898  20.689  21.744  1.00  0.00     0.012 C 
ATOM     30  C   UNL A   1      33.036  20.821  23.979  1.00  0.00     0.012 C 
ENDBRANCH  23  28
ENDBRANCH  19  22
ENDBRANCH  15  18
ENDBRANCH  13  14
ENDBRANCH   7  12
ENDBRANCH   3   6
ENDBRANCH   1   2
BRANCH   1  31
ATOM     31  C   UNL A   1      39.387  22.626  26.559  1.00  0.00     0.023 C 
BRANCH  31  32
ATOM     32  C   UNL A   1      39.244  21.216  25.984  1.00  0.00     0.023 C 
BRANCH  32  33
ATOM     33  C   UNL A   1      39.810  20.029  26.753  1.00  0.00     0.116 C 
BRANCH  33  34
ATOM     34  N   UNL A   1      40.812  19.248  26.048  1.00  0.00    -0.352 N 
ATOM     35  C   UNL A   1      42.159  19.474  25.890  1.00  0.00     0.251 C 
ATOM     36  H   UNL A   1      40.474  18.429  25.616  1.00  0.00     0.163 HD
ATOM     37  O   UNL A   1      42.895  18.605  25.425  1.00  0.00    -0.269 OA
BRANCH  35  38
ATOM     38  C   UNL A   1      42.733  20.793  26.215  1.00  0.00     0.039 A 
ATOM     39  C   UNL A   1      42.947  21.703  25.172  1.00  0.00     0.014 A 
ATOM     40  C   UNL A   1      43.040  21.140  27.529  1.00  0.00     0.014 A 
ATOM     41  C   UNL A   1      43.413  22.989  25.456  1.00  0.00     0.010 A 
ATOM     42  C   UNL A   1      43.427  22.444  27.817  1.00  0.00     0.010 A 
ATOM     43  C   UNL A   1      43.630  23.376  26.786  1.00  0.00    -0.014 A 
BRANCH  43  44
ATOM     44  C   UNL A   1      44.133  24.726  27.142  1.00  0.00     0.031 A 
ATOM     45  C   UNL A   1      43.167  25.729  27.713  1.00  0.00     0.074 A 
ATOM     46  C   UNL A   1      45.396  25.084  26.842  1.00  0.00     0.049 A 
ATOM     47  N   UNL A   1      43.326  27.009  27.917  1.00  0.00    -0.248 NA
ATOM     48  C   UNL A   1      41.824  25.228  28.055  1.00  0.00     0.031 C 
ATOM     49  C   UNL A   1      46.403  24.217  26.225  1.00  0.00     0.029 A 
ATOM     50  N   UNL A   1      46.038  26.290  26.979  1.00  0.00    -0.354 N 
ATOM     51  C   UNL A   1      42.087  27.478  28.340  1.00  0.00     0.074 A 
ATOM     52  C   UNL A   1      41.183  26.350  28.344  1.00  0.00     0.031 C 
ATOM     53  C   UNL A   1      47.529  24.922  26.025  1.00  0.00     0.029 A 
ATOM     54  C   UNL A   1      47.319  26.294  26.476  1.00  0.00     0.049 A 
ATOM     55  H   UNL A   1      45.621  27.078  27.397  1.00  0.00     0.167 HD
ATOM     56  C   UNL A   1      41.740  28.731  28.718  1.00  0.00     0.034 A 
ATOM     57  C   UNL A   1      48.216  27.297  26.387  1.00  0.00     0.034 A 
ATOM     58  C   UNL A   1      42.670  29.823  28.793  1.00  0.00     0.049 A 
ATOM     59  C   UNL A   1      47.841  28.652  26.928  1.00  0.00     0.074 A 
ATOM     60  C   UNL A   1      42.451  31.113  29.241  1.00  0.00     0.029 A 
ATOM     61  N   UNL A   1      44.005  29.744  28.430  1.00  0.00    -0.354 N 
ATOM     62  N   UNL A   1      46.701  29.048  27.443  1.00  0.00    -0.248 NA
ATOM     63  C   UNL A   1      48.885  29.687  26.917  1.00  0.00     0.031 C 
ATOM     64  C   UNL A   1      43.661  31.812  29.159  1.00  0.00     0.029 A 
ATOM     65  C   UNL A   1      44.632  30.954  28.665  1.00  0.00     0.049 A 
ATOM     66  H   UNL A   1      44.443  28.944  28.058  1.00  0.00     0.167 HD
ATOM     67  C   UNL A   1      46.903  30.360  27.856  1.00  0.00     0.074 A 
ATOM     68  C   UNL A   1      48.281  30.686  27.547  1.00  0.00     0.031 C 
ATOM     69  C   UNL A   1      46.025  31.224  28.422  1.00  0.00     0.034 A 
BRANCH  56  70
ATOM     70  C   UNL A   1      40.315  28.961  29.144  1.00  0.00     0.023 A 
ATOM     71  C   UNL A   1      39.336  29.243  28.168  1.00  0.00     0.012 A 
ATOM     72  C   UNL A   1      39.932  28.870  30.497  1.00  0.00     0.148 A 
ATOM     73  C   UNL A   1      38.011  29.474  28.533  1.00  0.00     0.002 A 
ATOM     74  C   UNL A   1      38.600  29.056  30.849  1.00  0.00     0.091 A 
ATOM     75  F   UNL A   1      40.877  28.623  31.415  1.00  0.00    -0.205 F 
ATOM     76  C   UNL A   1      37.641  29.371  29.871  1.00  0.00     0.022 A 
BRANCH  74  77
ATOM     77  S   UNL A   1      38.007  28.869  32.534  1.00  0.00     0.127 S 
ATOM     78  O   UNL A   1      38.197  27.437  32.759  1.00  0.00    -0.237 OA
ATOM     79  O   UNL A   1      38.925  29.730  33.282  1.00  0.00    -0.237 OA
ATOM     80  O   UNL A   1      36.624  29.324  32.525  1.00  0.00    -0.744 OA
ENDBRANCH  74  77
ENDBRANCH  56  70
BRANCH  57  81
ATOM     81  C   UNL A   1      49.584  27.031  25.856  1.00  0.00     0.023 A 
ATOM     82  C   UNL A   1      50.536  26.421  26.697  1.00  0.00     0.012 A 
ATOM     83  C   UNL A   1      49.944  27.344  24.531  1.00  0.00     0.148 A 
ATOM     84  C   UNL A   1      51.828  26.157  26.241  1.00  0.00     0.002 A 
ATOM     85  C   UNL A   1      51.219  27.032  24.067  1.00  0.00     0.091 A 
ATOM     86  F   UNL A   1      49.033  27.939  23.747  1.00  0.00    -0.205 F 
ATOM     87  C   UNL A   1      52.166  26.452  24.925  1.00  0.00     0.022 A 
BRANCH  85  88
ATOM     88  S   UNL A   1      51.694  27.261  22.349  1.00  0.00     0.127 S 
ATOM     89  O   UNL A   1      50.634  26.544  21.646  1.00  0.00    -0.237 OA
ATOM     90  O   UNL A   1      51.649  28.718  22.208  1.00  0.00    -0.237 OA
ATOM     91  O   UNL A   1      53.032  26.695  22.241  1.00  0.00    -0.744 OA
ENDBRANCH  85  88
ENDBRANCH  57  81
BRANCH  69  92
ATOM     92  C   UNL A   1      46.535  32.589  28.797  1.00  0.00     0.023 A 
ATOM     93  C   UNL A   1      47.128  32.790  30.058  1.00  0.00     0.012 A 
ATOM     94  C   UNL A   1      46.505  33.646  27.867  1.00  0.00     0.148 A 
ATOM     95  C   UNL A   1      47.661  34.033  30.397  1.00  0.00     0.002 A 
ATOM     96  C   UNL A   1      47.076  34.869  28.196  1.00  0.00     0.091 A 
ATOM     97  F   UNL A   1      45.914  33.440  26.680  1.00  0.00    -0.205 F 
ATOM     98  C   UNL A   1      47.646  35.067  29.464  1.00  0.00     0.022 A 
BRANCH  96  99
ATOM     99  S   UNL A   1      47.177  36.216  27.011  1.00  0.00     0.127 S 
ATOM    100  O   UNL A   1      45.768  36.547  26.813  1.00  0.00    -0.237 OA
ATOM    101  O   UNL A   1      47.943  37.226  27.744  1.00  0.00    -0.237 OA
ATOM    102  O   UNL A   1      47.869  35.666  25.852  1.00  0.00    -0.744 OA
ENDBRANCH  96  99
ENDBRANCH  69  92
ENDBRANCH  43  44
ENDBRANCH  35  38
ENDBRANCH  33  34
ENDBRANCH  32  33
ENDBRANCH  31  32
ENDBRANCH   1  31
TORSDOF 19
ENDMDL
MODEL 3
REMARK VINA RESULT:     -10.7      1.732      3.047
REMARK SMILES CC(C)c1ccc(NC(=O)C(=O)N/N=C/c2ccccc2C(=O)NCCCCNC(=O)c2ccc(-c3c4nc(c(-c5cccc(S(=O)(=O)[O-])c5F)c5ccc([nH]5)c(-c5cccc(S(=O)(=O)[O-])c5F)c5nc(c(-c6cccc(S(=O)(=O)[O-])c6F)c6ccc3[nH]6)C=C5)C=C4)cc2)cc1
REMARK SMILES IDX 25 1 24 2 22 3 23 4 21 6 16 7 17 8 18 9 20 10 19 11 15 12
REMARK SMILES IDX 14 13 13 14 11 15 12 16 9 18 8 19 10 21 7 22 4 23 5 24 96 25
REMARK SMILES IDX 6 26 95 27 2 28 1 29 3 30 26 31 27 32 28 33 29 34 30 35
REMARK SMILES IDX 31 37 32 38 33 39 94 40 34 41 93 42 35 43 36 44 37 45 87 46
REMARK SMILES IDX 38 47 92 48 86 49 88 50 39 51 91 52 85 53 84 54 40 56 72 57
REMARK SMILES IDX 52 58 71 59 53 60 56 61 70 62 89 63 54 64 55 65 69 67 90 68
REMARK SMILES IDX 57 69 41 70 42 71 50 72 43 73 45 74 51 75 44 76 46 77 47 78
REMARK SMILES IDX 48 79 49 80 73 81 74 82 82 83 75 84 77 85 83 86 76 87 78 88
REMARK SMILES IDX 79 89 80 90 81 91 58 92 59 93 67 94 60 95 62 96 68 97 61 98
REMARK SMILES IDX 63 99 64 100 65 101 66 102
REMARK H PARENT 24 5 13 17 8 20 29 36 88 55 56 66
REMARK Flexibility Score: inf
ROOT
ATOM      1  C   UNL A   1      37.973  22.920  26.092  1.00  0.00     0.116 C 
ENDROOT
BRANCH   1   2
ATOM      2  N   UNL A   1      37.510  22.945  24.733  1.00  0.00    -0.352 N 
ATOM      3  C   UNL A   1      36.345  23.427  24.191  1.00  0.00     0.251 C 
ATOM      4  O   UNL A   1      36.273  23.402  22.957  1.00  0.00    -0.269 OA
ATOM      5  H   UNL A   1      38.133  22.550  24.080  1.00  0.00     0.163 HD
BRANCH   3   6
ATOM      6  C   UNL A   1      35.130  23.892  24.938  1.00  0.00     0.048 A 
ATOM      7  C   UNL A   1      34.101  23.164  25.550  1.00  0.00     0.007 A 
ATOM      8  C   UNL A   1      33.089  23.815  26.290  1.00  0.00     0.010 A 
ATOM      9  C   UNL A   1      33.077  25.198  26.431  1.00  0.00     0.001 A 
ATOM     10  C   UNL A   1      35.082  25.300  25.097  1.00  0.00     0.014 A 
ATOM     11  C   UNL A   1      34.071  25.945  25.821  1.00  0.00     0.001 A 
BRANCH   7  12
ATOM     12  C   UNL A   1      33.800  21.743  25.393  1.00  0.00     0.142 C 
ATOM     13  N   UNL A   1      32.681  21.184  25.722  1.00  0.00    -0.180 NA
BRANCH  13  14
ATOM     14  N   UNL A   1      32.543  19.832  25.392  1.00  0.00    -0.239 N 
ATOM     15  C   UNL A   1      33.248  19.236  24.350  1.00  0.00     0.329 C 
ATOM     16  O   UNL A   1      34.451  19.018  24.383  1.00  0.00    -0.262 OA
ATOM     17  H   UNL A   1      31.920  19.278  25.917  1.00  0.00     0.194 HD
BRANCH  15  18
ATOM     18  C   UNL A   1      32.459  19.046  23.047  1.00  0.00     0.315 C 
ATOM     19  N   UNL A   1      31.848  20.113  22.424  1.00  0.00    -0.318 N 
ATOM     20  H   UNL A   1      31.166  19.846  21.765  1.00  0.00     0.170 HD
ATOM     21  O   UNL A   1      32.262  17.905  22.630  1.00  0.00    -0.263 OA
BRANCH  19  22
ATOM     22  C   UNL A   1      32.003  21.505  22.542  1.00  0.00     0.041 A 
ATOM     23  C   UNL A   1      32.071  24.335  22.764  1.00  0.00    -0.045 A 
ATOM     24  C   UNL A   1      33.086  23.628  22.109  1.00  0.00     0.006 A 
ATOM     25  C   UNL A   1      31.017  23.600  23.314  1.00  0.00     0.006 A 
ATOM     26  C   UNL A   1      33.045  22.234  21.987  1.00  0.00     0.026 A 
ATOM     27  C   UNL A   1      30.986  22.203  23.204  1.00  0.00     0.026 A 
BRANCH  23  28
ATOM     28  C   UNL A   1      32.130  25.854  22.771  1.00  0.00     0.013 C 
ATOM     29  C   UNL A   1      32.891  26.339  21.533  1.00  0.00     0.012 C 
ATOM     30  C   UNL A   1      30.770  26.553  22.860  1.00  0.00     0.012 C 
ENDBRANCH  23  28
ENDBRANCH  19  22
ENDBRANCH  15  18
ENDBRANCH  13  14
ENDBRANCH   7  12
ENDBRANCH   3   6
ENDBRANCH   1   2
BRANCH   1  31
ATOM     31  C   UNL A   1      39.333  22.276  26.334  1.00  0.00     0.023 C 
BRANCH  31  32
ATOM     32  C   UNL A   1      39.552  20.813  25.945  1.00  0.00     0.023 C 
BRANCH  32  33
ATOM     33  C   UNL A   1      40.688  20.026  26.587  1.00  0.00     0.116 C 
BRANCH  33  34
ATOM     34  N   UNL A   1      41.847  19.799  25.739  1.00  0.00    -0.352 N 
ATOM     35  C   UNL A   1      42.975  20.564  25.562  1.00  0.00     0.251 C 
ATOM     36  H   UNL A   1      41.820  18.968  25.211  1.00  0.00     0.163 HD
ATOM     37  O   UNL A   1      43.948  20.123  24.951  1.00  0.00    -0.269 OA
BRANCH  35  38
ATOM     38  C   UNL A   1      43.010  21.958  26.045  1.00  0.00     0.039 A 
ATOM     39  C   UNL A   1      43.167  22.185  27.418  1.00  0.00     0.014 A 
ATOM     40  C   UNL A   1      42.908  23.029  25.159  1.00  0.00     0.014 A 
ATOM     41  C   UNL A   1      43.285  23.492  27.897  1.00  0.00     0.010 A 
ATOM     42  C   UNL A   1      43.105  24.323  25.628  1.00  0.00     0.010 A 
ATOM     43  C   UNL A   1      43.281  24.569  27.000  1.00  0.00    -0.014 A 
BRANCH  43  44
ATOM     44  C   UNL A   1      43.394  25.976  27.457  1.00  0.00     0.031 A 
ATOM     45  C   UNL A   1      44.762  26.595  27.558  1.00  0.00     0.074 A 
ATOM     46  C   UNL A   1      42.307  26.641  27.892  1.00  0.00     0.049 A 
ATOM     47  N   UNL A   1      45.122  27.724  28.106  1.00  0.00    -0.248 NA
ATOM     48  C   UNL A   1      45.882  25.810  27.009  1.00  0.00     0.031 C 
ATOM     49  C   UNL A   1      40.938  26.118  27.904  1.00  0.00     0.029 A 
ATOM     50  N   UNL A   1      42.188  27.890  28.447  1.00  0.00    -0.354 N 
ATOM     51  C   UNL A   1      46.510  27.751  28.033  1.00  0.00     0.074 A 
ATOM     52  C   UNL A   1      46.928  26.517  27.407  1.00  0.00     0.031 C 
ATOM     53  C   UNL A   1      40.122  27.033  28.453  1.00  0.00     0.029 A 
ATOM     54  C   UNL A   1      40.908  28.196  28.852  1.00  0.00     0.049 A 
ATOM     55  H   UNL A   1      42.947  28.509  28.549  1.00  0.00     0.167 HD
ATOM     56  C   UNL A   1      47.360  28.729  28.427  1.00  0.00     0.034 A 
ATOM     57  C   UNL A   1      40.431  29.290  29.478  1.00  0.00     0.034 A 
ATOM     58  C   UNL A   1      46.926  29.987  28.967  1.00  0.00     0.049 A 
ATOM     59  C   UNL A   1      41.383  30.414  29.795  1.00  0.00     0.074 A 
ATOM     60  C   UNL A   1      47.691  31.083  29.322  1.00  0.00     0.029 A 
ATOM     61  N   UNL A   1      45.603  30.324  29.208  1.00  0.00    -0.354 N 
ATOM     62  N   UNL A   1      42.679  30.475  29.604  1.00  0.00    -0.248 NA
ATOM     63  C   UNL A   1      40.805  31.636  30.372  1.00  0.00     0.031 C 
ATOM     64  C   UNL A   1      46.826  32.089  29.769  1.00  0.00     0.029 A 
ATOM     65  C   UNL A   1      45.524  31.619  29.685  1.00  0.00     0.049 A 
ATOM     66  H   UNL A   1      44.833  29.728  29.062  1.00  0.00     0.167 HD
ATOM     67  C   UNL A   1      43.065  31.752  29.996  1.00  0.00     0.074 A 
ATOM     68  C   UNL A   1      41.860  32.438  30.419  1.00  0.00     0.031 C 
ATOM     69  C   UNL A   1      44.303  32.303  30.022  1.00  0.00     0.034 A 
BRANCH  56  70
ATOM     70  C   UNL A   1      48.833  28.498  28.220  1.00  0.00     0.023 A 
ATOM     71  C   UNL A   1      49.594  27.907  29.250  1.00  0.00     0.012 A 
ATOM     72  C   UNL A   1      49.461  28.832  27.004  1.00  0.00     0.148 A 
ATOM     73  C   UNL A   1      50.962  27.692  29.093  1.00  0.00     0.002 A 
ATOM     74  C   UNL A   1      50.818  28.574  26.837  1.00  0.00     0.091 A 
ATOM     75  F   UNL A   1      48.730  29.414  26.043  1.00  0.00    -0.205 F 
ATOM     76  C   UNL A   1      51.571  28.016  27.884  1.00  0.00     0.022 A 
BRANCH  74  77
ATOM     77  S   UNL A   1      51.681  28.883  25.292  1.00  0.00     0.127 S 
ATOM     78  O   UNL A   1      53.034  28.429  25.613  1.00  0.00    -0.237 OA
ATOM     79  O   UNL A   1      50.956  28.022  24.356  1.00  0.00    -0.237 OA
ATOM     80  O   UNL A   1      51.542  30.309  25.035  1.00  0.00    -0.744 OA
ENDBRANCH  74  77
ENDBRANCH  56  70
BRANCH  57  81
ATOM     81  C   UNL A   1      38.971  29.418  29.753  1.00  0.00     0.023 A 
ATOM     82  C   UNL A   1      38.485  29.082  31.033  1.00  0.00     0.012 A 
ATOM     83  C   UNL A   1      38.068  29.892  28.782  1.00  0.00     0.148 A 
ATOM     84  C   UNL A   1      37.126  29.184  31.331  1.00  0.00     0.002 A 
ATOM     85  C   UNL A   1      36.721  30.040  29.102  1.00  0.00     0.091 A 
ATOM     86  F   UNL A   1      38.542  30.193  27.564  1.00  0.00    -0.205 F 
ATOM     87  C   UNL A   1      36.246  29.673  30.371  1.00  0.00     0.022 A 
BRANCH  85  88
ATOM     88  S   UNL A   1      35.544  30.784  27.966  1.00  0.00     0.127 S 
ATOM     89  O   UNL A   1      36.201  32.045  27.636  1.00  0.00    -0.237 OA
ATOM     90  O   UNL A   1      35.507  29.806  26.876  1.00  0.00    -0.237 OA
ATOM     91  O   UNL A   1      34.298  30.886  28.714  1.00  0.00    -0.744 OA
ENDBRANCH  85  88
ENDBRANCH  57  81
BRANCH  69  92
ATOM     92  C   UNL A   1      44.419  33.734  30.472  1.00  0.00     0.023 A 
ATOM     93  C   UNL A   1      44.729  34.020  31.816  1.00  0.00     0.012 A 
ATOM     94  C   UNL A   1      44.308  34.788  29.545  1.00  0.00     0.148 A 
ATOM     95  C   UNL A   1      44.900  35.339  32.235  1.00  0.00     0.002 A 
ATOM     96  C   UNL A   1      44.523  36.096  29.961  1.00  0.00     0.091 A 
ATOM     97  F   UNL A   1      43.989  34.496  28.275  1.00  0.00    -0.205 F 
ATOM     98  C   UNL A   1      44.809  36.374  31.308  1.00  0.00     0.022 A 
BRANCH  96  99
ATOM     99  S   UNL A   1      44.515  37.471  28.804  1.00  0.00     0.127 S 
ATOM    100  O   UNL A   1      45.342  36.952  27.717  1.00  0.00    -0.237 OA
ATOM    101  O   UNL A   1      43.093  37.603  28.478  1.00  0.00    -0.237 OA
ATOM    102  O   UNL A   1      45.067  38.602  29.537  1.00  0.00    -0.744 OA
ENDBRANCH  96  99
ENDBRANCH  69  92
ENDBRANCH  43  44
ENDBRANCH  35  38
ENDBRANCH  33  34
ENDBRANCH  32  33
ENDBRANCH  31  32
ENDBRANCH   1  31
TORSDOF 19
ENDMDL
