MODEL 1
REMARK VINA RESULT:     -13.6      0.000      0.000
REMARK SMILES COc1ccc([C@@H]2Nc3c(C(=O)NCCCCNC(=O)c4ccc(-c5c6nc(c(-c7cccc(S(=O)(=O)[O-])c7F)c7ccc([nH]7)c(-c7cccc(S(=O)(=O)[O-])c7F)c7nc(c(-c8cccc(S(=O)(=O)[O-])c8F)c8ccc5[nH]8)C=C7)C=C6)cc4)cccc3[C@@H]3[C@H]4CC[C@H](C4)[C@H]32)cc1[N+](=O)[O-]
REMARK SMILES IDX 16 1 15 2 14 3 13 4 11 5 12 6 10 8 7 9 8 10 94 11 9 12 88 14
REMARK SMILES IDX 92 15 87 16 89 17 91 18 93 19 84 20 86 21 90 22 85 23 6 24
REMARK SMILES IDX 3 25 4 26 96 27 5 28 95 29 2 30 1 31 97 32 98 33 99 34 17 35
REMARK SMILES IDX 18 36 19 37 20 39 21 40 22 41 83 42 23 43 82 44 24 45 25 46
REMARK SMILES IDX 26 47 76 48 27 49 81 50 75 51 77 52 28 53 80 54 74 55 73 56
REMARK SMILES IDX 29 58 61 59 41 60 60 61 42 62 45 63 59 64 78 65 43 66 44 67
REMARK SMILES IDX 58 69 79 70 46 71 30 72 31 73 39 74 32 75 34 76 40 77 33 78
REMARK SMILES IDX 35 79 36 80 37 81 38 82 62 83 63 84 71 85 64 86 66 87 72 88
REMARK SMILES IDX 65 89 67 90 68 91 69 92 70 93 47 94 48 95 56 96 49 97 51 98
REMARK SMILES IDX 57 99 50 100 52 101 53 102 54 103 55 104
REMARK H PARENT 13 7 8 13 18 38 77 57 45 68
REMARK Flexibility Score: inf
ROOT
ATOM      1  C   UNL A   1      35.688  21.559  25.171  1.00  0.00     0.023 C 
ENDROOT
BRANCH   1   2
ATOM      2  C   UNL A   1      35.017  21.961  26.481  1.00  0.00     0.023 C 
BRANCH   2   3
ATOM      3  C   UNL A   1      34.144  23.210  26.462  1.00  0.00     0.116 C 
BRANCH   3   4
ATOM      4  N   UNL A   1      32.928  23.138  27.250  1.00  0.00    -0.352 N 
ATOM      5  C   UNL A   1      31.624  23.318  26.843  1.00  0.00     0.253 C 
ATOM      6  O   UNL A   1      30.706  23.083  27.626  1.00  0.00    -0.269 OA
ATOM      7  H   UNL A   1      33.049  22.931  28.205  1.00  0.00     0.163 HD
BRANCH   5   8
ATOM      8  C   UNL A   1      31.315  23.922  25.523  1.00  0.00     0.063 A 
ATOM      9  C   UNL A   1      31.328  27.727  25.937  1.00  0.00     0.114 C 
ATOM     10  N   UNL A   1      31.551  26.294  26.198  1.00  0.00    -0.377 N 
ATOM     11  C   UNL A   1      31.352  27.908  24.423  1.00  0.00     0.027 C 
ATOM     12  C   UNL A   1      31.167  25.298  25.278  1.00  0.00     0.051 A 
ATOM     13  H   UNL A   1      31.981  26.026  27.042  1.00  0.00     0.161 HD
ATOM     14  C   UNL A   1      30.155  27.101  23.905  1.00  0.00     0.030 C 
ATOM     15  C   UNL A   1      31.230  29.226  23.656  1.00  0.00    -0.005 C 
ATOM     16  C   UNL A   1      30.582  25.670  24.025  1.00  0.00    -0.020 A 
ATOM     17  C   UNL A   1      29.761  27.874  22.628  1.00  0.00    -0.003 C 
ATOM     18  C   UNL A   1      29.890  29.932  23.893  1.00  0.00     0.004 C 
ATOM     19  C   UNL A   1      31.032  28.635  22.243  1.00  0.00     0.008 C 
ATOM     20  C   UNL A   1      31.110  22.991  24.486  1.00  0.00     0.016 A 
ATOM     21  C   UNL A   1      30.348  24.735  23.014  1.00  0.00     0.006 A 
ATOM     22  C   UNL A   1      28.890  29.066  23.102  1.00  0.00     0.004 C 
ATOM     23  C   UNL A   1      30.658  23.399  23.232  1.00  0.00     0.001 A 
BRANCH   9  24
ATOM     24  C   UNL A   1      32.347  28.623  26.609  1.00  0.00    -0.018 A 
ATOM     25  C   UNL A   1      34.327  30.444  27.488  1.00  0.00     0.196 A 
ATOM     26  C   UNL A   1      34.636  29.094  27.297  1.00  0.00     0.054 A 
ATOM     27  C   UNL A   1      33.023  30.879  27.250  1.00  0.00     0.311 A 
ATOM     28  C   UNL A   1      33.655  28.190  26.872  1.00  0.00     0.010 A 
ATOM     29  C   UNL A   1      32.031  29.975  26.835  1.00  0.00     0.095 A 
BRANCH  25  30
ATOM     30  O   UNL A   1      35.371  31.273  27.792  1.00  0.00    -0.490 OA
ATOM     31  C   UNL A   1      36.628  30.618  27.626  1.00  0.00     0.278 C 
ENDBRANCH  25  30
BRANCH  27  32
ATOM     32  N   UNL A   1      32.660  32.288  27.345  1.00  0.00     0.066 N 
ATOM     33  O   UNL A   1      31.555  32.615  26.889  1.00  0.00    -0.258 OA
ATOM     34  O   UNL A   1      33.486  33.076  27.825  1.00  0.00    -0.258 OA
ENDBRANCH  27  32
ENDBRANCH   9  24
ENDBRANCH   5   8
ENDBRANCH   3   4
ENDBRANCH   2   3
ENDBRANCH   1   2
BRANCH   1  35
ATOM     35  C   UNL A   1      37.138  21.982  24.982  1.00  0.00     0.116 C 
BRANCH  35  36
ATOM     36  N   UNL A   1      38.112  20.976  25.377  1.00  0.00    -0.352 N 
ATOM     37  C   UNL A   1      39.258  21.107  26.127  1.00  0.00     0.251 C 
ATOM     38  H   UNL A   1      37.924  20.063  25.059  1.00  0.00     0.163 HD
ATOM     39  O   UNL A   1      39.986  20.136  26.313  1.00  0.00    -0.269 OA
BRANCH  37  40
ATOM     40  C   UNL A   1      39.635  22.431  26.665  1.00  0.00     0.039 A 
ATOM     41  C   UNL A   1      40.658  22.506  27.614  1.00  0.00     0.014 A 
ATOM     42  C   UNL A   1      39.035  23.595  26.183  1.00  0.00     0.014 A 
ATOM     43  C   UNL A   1      41.153  23.755  27.997  1.00  0.00     0.010 A 
ATOM     44  C   UNL A   1      39.591  24.831  26.494  1.00  0.00     0.010 A 
ATOM     45  C   UNL A   1      40.664  24.926  27.395  1.00  0.00    -0.014 A 
BRANCH  45  46
ATOM     46  C   UNL A   1      41.276  26.255  27.657  1.00  0.00     0.031 A 
ATOM     47  C   UNL A   1      42.675  26.548  27.188  1.00  0.00     0.074 A 
ATOM     48  C   UNL A   1      40.621  27.152  28.424  1.00  0.00     0.049 A 
ATOM     49  N   UNL A   1      43.421  27.597  27.421  1.00  0.00    -0.248 NA
ATOM     50  C   UNL A   1      43.339  25.508  26.383  1.00  0.00     0.031 C 
ATOM     51  C   UNL A   1      39.295  26.955  29.017  1.00  0.00     0.029 A 
ATOM     52  N   UNL A   1      40.997  28.397  28.867  1.00  0.00    -0.354 N 
ATOM     53  C   UNL A   1      44.651  27.325  26.836  1.00  0.00     0.074 A 
ATOM     54  C   UNL A   1      44.563  25.999  26.265  1.00  0.00     0.031 C 
ATOM     55  C   UNL A   1      38.970  28.038  29.740  1.00  0.00     0.029 A 
ATOM     56  C   UNL A   1      40.072  28.993  29.693  1.00  0.00     0.049 A 
ATOM     57  H   UNL A   1      41.848  28.823  28.617  1.00  0.00     0.167 HD
ATOM     58  C   UNL A   1      45.745  28.118  26.751  1.00  0.00     0.034 A 
ATOM     59  C   UNL A   1      40.108  30.173  30.346  1.00  0.00     0.034 A 
ATOM     60  C   UNL A   1      45.808  29.460  27.263  1.00  0.00     0.049 A 
ATOM     61  C   UNL A   1      41.311  31.062  30.180  1.00  0.00     0.074 A 
ATOM     62  C   UNL A   1      46.833  30.380  27.139  1.00  0.00     0.029 A 
ATOM     63  N   UNL A   1      44.804  30.073  27.996  1.00  0.00    -0.354 N 
ATOM     64  N   UNL A   1      42.402  30.852  29.484  1.00  0.00    -0.248 NA
ATOM     65  C   UNL A   1      41.273  32.366  30.859  1.00  0.00     0.031 C 
ATOM     66  C   UNL A   1      46.454  31.548  27.809  1.00  0.00     0.029 A 
ATOM     67  C   UNL A   1      45.185  31.361  28.333  1.00  0.00     0.049 A 
ATOM     68  H   UNL A   1      43.947  29.655  28.240  1.00  0.00     0.167 HD
ATOM     69  C   UNL A   1      43.161  32.010  29.608  1.00  0.00     0.074 A 
ATOM     70  C   UNL A   1      42.398  32.924  30.432  1.00  0.00     0.031 C 
ATOM     71  C   UNL A   1      44.387  32.284  29.098  1.00  0.00     0.034 A 
BRANCH  58  72
ATOM     72  C   UNL A   1      46.945  27.577  26.018  1.00  0.00     0.023 A 
ATOM     73  C   UNL A   1      47.080  27.820  24.636  1.00  0.00     0.012 A 
ATOM     74  C   UNL A   1      47.962  26.879  26.700  1.00  0.00     0.148 A 
ATOM     75  C   UNL A   1      48.187  27.345  23.935  1.00  0.00     0.002 A 
ATOM     76  C   UNL A   1      49.085  26.448  26.003  1.00  0.00     0.091 A 
ATOM     77  F   UNL A   1      47.807  26.640  28.010  1.00  0.00    -0.205 F 
ATOM     78  C   UNL A   1      49.193  26.669  24.620  1.00  0.00     0.022 A 
BRANCH  76  79
ATOM     79  S   UNL A   1      50.472  25.640  26.808  1.00  0.00     0.127 S 
ATOM     80  O   UNL A   1      50.880  26.652  27.781  1.00  0.00    -0.237 OA
ATOM     81  O   UNL A   1      49.842  24.454  27.391  1.00  0.00    -0.237 OA
ATOM     82  O   UNL A   1      51.437  25.357  25.755  1.00  0.00    -0.744 OA
ENDBRANCH  76  79
ENDBRANCH  58  72
BRANCH  59  83
ATOM     83  C   UNL A   1      38.935  30.614  31.154  1.00  0.00     0.023 A 
ATOM     84  C   UNL A   1      38.756  30.086  32.448  1.00  0.00     0.012 A 
ATOM     85  C   UNL A   1      38.020  31.567  30.670  1.00  0.00     0.148 A 
ATOM     86  C   UNL A   1      37.668  30.473  33.231  1.00  0.00     0.002 A 
ATOM     87  C   UNL A   1      36.968  31.990  31.476  1.00  0.00     0.091 A 
ATOM     88  F   UNL A   1      38.200  32.050  29.433  1.00  0.00    -0.205 F 
ATOM     89  C   UNL A   1      36.781  31.431  32.750  1.00  0.00     0.022 A 
BRANCH  87  90
ATOM     90  S   UNL A   1      35.855  33.313  30.991  1.00  0.00     0.127 S 
ATOM     91  O   UNL A   1      36.024  34.264  32.086  1.00  0.00    -0.237 OA
ATOM     92  O   UNL A   1      36.427  33.737  29.712  1.00  0.00    -0.237 OA
ATOM     93  O   UNL A   1      34.539  32.698  30.882  1.00  0.00    -0.744 OA
ENDBRANCH  87  90
ENDBRANCH  59  83
BRANCH  71  94
ATOM     94  C   UNL A   1      44.974  33.644  29.371  1.00  0.00     0.023 A 
ATOM     95  C   UNL A   1      45.712  33.863  30.551  1.00  0.00     0.012 A 
ATOM     96  C   UNL A   1      44.869  34.675  28.417  1.00  0.00     0.148 A 
ATOM     97  C   UNL A   1      46.317  35.098  30.788  1.00  0.00     0.002 A 
ATOM     98  C   UNL A   1      45.513  35.886  28.639  1.00  0.00     0.091 A 
ATOM     99  F   UNL A   1      44.144  34.451  27.311  1.00  0.00    -0.205 F 
ATOM    100  C   UNL A   1      46.227  36.103  29.827  1.00  0.00     0.022 A 
BRANCH  98 101
ATOM    101  S   UNL A   1      45.532  37.201  27.414  1.00  0.00     0.127 S 
ATOM    102  O   UNL A   1      46.448  38.163  28.024  1.00  0.00    -0.237 OA
ATOM    103  O   UNL A   1      46.063  36.518  26.233  1.00  0.00    -0.237 OA
ATOM    104  O   UNL A   1      44.152  37.646  27.282  1.00  0.00    -0.744 OA
ENDBRANCH  98 101
ENDBRANCH  71  94
ENDBRANCH  45  46
ENDBRANCH  37  40
ENDBRANCH  35  36
ENDBRANCH   1  35
TORSDOF 17
ENDMDL
MODEL 2
REMARK VINA RESULT:     -12.8      2.324      7.551
REMARK SMILES COc1ccc([C@@H]2Nc3c(C(=O)NCCCCNC(=O)c4ccc(-c5c6nc(c(-c7cccc(S(=O)(=O)[O-])c7F)c7ccc([nH]7)c(-c7cccc(S(=O)(=O)[O-])c7F)c7nc(c(-c8cccc(S(=O)(=O)[O-])c8F)c8ccc5[nH]8)C=C7)C=C6)cc4)cccc3[C@@H]3[C@H]4CC[C@H](C4)[C@H]32)cc1[N+](=O)[O-]
REMARK SMILES IDX 16 1 15 2 14 3 13 4 11 5 12 6 10 8 7 9 8 10 94 11 9 12 88 14
REMARK SMILES IDX 92 15 87 16 89 17 91 18 93 19 84 20 86 21 90 22 85 23 6 24
REMARK SMILES IDX 3 25 4 26 96 27 5 28 95 29 2 30 1 31 97 32 98 33 99 34 17 35
REMARK SMILES IDX 18 36 19 37 20 39 21 40 22 41 83 42 23 43 82 44 24 45 25 46
REMARK SMILES IDX 26 47 76 48 27 49 81 50 75 51 77 52 28 53 80 54 74 55 73 56
REMARK SMILES IDX 29 58 61 59 41 60 60 61 42 62 45 63 59 64 78 65 43 66 44 67
REMARK SMILES IDX 58 69 79 70 46 71 30 72 31 73 39 74 32 75 34 76 40 77 33 78
REMARK SMILES IDX 35 79 36 80 37 81 38 82 62 83 63 84 71 85 64 86 66 87 72 88
REMARK SMILES IDX 65 89 67 90 68 91 69 92 70 93 47 94 48 95 56 96 49 97 51 98
REMARK SMILES IDX 57 99 50 100 52 101 53 102 54 103 55 104
REMARK H PARENT 13 7 8 13 18 38 77 57 45 68
REMARK Flexibility Score: inf
ROOT
ATOM      1  C   UNL A   1      38.751  21.468  25.737  1.00  0.00     0.023 C 
ENDROOT
BRANCH   1   2
ATOM      2  C   UNL A   1      38.650  22.983  25.889  1.00  0.00     0.023 C 
BRANCH   2   3
ATOM      3  C   UNL A   1      37.316  23.630  25.538  1.00  0.00     0.116 C 
BRANCH   3   4
ATOM      4  N   UNL A   1      36.258  23.457  26.516  1.00  0.00    -0.352 N 
ATOM      5  C   UNL A   1      34.894  23.444  26.318  1.00  0.00     0.253 C 
ATOM      6  O   UNL A   1      34.150  23.147  27.250  1.00  0.00    -0.269 OA
ATOM      7  H   UNL A   1      36.553  23.331  27.446  1.00  0.00     0.163 HD
BRANCH   5   8
ATOM      8  C   UNL A   1      34.305  23.915  25.041  1.00  0.00     0.063 A 
ATOM      9  C   UNL A   1      32.541  27.244  25.713  1.00  0.00     0.114 C 
ATOM     10  N   UNL A   1      33.417  26.071  25.877  1.00  0.00    -0.377 N 
ATOM     11  C   UNL A   1      32.440  27.511  24.215  1.00  0.00     0.027 C 
ATOM     12  C   UNL A   1      33.523  25.072  24.889  1.00  0.00     0.051 A 
ATOM     13  H   UNL A   1      33.944  25.983  26.705  1.00  0.00     0.161 HD
ATOM     14  C   UNL A   1      31.749  26.271  23.634  1.00  0.00     0.030 C 
ATOM     15  C   UNL A   1      31.693  28.664  23.539  1.00  0.00    -0.005 C 
ATOM     16  C   UNL A   1      32.800  25.205  23.659  1.00  0.00    -0.020 A 
ATOM     17  C   UNL A   1      31.006  26.849  22.409  1.00  0.00    -0.003 C 
ATOM     18  C   UNL A   1      30.185  28.640  23.813  1.00  0.00     0.004 C 
ATOM     19  C   UNL A   1      31.762  28.141  22.088  1.00  0.00     0.008 C 
ATOM     20  C   UNL A   1      34.535  23.065  23.941  1.00  0.00     0.016 A 
ATOM     21  C   UNL A   1      33.008  24.336  22.585  1.00  0.00     0.006 A 
ATOM     22  C   UNL A   1      29.689  27.458  22.957  1.00  0.00     0.004 C 
ATOM     23  C   UNL A   1      33.914  23.292  22.714  1.00  0.00     0.001 A 
BRANCH   9  24
ATOM     24  C   UNL A   1      33.036  28.469  26.453  1.00  0.00    -0.018 A 
ATOM     25  C   UNL A   1      34.051  30.910  27.464  1.00  0.00     0.196 A 
ATOM     26  C   UNL A   1      34.844  29.758  27.456  1.00  0.00     0.054 A 
ATOM     27  C   UNL A   1      32.745  30.835  26.977  1.00  0.00     0.311 A 
ATOM     28  C   UNL A   1      34.340  28.548  26.965  1.00  0.00     0.010 A 
ATOM     29  C   UNL A   1      32.229  29.621  26.494  1.00  0.00     0.095 A 
BRANCH  25  30
ATOM     30  O   UNL A   1      34.661  32.069  27.853  1.00  0.00    -0.490 OA
ATOM     31  C   UNL A   1      35.061  32.019  29.222  1.00  0.00     0.278 C 
ENDBRANCH  25  30
BRANCH  27  32
ATOM     32  N   UNL A   1      31.901  32.018  26.877  1.00  0.00     0.066 N 
ATOM     33  O   UNL A   1      31.000  31.994  26.026  1.00  0.00    -0.258 OA
ATOM     34  O   UNL A   1      32.159  32.988  27.603  1.00  0.00    -0.258 OA
ENDBRANCH  27  32
ENDBRANCH   9  24
ENDBRANCH   5   8
ENDBRANCH   3   4
ENDBRANCH   2   3
ENDBRANCH   1   2
BRANCH   1  35
ATOM     35  C   UNL A   1      39.601  20.728  26.762  1.00  0.00     0.116 C 
BRANCH  35  36
ATOM     36  N   UNL A   1      40.462  19.700  26.195  1.00  0.00    -0.352 N 
ATOM     37  C   UNL A   1      41.806  19.741  25.904  1.00  0.00     0.251 C 
ATOM     38  H   UNL A   1      40.015  18.847  25.988  1.00  0.00     0.163 HD
ATOM     39  O   UNL A   1      42.350  18.774  25.376  1.00  0.00    -0.269 OA
BRANCH  37  40
ATOM     40  C   UNL A   1      42.581  20.968  26.182  1.00  0.00     0.039 A 
ATOM     41  C   UNL A   1      42.819  21.865  25.137  1.00  0.00     0.014 A 
ATOM     42  C   UNL A   1      43.006  21.267  27.477  1.00  0.00     0.014 A 
ATOM     43  C   UNL A   1      43.386  23.111  25.414  1.00  0.00     0.010 A 
ATOM     44  C   UNL A   1      43.482  22.542  27.764  1.00  0.00     0.010 A 
ATOM     45  C   UNL A   1      43.667  23.483  26.739  1.00  0.00    -0.014 A 
BRANCH  45  46
ATOM     46  C   UNL A   1      44.118  24.856  27.088  1.00  0.00     0.031 A 
ATOM     47  C   UNL A   1      43.141  25.851  27.652  1.00  0.00     0.074 A 
ATOM     48  C   UNL A   1      45.374  25.245  26.781  1.00  0.00     0.049 A 
ATOM     49  N   UNL A   1      43.313  27.122  27.907  1.00  0.00    -0.248 NA
ATOM     50  C   UNL A   1      41.780  25.362  27.932  1.00  0.00     0.031 C 
ATOM     51  C   UNL A   1      46.392  24.403  26.148  1.00  0.00     0.029 A 
ATOM     52  N   UNL A   1      45.997  26.460  26.928  1.00  0.00    -0.354 N 
ATOM     53  C   UNL A   1      42.076  27.594  28.329  1.00  0.00     0.074 A 
ATOM     54  C   UNL A   1      41.154  26.481  28.264  1.00  0.00     0.031 C 
ATOM     55  C   UNL A   1      47.509  25.125  25.964  1.00  0.00     0.029 A 
ATOM     56  C   UNL A   1      47.281  26.486  26.433  1.00  0.00     0.049 A 
ATOM     57  H   UNL A   1      45.566  27.239  27.347  1.00  0.00     0.167 HD
ATOM     58  C   UNL A   1      41.742  28.833  28.761  1.00  0.00     0.034 A 
ATOM     59  C   UNL A   1      48.173  27.495  26.360  1.00  0.00     0.034 A 
ATOM     60  C   UNL A   1      42.675  29.920  28.885  1.00  0.00     0.049 A 
ATOM     61  C   UNL A   1      47.796  28.845  26.908  1.00  0.00     0.074 A 
ATOM     62  C   UNL A   1      42.459  31.183  29.409  1.00  0.00     0.029 A 
ATOM     63  N   UNL A   1      44.000  29.874  28.482  1.00  0.00    -0.354 N 
ATOM     64  N   UNL A   1      46.668  29.227  27.455  1.00  0.00    -0.248 NA
ATOM     65  C   UNL A   1      48.827  29.893  26.864  1.00  0.00     0.031 C 
ATOM     66  C   UNL A   1      43.652  31.905  29.309  1.00  0.00     0.029 A 
ATOM     67  C   UNL A   1      44.615  31.087  28.743  1.00  0.00     0.049 A 
ATOM     68  H   UNL A   1      44.438  29.095  28.071  1.00  0.00     0.167 HD
ATOM     69  C   UNL A   1      46.865  30.544  27.856  1.00  0.00     0.074 A 
ATOM     70  C   UNL A   1      48.227  30.888  27.504  1.00  0.00     0.031 C 
ATOM     71  C   UNL A   1      45.991  31.395  28.447  1.00  0.00     0.034 A 
BRANCH  58  72
ATOM     72  C   UNL A   1      40.319  29.061  29.199  1.00  0.00     0.023 A 
ATOM     73  C   UNL A   1      39.333  29.343  28.231  1.00  0.00     0.012 A 
ATOM     74  C   UNL A   1      39.945  28.946  30.553  1.00  0.00     0.148 A 
ATOM     75  C   UNL A   1      38.006  29.544  28.605  1.00  0.00     0.002 A 
ATOM     76  C   UNL A   1      38.612  29.103  30.913  1.00  0.00     0.091 A 
ATOM     77  F   UNL A   1      40.900  28.699  31.462  1.00  0.00    -0.205 F 
ATOM     78  C   UNL A   1      37.643  29.413  29.943  1.00  0.00     0.022 A 
BRANCH  76  79
ATOM     79  S   UNL A   1      38.031  28.877  32.597  1.00  0.00     0.127 S 
ATOM     80  O   UNL A   1      38.942  29.744  33.342  1.00  0.00    -0.237 OA
ATOM     81  O   UNL A   1      36.654  29.366  32.518  1.00  0.00    -0.237 OA
ATOM     82  O   UNL A   1      38.153  27.453  32.875  1.00  0.00    -0.744 OA
ENDBRANCH  76  79
ENDBRANCH  58  72
BRANCH  59  83
ATOM     83  C   UNL A   1      49.538  27.246  25.812  1.00  0.00     0.023 A 
ATOM     84  C   UNL A   1      50.532  26.721  26.661  1.00  0.00     0.012 A 
ATOM     85  C   UNL A   1      49.850  27.493  24.462  1.00  0.00     0.148 A 
ATOM     86  C   UNL A   1      51.821  26.478  26.184  1.00  0.00     0.002 A 
ATOM     87  C   UNL A   1      51.120  27.197  23.979  1.00  0.00     0.091 A 
ATOM     88  F   UNL A   1      48.894  28.002  23.672  1.00  0.00    -0.205 F 
ATOM     89  C   UNL A   1      52.112  26.706  24.842  1.00  0.00     0.022 A 
BRANCH  87  90
ATOM     90  S   UNL A   1      51.545  27.335  22.239  1.00  0.00     0.127 S 
ATOM     91  O   UNL A   1      52.875  26.733  22.206  1.00  0.00    -0.237 OA
ATOM     92  O   UNL A   1      50.492  26.540  21.606  1.00  0.00    -0.237 OA
ATOM     93  O   UNL A   1      51.484  28.758  21.933  1.00  0.00    -0.744 OA
ENDBRANCH  87  90
ENDBRANCH  59  83
BRANCH  71  94
ATOM     94  C   UNL A   1      46.482  32.774  28.799  1.00  0.00     0.023 A 
ATOM     95  C   UNL A   1      47.160  32.986  30.015  1.00  0.00     0.012 A 
ATOM     96  C   UNL A   1      46.348  33.837  27.884  1.00  0.00     0.148 A 
ATOM     97  C   UNL A   1      47.678  34.244  30.326  1.00  0.00     0.002 A 
ATOM     98  C   UNL A   1      46.906  35.074  28.181  1.00  0.00     0.091 A 
ATOM     99  F   UNL A   1      45.680  33.618  26.742  1.00  0.00    -0.205 F 
ATOM    100  C   UNL A   1      47.562  35.282  29.404  1.00  0.00     0.022 A 
BRANCH  98 101
ATOM    101  S   UNL A   1      46.890  36.439  27.013  1.00  0.00     0.127 S 
ATOM    102  O   UNL A   1      47.649  37.459  27.734  1.00  0.00    -0.237 OA
ATOM    103  O   UNL A   1      47.582  35.868  25.856  1.00  0.00    -0.237 OA
ATOM    104  O   UNL A   1      45.486  36.751  26.780  1.00  0.00    -0.744 OA
ENDBRANCH  98 101
ENDBRANCH  71  94
ENDBRANCH  45  46
ENDBRANCH  37  40
ENDBRANCH  35  36
ENDBRANCH   1  35
TORSDOF 17
ENDMDL
MODEL 3
REMARK VINA RESULT:     -12.7      5.707     11.132
REMARK SMILES COc1ccc([C@@H]2Nc3c(C(=O)NCCCCNC(=O)c4ccc(-c5c6nc(c(-c7cccc(S(=O)(=O)[O-])c7F)c7ccc([nH]7)c(-c7cccc(S(=O)(=O)[O-])c7F)c7nc(c(-c8cccc(S(=O)(=O)[O-])c8F)c8ccc5[nH]8)C=C7)C=C6)cc4)cccc3[C@@H]3[C@H]4CC[C@H](C4)[C@H]32)cc1[N+](=O)[O-]
REMARK SMILES IDX 16 1 15 2 14 3 13 4 11 5 12 6 10 8 7 9 8 10 94 11 9 12 88 14
REMARK SMILES IDX 92 15 87 16 89 17 91 18 93 19 84 20 86 21 90 22 85 23 6 24
REMARK SMILES IDX 3 25 4 26 96 27 5 28 95 29 2 30 1 31 97 32 98 33 99 34 17 35
REMARK SMILES IDX 18 36 19 37 20 39 21 40 22 41 83 42 23 43 82 44 24 45 25 46
REMARK SMILES IDX 26 47 76 48 27 49 81 50 75 51 77 52 28 53 80 54 74 55 73 56
REMARK SMILES IDX 29 58 61 59 41 60 60 61 42 62 45 63 59 64 78 65 43 66 44 67
REMARK SMILES IDX 58 69 79 70 46 71 30 72 31 73 39 74 32 75 34 76 40 77 33 78
REMARK SMILES IDX 35 79 36 80 37 81 38 82 62 83 63 84 71 85 64 86 66 87 72 88
REMARK SMILES IDX 65 89 67 90 68 91 69 92 70 93 47 94 48 95 56 96 49 97 51 98
REMARK SMILES IDX 57 99 50 100 52 101 53 102 54 103 55 104
REMARK H PARENT 13 7 8 13 18 38 77 57 45 68
REMARK Flexibility Score: inf
ROOT
ATOM      1  C   UNL A   1      33.985  34.388  28.294  1.00  0.00     0.023 C 
ENDROOT
BRANCH   1   2
ATOM      2  C   UNL A   1      35.043  33.317  28.536  1.00  0.00     0.023 C 
BRANCH   2   3
ATOM      3  C   UNL A   1      34.557  31.957  29.025  1.00  0.00     0.116 C 
BRANCH   3   4
ATOM      4  N   UNL A   1      35.365  30.821  28.623  1.00  0.00    -0.352 N 
ATOM      5  C   UNL A   1      35.129  29.906  27.620  1.00  0.00     0.253 C 
ATOM      6  O   UNL A   1      35.997  29.084  27.333  1.00  0.00    -0.269 OA
ATOM      7  H   UNL A   1      36.194  30.684  29.136  1.00  0.00     0.163 HD
BRANCH   5   8
ATOM      8  C   UNL A   1      33.795  29.808  26.978  1.00  0.00     0.063 A 
ATOM      9  C   UNL A   1      33.700  26.565  24.946  1.00  0.00     0.114 C 
ATOM     10  N   UNL A   1      34.115  27.590  25.920  1.00  0.00    -0.377 N 
ATOM     11  C   UNL A   1      32.187  26.680  24.804  1.00  0.00     0.027 C 
ATOM     12  C   UNL A   1      33.394  28.789  26.098  1.00  0.00     0.051 A 
ATOM     13  H   UNL A   1      34.921  27.433  26.464  1.00  0.00     0.161 HD
ATOM     14  C   UNL A   1      31.945  28.075  24.213  1.00  0.00     0.030 C 
ATOM     15  C   UNL A   1      31.277  25.790  23.955  1.00  0.00    -0.005 C 
ATOM     16  C   UNL A   1      32.193  29.017  25.352  1.00  0.00    -0.020 A 
ATOM     17  C   UNL A   1      30.643  27.874  23.409  1.00  0.00    -0.003 C 
ATOM     18  C   UNL A   1      31.598  25.865  22.458  1.00  0.00     0.004 C 
ATOM     19  C   UNL A   1      29.994  26.643  24.048  1.00  0.00     0.008 C 
ATOM     20  C   UNL A   1      32.927  30.880  27.265  1.00  0.00     0.016 A 
ATOM     21  C   UNL A   1      31.355  30.101  25.619  1.00  0.00     0.006 A 
ATOM     22  C   UNL A   1      31.070  27.255  22.053  1.00  0.00     0.004 C 
ATOM     23  C   UNL A   1      31.703  31.008  26.611  1.00  0.00     0.001 A 
BRANCH   9  24
ATOM     24  C   UNL A   1      34.106  25.162  25.346  1.00  0.00    -0.018 A 
ATOM     25  C   UNL A   1      34.661  22.417  25.756  1.00  0.00     0.196 A 
ATOM     26  C   UNL A   1      33.629  23.048  26.458  1.00  0.00     0.054 A 
ATOM     27  C   UNL A   1      35.423  23.166  24.858  1.00  0.00     0.311 A 
ATOM     28  C   UNL A   1      33.359  24.408  26.263  1.00  0.00     0.010 A 
ATOM     29  C   UNL A   1      35.166  24.534  24.667  1.00  0.00     0.095 A 
BRANCH  25  30
ATOM     30  O   UNL A   1      34.777  21.066  25.923  1.00  0.00    -0.490 OA
ATOM     31  C   UNL A   1      33.726  20.363  25.260  1.00  0.00     0.278 C 
ENDBRANCH  25  30
BRANCH  27  32
ATOM     32  N   UNL A   1      36.452  22.547  24.033  1.00  0.00     0.066 N 
ATOM     33  O   UNL A   1      36.504  22.896  22.844  1.00  0.00    -0.258 OA
ATOM     34  O   UNL A   1      37.176  21.683  24.546  1.00  0.00    -0.258 OA
ENDBRANCH  27  32
ENDBRANCH   9  24
ENDBRANCH   5   8
ENDBRANCH   3   4
ENDBRANCH   2   3
ENDBRANCH   1   2
BRANCH   1  35
ATOM     35  C   UNL A   1      34.023  35.612  29.199  1.00  0.00     0.116 C 
BRANCH  35  36
ATOM     36  N   UNL A   1      32.881  35.731  30.094  1.00  0.00    -0.352 N 
ATOM     37  C   UNL A   1      32.770  35.406  31.426  1.00  0.00     0.251 C 
ATOM     38  H   UNL A   1      32.065  36.100  29.684  1.00  0.00     0.163 HD
ATOM     39  O   UNL A   1      31.693  35.535  32.002  1.00  0.00    -0.269 OA
BRANCH  37  40
ATOM     40  C   UNL A   1      33.936  34.853  32.146  1.00  0.00     0.039 A 
ATOM     41  C   UNL A   1      33.740  33.782  33.023  1.00  0.00     0.014 A 
ATOM     42  C   UNL A   1      35.221  35.339  31.904  1.00  0.00     0.014 A 
ATOM     43  C   UNL A   1      34.846  33.129  33.571  1.00  0.00     0.010 A 
ATOM     44  C   UNL A   1      36.321  34.630  32.376  1.00  0.00     0.010 A 
ATOM     45  C   UNL A   1      36.147  33.510  33.205  1.00  0.00    -0.014 A 
BRANCH  45  46
ATOM     46  C   UNL A   1      37.341  32.738  33.639  1.00  0.00     0.031 A 
ATOM     47  C   UNL A   1      38.124  33.174  34.847  1.00  0.00     0.074 A 
ATOM     48  C   UNL A   1      37.793  31.721  32.875  1.00  0.00     0.049 A 
ATOM     49  N   UNL A   1      39.254  32.705  35.312  1.00  0.00    -0.248 NA
ATOM     50  C   UNL A   1      37.588  34.312  35.613  1.00  0.00     0.031 C 
ATOM     51  C   UNL A   1      37.176  31.255  31.630  1.00  0.00     0.029 A 
ATOM     52  N   UNL A   1      38.897  30.915  33.016  1.00  0.00    -0.354 N 
ATOM     53  C   UNL A   1      39.586  33.518  36.389  1.00  0.00     0.074 A 
ATOM     54  C   UNL A   1      38.556  34.529  36.490  1.00  0.00     0.031 C 
ATOM     55  C   UNL A   1      37.908  30.250  31.124  1.00  0.00     0.029 A 
ATOM     56  C   UNL A   1      39.061  30.017  31.986  1.00  0.00     0.049 A 
ATOM     57  H   UNL A   1      39.514  30.976  33.780  1.00  0.00     0.167 HD
ATOM     58  C   UNL A   1      40.634  33.414  37.239  1.00  0.00     0.034 A 
ATOM     59  C   UNL A   1      40.034  29.112  31.757  1.00  0.00     0.034 A 
ATOM     60  C   UNL A   1      41.621  32.370  37.176  1.00  0.00     0.049 A 
ATOM     61  C   UNL A   1      41.153  28.975  32.754  1.00  0.00     0.074 A 
ATOM     62  C   UNL A   1      42.663  32.118  38.050  1.00  0.00     0.029 A 
ATOM     63  N   UNL A   1      41.688  31.405  36.183  1.00  0.00    -0.354 N 
ATOM     64  N   UNL A   1      41.360  29.649  33.859  1.00  0.00    -0.248 NA
ATOM     65  C   UNL A   1      42.153  27.929  32.493  1.00  0.00     0.031 C 
ATOM     66  C   UNL A   1      43.369  31.006  37.578  1.00  0.00     0.029 A 
ATOM     67  C   UNL A   1      42.754  30.555  36.422  1.00  0.00     0.049 A 
ATOM     68  H   UNL A   1      41.068  31.335  35.422  1.00  0.00     0.167 HD
ATOM     69  C   UNL A   1      42.487  29.084  34.445  1.00  0.00     0.074 A 
ATOM     70  C   UNL A   1      42.909  28.001  33.581  1.00  0.00     0.031 C 
ATOM     71  C   UNL A   1      43.124  29.440  35.588  1.00  0.00     0.034 A 
BRANCH  58  72
ATOM     72  C   UNL A   1      40.731  34.420  38.356  1.00  0.00     0.023 A 
ATOM     73  C   UNL A   1      41.577  35.539  38.209  1.00  0.00     0.012 A 
ATOM     74  C   UNL A   1      39.953  34.291  39.523  1.00  0.00     0.148 A 
ATOM     75  C   UNL A   1      41.676  36.493  39.220  1.00  0.00     0.002 A 
ATOM     76  C   UNL A   1      40.022  35.270  40.507  1.00  0.00     0.091 A 
ATOM     77  F   UNL A   1      39.171  33.209  39.655  1.00  0.00    -0.205 F 
ATOM     78  C   UNL A   1      40.891  36.365  40.363  1.00  0.00     0.022 A 
BRANCH  76  79
ATOM     79  S   UNL A   1      38.994  35.237  41.979  1.00  0.00     0.127 S 
ATOM     80  O   UNL A   1      39.461  34.019  42.638  1.00  0.00    -0.237 OA
ATOM     81  O   UNL A   1      39.378  36.479  42.653  1.00  0.00    -0.237 OA
ATOM     82  O   UNL A   1      37.618  35.207  41.506  1.00  0.00    -0.744 OA
ENDBRANCH  76  79
ENDBRANCH  58  72
BRANCH  59  83
ATOM     83  C   UNL A   1      39.951  28.211  30.571  1.00  0.00     0.023 A 
ATOM     84  C   UNL A   1      39.063  27.118  30.601  1.00  0.00     0.012 A 
ATOM     85  C   UNL A   1      40.715  28.442  29.412  1.00  0.00     0.148 A 
ATOM     86  C   UNL A   1      38.961  26.253  29.512  1.00  0.00     0.002 A 
ATOM     87  C   UNL A   1      40.569  27.608  28.309  1.00  0.00     0.091 A 
ATOM     88  F   UNL A   1      41.562  29.480  29.406  1.00  0.00    -0.205 F 
ATOM     89  C   UNL A   1      39.706  26.503  28.363  1.00  0.00     0.022 A 
BRANCH  87  90
ATOM     90  S   UNL A   1      41.389  27.930  26.743  1.00  0.00     0.127 S 
ATOM     91  O   UNL A   1      40.822  29.223  26.369  1.00  0.00    -0.237 OA
ATOM     92  O   UNL A   1      42.797  27.967  27.140  1.00  0.00    -0.237 OA
ATOM     93  O   UNL A   1      41.040  26.809  25.881  1.00  0.00    -0.744 OA
ENDBRANCH  87  90
ENDBRANCH  59  83
BRANCH  71  94
ATOM     94  C   UNL A   1      44.322  28.631  36.006  1.00  0.00     0.023 A 
ATOM     95  C   UNL A   1      45.614  29.046  35.627  1.00  0.00     0.012 A 
ATOM     96  C   UNL A   1      44.173  27.512  36.849  1.00  0.00     0.148 A 
ATOM     97  C   UNL A   1      46.738  28.344  36.061  1.00  0.00     0.002 A 
ATOM     98  C   UNL A   1      45.300  26.846  37.315  1.00  0.00     0.091 A 
ATOM     99  F   UNL A   1      42.933  27.122  37.180  1.00  0.00    -0.205 F 
ATOM    100  C   UNL A   1      46.581  27.253  36.914  1.00  0.00     0.022 A 
BRANCH  98 101
ATOM    101  S   UNL A   1      45.196  25.493  38.492  1.00  0.00     0.127 S 
ATOM    102  O   UNL A   1      46.602  25.126  38.649  1.00  0.00    -0.237 OA
ATOM    103  O   UNL A   1      44.601  26.142  39.661  1.00  0.00    -0.237 OA
ATOM    104  O   UNL A   1      44.351  24.483  37.870  1.00  0.00    -0.744 OA
ENDBRANCH  98 101
ENDBRANCH  71  94
ENDBRANCH  45  46
ENDBRANCH  37  40
ENDBRANCH  35  36
ENDBRANCH   1  35
TORSDOF 17
ENDMDL
