MODEL 1
REMARK VINA RESULT:     -11.6      0.000      0.000
REMARK SMILES CC(=O)N[C@H](C(=O)NC1(CC(=O)NCCCCNC(=O)c2ccc(-c3c4nc(c(-c5cccc(S(=O)(=O)[O-])c5F)c5ccc([nH]5)c(-c5cccc(S(=O)(=O)[O-])c5F)c5nc(c(-c6cccc(S(=O)(=O)[O-])c6F)c6ccc3[nH]6)C=C5)C=C4)cc2)CCC1)C(C)C
REMARK SMILES IDX 15 1 14 2 13 3 11 4 12 5 10 7 9 8 84 9 86 10 85 11 8 12 6 13
REMARK SMILES IDX 7 14 5 16 4 17 1 18 2 19 3 20 87 22 88 23 89 24 16 25 17 26
REMARK SMILES IDX 18 27 19 28 20 30 21 31 22 32 83 33 23 34 82 35 24 36 25 37
REMARK SMILES IDX 26 38 76 39 27 40 81 41 75 42 77 43 28 44 80 45 74 46 73 47
REMARK SMILES IDX 29 49 61 50 41 51 60 52 42 53 45 54 59 55 78 56 43 57 44 58
REMARK SMILES IDX 58 60 79 61 46 62 30 63 31 64 39 65 32 66 34 67 40 68 33 69
REMARK SMILES IDX 35 70 36 71 37 72 38 73 62 74 63 75 71 76 64 77 66 78 72 79
REMARK SMILES IDX 65 80 67 81 68 82 69 83 70 84 47 85 48 86 56 87 49 88 51 89
REMARK SMILES IDX 57 90 50 91 52 92 53 93 54 94 55 95
REMARK H PARENT 13 6 8 15 4 21 18 29 77 48 45 59
REMARK Flexibility Score: inf
ROOT
ATOM      1  C   UNL A   1      31.880  30.506  26.529  1.00  0.00     0.023 C 
ENDROOT
BRANCH   1   2
ATOM      2  C   UNL A   1      31.466  29.977  25.151  1.00  0.00     0.116 C 
BRANCH   2   3
ATOM      3  N   UNL A   1      32.629  29.467  24.475  1.00  0.00    -0.356 N 
ATOM      4  C   UNL A   1      32.568  28.486  23.523  1.00  0.00     0.222 C 
ATOM      5  O   UNL A   1      31.597  28.284  22.805  1.00  0.00    -0.275 OA
ATOM      6  H   UNL A   1      33.508  29.842  24.709  1.00  0.00     0.163 HD
BRANCH   4   7
ATOM      7  C   UNL A   1      33.797  27.611  23.478  1.00  0.00     0.128 C 
BRANCH   7   8
ATOM      8  C   UNL A   1      33.590  26.219  24.077  1.00  0.00     0.049 C 
ATOM      9  C   UNL A   1      32.278  26.142  24.954  1.00  0.00     0.029 C 
ATOM     10  C   UNL A   1      34.306  25.879  25.464  1.00  0.00     0.029 C 
ATOM     11  C   UNL A   1      33.137  26.568  26.169  1.00  0.00     0.005 C 
BRANCH   8  12
ATOM     12  N   UNL A   1      33.723  25.071  23.128  1.00  0.00    -0.348 N 
ATOM     13  C   UNL A   1      33.961  23.725  23.145  1.00  0.00     0.243 C 
ATOM     14  O   UNL A   1      33.724  23.164  22.064  1.00  0.00    -0.273 OA
ATOM     15  H   UNL A   1      33.602  25.383  22.201  1.00  0.00     0.164 HD
BRANCH  13  16
ATOM     16  C   UNL A   1      34.370  22.855  24.372  1.00  0.00     0.173 C 
BRANCH  16  17
ATOM     17  N   UNL A   1      33.422  21.724  24.405  1.00  0.00    -0.344 N 
ATOM     18  C   UNL A   1      31.648  22.584  25.949  1.00  0.00     0.114 C 
ATOM     19  C   UNL A   1      32.285  21.499  25.122  1.00  0.00     0.217 C 
ATOM     20  O   UNL A   1      31.748  20.395  25.027  1.00  0.00    -0.275 OA
ATOM     21  H   UNL A   1      33.656  20.991  23.792  1.00  0.00     0.164 HD
ENDBRANCH  16  17
BRANCH  16  22
ATOM     22  C   UNL A   1      35.808  22.296  24.132  1.00  0.00     0.015 C 
ATOM     23  C   UNL A   1      36.874  23.398  24.124  1.00  0.00     0.010 C 
ATOM     24  C   UNL A   1      36.209  21.230  25.158  1.00  0.00     0.010 C 
ENDBRANCH  16  22
ENDBRANCH  13  16
ENDBRANCH   8  12
ENDBRANCH   7   8
ENDBRANCH   4   7
ENDBRANCH   2   3
ENDBRANCH   1   2
BRANCH   1  25
ATOM     25  C   UNL A   1      31.664  31.999  26.723  1.00  0.00     0.023 C 
BRANCH  25  26
ATOM     26  C   UNL A   1      32.786  32.702  27.471  1.00  0.00     0.116 C 
BRANCH  26  27
ATOM     27  N   UNL A   1      32.483  34.104  27.751  1.00  0.00    -0.352 N 
ATOM     28  C   UNL A   1      33.041  34.951  28.670  1.00  0.00     0.251 C 
ATOM     29  H   UNL A   1      31.772  34.498  27.194  1.00  0.00     0.163 HD
ATOM     30  O   UNL A   1      32.555  36.064  28.857  1.00  0.00    -0.269 OA
BRANCH  28  31
ATOM     31  C   UNL A   1      34.207  34.500  29.451  1.00  0.00     0.039 A 
ATOM     32  C   UNL A   1      33.998  33.951  30.718  1.00  0.00     0.014 A 
ATOM     33  C   UNL A   1      35.494  34.581  28.914  1.00  0.00     0.014 A 
ATOM     34  C   UNL A   1      35.078  33.418  31.418  1.00  0.00     0.010 A 
ATOM     35  C   UNL A   1      36.549  33.965  29.571  1.00  0.00     0.010 A 
ATOM     36  C   UNL A   1      36.356  33.384  30.832  1.00  0.00    -0.014 A 
BRANCH  36  37
ATOM     37  C   UNL A   1      37.501  32.737  31.514  1.00  0.00     0.031 A 
ATOM     38  C   UNL A   1      38.205  31.576  30.866  1.00  0.00     0.074 A 
ATOM     39  C   UNL A   1      37.843  33.134  32.756  1.00  0.00     0.049 A 
ATOM     40  N   UNL A   1      39.183  30.844  31.331  1.00  0.00    -0.248 NA
ATOM     41  C   UNL A   1      37.727  31.164  29.535  1.00  0.00     0.031 C 
ATOM     42  C   UNL A   1      37.177  34.190  33.521  1.00  0.00     0.029 A 
ATOM     43  N   UNL A   1      38.819  32.674  33.604  1.00  0.00    -0.354 N 
ATOM     44  C   UNL A   1      39.411  29.865  30.372  1.00  0.00     0.074 A 
ATOM     45  C   UNL A   1      38.444  30.072  29.317  1.00  0.00     0.031 C 
ATOM     46  C   UNL A   1      37.769  34.303  34.720  1.00  0.00     0.029 A 
ATOM     47  C   UNL A   1      38.832  33.308  34.824  1.00  0.00     0.049 A 
ATOM     48  H   UNL A   1      39.451  31.959  33.361  1.00  0.00     0.167 HD
ATOM     49  C   UNL A   1      40.359  28.899  30.355  1.00  0.00     0.034 A 
ATOM     50  C   UNL A   1      39.607  33.105  35.907  1.00  0.00     0.034 A 
ATOM     51  C   UNL A   1      41.344  28.725  31.389  1.00  0.00     0.049 A 
ATOM     52  C   UNL A   1      40.681  32.053  35.845  1.00  0.00     0.074 A 
ATOM     53  C   UNL A   1      42.406  27.839  31.424  1.00  0.00     0.029 A 
ATOM     54  N   UNL A   1      41.382  29.445  32.573  1.00  0.00    -0.354 N 
ATOM     55  N   UNL A   1      40.991  31.245  34.860  1.00  0.00    -0.248 NA
ATOM     56  C   UNL A   1      41.537  31.909  37.031  1.00  0.00     0.031 C 
ATOM     57  C   UNL A   1      43.071  28.005  32.643  1.00  0.00     0.029 A 
ATOM     58  C   UNL A   1      42.443  29.016  33.354  1.00  0.00     0.049 A 
ATOM     59  H   UNL A   1      40.749  30.156  32.823  1.00  0.00     0.167 HD
ATOM     60  C   UNL A   1      42.097  30.524  35.291  1.00  0.00     0.074 A 
ATOM     61  C   UNL A   1      42.416  31.005  36.620  1.00  0.00     0.031 C 
ATOM     62  C   UNL A   1      42.779  29.541  34.652  1.00  0.00     0.034 A 
BRANCH  49  63
ATOM     63  C   UNL A   1      40.409  27.990  29.155  1.00  0.00     0.023 A 
ATOM     64  C   UNL A   1      39.468  26.946  29.033  1.00  0.00     0.012 A 
ATOM     65  C   UNL A   1      41.351  28.193  28.128  1.00  0.00     0.148 A 
ATOM     66  C   UNL A   1      39.489  26.095  27.930  1.00  0.00     0.002 A 
ATOM     67  C   UNL A   1      41.334  27.369  27.007  1.00  0.00     0.091 A 
ATOM     68  F   UNL A   1      42.252  29.175  28.270  1.00  0.00    -0.205 F 
ATOM     69  C   UNL A   1      40.413  26.312  26.914  1.00  0.00     0.022 A 
BRANCH  67  70
ATOM     70  S   UNL A   1      42.430  27.619  25.605  1.00  0.00     0.127 S 
ATOM     71  O   UNL A   1      42.161  26.426  24.805  1.00  0.00    -0.237 OA
ATOM     72  O   UNL A   1      41.915  28.865  25.033  1.00  0.00    -0.237 OA
ATOM     73  O   UNL A   1      43.774  27.715  26.157  1.00  0.00    -0.744 OA
ENDBRANCH  67  70
ENDBRANCH  49  63
BRANCH  50  74
ATOM     74  C   UNL A   1      39.443  33.966  37.111  1.00  0.00     0.023 A 
ATOM     75  C   UNL A   1      39.869  35.308  37.062  1.00  0.00     0.012 A 
ATOM     76  C   UNL A   1      38.842  33.479  38.288  1.00  0.00     0.148 A 
ATOM     77  C   UNL A   1      39.731  36.140  38.174  1.00  0.00     0.002 A 
ATOM     78  C   UNL A   1      38.657  34.328  39.373  1.00  0.00     0.091 A 
ATOM     79  F   UNL A   1      38.451  32.197  38.317  1.00  0.00    -0.205 F 
ATOM     80  C   UNL A   1      39.117  35.653  39.325  1.00  0.00     0.022 A 
BRANCH  78  81
ATOM     81  S   UNL A   1      37.764  33.829  40.849  1.00  0.00     0.127 S 
ATOM     82  O   UNL A   1      36.567  33.215  40.282  1.00  0.00    -0.237 OA
ATOM     83  O   UNL A   1      38.703  32.891  41.466  1.00  0.00    -0.237 OA
ATOM     84  O   UNL A   1      37.548  35.050  41.612  1.00  0.00    -0.744 OA
ENDBRANCH  78  81
ENDBRANCH  50  74
BRANCH  62  85
ATOM     85  C   UNL A   1      43.967  28.941  35.358  1.00  0.00     0.023 A 
ATOM     86  C   UNL A   1      45.247  29.502  35.182  1.00  0.00     0.012 A 
ATOM     87  C   UNL A   1      43.799  27.868  36.256  1.00  0.00     0.148 A 
ATOM     88  C   UNL A   1      46.348  28.983  35.862  1.00  0.00     0.002 A 
ATOM     89  C   UNL A   1      44.892  27.389  36.969  1.00  0.00     0.091 A 
ATOM     90  F   UNL A   1      42.576  27.336  36.397  1.00  0.00    -0.205 F 
ATOM     91  C   UNL A   1      46.169  27.937  36.764  1.00  0.00     0.022 A 
BRANCH  89  92
ATOM     92  S   UNL A   1      44.739  26.112  38.223  1.00  0.00     0.127 S 
ATOM     93  O   UNL A   1      46.105  25.595  38.289  1.00  0.00    -0.237 OA
ATOM     94  O   UNL A   1      44.320  26.879  39.397  1.00  0.00    -0.237 OA
ATOM     95  O   UNL A   1      43.740  25.177  37.726  1.00  0.00    -0.744 OA
ENDBRANCH  89  92
ENDBRANCH  62  85
ENDBRANCH  36  37
ENDBRANCH  28  31
ENDBRANCH  26  27
ENDBRANCH  25  26
ENDBRANCH   1  25
TORSDOF 19
ENDMDL
MODEL 2
REMARK VINA RESULT:     -11.3      5.663     10.741
REMARK SMILES CC(=O)N[C@H](C(=O)NC1(CC(=O)NCCCCNC(=O)c2ccc(-c3c4nc(c(-c5cccc(S(=O)(=O)[O-])c5F)c5ccc([nH]5)c(-c5cccc(S(=O)(=O)[O-])c5F)c5nc(c(-c6cccc(S(=O)(=O)[O-])c6F)c6ccc3[nH]6)C=C5)C=C4)cc2)CCC1)C(C)C
REMARK SMILES IDX 15 1 14 2 13 3 11 4 12 5 10 7 9 8 84 9 86 10 85 11 8 12 6 13
REMARK SMILES IDX 7 14 5 16 4 17 1 18 2 19 3 20 87 22 88 23 89 24 16 25 17 26
REMARK SMILES IDX 18 27 19 28 20 30 21 31 22 32 83 33 23 34 82 35 24 36 25 37
REMARK SMILES IDX 26 38 76 39 27 40 81 41 75 42 77 43 28 44 80 45 74 46 73 47
REMARK SMILES IDX 29 49 61 50 41 51 60 52 42 53 45 54 59 55 78 56 43 57 44 58
REMARK SMILES IDX 58 60 79 61 46 62 30 63 31 64 39 65 32 66 34 67 40 68 33 69
REMARK SMILES IDX 35 70 36 71 37 72 38 73 62 74 63 75 71 76 64 77 66 78 72 79
REMARK SMILES IDX 65 80 67 81 68 82 69 83 70 84 47 85 48 86 56 87 49 88 51 89
REMARK SMILES IDX 57 90 50 91 52 92 53 93 54 94 55 95
REMARK H PARENT 13 6 8 15 4 21 18 29 77 48 45 59
REMARK Flexibility Score: inf
ROOT
ATOM      1  C   UNL A   1      34.112  20.645  25.643  1.00  0.00     0.023 C 
ENDROOT
BRANCH   1   2
ATOM      2  C   UNL A   1      32.718  20.707  25.009  1.00  0.00     0.116 C 
BRANCH   2   3
ATOM      3  N   UNL A   1      32.550  21.984  24.368  1.00  0.00    -0.356 N 
ATOM      4  C   UNL A   1      31.526  22.840  24.669  1.00  0.00     0.222 C 
ATOM      5  O   UNL A   1      30.968  22.889  25.758  1.00  0.00    -0.275 OA
ATOM      6  H   UNL A   1      33.203  22.253  23.682  1.00  0.00     0.163 HD
BRANCH   4   7
ATOM      7  C   UNL A   1      31.086  23.688  23.500  1.00  0.00     0.128 C 
BRANCH   7   8
ATOM      8  C   UNL A   1      31.783  25.047  23.422  1.00  0.00     0.049 C 
ATOM      9  C   UNL A   1      31.619  25.715  21.999  1.00  0.00     0.029 C 
ATOM     10  C   UNL A   1      33.336  25.079  23.045  1.00  0.00     0.029 C 
ATOM     11  C   UNL A   1      32.920  24.991  21.576  1.00  0.00     0.005 C 
BRANCH   8  12
ATOM     12  N   UNL A   1      31.501  25.993  24.545  1.00  0.00    -0.348 N 
ATOM     13  C   UNL A   1      31.367  27.335  24.770  1.00  0.00     0.243 C 
ATOM     14  O   UNL A   1      30.876  27.608  25.876  1.00  0.00    -0.273 OA
ATOM     15  H   UNL A   1      31.372  25.494  25.384  1.00  0.00     0.164 HD
BRANCH  13  16
ATOM     16  C   UNL A   1      31.653  28.493  23.767  1.00  0.00     0.173 C 
BRANCH  16  17
ATOM     17  N   UNL A   1      30.761  29.602  24.157  1.00  0.00    -0.344 N 
ATOM     18  C   UNL A   1      29.157  29.674  22.236  1.00  0.00     0.114 C 
ATOM     19  C   UNL A   1      29.730  30.221  23.516  1.00  0.00     0.217 C 
ATOM     20  O   UNL A   1      29.228  31.213  24.047  1.00  0.00    -0.275 OA
ATOM     21  H   UNL A   1      30.947  29.966  25.053  1.00  0.00     0.164 HD
ENDBRANCH  16  17
BRANCH  16  22
ATOM     22  C   UNL A   1      33.134  28.955  23.945  1.00  0.00     0.015 C 
ATOM     23  C   UNL A   1      33.772  28.405  25.226  1.00  0.00     0.010 C 
ATOM     24  C   UNL A   1      34.021  28.579  22.752  1.00  0.00     0.010 C 
ENDBRANCH  16  22
ENDBRANCH  13  16
ENDBRANCH   8  12
ENDBRANCH   7   8
ENDBRANCH   4   7
ENDBRANCH   2   3
ENDBRANCH   1   2
BRANCH   1  25
ATOM     25  C   UNL A   1      34.555  21.933  26.322  1.00  0.00     0.023 C 
BRANCH  25  26
ATOM     26  C   UNL A   1      35.896  22.465  25.840  1.00  0.00     0.116 C 
BRANCH  26  27
ATOM     27  N   UNL A   1      36.883  21.406  25.643  1.00  0.00    -0.352 N 
ATOM     28  C   UNL A   1      38.242  21.439  25.803  1.00  0.00     0.251 C 
ATOM     29  H   UNL A   1      36.516  20.540  25.353  1.00  0.00     0.163 HD
ATOM     30  O   UNL A   1      38.927  20.482  25.452  1.00  0.00    -0.269 OA
BRANCH  28  31
ATOM     31  C   UNL A   1      38.872  22.645  26.371  1.00  0.00     0.039 A 
ATOM     32  C   UNL A   1      39.998  22.497  27.184  1.00  0.00     0.014 A 
ATOM     33  C   UNL A   1      38.376  23.914  26.065  1.00  0.00     0.014 A 
ATOM     34  C   UNL A   1      40.669  23.632  27.633  1.00  0.00     0.010 A 
ATOM     35  C   UNL A   1      39.100  25.039  26.435  1.00  0.00     0.010 A 
ATOM     36  C   UNL A   1      40.249  24.911  27.228  1.00  0.00    -0.014 A 
BRANCH  36  37
ATOM     37  C   UNL A   1      41.001  26.129  27.613  1.00  0.00     0.031 A 
ATOM     38  C   UNL A   1      40.316  27.228  28.376  1.00  0.00     0.074 A 
ATOM     39  C   UNL A   1      42.272  26.283  27.191  1.00  0.00     0.049 A 
ATOM     40  N   UNL A   1      40.787  28.389  28.747  1.00  0.00    -0.248 NA
ATOM     41  C   UNL A   1      38.906  27.008  28.743  1.00  0.00     0.031 C 
ATOM     42  C   UNL A   1      43.014  25.324  26.370  1.00  0.00     0.029 A 
ATOM     43  N   UNL A   1      43.154  27.318  27.371  1.00  0.00    -0.354 N 
ATOM     44  C   UNL A   1      39.726  29.051  29.354  1.00  0.00     0.074 A 
ATOM     45  C   UNL A   1      38.576  28.179  29.268  1.00  0.00     0.031 C 
ATOM     46  C   UNL A   1      44.241  25.811  26.126  1.00  0.00     0.029 A 
ATOM     47  C   UNL A   1      44.362  27.129  26.742  1.00  0.00     0.049 A 
ATOM     48  H   UNL A   1      42.943  28.120  27.902  1.00  0.00     0.167 HD
ATOM     49  C   UNL A   1      39.717  30.263  29.958  1.00  0.00     0.034 A 
ATOM     50  C   UNL A   1      45.442  27.930  26.663  1.00  0.00     0.034 A 
ATOM     51  C   UNL A   1      40.875  31.108  30.077  1.00  0.00     0.049 A 
ATOM     52  C   UNL A   1      45.419  29.254  27.379  1.00  0.00     0.074 A 
ATOM     53  C   UNL A   1      40.996  32.310  30.750  1.00  0.00     0.029 A 
ATOM     54  N   UNL A   1      42.108  30.843  29.503  1.00  0.00    -0.354 N 
ATOM     55  N   UNL A   1      44.459  29.791  28.091  1.00  0.00    -0.248 NA
ATOM     56  C   UNL A   1      46.642  30.066  27.309  1.00  0.00     0.031 C 
ATOM     57  C   UNL A   1      42.297  32.786  30.559  1.00  0.00     0.029 A 
ATOM     58  C   UNL A   1      42.995  31.866  29.795  1.00  0.00     0.049 A 
ATOM     59  H   UNL A   1      42.322  30.046  28.966  1.00  0.00     0.167 HD
ATOM     60  C   UNL A   1      44.972  30.984  28.586  1.00  0.00     0.074 A 
ATOM     61  C   UNL A   1      46.336  31.081  28.106  1.00  0.00     0.031 C 
ATOM     62  C   UNL A   1      44.365  31.923  29.354  1.00  0.00     0.034 A 
BRANCH  49  63
ATOM     63  C   UNL A   1      38.425  30.722  30.582  1.00  0.00     0.023 A 
ATOM     64  C   UNL A   1      38.182  30.467  31.948  1.00  0.00     0.012 A 
ATOM     65  C   UNL A   1      37.474  31.445  29.836  1.00  0.00     0.148 A 
ATOM     66  C   UNL A   1      36.998  30.887  32.551  1.00  0.00     0.002 A 
ATOM     67  C   UNL A   1      36.317  31.902  30.457  1.00  0.00     0.091 A 
ATOM     68  F   UNL A   1      37.710  31.660  28.534  1.00  0.00    -0.205 F 
ATOM     69  C   UNL A   1      36.071  31.612  31.809  1.00  0.00     0.022 A 
BRANCH  67  70
ATOM     70  S   UNL A   1      35.100  32.917  29.610  1.00  0.00     0.127 S 
ATOM     71  O   UNL A   1      35.921  34.030  29.136  1.00  0.00    -0.237 OA
ATOM     72  O   UNL A   1      34.629  32.016  28.556  1.00  0.00    -0.237 OA
ATOM     73  O   UNL A   1      34.096  33.259  30.608  1.00  0.00    -0.744 OA
ENDBRANCH  67  70
ENDBRANCH  49  63
BRANCH  50  74
ATOM     74  C   UNL A   1      46.660  27.469  25.940  1.00  0.00     0.023 A 
ATOM     75  C   UNL A   1      46.790  27.745  24.564  1.00  0.00     0.012 A 
ATOM     76  C   UNL A   1      47.699  26.790  26.606  1.00  0.00     0.148 A 
ATOM     77  C   UNL A   1      47.917  27.325  23.857  1.00  0.00     0.002 A 
ATOM     78  C   UNL A   1      48.844  26.423  25.907  1.00  0.00     0.091 A 
ATOM     79  F   UNL A   1      47.552  26.530  27.912  1.00  0.00    -0.205 F 
ATOM     80  C   UNL A   1      48.947  26.673  24.530  1.00  0.00     0.022 A 
BRANCH  78  81
ATOM     81  S   UNL A   1      50.275  25.695  26.713  1.00  0.00     0.127 S 
ATOM     82  O   UNL A   1      50.601  26.706  27.715  1.00  0.00    -0.237 OA
ATOM     83  O   UNL A   1      49.718  24.453  27.251  1.00  0.00    -0.237 OA
ATOM     84  O   UNL A   1      51.265  25.503  25.662  1.00  0.00    -0.744 OA
ENDBRANCH  78  81
ENDBRANCH  50  74
BRANCH  62  85
ATOM     85  C   UNL A   1      45.178  33.123  29.764  1.00  0.00     0.023 A 
ATOM     86  C   UNL A   1      45.963  33.074  30.933  1.00  0.00     0.012 A 
ATOM     87  C   UNL A   1      45.222  34.271  28.948  1.00  0.00     0.148 A 
ATOM     88  C   UNL A   1      46.753  34.162  31.302  1.00  0.00     0.002 A 
ATOM     89  C   UNL A   1      46.051  35.331  29.295  1.00  0.00     0.091 A 
ATOM     90  F   UNL A   1      44.454  34.305  27.849  1.00  0.00    -0.205 F 
ATOM     91  C   UNL A   1      46.807  35.284  30.478  1.00  0.00     0.022 A 
BRANCH  89  92
ATOM     92  S   UNL A   1      46.260  36.774  28.245  1.00  0.00     0.127 S 
ATOM     93  O   UNL A   1      44.921  37.360  28.274  1.00  0.00    -0.237 OA
ATOM     94  O   UNL A   1      47.277  37.538  28.968  1.00  0.00    -0.237 OA
ATOM     95  O   UNL A   1      46.693  36.268  26.949  1.00  0.00    -0.744 OA
ENDBRANCH  89  92
ENDBRANCH  62  85
ENDBRANCH  36  37
ENDBRANCH  28  31
ENDBRANCH  26  27
ENDBRANCH  25  26
ENDBRANCH   1  25
TORSDOF 19
ENDMDL
MODEL 3
REMARK VINA RESULT:     -11.2      2.415      8.276
REMARK SMILES CC(=O)N[C@H](C(=O)NC1(CC(=O)NCCCCNC(=O)c2ccc(-c3c4nc(c(-c5cccc(S(=O)(=O)[O-])c5F)c5ccc([nH]5)c(-c5cccc(S(=O)(=O)[O-])c5F)c5nc(c(-c6cccc(S(=O)(=O)[O-])c6F)c6ccc3[nH]6)C=C5)C=C4)cc2)CCC1)C(C)C
REMARK SMILES IDX 15 1 14 2 13 3 11 4 12 5 10 7 9 8 84 9 86 10 85 11 8 12 6 13
REMARK SMILES IDX 7 14 5 16 4 17 1 18 2 19 3 20 87 22 88 23 89 24 16 25 17 26
REMARK SMILES IDX 18 27 19 28 20 30 21 31 22 32 83 33 23 34 82 35 24 36 25 37
REMARK SMILES IDX 26 38 76 39 27 40 81 41 75 42 77 43 28 44 80 45 74 46 73 47
REMARK SMILES IDX 29 49 61 50 41 51 60 52 42 53 45 54 59 55 78 56 43 57 44 58
REMARK SMILES IDX 58 60 79 61 46 62 30 63 31 64 39 65 32 66 34 67 40 68 33 69
REMARK SMILES IDX 35 70 36 71 37 72 38 73 62 74 63 75 71 76 64 77 66 78 72 79
REMARK SMILES IDX 65 80 67 81 68 82 69 83 70 84 47 85 48 86 56 87 49 88 51 89
REMARK SMILES IDX 57 90 50 91 52 92 53 93 54 94 55 95
REMARK H PARENT 13 6 8 15 4 21 18 29 77 48 45 59
REMARK Flexibility Score: inf
ROOT
ATOM      1  C   UNL A   1      31.880  27.570  26.185  1.00  0.00     0.023 C 
ENDROOT
BRANCH   1   2
ATOM      2  C   UNL A   1      30.553  26.802  26.206  1.00  0.00     0.116 C 
BRANCH   2   3
ATOM      3  N   UNL A   1      30.325  26.223  24.909  1.00  0.00    -0.356 N 
ATOM      4  C   UNL A   1      30.615  24.920  24.612  1.00  0.00     0.222 C 
ATOM      5  O   UNL A   1      30.620  24.012  25.433  1.00  0.00    -0.275 OA
ATOM      6  H   UNL A   1      29.940  26.792  24.204  1.00  0.00     0.163 HD
BRANCH   4   7
ATOM      7  C   UNL A   1      31.007  24.703  23.170  1.00  0.00     0.128 C 
BRANCH   7   8
ATOM      8  C   UNL A   1      32.476  25.011  22.874  1.00  0.00     0.049 C 
ATOM      9  C   UNL A   1      32.644  26.344  22.042  1.00  0.00     0.029 C 
ATOM     10  C   UNL A   1      33.140  24.348  21.580  1.00  0.00     0.029 C 
ATOM     11  C   UNL A   1      32.535  25.487  20.758  1.00  0.00     0.005 C 
BRANCH   8  12
ATOM     12  N   UNL A   1      33.411  24.929  24.038  1.00  0.00    -0.348 N 
ATOM     13  C   UNL A   1      34.176  24.010  24.699  1.00  0.00     0.243 C 
ATOM     14  O   UNL A   1      34.989  24.514  25.490  1.00  0.00    -0.273 OA
ATOM     15  H   UNL A   1      33.503  25.814  24.460  1.00  0.00     0.164 HD
BRANCH  13  16
ATOM     16  C   UNL A   1      34.201  22.468  24.476  1.00  0.00     0.173 C 
BRANCH  16  17
ATOM     17  N   UNL A   1      35.540  22.015  24.902  1.00  0.00    -0.344 N 
ATOM     18  C   UNL A   1      36.962  22.717  22.964  1.00  0.00     0.114 C 
ATOM     19  C   UNL A   1      36.750  22.006  24.274  1.00  0.00     0.217 C 
ATOM     20  O   UNL A   1      37.694  21.452  24.841  1.00  0.00    -0.275 OA
ATOM     21  H   UNL A   1      35.564  21.647  25.814  1.00  0.00     0.164 HD
ENDBRANCH  16  17
BRANCH  16  22
ATOM     22  C   UNL A   1      33.132  21.809  25.403  1.00  0.00     0.015 C 
ATOM     23  C   UNL A   1      32.042  21.073  24.615  1.00  0.00     0.010 C 
ATOM     24  C   UNL A   1      33.744  20.839  26.420  1.00  0.00     0.010 C 
ENDBRANCH  16  22
ENDBRANCH  13  16
ENDBRANCH   8  12
ENDBRANCH   7   8
ENDBRANCH   4   7
ENDBRANCH   2   3
ENDBRANCH   1   2
BRANCH   1  25
ATOM     25  C   UNL A   1      31.784  29.009  26.671  1.00  0.00     0.023 C 
BRANCH  25  26
ATOM     26  C   UNL A   1      32.765  29.961  26.004  1.00  0.00     0.116 C 
BRANCH  26  27
ATOM     27  N   UNL A   1      32.573  31.348  26.422  1.00  0.00    -0.352 N 
ATOM     28  C   UNL A   1      33.319  32.112  27.278  1.00  0.00     0.251 C 
ATOM     29  H   UNL A   1      31.792  31.800  26.027  1.00  0.00     0.163 HD
ATOM     30  O   UNL A   1      32.920  33.223  27.619  1.00  0.00    -0.269 OA
BRANCH  28  31
ATOM     31  C   UNL A   1      34.585  31.574  27.807  1.00  0.00     0.039 A 
ATOM     32  C   UNL A   1      35.602  32.465  28.156  1.00  0.00     0.014 A 
ATOM     33  C   UNL A   1      34.747  30.200  27.997  1.00  0.00     0.014 A 
ATOM     34  C   UNL A   1      36.758  31.979  28.763  1.00  0.00     0.010 A 
ATOM     35  C   UNL A   1      35.856  29.730  28.686  1.00  0.00     0.010 A 
ATOM     36  C   UNL A   1      36.876  30.612  29.069  1.00  0.00    -0.014 A 
BRANCH  36  37
ATOM     37  C   UNL A   1      38.053  30.083  29.800  1.00  0.00     0.031 A 
ATOM     38  C   UNL A   1      38.349  30.561  31.195  1.00  0.00     0.074 A 
ATOM     39  C   UNL A   1      38.903  29.249  29.171  1.00  0.00     0.049 A 
ATOM     40  N   UNL A   1      39.359  30.263  31.969  1.00  0.00    -0.248 NA
ATOM     41  C   UNL A   1      37.404  31.524  31.786  1.00  0.00     0.031 C 
ATOM     42  C   UNL A   1      38.768  28.785  27.789  1.00  0.00     0.029 A 
ATOM     43  N   UNL A   1      40.067  28.665  29.604  1.00  0.00    -0.354 N 
ATOM     44  C   UNL A   1      39.194  31.027  33.118  1.00  0.00     0.074 A 
ATOM     45  C   UNL A   1      38.007  31.831  32.925  1.00  0.00     0.031 C 
ATOM     46  C   UNL A   1      39.802  27.982  27.491  1.00  0.00     0.029 A 
ATOM     47  C   UNL A   1      40.691  27.901  28.646  1.00  0.00     0.049 A 
ATOM     48  H   UNL A   1      40.422  28.782  30.516  1.00  0.00     0.167 HD
ATOM     49  C   UNL A   1      39.942  31.036  34.246  1.00  0.00     0.034 A 
ATOM     50  C   UNL A   1      41.851  27.218  28.691  1.00  0.00     0.034 A 
ATOM     51  C   UNL A   1      41.097  30.203  34.447  1.00  0.00     0.049 A 
ATOM     52  C   UNL A   1      42.642  27.212  29.971  1.00  0.00     0.074 A 
ATOM     53  C   UNL A   1      41.871  30.067  35.586  1.00  0.00     0.029 A 
ATOM     54  N   UNL A   1      41.650  29.373  33.484  1.00  0.00    -0.354 N 
ATOM     55  N   UNL A   1      42.380  27.810  31.107  1.00  0.00    -0.248 NA
ATOM     56  C   UNL A   1      43.871  26.406  29.986  1.00  0.00     0.031 C 
ATOM     57  C   UNL A   1      42.908  29.173  35.302  1.00  0.00     0.029 A 
ATOM     58  C   UNL A   1      42.763  28.728  33.998  1.00  0.00     0.049 A 
ATOM     59  H   UNL A   1      41.303  29.258  32.570  1.00  0.00     0.167 HD
ATOM     60  C   UNL A   1      43.388  27.426  31.983  1.00  0.00     0.074 A 
ATOM     61  C   UNL A   1      44.255  26.526  31.250  1.00  0.00     0.031 C 
ATOM     62  C   UNL A   1      43.587  27.795  33.273  1.00  0.00     0.034 A 
BRANCH  49  63
ATOM     63  C   UNL A   1      39.503  31.938  35.369  1.00  0.00     0.023 A 
ATOM     64  C   UNL A   1      39.831  33.310  35.329  1.00  0.00     0.012 A 
ATOM     65  C   UNL A   1      38.728  31.446  36.437  1.00  0.00     0.148 A 
ATOM     66  C   UNL A   1      39.432  34.167  36.352  1.00  0.00     0.002 A 
ATOM     67  C   UNL A   1      38.292  32.317  37.429  1.00  0.00     0.091 A 
ATOM     68  F   UNL A   1      38.443  30.136  36.471  1.00  0.00    -0.205 F 
ATOM     69  C   UNL A   1      38.654  33.674  37.395  1.00  0.00     0.022 A 
BRANCH  67  70
ATOM     70  S   UNL A   1      37.216  31.797  38.771  1.00  0.00     0.127 S 
ATOM     71  O   UNL A   1      38.091  31.959  39.931  1.00  0.00    -0.237 OA
ATOM     72  O   UNL A   1      36.128  32.772  38.687  1.00  0.00    -0.237 OA
ATOM     73  O   UNL A   1      36.827  30.427  38.466  1.00  0.00    -0.744 OA
ENDBRANCH  67  70
ENDBRANCH  49  63
BRANCH  50  74
ATOM     74  C   UNL A   1      42.293  26.425  27.510  1.00  0.00     0.023 A 
ATOM     75  C   UNL A   1      43.070  27.048  26.513  1.00  0.00     0.012 A 
ATOM     76  C   UNL A   1      41.980  25.058  27.382  1.00  0.00     0.148 A 
ATOM     77  C   UNL A   1      43.499  26.334  25.394  1.00  0.00     0.002 A 
ATOM     78  C   UNL A   1      42.457  24.338  26.291  1.00  0.00     0.091 A 
ATOM     79  F   UNL A   1      41.234  24.485  28.336  1.00  0.00    -0.205 F 
ATOM     80  C   UNL A   1      43.200  24.978  25.288  1.00  0.00     0.022 A 
BRANCH  78  81
ATOM     81  S   UNL A   1      42.233  22.563  26.133  1.00  0.00     0.127 S 
ATOM     82  O   UNL A   1      40.778  22.445  26.113  1.00  0.00    -0.237 OA
ATOM     83  O   UNL A   1      42.891  22.290  24.854  1.00  0.00    -0.237 OA
ATOM     84  O   UNL A   1      42.899  21.976  27.288  1.00  0.00    -0.744 OA
ENDBRANCH  78  81
ENDBRANCH  50  74
BRANCH  62  85
ATOM     85  C   UNL A   1      44.766  27.199  33.997  1.00  0.00     0.023 A 
ATOM     86  C   UNL A   1      45.972  27.921  34.088  1.00  0.00     0.012 A 
ATOM     87  C   UNL A   1      44.651  25.957  34.652  1.00  0.00     0.148 A 
ATOM     88  C   UNL A   1      47.057  27.400  34.791  1.00  0.00     0.002 A 
ATOM     89  C   UNL A   1      45.719  25.468  35.393  1.00  0.00     0.091 A 
ATOM     90  F   UNL A   1      43.500  25.277  34.538  1.00  0.00    -0.205 F 
ATOM     91  C   UNL A   1      46.928  26.181  35.454  1.00  0.00     0.022 A 
BRANCH  89  92
ATOM     92  S   UNL A   1      45.610  23.957  36.359  1.00  0.00     0.127 S 
ATOM     93  O   UNL A   1      44.809  23.101  35.485  1.00  0.00    -0.237 OA
ATOM     94  O   UNL A   1      47.014  23.564  36.479  1.00  0.00    -0.237 OA
ATOM     95  O   UNL A   1      44.978  24.330  37.618  1.00  0.00    -0.744 OA
ENDBRANCH  89  92
ENDBRANCH  62  85
ENDBRANCH  36  37
ENDBRANCH  28  31
ENDBRANCH  26  27
ENDBRANCH  25  26
ENDBRANCH   1  25
TORSDOF 19
ENDMDL
