MODEL 1
REMARK VINA RESULT:     -12.1      0.000      0.000
REMARK SMILES CN(C)C(=O)c1ccc2c(c1)N(CC(=O)NCCCCNC(=O)c1ccc(-c3c4nc(c(-c5cccc(S(=O)(=O)[O-])c5F)c5ccc([nH]5)c(-c5cccc(S(=O)(=O)[O-])c5F)c5nc(c(-c6cccc(S(=O)(=O)[O-])c6F)c6ccc3[nH]6)C=C5)C=C4)cc1)C(=O)[C@@H]1CCCCN21
REMARK SMILES IDX 19 1 18 2 17 3 16 4 14 5 15 6 13 8 12 9 6 10 7 11 11 12 8 13
REMARK SMILES IDX 10 14 9 15 94 16 87 17 89 18 93 19 88 20 90 21 92 22 91 23
REMARK SMILES IDX 4 24 1 25 2 26 3 27 5 28 20 29 21 30 22 31 23 33 24 34 25 35
REMARK SMILES IDX 86 36 26 37 85 38 27 39 28 40 29 41 79 42 30 43 84 44 78 45
REMARK SMILES IDX 80 46 31 47 83 48 77 49 76 50 32 52 64 53 44 54 63 55 45 56
REMARK SMILES IDX 48 57 62 58 81 59 46 60 47 61 61 63 82 64 49 65 33 66 34 67
REMARK SMILES IDX 42 68 35 69 37 70 43 71 36 72 38 73 39 74 40 75 41 76 65 77
REMARK SMILES IDX 66 78 74 79 67 80 69 81 75 82 68 83 70 84 71 85 72 86 73 87
REMARK SMILES IDX 50 88 51 89 59 90 52 91 54 92 60 93 53 94 55 95 56 96 57 97
REMARK SMILES IDX 58 98
REMARK H PARENT 16 7 21 32 80 51 48 62
REMARK Flexibility Score: inf
ROOT
ATOM      1  C   UNL A   1      40.818  20.152  27.329  1.00  0.00     0.023 C 
ENDROOT
BRANCH   1   2
ATOM      2  C   UNL A   1      40.491  21.646  27.237  1.00  0.00     0.023 C 
BRANCH   2   3
ATOM      3  C   UNL A   1      39.617  22.044  26.050  1.00  0.00     0.116 C 
BRANCH   3   4
ATOM      4  N   UNL A   1      38.629  23.042  26.399  1.00  0.00    -0.355 N 
ATOM      5  C   UNL A   1      37.479  23.383  25.755  1.00  0.00     0.240 C 
ATOM      6  O   UNL A   1      36.708  24.153  26.338  1.00  0.00    -0.273 OA
ATOM      7  H   UNL A   1      38.815  23.548  27.222  1.00  0.00     0.163 HD
BRANCH   5   8
ATOM      8  C   UNL A   1      37.078  22.755  24.413  1.00  0.00     0.225 C 
BRANCH   8   9
ATOM      9  N   UNL A   1      35.811  22.016  24.368  1.00  0.00    -0.299 N 
ATOM     10  C   UNL A   1      33.469  24.594  22.990  1.00  0.00     0.042 A 
ATOM     11  C   UNL A   1      32.316  23.849  22.805  1.00  0.00     0.016 A 
ATOM     12  C   UNL A   1      34.603  24.000  23.546  1.00  0.00     0.042 A 
ATOM     13  C   UNL A   1      32.312  22.496  23.151  1.00  0.00     0.029 A 
ATOM     14  C   UNL A   1      34.614  22.631  23.881  1.00  0.00     0.069 A 
ATOM     15  C   UNL A   1      33.441  21.850  23.697  1.00  0.00     0.062 A 
ATOM     16  N   UNL A   1      33.403  20.500  24.039  1.00  0.00    -0.358 N 
ATOM     17  C   UNL A   1      35.808  20.709  24.834  1.00  0.00     0.250 C 
ATOM     18  C   UNL A   1      34.470  19.966  24.899  1.00  0.00     0.172 C 
ATOM     19  C   UNL A   1      32.407  19.576  23.484  1.00  0.00     0.117 C 
ATOM     20  O   UNL A   1      36.836  20.173  25.265  1.00  0.00    -0.272 OA
ATOM     21  C   UNL A   1      34.717  18.490  24.564  1.00  0.00     0.035 C 
ATOM     22  C   UNL A   1      32.206  18.311  24.319  1.00  0.00     0.022 C 
ATOM     23  C   UNL A   1      33.478  17.662  24.846  1.00  0.00     0.004 C 
BRANCH  10  24
ATOM     24  C   UNL A   1      33.450  26.034  22.655  1.00  0.00     0.253 C 
ATOM     25  C   UNL A   1      32.984  28.349  23.270  1.00  0.00     0.146 C 
ATOM     26  N   UNL A   1      33.125  26.954  23.647  1.00  0.00    -0.345 N 
ATOM     27  C   UNL A   1      33.023  26.655  25.069  1.00  0.00     0.146 C 
ATOM     28  O   UNL A   1      33.728  26.345  21.498  1.00  0.00    -0.269 OA
ENDBRANCH  10  24
ENDBRANCH   8   9
ENDBRANCH   5   8
ENDBRANCH   3   4
ENDBRANCH   2   3
ENDBRANCH   1   2
BRANCH   1  29
ATOM     29  C   UNL A   1      42.300  19.798  27.430  1.00  0.00     0.116 C 
BRANCH  29  30
ATOM     30  N   UNL A   1      42.835  19.160  26.238  1.00  0.00    -0.352 N 
ATOM     31  C   UNL A   1      43.651  19.699  25.268  1.00  0.00     0.251 C 
ATOM     32  H   UNL A   1      42.581  18.217  26.107  1.00  0.00     0.163 HD
ATOM     33  O   UNL A   1      43.950  19.038  24.278  1.00  0.00    -0.269 OA
BRANCH  31  34
ATOM     34  C   UNL A   1      44.114  21.099  25.403  1.00  0.00     0.039 A 
ATOM     35  C   UNL A   1      45.297  21.396  26.085  1.00  0.00     0.014 A 
ATOM     36  C   UNL A   1      43.314  22.128  24.900  1.00  0.00     0.014 A 
ATOM     37  C   UNL A   1      45.584  22.717  26.417  1.00  0.00     0.010 A 
ATOM     38  C   UNL A   1      43.644  23.459  25.175  1.00  0.00     0.010 A 
ATOM     39  C   UNL A   1      44.747  23.761  25.991  1.00  0.00    -0.014 A 
BRANCH  39  40
ATOM     40  C   UNL A   1      45.014  25.150  26.445  1.00  0.00     0.031 A 
ATOM     41  C   UNL A   1      46.391  25.750  26.313  1.00  0.00     0.074 A 
ATOM     42  C   UNL A   1      44.005  25.898  26.933  1.00  0.00     0.049 A 
ATOM     43  N   UNL A   1      46.800  26.950  26.635  1.00  0.00    -0.248 NA
ATOM     44  C   UNL A   1      47.449  24.895  25.745  1.00  0.00     0.031 C 
ATOM     45  C   UNL A   1      42.629  25.436  27.120  1.00  0.00     0.029 A 
ATOM     46  N   UNL A   1      43.978  27.206  27.348  1.00  0.00    -0.354 N 
ATOM     47  C   UNL A   1      48.159  26.983  26.353  1.00  0.00     0.074 A 
ATOM     48  C   UNL A   1      48.514  25.681  25.832  1.00  0.00     0.031 C 
ATOM     49  C   UNL A   1      41.884  26.454  27.576  1.00  0.00     0.029 A 
ATOM     50  C   UNL A   1      42.734  27.626  27.755  1.00  0.00     0.049 A 
ATOM     51  H   UNL A   1      44.772  27.787  27.353  1.00  0.00     0.167 HD
ATOM     52  C   UNL A   1      49.031  28.008  26.491  1.00  0.00     0.034 A 
ATOM     53  C   UNL A   1      42.321  28.819  28.225  1.00  0.00     0.034 A 
ATOM     54  C   UNL A   1      48.675  29.324  26.946  1.00  0.00     0.049 A 
ATOM     55  C   UNL A   1      43.306  29.945  28.358  1.00  0.00     0.074 A 
ATOM     56  C   UNL A   1      49.487  30.438  27.067  1.00  0.00     0.029 A 
ATOM     57  N   UNL A   1      47.405  29.707  27.343  1.00  0.00    -0.354 N 
ATOM     58  N   UNL A   1      44.571  29.973  28.016  1.00  0.00    -0.248 NA
ATOM     59  C   UNL A   1      42.808  31.205  28.929  1.00  0.00     0.031 C 
ATOM     60  C   UNL A   1      48.706  31.498  27.538  1.00  0.00     0.029 A 
ATOM     61  C   UNL A   1      47.409  31.041  27.711  1.00  0.00     0.049 A 
ATOM     62  H   UNL A   1      46.616  29.118  27.361  1.00  0.00     0.167 HD
ATOM     63  C   UNL A   1      45.019  31.251  28.325  1.00  0.00     0.074 A 
ATOM     64  C   UNL A   1      43.885  31.977  28.858  1.00  0.00     0.031 C 
ATOM     65  C   UNL A   1      46.266  31.765  28.199  1.00  0.00     0.034 A 
BRANCH  52  66
ATOM     66  C   UNL A   1      50.462  27.779  26.088  1.00  0.00     0.023 A 
ATOM     67  C   UNL A   1      51.407  27.449  27.079  1.00  0.00     0.012 A 
ATOM     68  C   UNL A   1      50.846  27.788  24.733  1.00  0.00     0.148 A 
ATOM     69  C   UNL A   1      52.720  27.138  26.729  1.00  0.00     0.002 A 
ATOM     70  C   UNL A   1      52.150  27.453  24.390  1.00  0.00     0.091 A 
ATOM     71  F   UNL A   1      49.930  28.119  23.813  1.00  0.00    -0.205 F 
ATOM     72  C   UNL A   1      53.089  27.131  25.385  1.00  0.00     0.022 A 
BRANCH  70  73
ATOM     73  S   UNL A   1      52.717  27.365  22.686  1.00  0.00     0.127 S 
ATOM     74  O   UNL A   1      53.025  28.768  22.408  1.00  0.00    -0.237 OA
ATOM     75  O   UNL A   1      53.887  26.495  22.798  1.00  0.00    -0.237 OA
ATOM     76  O   UNL A   1      51.610  26.810  21.922  1.00  0.00    -0.744 OA
ENDBRANCH  70  73
ENDBRANCH  52  66
BRANCH  53  77
ATOM     77  C   UNL A   1      40.883  29.011  28.553  1.00  0.00     0.023 A 
ATOM     78  C   UNL A   1      39.964  29.217  27.507  1.00  0.00     0.012 A 
ATOM     79  C   UNL A   1      40.416  28.910  29.877  1.00  0.00     0.148 A 
ATOM     80  C   UNL A   1      38.599  29.319  27.777  1.00  0.00     0.002 A 
ATOM     81  C   UNL A   1      39.052  28.969  30.133  1.00  0.00     0.091 A 
ATOM     82  F   UNL A   1      41.316  28.725  30.852  1.00  0.00    -0.205 F 
ATOM     83  C   UNL A   1      38.142  29.183  29.086  1.00  0.00     0.022 A 
BRANCH  81  84
ATOM     84  S   UNL A   1      38.362  28.688  31.767  1.00  0.00     0.127 S 
ATOM     85  O   UNL A   1      36.951  29.001  31.552  1.00  0.00    -0.237 OA
ATOM     86  O   UNL A   1      38.654  27.269  31.974  1.00  0.00    -0.237 OA
ATOM     87  O   UNL A   1      39.077  29.588  32.659  1.00  0.00    -0.744 OA
ENDBRANCH  81  84
ENDBRANCH  53  77
BRANCH  65  88
ATOM     88  C   UNL A   1      46.492  33.180  28.649  1.00  0.00     0.023 A 
ATOM     89  C   UNL A   1      46.962  33.414  29.955  1.00  0.00     0.012 A 
ATOM     90  C   UNL A   1      46.358  34.258  27.752  1.00  0.00     0.148 A 
ATOM     91  C   UNL A   1      47.291  34.704  30.367  1.00  0.00     0.002 A 
ATOM     92  C   UNL A   1      46.716  35.537  28.160  1.00  0.00     0.091 A 
ATOM     93  F   UNL A   1      45.897  34.007  26.518  1.00  0.00    -0.205 F 
ATOM     94  C   UNL A   1      47.179  35.763  29.468  1.00  0.00     0.022 A 
BRANCH  92  95
ATOM     95  S   UNL A   1      46.675  36.953  27.055  1.00  0.00     0.127 S 
ATOM     96  O   UNL A   1      45.238  37.189  26.928  1.00  0.00    -0.237 OA
ATOM     97  O   UNL A   1      47.395  37.967  27.825  1.00  0.00    -0.237 OA
ATOM     98  O   UNL A   1      47.345  36.529  25.833  1.00  0.00    -0.744 OA
ENDBRANCH  92  95
ENDBRANCH  65  88
ENDBRANCH  39  40
ENDBRANCH  31  34
ENDBRANCH  29  30
ENDBRANCH   1  29
TORSDOF 16
ENDMDL
MODEL 2
REMARK VINA RESULT:     -12.0      0.478      7.564
REMARK SMILES CN(C)C(=O)c1ccc2c(c1)N(CC(=O)NCCCCNC(=O)c1ccc(-c3c4nc(c(-c5cccc(S(=O)(=O)[O-])c5F)c5ccc([nH]5)c(-c5cccc(S(=O)(=O)[O-])c5F)c5nc(c(-c6cccc(S(=O)(=O)[O-])c6F)c6ccc3[nH]6)C=C5)C=C4)cc1)C(=O)[C@@H]1CCCCN21
REMARK SMILES IDX 19 1 18 2 17 3 16 4 14 5 15 6 13 8 12 9 6 10 7 11 11 12 8 13
REMARK SMILES IDX 10 14 9 15 94 16 87 17 89 18 93 19 88 20 90 21 92 22 91 23
REMARK SMILES IDX 4 24 1 25 2 26 3 27 5 28 20 29 21 30 22 31 23 33 24 34 25 35
REMARK SMILES IDX 86 36 26 37 85 38 27 39 28 40 29 41 79 42 30 43 84 44 78 45
REMARK SMILES IDX 80 46 31 47 83 48 77 49 76 50 32 52 64 53 44 54 63 55 45 56
REMARK SMILES IDX 48 57 62 58 81 59 46 60 47 61 61 63 82 64 49 65 33 66 34 67
REMARK SMILES IDX 42 68 35 69 37 70 43 71 36 72 38 73 39 74 40 75 41 76 65 77
REMARK SMILES IDX 66 78 74 79 67 80 69 81 75 82 68 83 70 84 71 85 72 86 73 87
REMARK SMILES IDX 50 88 51 89 59 90 52 91 54 92 60 93 53 94 55 95 56 96 57 97
REMARK SMILES IDX 58 98
REMARK H PARENT 16 7 21 32 80 51 48 62
REMARK Flexibility Score: inf
ROOT
ATOM      1  C   UNL A   1      40.748  19.604  26.201  1.00  0.00     0.023 C 
ENDROOT
BRANCH   1   2
ATOM      2  C   UNL A   1      40.349  20.960  26.794  1.00  0.00     0.023 C 
BRANCH   2   3
ATOM      3  C   UNL A   1      39.889  22.000  25.775  1.00  0.00     0.116 C 
BRANCH   3   4
ATOM      4  N   UNL A   1      38.858  22.871  26.299  1.00  0.00    -0.355 N 
ATOM      5  C   UNL A   1      37.633  23.168  25.787  1.00  0.00     0.240 C 
ATOM      6  O   UNL A   1      36.858  23.810  26.503  1.00  0.00    -0.273 OA
ATOM      7  H   UNL A   1      39.076  23.313  27.151  1.00  0.00     0.163 HD
BRANCH   5   8
ATOM      8  C   UNL A   1      37.166  22.633  24.426  1.00  0.00     0.225 C 
BRANCH   8   9
ATOM      9  N   UNL A   1      35.891  21.908  24.390  1.00  0.00    -0.299 N 
ATOM     10  C   UNL A   1      33.552  24.537  23.106  1.00  0.00     0.042 A 
ATOM     11  C   UNL A   1      32.388  23.808  22.928  1.00  0.00     0.016 A 
ATOM     12  C   UNL A   1      34.689  23.920  23.630  1.00  0.00     0.042 A 
ATOM     13  C   UNL A   1      32.375  22.449  23.247  1.00  0.00     0.029 A 
ATOM     14  C   UNL A   1      34.692  22.545  23.937  1.00  0.00     0.069 A 
ATOM     15  C   UNL A   1      33.507  21.779  23.759  1.00  0.00     0.062 A 
ATOM     16  N   UNL A   1      33.461  20.423  24.074  1.00  0.00    -0.358 N 
ATOM     17  C   UNL A   1      35.882  20.592  24.829  1.00  0.00     0.250 C 
ATOM     18  C   UNL A   1      34.537  19.861  24.904  1.00  0.00     0.172 C 
ATOM     19  C   UNL A   1      32.445  19.522  23.519  1.00  0.00     0.117 C 
ATOM     20  O   UNL A   1      36.912  20.036  25.231  1.00  0.00    -0.272 OA
ATOM     21  C   UNL A   1      34.763  18.390  24.535  1.00  0.00     0.035 C 
ATOM     22  C   UNL A   1      32.245  18.242  24.332  1.00  0.00     0.022 C 
ATOM     23  C   UNL A   1      33.520  17.569  24.822  1.00  0.00     0.004 C 
BRANCH  10  24
ATOM     24  C   UNL A   1      33.542  25.984  22.801  1.00  0.00     0.253 C 
ATOM     25  C   UNL A   1      33.126  28.291  23.475  1.00  0.00     0.146 C 
ATOM     26  N   UNL A   1      33.260  26.888  23.821  1.00  0.00    -0.345 N 
ATOM     27  C   UNL A   1      33.196  26.561  25.239  1.00  0.00     0.146 C 
ATOM     28  O   UNL A   1      33.790  26.315  21.643  1.00  0.00    -0.269 OA
ENDBRANCH  10  24
ENDBRANCH   8   9
ENDBRANCH   5   8
ENDBRANCH   3   4
ENDBRANCH   2   3
ENDBRANCH   1   2
BRANCH   1  29
ATOM     29  C   UNL A   1      42.115  19.068  26.622  1.00  0.00     0.116 C 
BRANCH  29  30
ATOM     30  N   UNL A   1      43.032  18.861  25.513  1.00  0.00    -0.352 N 
ATOM     31  C   UNL A   1      43.835  19.783  24.878  1.00  0.00     0.251 C 
ATOM     32  H   UNL A   1      43.087  17.939  25.170  1.00  0.00     0.163 HD
ATOM     33  O   UNL A   1      44.498  19.452  23.900  1.00  0.00    -0.269 OA
BRANCH  31  34
ATOM     34  C   UNL A   1      43.846  21.185  25.353  1.00  0.00     0.039 A 
ATOM     35  C   UNL A   1      43.474  22.230  24.503  1.00  0.00     0.014 A 
ATOM     36  C   UNL A   1      44.301  21.459  26.646  1.00  0.00     0.014 A 
ATOM     37  C   UNL A   1      43.728  23.546  24.880  1.00  0.00     0.010 A 
ATOM     38  C   UNL A   1      44.488  22.785  27.048  1.00  0.00     0.010 A 
ATOM     39  C   UNL A   1      44.264  23.837  26.145  1.00  0.00    -0.014 A 
BRANCH  39  40
ATOM     40  C   UNL A   1      44.624  25.237  26.487  1.00  0.00     0.031 A 
ATOM     41  C   UNL A   1      43.608  26.162  27.108  1.00  0.00     0.074 A 
ATOM     42  C   UNL A   1      45.884  25.670  26.285  1.00  0.00     0.049 A 
ATOM     43  N   UNL A   1      43.752  27.405  27.491  1.00  0.00    -0.248 NA
ATOM     44  C   UNL A   1      42.254  25.625  27.332  1.00  0.00     0.031 C 
ATOM     45  C   UNL A   1      46.959  24.879  25.684  1.00  0.00     0.029 A 
ATOM     46  N   UNL A   1      46.475  26.874  26.574  1.00  0.00    -0.354 N 
ATOM     47  C   UNL A   1      42.508  27.811  27.957  1.00  0.00     0.074 A 
ATOM     48  C   UNL A   1      41.614  26.684  27.811  1.00  0.00     0.031 C 
ATOM     49  C   UNL A   1      48.088  25.604  25.685  1.00  0.00     0.029 A 
ATOM     50  C   UNL A   1      47.809  26.923  26.244  1.00  0.00     0.049 A 
ATOM     51  H   UNL A   1      45.991  27.629  26.980  1.00  0.00     0.167 HD
ATOM     52  C   UNL A   1      42.146  29.005  28.480  1.00  0.00     0.034 A 
ATOM     53  C   UNL A   1      48.708  27.919  26.370  1.00  0.00     0.034 A 
ATOM     54  C   UNL A   1      43.044  30.108  28.690  1.00  0.00     0.049 A 
ATOM     55  C   UNL A   1      48.283  29.230  26.965  1.00  0.00     0.074 A 
ATOM     56  C   UNL A   1      42.771  31.337  29.262  1.00  0.00     0.029 A 
ATOM     57  N   UNL A   1      44.385  30.114  28.345  1.00  0.00    -0.354 N 
ATOM     58  N   UNL A   1      47.120  29.565  27.466  1.00  0.00    -0.248 NA
ATOM     59  C   UNL A   1      49.295  30.295  27.025  1.00  0.00     0.031 C 
ATOM     60  C   UNL A   1      43.950  32.089  29.265  1.00  0.00     0.029 A 
ATOM     61  C   UNL A   1      44.955  31.326  28.692  1.00  0.00     0.049 A 
ATOM     62  H   UNL A   1      44.862  29.367  27.916  1.00  0.00     0.167 HD
ATOM     63  C   UNL A   1      47.259  30.876  27.904  1.00  0.00     0.074 A 
ATOM     64  C   UNL A   1      48.627  31.267  27.634  1.00  0.00     0.031 C 
ATOM     65  C   UNL A   1      46.327  31.688  28.458  1.00  0.00     0.034 A 
BRANCH  52  66
ATOM     66  C   UNL A   1      40.722  29.176  28.931  1.00  0.00     0.023 A 
ATOM     67  C   UNL A   1      39.719  29.384  27.964  1.00  0.00     0.012 A 
ATOM     68  C   UNL A   1      40.365  29.031  30.285  1.00  0.00     0.148 A 
ATOM     69  C   UNL A   1      38.378  29.453  28.339  1.00  0.00     0.002 A 
ATOM     70  C   UNL A   1      39.024  29.076  30.649  1.00  0.00     0.091 A 
ATOM     71  F   UNL A   1      41.340  28.848  31.186  1.00  0.00    -0.205 F 
ATOM     72  C   UNL A   1      38.030  29.290  29.678  1.00  0.00     0.022 A 
BRANCH  70  73
ATOM     73  S   UNL A   1      38.463  28.829  32.338  1.00  0.00     0.127 S 
ATOM     74  O   UNL A   1      38.933  27.470  32.606  1.00  0.00    -0.237 OA
ATOM     75  O   UNL A   1      39.187  29.876  33.057  1.00  0.00    -0.237 OA
ATOM     76  O   UNL A   1      37.017  28.991  32.310  1.00  0.00    -0.744 OA
ENDBRANCH  70  73
ENDBRANCH  52  66
BRANCH  53  77
ATOM     77  C   UNL A   1      50.119  27.677  25.964  1.00  0.00     0.023 A 
ATOM     78  C   UNL A   1      51.069  27.351  26.950  1.00  0.00     0.012 A 
ATOM     79  C   UNL A   1      50.500  27.688  24.609  1.00  0.00     0.148 A 
ATOM     80  C   UNL A   1      52.381  27.040  26.591  1.00  0.00     0.002 A 
ATOM     81  C   UNL A   1      51.797  27.335  24.256  1.00  0.00     0.091 A 
ATOM     82  F   UNL A   1      49.577  28.013  23.695  1.00  0.00    -0.205 F 
ATOM     83  C   UNL A   1      52.741  27.020  25.246  1.00  0.00     0.022 A 
BRANCH  81  84
ATOM     84  S   UNL A   1      52.321  27.166  22.547  1.00  0.00     0.127 S 
ATOM     85  O   UNL A   1      52.785  28.517  22.243  1.00  0.00    -0.237 OA
ATOM     86  O   UNL A   1      53.379  26.161  22.657  1.00  0.00    -0.237 OA
ATOM     87  O   UNL A   1      51.143  26.726  21.813  1.00  0.00    -0.744 OA
ENDBRANCH  81  84
ENDBRANCH  53  77
BRANCH  65  88
ATOM     88  C   UNL A   1      46.735  33.091  28.810  1.00  0.00     0.023 A 
ATOM     89  C   UNL A   1      47.330  33.335  30.062  1.00  0.00     0.012 A 
ATOM     90  C   UNL A   1      46.643  34.132  27.865  1.00  0.00     0.148 A 
ATOM     91  C   UNL A   1      47.822  34.600  30.374  1.00  0.00     0.002 A 
ATOM     92  C   UNL A   1      47.163  35.383  28.172  1.00  0.00     0.091 A 
ATOM     93  F   UNL A   1      46.061  33.873  26.685  1.00  0.00    -0.205 F 
ATOM     94  C   UNL A   1      47.750  35.621  29.427  1.00  0.00     0.022 A 
BRANCH  92  95
ATOM     95  S   UNL A   1      47.182  36.739  26.995  1.00  0.00     0.127 S 
ATOM     96  O   UNL A   1      47.700  36.085  25.795  1.00  0.00    -0.237 OA
ATOM     97  O   UNL A   1      45.768  37.109  26.927  1.00  0.00    -0.237 OA
ATOM     98  O   UNL A   1      48.049  37.759  27.569  1.00  0.00    -0.744 OA
ENDBRANCH  92  95
ENDBRANCH  65  88
ENDBRANCH  39  40
ENDBRANCH  31  34
ENDBRANCH  29  30
ENDBRANCH   1  29
TORSDOF 16
ENDMDL
MODEL 3
REMARK VINA RESULT:     -12.0      5.631      9.301
REMARK SMILES CN(C)C(=O)c1ccc2c(c1)N(CC(=O)NCCCCNC(=O)c1ccc(-c3c4nc(c(-c5cccc(S(=O)(=O)[O-])c5F)c5ccc([nH]5)c(-c5cccc(S(=O)(=O)[O-])c5F)c5nc(c(-c6cccc(S(=O)(=O)[O-])c6F)c6ccc3[nH]6)C=C5)C=C4)cc1)C(=O)[C@@H]1CCCCN21
REMARK SMILES IDX 19 1 18 2 17 3 16 4 14 5 15 6 13 8 12 9 6 10 7 11 11 12 8 13
REMARK SMILES IDX 10 14 9 15 94 16 87 17 89 18 93 19 88 20 90 21 92 22 91 23
REMARK SMILES IDX 4 24 1 25 2 26 3 27 5 28 20 29 21 30 22 31 23 33 24 34 25 35
REMARK SMILES IDX 86 36 26 37 85 38 27 39 28 40 29 41 79 42 30 43 84 44 78 45
REMARK SMILES IDX 80 46 31 47 83 48 77 49 76 50 32 52 64 53 44 54 63 55 45 56
REMARK SMILES IDX 48 57 62 58 81 59 46 60 47 61 61 63 82 64 49 65 33 66 34 67
REMARK SMILES IDX 42 68 35 69 37 70 43 71 36 72 38 73 39 74 40 75 41 76 65 77
REMARK SMILES IDX 66 78 74 79 67 80 69 81 75 82 68 83 70 84 71 85 72 86 73 87
REMARK SMILES IDX 50 88 51 89 59 90 52 91 54 92 60 93 53 94 55 95 56 96 57 97
REMARK SMILES IDX 58 98
REMARK H PARENT 16 7 21 32 80 51 48 62
REMARK Flexibility Score: inf
ROOT
ATOM      1  C   UNL A   1      42.088  21.581  26.264  1.00  0.00     0.023 C 
ENDROOT
BRANCH   1   2
ATOM      2  C   UNL A   1      40.755  21.197  26.915  1.00  0.00     0.023 C 
BRANCH   2   3
ATOM      3  C   UNL A   1      39.532  21.335  26.011  1.00  0.00     0.116 C 
BRANCH   3   4
ATOM      4  N   UNL A   1      38.714  22.478  26.357  1.00  0.00    -0.355 N 
ATOM      5  C   UNL A   1      37.635  22.997  25.709  1.00  0.00     0.240 C 
ATOM      6  O   UNL A   1      36.995  23.880  26.290  1.00  0.00    -0.273 OA
ATOM      7  H   UNL A   1      38.976  22.948  27.181  1.00  0.00     0.163 HD
BRANCH   5   8
ATOM      8  C   UNL A   1      37.143  22.440  24.366  1.00  0.00     0.225 C 
BRANCH   8   9
ATOM      9  N   UNL A   1      35.879  21.694  24.370  1.00  0.00    -0.299 N 
ATOM     10  C   UNL A   1      33.470  24.264  23.097  1.00  0.00     0.042 A 
ATOM     11  C   UNL A   1      32.314  23.513  22.956  1.00  0.00     0.016 A 
ATOM     12  C   UNL A   1      34.628  23.674  23.605  1.00  0.00     0.042 A 
ATOM     13  C   UNL A   1      32.332  22.159  23.297  1.00  0.00     0.029 A 
ATOM     14  C   UNL A   1      34.661  22.304  23.934  1.00  0.00     0.069 A 
ATOM     15  C   UNL A   1      33.485  21.517  23.794  1.00  0.00     0.062 A 
ATOM     16  N   UNL A   1      33.468  20.166  24.132  1.00  0.00    -0.358 N 
ATOM     17  C   UNL A   1      35.902  20.385  24.831  1.00  0.00     0.250 C 
ATOM     18  C   UNL A   1      34.571  19.635  24.946  1.00  0.00     0.172 C 
ATOM     19  C   UNL A   1      32.455  19.239  23.614  1.00  0.00     0.117 C 
ATOM     20  O   UNL A   1      36.949  19.853  25.218  1.00  0.00    -0.272 OA
ATOM     21  C   UNL A   1      34.813  18.161  24.596  1.00  0.00     0.035 C 
ATOM     22  C   UNL A   1      32.295  17.969  24.452  1.00  0.00     0.022 C 
ATOM     23  C   UNL A   1      33.591  17.325  24.924  1.00  0.00     0.004 C 
BRANCH  10  24
ATOM     24  C   UNL A   1      33.430  25.705  22.769  1.00  0.00     0.253 C 
ATOM     25  C   UNL A   1      32.780  27.990  23.325  1.00  0.00     0.146 C 
ATOM     26  N   UNL A   1      32.934  26.600  23.712  1.00  0.00    -0.345 N 
ATOM     27  C   UNL A   1      32.656  26.281  25.106  1.00  0.00     0.146 C 
ATOM     28  O   UNL A   1      33.845  26.040  21.661  1.00  0.00    -0.269 OA
ENDBRANCH  10  24
ENDBRANCH   8   9
ENDBRANCH   5   8
ENDBRANCH   3   4
ENDBRANCH   2   3
ENDBRANCH   1   2
BRANCH   1  29
ATOM     29  C   UNL A   1      42.046  22.770  25.306  1.00  0.00     0.116 C 
BRANCH  29  30
ATOM     30  N   UNL A   1      43.358  23.293  24.960  1.00  0.00    -0.352 N 
ATOM     31  C   UNL A   1      43.937  24.482  25.345  1.00  0.00     0.251 C 
ATOM     32  H   UNL A   1      43.905  22.721  24.373  1.00  0.00     0.163 HD
ATOM     33  O   UNL A   1      45.032  24.807  24.895  1.00  0.00    -0.269 OA
BRANCH  31  34
ATOM     34  C   UNL A   1      43.203  25.386  26.259  1.00  0.00     0.039 A 
ATOM     35  C   UNL A   1      43.408  26.767  26.214  1.00  0.00     0.014 A 
ATOM     36  C   UNL A   1      42.349  24.832  27.217  1.00  0.00     0.014 A 
ATOM     37  C   UNL A   1      42.906  27.570  27.235  1.00  0.00     0.010 A 
ATOM     38  C   UNL A   1      41.788  25.653  28.201  1.00  0.00     0.010 A 
ATOM     39  C   UNL A   1      42.114  27.017  28.255  1.00  0.00    -0.014 A 
BRANCH  39  40
ATOM     40  C   UNL A   1      41.676  27.871  29.390  1.00  0.00     0.031 A 
ATOM     41  C   UNL A   1      40.426  28.707  29.284  1.00  0.00     0.074 A 
ATOM     42  C   UNL A   1      42.376  27.859  30.541  1.00  0.00     0.049 A 
ATOM     43  N   UNL A   1      39.883  29.492  30.180  1.00  0.00    -0.248 NA
ATOM     44  C   UNL A   1      39.686  28.658  28.011  1.00  0.00     0.031 C 
ATOM     45  C   UNL A   1      43.606  27.101  30.771  1.00  0.00     0.029 A 
ATOM     46  N   UNL A   1      42.145  28.494  31.736  1.00  0.00    -0.354 N 
ATOM     47  C   UNL A   1      38.772  30.060  29.571  1.00  0.00     0.074 A 
ATOM     48  C   UNL A   1      38.712  29.533  28.225  1.00  0.00     0.031 C 
ATOM     49  C   UNL A   1      44.002  27.283  32.040  1.00  0.00     0.029 A 
ATOM     50  C   UNL A   1      43.081  28.202  32.701  1.00  0.00     0.049 A 
ATOM     51  H   UNL A   1      41.384  29.098  31.888  1.00  0.00     0.167 HD
ATOM     52  C   UNL A   1      37.868  30.924  30.089  1.00  0.00     0.034 A 
ATOM     53  C   UNL A   1      43.191  28.630  33.974  1.00  0.00     0.034 A 
ATOM     54  C   UNL A   1      37.883  31.401  31.444  1.00  0.00     0.049 A 
ATOM     55  C   UNL A   1      42.168  29.578  34.528  1.00  0.00     0.074 A 
ATOM     56  C   UNL A   1      36.975  32.239  32.067  1.00  0.00     0.029 A 
ATOM     57  N   UNL A   1      38.844  31.078  32.387  1.00  0.00    -0.354 N 
ATOM     58  N   UNL A   1      41.085  30.044  33.956  1.00  0.00    -0.248 NA
ATOM     59  C   UNL A   1      42.374  30.052  35.905  1.00  0.00     0.031 C 
ATOM     60  C   UNL A   1      37.388  32.423  33.390  1.00  0.00     0.029 A 
ATOM     61  C   UNL A   1      38.553  31.700  33.588  1.00  0.00     0.049 A 
ATOM     62  H   UNL A   1      39.620  30.493  32.226  1.00  0.00     0.167 HD
ATOM     63  C   UNL A   1      40.478  30.860  34.901  1.00  0.00     0.074 A 
ATOM     64  C   UNL A   1      41.298  30.807  36.094  1.00  0.00     0.031 C 
ATOM     65  C   UNL A   1      39.353  31.605  34.780  1.00  0.00     0.034 A 
BRANCH  52  66
ATOM     66  C   UNL A   1      36.735  31.373  29.209  1.00  0.00     0.023 A 
ATOM     67  C   UNL A   1      36.690  32.714  28.782  1.00  0.00     0.012 A 
ATOM     68  C   UNL A   1      35.782  30.455  28.725  1.00  0.00     0.148 A 
ATOM     69  C   UNL A   1      35.706  33.141  27.891  1.00  0.00     0.002 A 
ATOM     70  C   UNL A   1      34.820  30.882  27.818  1.00  0.00     0.091 A 
ATOM     71  F   UNL A   1      35.839  29.189  29.158  1.00  0.00    -0.205 F 
ATOM     72  C   UNL A   1      34.778  32.224  27.402  1.00  0.00     0.022 A 
BRANCH  70  73
ATOM     73  S   UNL A   1      33.608  29.773  27.089  1.00  0.00     0.127 S 
ATOM     74  O   UNL A   1      34.026  28.483  27.636  1.00  0.00    -0.237 OA
ATOM     75  O   UNL A   1      32.353  30.289  27.634  1.00  0.00    -0.237 OA
ATOM     76  O   UNL A   1      33.752  29.912  25.647  1.00  0.00    -0.744 OA
ENDBRANCH  70  73
ENDBRANCH  52  66
BRANCH  53  77
ATOM     77  C   UNL A   1      44.298  28.108  34.820  1.00  0.00     0.023 A 
ATOM     78  C   UNL A   1      45.593  28.634  34.657  1.00  0.00     0.012 A 
ATOM     79  C   UNL A   1      44.057  27.160  35.833  1.00  0.00     0.148 A 
ATOM     80  C   UNL A   1      46.633  28.223  35.490  1.00  0.00     0.002 A 
ATOM     81  C   UNL A   1      45.087  26.788  36.687  1.00  0.00     0.091 A 
ATOM     82  F   UNL A   1      42.817  26.669  35.958  1.00  0.00    -0.205 F 
ATOM     83  C   UNL A   1      46.378  27.311  36.512  1.00  0.00     0.022 A 
BRANCH  81  84
ATOM     84  S   UNL A   1      44.829  25.713  38.102  1.00  0.00     0.127 S 
ATOM     85  O   UNL A   1      44.448  24.459  37.457  1.00  0.00    -0.237 OA
ATOM     86  O   UNL A   1      46.156  25.709  38.720  1.00  0.00    -0.237 OA
ATOM     87  O   UNL A   1      43.792  26.350  38.900  1.00  0.00    -0.744 OA
ENDBRANCH  81  84
ENDBRANCH  53  77
BRANCH  65  88
ATOM     88  C   UNL A   1      38.931  32.439  35.957  1.00  0.00     0.023 A 
ATOM     89  C   UNL A   1      38.064  31.879  36.914  1.00  0.00     0.012 A 
ATOM     90  C   UNL A   1      39.481  33.717  36.176  1.00  0.00     0.148 A 
ATOM     91  C   UNL A   1      37.744  32.583  38.073  1.00  0.00     0.002 A 
ATOM     92  C   UNL A   1      39.181  34.399  37.348  1.00  0.00     0.091 A 
ATOM     93  F   UNL A   1      40.296  34.230  35.242  1.00  0.00    -0.205 F 
ATOM     94  C   UNL A   1      38.310  33.837  38.296  1.00  0.00     0.022 A 
BRANCH  92  95
ATOM     95  S   UNL A   1      39.916  35.987  37.759  1.00  0.00     0.127 S 
ATOM     96  O   UNL A   1      39.079  36.421  38.877  1.00  0.00    -0.237 OA
ATOM     97  O   UNL A   1      41.281  35.610  38.127  1.00  0.00    -0.237 OA
ATOM     98  O   UNL A   1      39.815  36.801  36.555  1.00  0.00    -0.744 OA
ENDBRANCH  92  95
ENDBRANCH  65  88
ENDBRANCH  39  40
ENDBRANCH  31  34
ENDBRANCH  29  30
ENDBRANCH   1  29
TORSDOF 16
ENDMDL
