MODEL 1
REMARK VINA RESULT:     -13.7      0.000      0.000
REMARK SMILES O=C(NCCCCNC(=O)c1ccc(-c2c3nc(c(-c4cccc(S(=O)(=O)[O-])c4F)c4ccc([nH]4)c(-c4cccc(S(=O)(=O)[O-])c4F)c4nc(c(-c5cccc(S(=O)(=O)[O-])c5F)c5ccc2[nH]5)C=C4)C=C3)cc1)C1=Cc2cc(Cl)cc(-c3ccc(CO)cc3)c2O[C@@H]1C(F)(F)F
REMARK SMILES IDX 5 1 4 2 3 3 1 4 2 5 74 7 75 8 92 9 76 10 91 11 77 12 90 13
REMARK SMILES IDX 78 14 81 15 79 16 80 17 93 18 94 19 95 20 96 21 82 22 83 23
REMARK SMILES IDX 89 24 84 25 88 26 85 27 86 28 87 29 6 31 7 32 8 33 9 34
REMARK SMILES IDX 10 36 11 37 12 38 73 39 13 40 72 41 14 42 15 43 16 44 66 45
REMARK SMILES IDX 17 46 71 47 65 48 67 49 18 50 70 51 64 52 63 53 19 55 51 56
REMARK SMILES IDX 31 57 50 58 32 59 35 60 49 61 68 62 33 63 34 64 48 66 69 67
REMARK SMILES IDX 36 68 20 69 21 70 29 71 22 72 24 73 30 74 23 75 25 76 26 77
REMARK SMILES IDX 27 78 28 79 52 80 53 81 61 82 54 83 56 84 62 85 55 86 57 87
REMARK SMILES IDX 58 88 59 89 60 90 37 91 38 92 46 93 39 94 41 95 47 96 40 97
REMARK SMILES IDX 42 98 43 99 44 100 45 101
REMARK H PARENT 3 6 87 30 8 35 67 54 35 65
REMARK Flexibility Score: inf
ROOT
ATOM      1  C   UNL A   1      31.519  27.449  26.569  1.00  0.00     0.023 C 
ENDROOT
BRANCH   1   2
ATOM      2  C   UNL A   1      30.898  26.160  26.026  1.00  0.00     0.116 C 
BRANCH   2   3
ATOM      3  N   UNL A   1      31.102  25.003  26.900  1.00  0.00    -0.352 N 
ATOM      4  O   UNL A   1      32.076  23.113  27.674  1.00  0.00    -0.270 OA
ATOM      5  C   UNL A   1      31.853  23.864  26.731  1.00  0.00     0.251 C 
ATOM      6  H   UNL A   1      30.618  25.049  27.757  1.00  0.00     0.163 HD
BRANCH   5   7
ATOM      7  C   UNL A   1      32.524  23.650  25.432  1.00  0.00     0.067 C 
ATOM      8  C   UNL A   1      33.759  24.076  25.129  1.00  0.00     0.025 C 
ATOM      9  C   UNL A   1      31.867  22.685  24.498  1.00  0.00     0.314 C 
ATOM     10  C   UNL A   1      34.614  22.916  24.755  1.00  0.00     0.019 A 
ATOM     11  O   UNL A   1      32.658  21.483  24.389  1.00  0.00    -0.475 OA
ATOM     12  C   UNL A   1      35.986  23.010  25.023  1.00  0.00     0.032 A 
ATOM     13  C   UNL A   1      34.021  21.633  24.568  1.00  0.00     0.135 A 
ATOM     14  C   UNL A   1      36.748  21.850  25.136  1.00  0.00     0.042 A 
ATOM     15  C   UNL A   1      34.773  20.453  24.774  1.00  0.00     0.026 A 
ATOM     16  Cl  UNL A   1      38.407  21.963  25.584  1.00  0.00    -0.084 Cl
ATOM     17  C   UNL A   1      36.155  20.594  25.020  1.00  0.00     0.033 A 
BRANCH   9  18
ATOM     18  C   UNL A   1      31.603  23.353  23.127  1.00  0.00     0.429 C 
ATOM     19  F   UNL A   1      30.290  23.320  22.799  1.00  0.00    -0.167 F 
ATOM     20  F   UNL A   1      31.972  24.660  23.128  1.00  0.00    -0.167 F 
ATOM     21  F   UNL A   1      32.277  22.761  22.110  1.00  0.00    -0.167 F 
ENDBRANCH   9  18
BRANCH  15  22
ATOM     22  C   UNL A   1      34.152  19.118  24.974  1.00  0.00    -0.015 A 
ATOM     23  C   UNL A   1      34.834  17.971  24.525  1.00  0.00     0.009 A 
ATOM     24  C   UNL A   1      32.920  18.919  25.611  1.00  0.00     0.009 A 
ATOM     25  C   UNL A   1      34.296  16.691  24.669  1.00  0.00     0.007 A 
ATOM     26  C   UNL A   1      32.382  17.628  25.767  1.00  0.00     0.007 A 
ATOM     27  C   UNL A   1      33.057  16.503  25.279  1.00  0.00    -0.023 A 
BRANCH  27  28
ATOM     28  C   UNL A   1      32.510  15.108  25.443  1.00  0.00     0.191 C 
BRANCH  28  29
ATOM     29  O   UNL A   1      33.565  14.152  25.449  1.00  0.00    -0.392 OA
ATOM     30  H   UNL A   1      34.236  14.405  24.795  1.00  0.00     0.211 HD
ENDBRANCH  28  29
ENDBRANCH  27  28
ENDBRANCH  15  22
ENDBRANCH   5   7
ENDBRANCH   2   3
ENDBRANCH   1   2
BRANCH   1  31
ATOM     31  C   UNL A   1      31.708  28.560  25.532  1.00  0.00     0.023 C 
BRANCH  31  32
ATOM     32  C   UNL A   1      32.883  29.509  25.764  1.00  0.00     0.116 C 
BRANCH  32  33
ATOM     33  N   UNL A   1      32.521  30.813  26.293  1.00  0.00    -0.352 N 
ATOM     34  C   UNL A   1      33.233  31.607  27.177  1.00  0.00     0.251 C 
ATOM     35  H   UNL A   1      31.661  31.179  25.984  1.00  0.00     0.163 HD
ATOM     36  O   UNL A   1      32.776  32.666  27.550  1.00  0.00    -0.269 OA
BRANCH  34  37
ATOM     37  C   UNL A   1      34.550  31.137  27.685  1.00  0.00     0.039 A 
ATOM     38  C   UNL A   1      35.568  32.072  27.890  1.00  0.00     0.014 A 
ATOM     39  C   UNL A   1      34.771  29.791  27.983  1.00  0.00     0.014 A 
ATOM     40  C   UNL A   1      36.773  31.669  28.477  1.00  0.00     0.010 A 
ATOM     41  C   UNL A   1      35.951  29.394  28.600  1.00  0.00     0.010 A 
ATOM     42  C   UNL A   1      36.952  30.334  28.871  1.00  0.00    -0.014 A 
BRANCH  42  43
ATOM     43  C   UNL A   1      38.132  29.899  29.652  1.00  0.00     0.031 A 
ATOM     44  C   UNL A   1      38.386  30.456  31.024  1.00  0.00     0.074 A 
ATOM     45  C   UNL A   1      39.048  29.116  29.047  1.00  0.00     0.049 A 
ATOM     46  N   UNL A   1      39.390  30.227  31.828  1.00  0.00    -0.248 NA
ATOM     47  C   UNL A   1      37.396  31.411  31.551  1.00  0.00     0.031 C 
ATOM     48  C   UNL A   1      38.957  28.623  27.669  1.00  0.00     0.029 A 
ATOM     49  N   UNL A   1      40.254  28.639  29.488  1.00  0.00    -0.354 N 
ATOM     50  C   UNL A   1      39.160  31.010  32.954  1.00  0.00     0.074 A 
ATOM     51  C   UNL A   1      37.942  31.752  32.710  1.00  0.00     0.031 C 
ATOM     52  C   UNL A   1      40.069  27.932  27.373  1.00  0.00     0.029 A 
ATOM     53  C   UNL A   1      40.954  27.940  28.532  1.00  0.00     0.049 A 
ATOM     54  H   UNL A   1      40.588  28.782  30.404  1.00  0.00     0.167 HD
ATOM     55  C   UNL A   1      39.884  31.077  34.096  1.00  0.00     0.034 A 
ATOM     56  C   UNL A   1      42.175  27.372  28.586  1.00  0.00     0.034 A 
ATOM     57  C   UNL A   1      41.094  30.331  34.320  1.00  0.00     0.049 A 
ATOM     58  C   UNL A   1      42.935  27.426  29.884  1.00  0.00     0.074 A 
ATOM     59  C   UNL A   1      41.870  30.270  35.464  1.00  0.00     0.029 A 
ATOM     60  N   UNL A   1      41.712  29.526  33.374  1.00  0.00    -0.354 N 
ATOM     61  N   UNL A   1      42.607  28.017  31.008  1.00  0.00    -0.248 NA
ATOM     62  C   UNL A   1      44.205  26.690  29.941  1.00  0.00     0.031 C 
ATOM     63  C   UNL A   1      42.967  29.442  35.204  1.00  0.00     0.029 A 
ATOM     64  C   UNL A   1      42.857  28.963  33.908  1.00  0.00     0.049 A 
ATOM     65  H   UNL A   1      41.384  29.378  32.458  1.00  0.00     0.167 HD
ATOM     66  C   UNL A   1      43.602  27.683  31.918  1.00  0.00     0.074 A 
ATOM     67  C   UNL A   1      44.535  26.825  31.218  1.00  0.00     0.031 C 
ATOM     68  C   UNL A   1      43.738  28.060  33.213  1.00  0.00     0.034 A 
BRANCH  55  69
ATOM     69  C   UNL A   1      39.352  31.926  35.221  1.00  0.00     0.023 A 
ATOM     70  C   UNL A   1      38.442  31.358  36.137  1.00  0.00     0.012 A 
ATOM     71  C   UNL A   1      39.810  33.243  35.431  1.00  0.00     0.148 A 
ATOM     72  C   UNL A   1      37.978  32.090  37.229  1.00  0.00     0.002 A 
ATOM     73  C   UNL A   1      39.375  33.952  36.546  1.00  0.00     0.091 A 
ATOM     74  F   UNL A   1      40.664  33.771  34.544  1.00  0.00    -0.205 F 
ATOM     75  C   UNL A   1      38.452  33.382  37.439  1.00  0.00     0.022 A 
BRANCH  73  76
ATOM     76  S   UNL A   1      39.980  35.593  36.956  1.00  0.00     0.127 S 
ATOM     77  O   UNL A   1      39.553  36.367  35.792  1.00  0.00    -0.237 OA
ATOM     78  O   UNL A   1      39.247  35.891  38.187  1.00  0.00    -0.237 OA
ATOM     79  O   UNL A   1      41.421  35.464  37.119  1.00  0.00    -0.744 OA
ENDBRANCH  73  76
ENDBRANCH  55  69
BRANCH  56  80
ATOM     80  C   UNL A   1      42.717  26.639  27.408  1.00  0.00     0.023 A 
ATOM     81  C   UNL A   1      43.487  27.334  26.454  1.00  0.00     0.012 A 
ATOM     82  C   UNL A   1      42.487  25.262  27.230  1.00  0.00     0.148 A 
ATOM     83  C   UNL A   1      43.973  26.684  25.319  1.00  0.00     0.002 A 
ATOM     84  C   UNL A   1      43.021  24.607  26.125  1.00  0.00     0.091 A 
ATOM     85  F   UNL A   1      41.748  24.616  28.144  1.00  0.00    -0.205 F 
ATOM     86  C   UNL A   1      43.747  25.320  25.159  1.00  0.00     0.022 A 
BRANCH  84  87
ATOM     87  S   UNL A   1      42.891  22.828  25.912  1.00  0.00     0.127 S 
ATOM     88  O   UNL A   1      43.376  22.654  24.545  1.00  0.00    -0.237 OA
ATOM     89  O   UNL A   1      43.789  22.328  26.953  1.00  0.00    -0.237 OA
ATOM     90  O   UNL A   1      41.486  22.512  26.134  1.00  0.00    -0.744 OA
ENDBRANCH  84  87
ENDBRANCH  56  80
BRANCH  68  91
ATOM     91  C   UNL A   1      44.906  27.499  33.981  1.00  0.00     0.023 A 
ATOM     92  C   UNL A   1      46.125  28.203  34.027  1.00  0.00     0.012 A 
ATOM     93  C   UNL A   1      44.767  26.303  34.712  1.00  0.00     0.148 A 
ATOM     94  C   UNL A   1      47.202  27.703  34.759  1.00  0.00     0.002 A 
ATOM     95  C   UNL A   1      45.827  25.839  35.481  1.00  0.00     0.091 A 
ATOM     96  F   UNL A   1      43.604  25.638  34.637  1.00  0.00    -0.205 F 
ATOM     97  C   UNL A   1      47.049  26.530  35.494  1.00  0.00     0.022 A 
BRANCH  95  98
ATOM     98  S   UNL A   1      45.687  24.393  36.537  1.00  0.00     0.127 S 
ATOM     99  O   UNL A   1      46.972  24.409  37.234  1.00  0.00    -0.237 OA
ATOM    100  O   UNL A   1      44.535  24.731  37.374  1.00  0.00    -0.237 OA
ATOM    101  O   UNL A   1      45.473  23.263  35.644  1.00  0.00    -0.744 OA
ENDBRANCH  95  98
ENDBRANCH  68  91
ENDBRANCH  42  43
ENDBRANCH  34  37
ENDBRANCH  32  33
ENDBRANCH  31  32
ENDBRANCH   1  31
TORSDOF 18
ENDMDL
MODEL 2
REMARK VINA RESULT:     -13.5      1.947      2.533
REMARK SMILES O=C(NCCCCNC(=O)c1ccc(-c2c3nc(c(-c4cccc(S(=O)(=O)[O-])c4F)c4ccc([nH]4)c(-c4cccc(S(=O)(=O)[O-])c4F)c4nc(c(-c5cccc(S(=O)(=O)[O-])c5F)c5ccc2[nH]5)C=C4)C=C3)cc1)C1=Cc2cc(Cl)cc(-c3ccc(CO)cc3)c2O[C@@H]1C(F)(F)F
REMARK SMILES IDX 5 1 4 2 3 3 1 4 2 5 74 7 75 8 92 9 76 10 91 11 77 12 90 13
REMARK SMILES IDX 78 14 81 15 79 16 80 17 93 18 94 19 95 20 96 21 82 22 83 23
REMARK SMILES IDX 89 24 84 25 88 26 85 27 86 28 87 29 6 31 7 32 8 33 9 34
REMARK SMILES IDX 10 36 11 37 12 38 73 39 13 40 72 41 14 42 15 43 16 44 66 45
REMARK SMILES IDX 17 46 71 47 65 48 67 49 18 50 70 51 64 52 63 53 19 55 51 56
REMARK SMILES IDX 31 57 50 58 32 59 35 60 49 61 68 62 33 63 34 64 48 66 69 67
REMARK SMILES IDX 36 68 20 69 21 70 29 71 22 72 24 73 30 74 23 75 25 76 26 77
REMARK SMILES IDX 27 78 28 79 52 80 53 81 61 82 54 83 56 84 62 85 55 86 57 87
REMARK SMILES IDX 58 88 59 89 60 90 37 91 38 92 46 93 39 94 41 95 47 96 40 97
REMARK SMILES IDX 42 98 43 99 44 100 45 101
REMARK H PARENT 3 6 87 30 8 35 67 54 35 65
REMARK Flexibility Score: inf
ROOT
ATOM      1  C   UNL A   1      31.664  28.156  26.840  1.00  0.00     0.023 C 
ENDROOT
BRANCH   1   2
ATOM      2  C   UNL A   1      31.068  26.972  26.075  1.00  0.00     0.116 C 
BRANCH   2   3
ATOM      3  N   UNL A   1      31.095  25.718  26.831  1.00  0.00    -0.352 N 
ATOM      4  O   UNL A   1      31.872  23.706  27.516  1.00  0.00    -0.270 OA
ATOM      5  C   UNL A   1      31.821  24.565  26.643  1.00  0.00     0.251 C 
ATOM      6  H   UNL A   1      30.490  25.697  27.607  1.00  0.00     0.163 HD
BRANCH   5   7
ATOM      7  C   UNL A   1      32.670  24.457  25.438  1.00  0.00     0.067 C 
ATOM      8  C   UNL A   1      33.919  24.935  25.338  1.00  0.00     0.025 C 
ATOM      9  C   UNL A   1      32.182  23.540  24.363  1.00  0.00     0.314 C 
ATOM     10  C   UNL A   1      34.858  23.825  25.014  1.00  0.00     0.019 A 
ATOM     11  O   UNL A   1      33.023  22.369  24.290  1.00  0.00    -0.475 OA
ATOM     12  C   UNL A   1      36.176  23.938  25.475  1.00  0.00     0.032 A 
ATOM     13  C   UNL A   1      34.342  22.543  24.666  1.00  0.00     0.135 A 
ATOM     14  C   UNL A   1      36.957  22.794  25.620  1.00  0.00     0.042 A 
ATOM     15  C   UNL A   1      35.100  21.372  24.900  1.00  0.00     0.026 A 
ATOM     16  Cl  UNL A   1      38.533  22.920  26.300  1.00  0.00    -0.084 Cl
ATOM     17  C   UNL A   1      36.430  21.533  25.344  1.00  0.00     0.033 A 
BRANCH   9  18
ATOM     18  C   UNL A   1      32.085  24.291  23.014  1.00  0.00     0.429 C 
ATOM     19  F   UNL A   1      30.806  24.371  22.577  1.00  0.00    -0.167 F 
ATOM     20  F   UNL A   1      32.542  25.565  23.116  1.00  0.00    -0.167 F 
ATOM     21  F   UNL A   1      32.801  23.701  22.025  1.00  0.00    -0.167 F 
ENDBRANCH   9  18
BRANCH  15  22
ATOM     22  C   UNL A   1      34.506  20.011  24.928  1.00  0.00    -0.015 A 
ATOM     23  C   UNL A   1      35.298  18.909  24.550  1.00  0.00     0.009 A 
ATOM     24  C   UNL A   1      33.192  19.742  25.332  1.00  0.00     0.009 A 
ATOM     25  C   UNL A   1      34.793  17.609  24.538  1.00  0.00     0.007 A 
ATOM     26  C   UNL A   1      32.685  18.430  25.333  1.00  0.00     0.007 A 
ATOM     27  C   UNL A   1      33.476  17.352  24.916  1.00  0.00    -0.023 A 
BRANCH  27  28
ATOM     28  C   UNL A   1      32.963  15.934  24.918  1.00  0.00     0.191 C 
BRANCH  28  29
ATOM     29  O   UNL A   1      32.571  15.543  26.229  1.00  0.00    -0.392 OA
ATOM     30  H   UNL A   1      32.829  16.231  26.863  1.00  0.00     0.211 HD
ENDBRANCH  28  29
ENDBRANCH  27  28
ENDBRANCH  15  22
ENDBRANCH   5   7
ENDBRANCH   2   3
ENDBRANCH   1   2
BRANCH   1  31
ATOM     31  C   UNL A   1      33.195  28.187  26.887  1.00  0.00     0.023 C 
BRANCH  31  32
ATOM     32  C   UNL A   1      33.871  29.325  26.125  1.00  0.00     0.116 C 
BRANCH  32  33
ATOM     33  N   UNL A   1      33.809  30.622  26.777  1.00  0.00    -0.352 N 
ATOM     34  C   UNL A   1      34.680  31.154  27.713  1.00  0.00     0.251 C 
ATOM     35  H   UNL A   1      33.051  31.196  26.521  1.00  0.00     0.163 HD
ATOM     36  O   UNL A   1      34.470  32.249  28.190  1.00  0.00    -0.269 OA
BRANCH  34  37
ATOM     37  C   UNL A   1      35.862  30.359  28.147  1.00  0.00     0.039 A 
ATOM     38  C   UNL A   1      37.005  30.355  27.342  1.00  0.00     0.014 A 
ATOM     39  C   UNL A   1      35.853  29.647  29.347  1.00  0.00     0.014 A 
ATOM     40  C   UNL A   1      38.164  29.712  27.789  1.00  0.00     0.010 A 
ATOM     41  C   UNL A   1      37.013  29.040  29.811  1.00  0.00     0.010 A 
ATOM     42  C   UNL A   1      38.184  29.086  29.044  1.00  0.00    -0.014 A 
BRANCH  42  43
ATOM     43  C   UNL A   1      39.432  28.549  29.633  1.00  0.00     0.031 A 
ATOM     44  C   UNL A   1      40.120  29.274  30.753  1.00  0.00     0.074 A 
ATOM     45  C   UNL A   1      40.012  27.484  29.042  1.00  0.00     0.049 A 
ATOM     46  N   UNL A   1      41.242  28.978  31.354  1.00  0.00    -0.248 NA
ATOM     47  C   UNL A   1      39.479  30.505  31.246  1.00  0.00     0.031 C 
ATOM     48  C   UNL A   1      39.487  26.782  27.867  1.00  0.00     0.029 A 
ATOM     49  N   UNL A   1      41.190  26.839  29.313  1.00  0.00    -0.354 N 
ATOM     50  C   UNL A   1      41.448  29.983  32.292  1.00  0.00     0.074 A 
ATOM     51  C   UNL A   1      40.355  30.921  32.151  1.00  0.00     0.031 C 
ATOM     52  C   UNL A   1      40.350  25.818  27.507  1.00  0.00     0.029 A 
ATOM     53  C   UNL A   1      41.490  25.840  28.415  1.00  0.00     0.049 A 
ATOM     54  H   UNL A   1      41.767  27.068  30.077  1.00  0.00     0.167 HD
ATOM     55  C   UNL A   1      42.440  30.093  33.205  1.00  0.00     0.034 A 
ATOM     56  C   UNL A   1      42.567  25.034  28.335  1.00  0.00     0.034 A 
ATOM     57  C   UNL A   1      43.520  29.151  33.330  1.00  0.00     0.049 A 
ATOM     58  C   UNL A   1      43.632  25.152  29.392  1.00  0.00     0.074 A 
ATOM     59  C   UNL A   1      44.541  29.127  34.264  1.00  0.00     0.029 A 
ATOM     60  N   UNL A   1      43.726  28.071  32.485  1.00  0.00    -0.354 N 
ATOM     61  N   UNL A   1      43.710  25.996  30.394  1.00  0.00    -0.248 NA
ATOM     62  C   UNL A   1      44.728  24.175  29.343  1.00  0.00     0.031 C 
ATOM     63  C   UNL A   1      45.375  28.043  33.972  1.00  0.00     0.029 A 
ATOM     64  C   UNL A   1      44.855  27.372  32.875  1.00  0.00     0.049 A 
ATOM     65  H   UNL A   1      43.154  27.835  31.720  1.00  0.00     0.167 HD
ATOM     66  C   UNL A   1      44.832  25.620  31.121  1.00  0.00     0.074 A 
ATOM     67  C   UNL A   1      45.392  24.462  30.454  1.00  0.00     0.031 C 
ATOM     68  C   UNL A   1      45.359  26.185  32.235  1.00  0.00     0.034 A 
BRANCH  55  69
ATOM     69  C   UNL A   1      42.370  31.230  34.192  1.00  0.00     0.023 A 
ATOM     70  C   UNL A   1      41.763  31.011  35.447  1.00  0.00     0.012 A 
ATOM     71  C   UNL A   1      42.973  32.476  33.927  1.00  0.00     0.148 A 
ATOM     72  C   UNL A   1      41.736  32.017  36.411  1.00  0.00     0.002 A 
ATOM     73  C   UNL A   1      42.979  33.460  34.910  1.00  0.00     0.091 A 
ATOM     74  F   UNL A   1      43.533  32.671  32.725  1.00  0.00    -0.205 F 
ATOM     75  C   UNL A   1      42.353  33.236  36.147  1.00  0.00     0.022 A 
BRANCH  73  76
ATOM     76  S   UNL A   1      43.812  35.038  34.705  1.00  0.00     0.127 S 
ATOM     77  O   UNL A   1      43.622  35.648  36.021  1.00  0.00    -0.237 OA
ATOM     78  O   UNL A   1      45.187  34.625  34.421  1.00  0.00    -0.237 OA
ATOM     79  O   UNL A   1      43.137  35.714  33.607  1.00  0.00    -0.744 OA
ENDBRANCH  73  76
ENDBRANCH  55  69
BRANCH  56  80
ATOM     80  C   UNL A   1      42.654  23.997  27.270  1.00  0.00     0.023 A 
ATOM     81  C   UNL A   1      43.332  24.292  26.070  1.00  0.00     0.012 A 
ATOM     82  C   UNL A   1      42.081  22.722  27.436  1.00  0.00     0.148 A 
ATOM     83  C   UNL A   1      43.395  23.356  25.037  1.00  0.00     0.002 A 
ATOM     84  C   UNL A   1      42.196  21.774  26.425  1.00  0.00     0.091 A 
ATOM     85  F   UNL A   1      41.434  22.459  28.581  1.00  0.00    -0.205 F 
ATOM     86  C   UNL A   1      42.834  22.095  25.218  1.00  0.00     0.022 A 
BRANCH  84  87
ATOM     87  S   UNL A   1      41.618  20.084  26.628  1.00  0.00     0.127 S 
ATOM     88  O   UNL A   1      42.032  19.473  25.368  1.00  0.00    -0.237 OA
ATOM     89  O   UNL A   1      42.369  19.643  27.803  1.00  0.00    -0.237 OA
ATOM     90  O   UNL A   1      40.181  20.189  26.844  1.00  0.00    -0.744 OA
ENDBRANCH  84  87
ENDBRANCH  56  80
BRANCH  68  91
ATOM     91  C   UNL A   1      46.570  25.528  32.842  1.00  0.00     0.023 A 
ATOM     92  C   UNL A   1      47.862  25.967  32.494  1.00  0.00     0.012 A 
ATOM     93  C   UNL A   1      46.418  24.516  33.811  1.00  0.00     0.148 A 
ATOM     94  C   UNL A   1      48.987  25.381  33.074  1.00  0.00     0.002 A 
ATOM     95  C   UNL A   1      47.541  23.974  34.422  1.00  0.00     0.091 A 
ATOM     96  F   UNL A   1      45.179  24.099  34.112  1.00  0.00    -0.205 F 
ATOM     97  C   UNL A   1      48.826  24.395  34.045  1.00  0.00     0.022 A 
BRANCH  95  98
ATOM     98  S   UNL A   1      47.426  22.774  35.753  1.00  0.00     0.127 S 
ATOM     99  O   UNL A   1      46.838  21.624  35.066  1.00  0.00    -0.237 OA
ATOM    100  O   UNL A   1      48.827  22.602  36.138  1.00  0.00    -0.237 OA
ATOM    101  O   UNL A   1      46.589  23.386  36.775  1.00  0.00    -0.744 OA
ENDBRANCH  95  98
ENDBRANCH  68  91
ENDBRANCH  42  43
ENDBRANCH  34  37
ENDBRANCH  32  33
ENDBRANCH  31  32
ENDBRANCH   1  31
TORSDOF 18
ENDMDL
MODEL 3
REMARK VINA RESULT:     -13.2      4.537      9.861
REMARK SMILES O=C(NCCCCNC(=O)c1ccc(-c2c3nc(c(-c4cccc(S(=O)(=O)[O-])c4F)c4ccc([nH]4)c(-c4cccc(S(=O)(=O)[O-])c4F)c4nc(c(-c5cccc(S(=O)(=O)[O-])c5F)c5ccc2[nH]5)C=C4)C=C3)cc1)C1=Cc2cc(Cl)cc(-c3ccc(CO)cc3)c2O[C@@H]1C(F)(F)F
REMARK SMILES IDX 5 1 4 2 3 3 1 4 2 5 74 7 75 8 92 9 76 10 91 11 77 12 90 13
REMARK SMILES IDX 78 14 81 15 79 16 80 17 93 18 94 19 95 20 96 21 82 22 83 23
REMARK SMILES IDX 89 24 84 25 88 26 85 27 86 28 87 29 6 31 7 32 8 33 9 34
REMARK SMILES IDX 10 36 11 37 12 38 73 39 13 40 72 41 14 42 15 43 16 44 66 45
REMARK SMILES IDX 17 46 71 47 65 48 67 49 18 50 70 51 64 52 63 53 19 55 51 56
REMARK SMILES IDX 31 57 50 58 32 59 35 60 49 61 68 62 33 63 34 64 48 66 69 67
REMARK SMILES IDX 36 68 20 69 21 70 29 71 22 72 24 73 30 74 23 75 25 76 26 77
REMARK SMILES IDX 27 78 28 79 52 80 53 81 61 82 54 83 56 84 62 85 55 86 57 87
REMARK SMILES IDX 58 88 59 89 60 90 37 91 38 92 46 93 39 94 41 95 47 96 40 97
REMARK SMILES IDX 42 98 43 99 44 100 45 101
REMARK H PARENT 3 6 87 30 8 35 67 54 35 65
REMARK Flexibility Score: inf
ROOT
ATOM      1  C   UNL A   1      35.209  21.561  24.735  1.00  0.00     0.023 C 
ENDROOT
BRANCH   1   2
ATOM      2  C   UNL A   1      33.907  22.085  24.124  1.00  0.00     0.116 C 
BRANCH   2   3
ATOM      3  N   UNL A   1      34.105  23.219  23.218  1.00  0.00    -0.352 N 
ATOM      4  O   UNL A   1      34.287  25.385  22.587  1.00  0.00    -0.270 OA
ATOM      5  C   UNL A   1      33.842  24.559  23.377  1.00  0.00     0.251 C 
ATOM      6  H   UNL A   1      34.493  22.980  22.345  1.00  0.00     0.163 HD
BRANCH   5   7
ATOM      7  C   UNL A   1      33.152  25.000  24.607  1.00  0.00     0.067 C 
ATOM      8  C   UNL A   1      33.763  25.518  25.682  1.00  0.00     0.025 C 
ATOM      9  C   UNL A   1      31.662  25.095  24.534  1.00  0.00     0.314 C 
ATOM     10  C   UNL A   1      33.228  26.881  25.957  1.00  0.00     0.019 A 
ATOM     11  O   UNL A   1      31.252  26.479  24.563  1.00  0.00    -0.475 OA
ATOM     12  C   UNL A   1      34.092  27.805  26.558  1.00  0.00     0.032 A 
ATOM     13  C   UNL A   1      32.084  27.347  25.246  1.00  0.00     0.135 A 
ATOM     14  C   UNL A   1      33.842  29.169  26.427  1.00  0.00     0.042 A 
ATOM     15  C   UNL A   1      31.879  28.730  25.034  1.00  0.00     0.026 A 
ATOM     16  Cl  UNL A   1      34.969  30.306  27.063  1.00  0.00    -0.084 Cl
ATOM     17  C   UNL A   1      32.760  29.626  25.675  1.00  0.00     0.033 A 
BRANCH   9  18
ATOM     18  C   UNL A   1      31.010  24.255  25.657  1.00  0.00     0.429 C 
ATOM     19  F   UNL A   1      30.297  23.218  25.157  1.00  0.00    -0.167 F 
ATOM     20  F   UNL A   1      31.942  23.722  26.489  1.00  0.00    -0.167 F 
ATOM     21  F   UNL A   1      30.163  24.974  26.435  1.00  0.00    -0.167 F 
ENDBRANCH   9  18
BRANCH  15  22
ATOM     22  C   UNL A   1      30.952  29.265  24.004  1.00  0.00    -0.015 A 
ATOM     23  C   UNL A   1      30.000  30.234  24.377  1.00  0.00     0.009 A 
ATOM     24  C   UNL A   1      30.976  28.880  22.657  1.00  0.00     0.009 A 
ATOM     25  C   UNL A   1      29.090  30.762  23.461  1.00  0.00     0.007 A 
ATOM     26  C   UNL A   1      30.067  29.422  21.730  1.00  0.00     0.007 A 
ATOM     27  C   UNL A   1      29.102  30.354  22.128  1.00  0.00    -0.023 A 
BRANCH  27  28
ATOM     28  C   UNL A   1      28.123  30.960  21.153  1.00  0.00     0.191 C 
BRANCH  28  29
ATOM     29  O   UNL A   1      28.678  32.118  20.538  1.00  0.00    -0.392 OA
ATOM     30  H   UNL A   1      28.779  31.962  19.586  1.00  0.00     0.211 HD
ENDBRANCH  28  29
ENDBRANCH  27  28
ENDBRANCH  15  22
ENDBRANCH   5   7
ENDBRANCH   2   3
ENDBRANCH   1   2
BRANCH   1  31
ATOM     31  C   UNL A   1      35.809  22.447  25.830  1.00  0.00     0.023 C 
BRANCH  31  32
ATOM     32  C   UNL A   1      37.149  23.106  25.507  1.00  0.00     0.116 C 
BRANCH  32  33
ATOM     33  N   UNL A   1      38.316  22.285  25.777  1.00  0.00    -0.352 N 
ATOM     34  C   UNL A   1      39.508  22.658  26.377  1.00  0.00     0.251 C 
ATOM     35  H   UNL A   1      38.253  21.342  25.499  1.00  0.00     0.163 HD
ATOM     36  O   UNL A   1      40.407  21.854  26.502  1.00  0.00    -0.269 OA
BRANCH  34  37
ATOM     37  C   UNL A   1      39.685  24.061  26.840  1.00  0.00     0.039 A 
ATOM     38  C   UNL A   1      39.420  24.369  28.178  1.00  0.00     0.014 A 
ATOM     39  C   UNL A   1      40.133  25.058  25.973  1.00  0.00     0.014 A 
ATOM     40  C   UNL A   1      39.692  25.653  28.661  1.00  0.00     0.010 A 
ATOM     41  C   UNL A   1      40.441  26.324  26.457  1.00  0.00     0.010 A 
ATOM     42  C   UNL A   1      40.241  26.624  27.810  1.00  0.00    -0.014 A 
BRANCH  42  43
ATOM     43  C   UNL A   1      40.709  27.935  28.315  1.00  0.00     0.031 A 
ATOM     44  C   UNL A   1      42.171  28.184  28.550  1.00  0.00     0.074 A 
ATOM     45  C   UNL A   1      39.785  28.838  28.702  1.00  0.00     0.049 A 
ATOM     46  N   UNL A   1      42.753  29.250  29.033  1.00  0.00    -0.248 NA
ATOM     47  C   UNL A   1      43.097  27.087  28.222  1.00  0.00     0.031 C 
ATOM     48  C   UNL A   1      38.333  28.643  28.632  1.00  0.00     0.029 A 
ATOM     49  N   UNL A   1      39.924  30.076  29.275  1.00  0.00    -0.354 N 
ATOM     50  C   UNL A   1      44.111  28.955  29.073  1.00  0.00     0.074 A 
ATOM     51  C   UNL A   1      44.262  27.594  28.605  1.00  0.00     0.031 C 
ATOM     52  C   UNL A   1      37.719  29.713  29.162  1.00  0.00     0.029 A 
ATOM     53  C   UNL A   1      38.728  30.663  29.615  1.00  0.00     0.049 A 
ATOM     54  H   UNL A   1      40.798  30.504  29.427  1.00  0.00     0.167 HD
ATOM     55  C   UNL A   1      45.138  29.758  29.439  1.00  0.00     0.034 A 
ATOM     56  C   UNL A   1      38.476  31.836  30.228  1.00  0.00     0.034 A 
ATOM     57  C   UNL A   1      44.969  31.109  29.903  1.00  0.00     0.049 A 
ATOM     58  C   UNL A   1      39.637  32.726  30.581  1.00  0.00     0.074 A 
ATOM     59  C   UNL A   1      45.942  32.036  30.234  1.00  0.00     0.029 A 
ATOM     60  N   UNL A   1      43.744  31.724  30.116  1.00  0.00    -0.354 N 
ATOM     61  N   UNL A   1      40.921  32.503  30.433  1.00  0.00    -0.248 NA
ATOM     62  C   UNL A   1      39.316  34.049  31.134  1.00  0.00     0.031 C 
ATOM     63  C   UNL A   1      45.305  33.204  30.664  1.00  0.00     0.029 A 
ATOM     64  C   UNL A   1      43.935  33.017  30.570  1.00  0.00     0.049 A 
ATOM     65  H   UNL A   1      42.867  31.303  29.965  1.00  0.00     0.167 HD
ATOM     66  C   UNL A   1      41.558  33.674  30.825  1.00  0.00     0.074 A 
ATOM     67  C   UNL A   1      40.516  34.608  31.201  1.00  0.00     0.031 C 
ATOM     68  C   UNL A   1      42.884  33.951  30.878  1.00  0.00     0.034 A 
BRANCH  55  69
ATOM     69  C   UNL A   1      46.540  29.229  29.281  1.00  0.00     0.023 A 
ATOM     70  C   UNL A   1      47.149  28.569  30.370  1.00  0.00     0.012 A 
ATOM     71  C   UNL A   1      47.220  29.297  28.049  1.00  0.00     0.148 A 
ATOM     72  C   UNL A   1      48.419  28.008  30.244  1.00  0.00     0.002 A 
ATOM     73  C   UNL A   1      48.469  28.698  27.918  1.00  0.00     0.091 A 
ATOM     74  F   UNL A   1      46.632  29.938  27.029  1.00  0.00    -0.205 F 
ATOM     75  C   UNL A   1      49.073  28.062  29.017  1.00  0.00     0.022 A 
BRANCH  73  76
ATOM     76  S   UNL A   1      49.366  28.640  26.364  1.00  0.00     0.127 S 
ATOM     77  O   UNL A   1      50.341  27.581  26.622  1.00  0.00    -0.237 OA
ATOM     78  O   UNL A   1      48.313  28.278  25.415  1.00  0.00    -0.237 OA
ATOM     79  O   UNL A   1      49.932  29.968  26.172  1.00  0.00    -0.744 OA
ENDBRANCH  73  76
ENDBRANCH  55  69
BRANCH  56  80
ATOM     80  C   UNL A   1      37.072  32.272  30.472  1.00  0.00     0.023 A 
ATOM     81  C   UNL A   1      36.489  32.052  31.736  1.00  0.00     0.012 A 
ATOM     82  C   UNL A   1      36.315  32.908  29.470  1.00  0.00     0.148 A 
ATOM     83  C   UNL A   1      35.163  32.412  31.982  1.00  0.00     0.002 A 
ATOM     84  C   UNL A   1      35.012  33.314  29.740  1.00  0.00     0.091 A 
ATOM     85  F   UNL A   1      36.882  33.104  28.271  1.00  0.00    -0.205 F 
ATOM     86  C   UNL A   1      34.428  33.049  30.987  1.00  0.00     0.022 A 
BRANCH  84  87
ATOM     87  S   UNL A   1      34.042  34.260  28.559  1.00  0.00     0.127 S 
ATOM     88  O   UNL A   1      32.871  34.620  29.355  1.00  0.00    -0.237 OA
ATOM     89  O   UNL A   1      34.939  35.371  28.245  1.00  0.00    -0.237 OA
ATOM     90  O   UNL A   1      33.800  33.355  27.443  1.00  0.00    -0.744 OA
ENDBRANCH  84  87
ENDBRANCH  56  80
BRANCH  68  91
ATOM     91  C   UNL A   1      43.288  35.337  31.304  1.00  0.00     0.023 A 
ATOM     92  C   UNL A   1      43.602  36.311  30.335  1.00  0.00     0.012 A 
ATOM     93  C   UNL A   1      43.292  35.689  32.668  1.00  0.00     0.148 A 
ATOM     94  C   UNL A   1      43.950  37.605  30.722  1.00  0.00     0.002 A 
ATOM     95  C   UNL A   1      43.588  36.993  33.042  1.00  0.00     0.091 A 
ATOM     96  F   UNL A   1      43.010  34.741  33.575  1.00  0.00    -0.205 F 
ATOM     97  C   UNL A   1      43.931  37.948  32.072  1.00  0.00     0.022 A 
BRANCH  95  98
ATOM     98  S   UNL A   1      43.491  37.550  34.747  1.00  0.00     0.127 S 
ATOM     99  O   UNL A   1      42.109  37.217  35.090  1.00  0.00    -0.237 OA
ATOM    100  O   UNL A   1      44.499  36.716  35.403  1.00  0.00    -0.237 OA
ATOM    101  O   UNL A   1      43.805  38.972  34.724  1.00  0.00    -0.744 OA
ENDBRANCH  95  98
ENDBRANCH  68  91
ENDBRANCH  42  43
ENDBRANCH  34  37
ENDBRANCH  32  33
ENDBRANCH  31  32
ENDBRANCH   1  31
TORSDOF 18
ENDMDL
