MODEL 1
REMARK VINA RESULT:     -12.4      0.000      0.000
REMARK SMILES O=C(NCCCCNC(=O)c1cccnc1C(=O)Nc1ccc([N+](=O)[O-])cc1)c1ccc(-c2c3nc(c(-c4cccc(S(=O)(=O)[O-])c4F)c4ccc([nH]4)c(-c4cccc(S(=O)(=O)[O-])c4F)c4nc(c(-c5cccc(S(=O)(=O)[O-])c5F)c5ccc2[nH]5)C=C4)C=C3)cc1
REMARK SMILES IDX 5 1 4 2 3 3 1 4 2 5 29 7 30 8 91 9 31 10 90 11 32 12 33 13
REMARK SMILES IDX 34 14 84 15 35 16 89 17 83 18 85 19 36 20 88 21 82 22 81 23
REMARK SMILES IDX 37 25 69 26 49 27 68 28 50 29 53 30 67 31 86 32 51 33 52 34
REMARK SMILES IDX 66 36 87 37 54 38 38 39 39 40 47 41 40 42 42 43 48 44 41 45
REMARK SMILES IDX 43 46 44 47 45 48 46 49 70 50 71 51 79 52 72 53 74 54 80 55
REMARK SMILES IDX 73 56 75 57 76 58 77 59 78 60 55 61 56 62 64 63 57 64 59 65
REMARK SMILES IDX 65 66 58 67 60 68 61 69 62 70 63 71 6 72 7 73 8 74 9 75
REMARK SMILES IDX 10 77 11 78 12 79 16 80 13 81 15 82 14 83 17 84 18 85 19 86
REMARK SMILES IDX 20 88 21 89 28 90 22 91 27 92 23 93 24 94 25 95 26 96
REMARK H PARENT 3 6 85 24 53 35 8 76 19 87
REMARK Flexibility Score: inf
ROOT
ATOM      1  C   UNL A   1      32.809  27.804  26.903  1.00  0.00     0.023 C 
ENDROOT
BRANCH   1   2
ATOM      2  C   UNL A   1      34.004  28.595  26.386  1.00  0.00     0.116 C 
BRANCH   2   3
ATOM      3  N   UNL A   1      33.862  30.015  26.644  1.00  0.00    -0.352 N 
ATOM      4  O   UNL A   1      34.173  31.944  27.745  1.00  0.00    -0.269 OA
ATOM      5  C   UNL A   1      34.591  30.816  27.492  1.00  0.00     0.251 C 
ATOM      6  H   UNL A   1      33.146  30.468  26.142  1.00  0.00     0.163 HD
BRANCH   5   7
ATOM      7  C   UNL A   1      35.851  30.333  28.112  1.00  0.00     0.039 A 
ATOM      8  C   UNL A   1      35.863  29.705  29.364  1.00  0.00     0.014 A 
ATOM      9  C   UNL A   1      37.040  30.445  27.384  1.00  0.00     0.014 A 
ATOM     10  C   UNL A   1      37.069  29.258  29.914  1.00  0.00     0.010 A 
ATOM     11  C   UNL A   1      38.237  29.958  27.916  1.00  0.00     0.010 A 
ATOM     12  C   UNL A   1      38.266  29.369  29.190  1.00  0.00    -0.014 A 
BRANCH  12  13
ATOM     13  C   UNL A   1      39.539  28.802  29.711  1.00  0.00     0.031 A 
ATOM     14  C   UNL A   1      40.306  29.499  30.798  1.00  0.00     0.074 A 
ATOM     15  C   UNL A   1      40.056  27.704  29.126  1.00  0.00     0.049 A 
ATOM     16  N   UNL A   1      41.486  29.216  31.288  1.00  0.00    -0.248 NA
ATOM     17  C   UNL A   1      39.669  30.676  31.408  1.00  0.00     0.031 C 
ATOM     18  C   UNL A   1      39.434  26.964  28.028  1.00  0.00     0.029 A 
ATOM     19  N   UNL A   1      41.243  27.047  29.341  1.00  0.00    -0.354 N 
ATOM     20  C   UNL A   1      41.754  30.200  32.231  1.00  0.00     0.074 A 
ATOM     21  C   UNL A   1      40.612  31.090  32.245  1.00  0.00     0.031 C 
ATOM     22  C   UNL A   1      40.255  25.974  27.645  1.00  0.00     0.029 A 
ATOM     23  C   UNL A   1      41.477  26.032  28.442  1.00  0.00     0.049 A 
ATOM     24  H   UNL A   1      41.867  27.280  30.067  1.00  0.00     0.167 HD
ATOM     25  C   UNL A   1      42.845  30.341  33.023  1.00  0.00     0.034 A 
ATOM     26  C   UNL A   1      42.561  25.254  28.253  1.00  0.00     0.034 A 
ATOM     27  C   UNL A   1      43.963  29.436  33.033  1.00  0.00     0.049 A 
ATOM     28  C   UNL A   1      43.750  25.414  29.158  1.00  0.00     0.074 A 
ATOM     29  C   UNL A   1      45.075  29.453  33.857  1.00  0.00     0.029 A 
ATOM     30  N   UNL A   1      44.119  28.359  32.174  1.00  0.00    -0.354 N 
ATOM     31  N   UNL A   1      43.925  26.260  30.144  1.00  0.00    -0.248 NA
ATOM     32  C   UNL A   1      44.878  24.495  28.949  1.00  0.00     0.031 C 
ATOM     33  C   UNL A   1      45.911  28.393  33.486  1.00  0.00     0.029 A 
ATOM     34  C   UNL A   1      45.312  27.709  32.440  1.00  0.00     0.049 A 
ATOM     35  H   UNL A   1      43.477  28.096  31.477  1.00  0.00     0.167 HD
ATOM     36  C   UNL A   1      45.164  25.957  30.694  1.00  0.00     0.074 A 
ATOM     37  C   UNL A   1      45.695  24.841  29.938  1.00  0.00     0.031 C 
ATOM     38  C   UNL A   1      45.807  26.559  31.724  1.00  0.00     0.034 A 
BRANCH  25  39
ATOM     39  C   UNL A   1      42.865  31.502  33.982  1.00  0.00     0.023 A 
ATOM     40  C   UNL A   1      43.409  32.735  33.567  1.00  0.00     0.012 A 
ATOM     41  C   UNL A   1      42.302  31.396  35.268  1.00  0.00     0.148 A 
ATOM     42  C   UNL A   1      43.422  33.832  34.427  1.00  0.00     0.002 A 
ATOM     43  C   UNL A   1      42.285  32.506  36.108  1.00  0.00     0.091 A 
ATOM     44  F   UNL A   1      41.810  30.211  35.659  1.00  0.00    -0.205 F 
ATOM     45  C   UNL A   1      42.852  33.720  35.692  1.00  0.00     0.022 A 
BRANCH  43  46
ATOM     46  S   UNL A   1      41.507  32.459  37.727  1.00  0.00     0.127 S 
ATOM     47  O   UNL A   1      40.161  31.998  37.396  1.00  0.00    -0.237 OA
ATOM     48  O   UNL A   1      42.326  31.481  38.445  1.00  0.00    -0.237 OA
ATOM     49  O   UNL A   1      41.607  33.817  38.245  1.00  0.00    -0.744 OA
ENDBRANCH  43  46
ENDBRANCH  25  39
BRANCH  26  50
ATOM     50  C   UNL A   1      42.530  24.220  27.182  1.00  0.00     0.023 A 
ATOM     51  C   UNL A   1      43.173  24.478  25.956  1.00  0.00     0.012 A 
ATOM     52  C   UNL A   1      41.951  22.956  27.404  1.00  0.00     0.148 A 
ATOM     53  C   UNL A   1      43.232  23.496  24.967  1.00  0.00     0.002 A 
ATOM     54  C   UNL A   1      42.060  21.965  26.436  1.00  0.00     0.091 A 
ATOM     55  F   UNL A   1      41.335  22.737  28.575  1.00  0.00    -0.205 F 
ATOM     56  C   UNL A   1      42.689  22.238  25.212  1.00  0.00     0.022 A 
BRANCH  54  57
ATOM     57  S   UNL A   1      41.517  20.275  26.714  1.00  0.00     0.127 S 
ATOM     58  O   UNL A   1      40.079  20.452  26.906  1.00  0.00    -0.237 OA
ATOM     59  O   UNL A   1      41.896  19.626  25.459  1.00  0.00    -0.237 OA
ATOM     60  O   UNL A   1      42.256  19.809  27.880  1.00  0.00    -0.744 OA
ENDBRANCH  54  57
ENDBRANCH  26  50
BRANCH  38  61
ATOM     61  C   UNL A   1      47.148  26.015  32.135  1.00  0.00     0.023 A 
ATOM     62  C   UNL A   1      48.316  26.494  31.512  1.00  0.00     0.012 A 
ATOM     63  C   UNL A   1      47.257  25.110  33.211  1.00  0.00     0.148 A 
ATOM     64  C   UNL A   1      49.573  26.073  31.944  1.00  0.00     0.002 A 
ATOM     65  C   UNL A   1      48.514  24.726  33.663  1.00  0.00     0.091 A 
ATOM     66  F   UNL A   1      46.131  24.651  33.776  1.00  0.00    -0.205 F 
ATOM     67  C   UNL A   1      49.673  25.201  33.026  1.00  0.00     0.022 A 
BRANCH  65  68
ATOM     68  S   UNL A   1      48.741  23.678  35.105  1.00  0.00     0.127 S 
ATOM     69  O   UNL A   1      50.184  23.784  35.326  1.00  0.00    -0.237 OA
ATOM     70  O   UNL A   1      47.920  24.354  36.112  1.00  0.00    -0.237 OA
ATOM     71  O   UNL A   1      48.263  22.359  34.724  1.00  0.00    -0.744 OA
ENDBRANCH  65  68
ENDBRANCH  38  61
ENDBRANCH  12  13
ENDBRANCH   5   7
ENDBRANCH   2   3
ENDBRANCH   1   2
BRANCH   1  72
ATOM     72  C   UNL A   1      31.857  27.166  25.884  1.00  0.00     0.023 C 
BRANCH  72  73
ATOM     73  C   UNL A   1      32.102  25.728  25.429  1.00  0.00     0.116 C 
BRANCH  73  74
ATOM     74  N   UNL A   1      31.615  24.679  26.322  1.00  0.00    -0.352 N 
ATOM     75  C   UNL A   1      32.180  23.466  26.667  1.00  0.00     0.253 C 
ATOM     76  H   UNL A   1      30.746  24.868  26.745  1.00  0.00     0.163 HD
ATOM     77  O   UNL A   1      31.773  22.838  27.642  1.00  0.00    -0.269 OA
BRANCH  75  78
ATOM     78  C   UNL A   1      33.366  22.984  25.965  1.00  0.00     0.071 A 
ATOM     79  C   UNL A   1      34.557  23.171  26.705  1.00  0.00     0.018 A 
ATOM     80  C   UNL A   1      33.432  22.327  24.737  1.00  0.00     0.141 A 
ATOM     81  C   UNL A   1      35.786  22.796  26.189  1.00  0.00     0.021 A 
ATOM     82  N   UNL A   1      34.672  22.001  24.228  1.00  0.00    -0.250 NA
ATOM     83  C   UNL A   1      35.793  22.231  24.939  1.00  0.00     0.112 A 
BRANCH  80  84
ATOM     84  C   UNL A   1      32.358  21.721  23.827  1.00  0.00     0.275 C 
ATOM     85  O   UNL A   1      31.509  22.482  23.339  1.00  0.00    -0.267 OA
ATOM     86  N   UNL A   1      32.364  20.462  23.277  1.00  0.00    -0.321 N 
ATOM     87  H   UNL A   1      32.189  20.456  22.308  1.00  0.00     0.170 HD
BRANCH  86  88
ATOM     88  C   UNL A   1      32.569  19.197  23.813  1.00  0.00     0.042 A 
ATOM     89  C   UNL A   1      32.824  18.155  22.908  1.00  0.00     0.033 A 
ATOM     90  C   UNL A   1      32.525  18.947  25.180  1.00  0.00     0.033 A 
ATOM     91  C   UNL A   1      33.273  16.920  23.375  1.00  0.00     0.088 A 
ATOM     92  C   UNL A   1      32.921  17.695  25.650  1.00  0.00     0.088 A 
ATOM     93  C   UNL A   1      33.381  16.728  24.751  1.00  0.00     0.269 A 
BRANCH  93  94
ATOM     94  N   UNL A   1      34.108  15.573  25.269  1.00  0.00     0.062 N 
ATOM     95  O   UNL A   1      35.300  15.725  25.563  1.00  0.00    -0.258 OA
ATOM     96  O   UNL A   1      33.459  14.524  25.420  1.00  0.00    -0.258 OA
ENDBRANCH  93  94
ENDBRANCH  86  88
ENDBRANCH  80  84
ENDBRANCH  75  78
ENDBRANCH  73  74
ENDBRANCH  72  73
ENDBRANCH   1  72
TORSDOF 17
ENDMDL
MODEL 2
REMARK VINA RESULT:     -12.2      2.752      8.482
REMARK SMILES O=C(NCCCCNC(=O)c1cccnc1C(=O)Nc1ccc([N+](=O)[O-])cc1)c1ccc(-c2c3nc(c(-c4cccc(S(=O)(=O)[O-])c4F)c4ccc([nH]4)c(-c4cccc(S(=O)(=O)[O-])c4F)c4nc(c(-c5cccc(S(=O)(=O)[O-])c5F)c5ccc2[nH]5)C=C4)C=C3)cc1
REMARK SMILES IDX 5 1 4 2 3 3 1 4 2 5 29 7 30 8 91 9 31 10 90 11 32 12 33 13
REMARK SMILES IDX 34 14 84 15 35 16 89 17 83 18 85 19 36 20 88 21 82 22 81 23
REMARK SMILES IDX 37 25 69 26 49 27 68 28 50 29 53 30 67 31 86 32 51 33 52 34
REMARK SMILES IDX 66 36 87 37 54 38 38 39 39 40 47 41 40 42 42 43 48 44 41 45
REMARK SMILES IDX 43 46 44 47 45 48 46 49 70 50 71 51 79 52 72 53 74 54 80 55
REMARK SMILES IDX 73 56 75 57 76 58 77 59 78 60 55 61 56 62 64 63 57 64 59 65
REMARK SMILES IDX 65 66 58 67 60 68 61 69 62 70 63 71 6 72 7 73 8 74 9 75
REMARK SMILES IDX 10 77 11 78 12 79 16 80 13 81 15 82 14 83 17 84 18 85 19 86
REMARK SMILES IDX 20 88 21 89 28 90 22 91 27 92 23 93 24 94 25 95 26 96
REMARK H PARENT 3 6 85 24 53 35 8 76 19 87
REMARK Flexibility Score: inf
ROOT
ATOM      1  C   UNL A   1      31.931  29.196  25.891  1.00  0.00     0.023 C 
ENDROOT
BRANCH   1   2
ATOM      2  C   UNL A   1      33.207  29.877  26.375  1.00  0.00     0.116 C 
BRANCH   2   3
ATOM      3  N   UNL A   1      32.974  31.261  26.737  1.00  0.00    -0.352 N 
ATOM      4  O   UNL A   1      33.203  33.133  27.951  1.00  0.00    -0.269 OA
ATOM      5  C   UNL A   1      33.688  32.061  27.598  1.00  0.00     0.251 C 
ATOM      6  H   UNL A   1      32.199  31.688  26.306  1.00  0.00     0.163 HD
BRANCH   5   7
ATOM      7  C   UNL A   1      35.015  31.639  28.117  1.00  0.00     0.039 A 
ATOM      8  C   UNL A   1      36.133  32.480  28.057  1.00  0.00     0.014 A 
ATOM      9  C   UNL A   1      35.120  30.395  28.748  1.00  0.00     0.014 A 
ATOM     10  C   UNL A   1      37.365  32.050  28.561  1.00  0.00     0.010 A 
ATOM     11  C   UNL A   1      36.341  29.984  29.291  1.00  0.00     0.010 A 
ATOM     12  C   UNL A   1      37.478  30.802  29.194  1.00  0.00    -0.014 A 
BRANCH  12  13
ATOM     13  C   UNL A   1      38.751  30.373  29.832  1.00  0.00     0.031 A 
ATOM     14  C   UNL A   1      39.615  29.321  29.198  1.00  0.00     0.074 A 
ATOM     15  C   UNL A   1      39.077  30.865  31.043  1.00  0.00     0.049 A 
ATOM     16  N   UNL A   1      40.689  28.741  29.668  1.00  0.00    -0.248 NA
ATOM     17  C   UNL A   1      39.212  28.848  27.864  1.00  0.00     0.031 C 
ATOM     18  C   UNL A   1      38.297  31.855  31.786  1.00  0.00     0.029 A 
ATOM     19  N   UNL A   1      40.123  30.567  31.882  1.00  0.00    -0.354 N 
ATOM     20  C   UNL A   1      41.069  27.806  28.713  1.00  0.00     0.074 A 
ATOM     21  C   UNL A   1      40.107  27.896  27.634  1.00  0.00     0.031 C 
ATOM     22  C   UNL A   1      38.872  32.060  32.980  1.00  0.00     0.029 A 
ATOM     23  C   UNL A   1      40.039  31.191  33.104  1.00  0.00     0.049 A 
ATOM     24  H   UNL A   1      40.861  29.964  31.633  1.00  0.00     0.167 HD
ATOM     25  C   UNL A   1      42.128  26.960  28.727  1.00  0.00     0.034 A 
ATOM     26  C   UNL A   1      40.791  31.060  34.215  1.00  0.00     0.034 A 
ATOM     27  C   UNL A   1      43.102  26.898  29.784  1.00  0.00     0.049 A 
ATOM     28  C   UNL A   1      41.973  30.133  34.200  1.00  0.00     0.074 A 
ATOM     29  C   UNL A   1      44.253  26.131  29.847  1.00  0.00     0.029 A 
ATOM     30  N   UNL A   1      43.037  27.619  30.966  1.00  0.00    -0.354 N 
ATOM     31  N   UNL A   1      42.401  29.363  33.229  1.00  0.00    -0.248 NA
ATOM     32  C   UNL A   1      42.798  30.078  35.416  1.00  0.00     0.031 C 
ATOM     33  C   UNL A   1      44.877  26.379  31.076  1.00  0.00     0.029 A 
ATOM     34  C   UNL A   1      44.121  27.311  31.770  1.00  0.00     0.049 A 
ATOM     35  H   UNL A   1      42.325  28.256  31.199  1.00  0.00     0.167 HD
ATOM     36  C   UNL A   1      43.559  28.757  33.702  1.00  0.00     0.074 A 
ATOM     37  C   UNL A   1      43.773  29.258  35.045  1.00  0.00     0.031 C 
ATOM     38  C   UNL A   1      44.362  27.859  33.082  1.00  0.00     0.034 A 
BRANCH  25  39
ATOM     39  C   UNL A   1      42.316  26.057  27.536  1.00  0.00     0.023 A 
ATOM     40  C   UNL A   1      42.931  26.563  26.374  1.00  0.00     0.012 A 
ATOM     41  C   UNL A   1      41.937  24.701  27.582  1.00  0.00     0.148 A 
ATOM     42  C   UNL A   1      43.136  25.744  25.264  1.00  0.00     0.002 A 
ATOM     43  C   UNL A   1      42.178  23.881  26.484  1.00  0.00     0.091 A 
ATOM     44  F   UNL A   1      41.331  24.240  28.685  1.00  0.00    -0.205 F 
ATOM     45  C   UNL A   1      42.769  24.403  25.322  1.00  0.00     0.022 A 
BRANCH  43  46
ATOM     46  S   UNL A   1      41.796  22.125  26.509  1.00  0.00     0.127 S 
ATOM     47  O   UNL A   1      40.337  22.138  26.451  1.00  0.00    -0.237 OA
ATOM     48  O   UNL A   1      42.449  21.641  25.291  1.00  0.00    -0.237 OA
ATOM     49  O   UNL A   1      42.382  21.619  27.743  1.00  0.00    -0.744 OA
ENDBRANCH  43  46
ENDBRANCH  25  39
BRANCH  26  50
ATOM     50  C   UNL A   1      40.457  31.876  35.415  1.00  0.00     0.023 A 
ATOM     51  C   UNL A   1      41.198  33.043  35.683  1.00  0.00     0.012 A 
ATOM     52  C   UNL A   1      39.356  31.554  36.233  1.00  0.00     0.148 A 
ATOM     53  C   UNL A   1      40.852  33.871  36.752  1.00  0.00     0.002 A 
ATOM     54  C   UNL A   1      38.986  32.411  37.262  1.00  0.00     0.091 A 
ATOM     55  F   UNL A   1      38.673  30.432  35.965  1.00  0.00    -0.205 F 
ATOM     56  C   UNL A   1      39.740  33.563  37.531  1.00  0.00     0.022 A 
BRANCH  54  57
ATOM     57  S   UNL A   1      37.490  32.173  38.229  1.00  0.00     0.127 S 
ATOM     58  O   UNL A   1      37.870  32.754  39.515  1.00  0.00    -0.237 OA
ATOM     59  O   UNL A   1      36.512  32.948  37.467  1.00  0.00    -0.237 OA
ATOM     60  O   UNL A   1      37.248  30.736  38.234  1.00  0.00    -0.744 OA
ENDBRANCH  54  57
ENDBRANCH  26  50
BRANCH  38  61
ATOM     61  C   UNL A   1      45.578  27.370  33.821  1.00  0.00     0.023 A 
ATOM     62  C   UNL A   1      46.779  28.102  33.751  1.00  0.00     0.012 A 
ATOM     63  C   UNL A   1      45.499  26.247  34.670  1.00  0.00     0.148 A 
ATOM     64  C   UNL A   1      47.887  27.718  34.504  1.00  0.00     0.002 A 
ATOM     65  C   UNL A   1      46.595  25.893  35.448  1.00  0.00     0.091 A 
ATOM     66  F   UNL A   1      44.352  25.553  34.706  1.00  0.00    -0.205 F 
ATOM     67  C   UNL A   1      47.792  26.624  35.361  1.00  0.00     0.022 A 
BRANCH  65  68
ATOM     68  S   UNL A   1      46.535  24.556  36.646  1.00  0.00     0.127 S 
ATOM     69  O   UNL A   1      45.431  24.978  37.510  1.00  0.00    -0.237 OA
ATOM     70  O   UNL A   1      46.237  23.396  35.802  1.00  0.00    -0.237 OA
ATOM     71  O   UNL A   1      47.843  24.521  37.278  1.00  0.00    -0.744 OA
ENDBRANCH  65  68
ENDBRANCH  38  61
ENDBRANCH  12  13
ENDBRANCH   5   7
ENDBRANCH   2   3
ENDBRANCH   1   2
BRANCH   1  72
ATOM     72  C   UNL A   1      31.418  27.974  26.659  1.00  0.00     0.023 C 
BRANCH  72  73
ATOM     73  C   UNL A   1      32.156  26.642  26.528  1.00  0.00     0.116 C 
BRANCH  73  74
ATOM     74  N   UNL A   1      31.408  25.451  26.923  1.00  0.00    -0.352 N 
ATOM     75  C   UNL A   1      31.713  24.111  26.767  1.00  0.00     0.253 C 
ATOM     76  H   UNL A   1      30.551  25.631  27.372  1.00  0.00     0.163 HD
ATOM     77  O   UNL A   1      31.111  23.251  27.405  1.00  0.00    -0.269 OA
BRANCH  75  78
ATOM     78  C   UNL A   1      32.855  23.710  25.950  1.00  0.00     0.071 A 
ATOM     79  C   UNL A   1      34.023  23.479  26.714  1.00  0.00     0.018 A 
ATOM     80  C   UNL A   1      32.891  23.474  24.577  1.00  0.00     0.141 A 
ATOM     81  C   UNL A   1      35.214  23.113  26.109  1.00  0.00     0.021 A 
ATOM     82  N   UNL A   1      34.098  23.151  23.993  1.00  0.00    -0.250 NA
ATOM     83  C   UNL A   1      35.205  22.979  24.744  1.00  0.00     0.112 A 
BRANCH  80  84
ATOM     84  C   UNL A   1      31.790  23.351  23.518  1.00  0.00     0.275 C 
ATOM     85  O   UNL A   1      31.772  22.333  22.809  1.00  0.00    -0.267 OA
ATOM     86  N   UNL A   1      30.657  24.121  23.419  1.00  0.00    -0.321 N 
ATOM     87  H   UNL A   1      29.830  23.594  23.326  1.00  0.00     0.170 HD
BRANCH  86  88
ATOM     88  C   UNL A   1      30.443  25.494  23.426  1.00  0.00     0.042 A 
ATOM     89  C   UNL A   1      31.439  26.298  22.852  1.00  0.00     0.033 A 
ATOM     90  C   UNL A   1      29.301  26.070  23.973  1.00  0.00     0.033 A 
ATOM     91  C   UNL A   1      31.191  27.647  22.607  1.00  0.00     0.088 A 
ATOM     92  C   UNL A   1      29.075  27.433  23.778  1.00  0.00     0.088 A 
ATOM     93  C   UNL A   1      29.973  28.185  23.016  1.00  0.00     0.269 A 
BRANCH  93  94
ATOM     94  N   UNL A   1      29.559  29.499  22.531  1.00  0.00     0.062 N 
ATOM     95  O   UNL A   1      29.467  30.417  23.355  1.00  0.00    -0.258 OA
ATOM     96  O   UNL A   1      29.371  29.610  21.307  1.00  0.00    -0.258 OA
ENDBRANCH  93  94
ENDBRANCH  86  88
ENDBRANCH  80  84
ENDBRANCH  75  78
ENDBRANCH  73  74
ENDBRANCH  72  73
ENDBRANCH   1  72
TORSDOF 17
ENDMDL
MODEL 3
REMARK VINA RESULT:     -12.2      1.951      7.614
REMARK SMILES O=C(NCCCCNC(=O)c1cccnc1C(=O)Nc1ccc([N+](=O)[O-])cc1)c1ccc(-c2c3nc(c(-c4cccc(S(=O)(=O)[O-])c4F)c4ccc([nH]4)c(-c4cccc(S(=O)(=O)[O-])c4F)c4nc(c(-c5cccc(S(=O)(=O)[O-])c5F)c5ccc2[nH]5)C=C4)C=C3)cc1
REMARK SMILES IDX 5 1 4 2 3 3 1 4 2 5 29 7 30 8 91 9 31 10 90 11 32 12 33 13
REMARK SMILES IDX 34 14 84 15 35 16 89 17 83 18 85 19 36 20 88 21 82 22 81 23
REMARK SMILES IDX 37 25 69 26 49 27 68 28 50 29 53 30 67 31 86 32 51 33 52 34
REMARK SMILES IDX 66 36 87 37 54 38 38 39 39 40 47 41 40 42 42 43 48 44 41 45
REMARK SMILES IDX 43 46 44 47 45 48 46 49 70 50 71 51 79 52 72 53 74 54 80 55
REMARK SMILES IDX 73 56 75 57 76 58 77 59 78 60 55 61 56 62 64 63 57 64 59 65
REMARK SMILES IDX 65 66 58 67 60 68 61 69 62 70 63 71 6 72 7 73 8 74 9 75
REMARK SMILES IDX 10 77 11 78 12 79 16 80 13 81 15 82 14 83 17 84 18 85 19 86
REMARK SMILES IDX 20 88 21 89 28 90 22 91 27 92 23 93 24 94 25 95 26 96
REMARK H PARENT 3 6 85 24 53 35 8 76 19 87
REMARK Flexibility Score: inf
ROOT
ATOM      1  C   UNL A   1      32.458  27.826  25.172  1.00  0.00     0.023 C 
ENDROOT
BRANCH   1   2
ATOM      2  C   UNL A   1      33.510  28.915  25.353  1.00  0.00     0.116 C 
BRANCH   2   3
ATOM      3  N   UNL A   1      32.918  30.172  25.766  1.00  0.00    -0.352 N 
ATOM      4  O   UNL A   1      32.481  31.880  27.153  1.00  0.00    -0.269 OA
ATOM      5  C   UNL A   1      33.246  30.972  26.835  1.00  0.00     0.251 C 
ATOM      6  H   UNL A   1      32.180  30.499  25.202  1.00  0.00     0.163 HD
BRANCH   5   7
ATOM      7  C   UNL A   1      34.490  30.741  27.614  1.00  0.00     0.039 A 
ATOM      8  C   UNL A   1      34.731  29.532  28.278  1.00  0.00     0.014 A 
ATOM      9  C   UNL A   1      35.472  31.737  27.615  1.00  0.00     0.014 A 
ATOM     10  C   UNL A   1      35.917  29.349  28.997  1.00  0.00     0.010 A 
ATOM     11  C   UNL A   1      36.675  31.536  28.297  1.00  0.00     0.010 A 
ATOM     12  C   UNL A   1      36.906  30.344  29.004  1.00  0.00    -0.014 A 
BRANCH  12  13
ATOM     13  C   UNL A   1      38.217  30.126  29.671  1.00  0.00     0.031 A 
ATOM     14  C   UNL A   1      39.218  29.159  29.106  1.00  0.00     0.074 A 
ATOM     15  C   UNL A   1      38.463  30.729  30.850  1.00  0.00     0.049 A 
ATOM     16  N   UNL A   1      40.354  28.754  29.615  1.00  0.00    -0.248 NA
ATOM     17  C   UNL A   1      38.895  28.557  27.803  1.00  0.00     0.031 C 
ATOM     18  C   UNL A   1      37.551  31.651  31.529  1.00  0.00     0.029 A 
ATOM     19  N   UNL A   1      39.530  30.622  31.709  1.00  0.00    -0.354 N 
ATOM     20  C   UNL A   1      40.863  27.821  28.721  1.00  0.00     0.074 A 
ATOM     21  C   UNL A   1      39.910  27.718  27.635  1.00  0.00     0.031 C 
ATOM     22  C   UNL A   1      38.082  32.003  32.709  1.00  0.00     0.029 A 
ATOM     23  C   UNL A   1      39.350  31.303  32.890  1.00  0.00     0.049 A 
ATOM     24  H   UNL A   1      40.342  30.107  31.500  1.00  0.00     0.167 HD
ATOM     25  C   UNL A   1      42.023  27.124  28.790  1.00  0.00     0.034 A 
ATOM     26  C   UNL A   1      40.101  31.340  34.010  1.00  0.00     0.034 A 
ATOM     27  C   UNL A   1      42.986  27.254  29.851  1.00  0.00     0.049 A 
ATOM     28  C   UNL A   1      41.395  30.578  34.055  1.00  0.00     0.074 A 
ATOM     29  C   UNL A   1      44.226  26.651  29.966  1.00  0.00     0.029 A 
ATOM     30  N   UNL A   1      42.814  28.032  30.986  1.00  0.00    -0.354 N 
ATOM     31  N   UNL A   1      41.930  29.812  33.135  1.00  0.00    -0.248 NA
ATOM     32  C   UNL A   1      42.205  30.706  35.275  1.00  0.00     0.031 C 
ATOM     33  C   UNL A   1      44.798  27.053  31.178  1.00  0.00     0.029 A 
ATOM     34  C   UNL A   1      43.920  27.918  31.811  1.00  0.00     0.049 A 
ATOM     35  H   UNL A   1      42.022  28.583  31.178  1.00  0.00     0.167 HD
ATOM     36  C   UNL A   1      43.152  29.394  33.648  1.00  0.00     0.074 A 
ATOM     37  C   UNL A   1      43.284  29.999  34.958  1.00  0.00     0.031 C 
ATOM     38  C   UNL A   1      44.072  28.573  33.087  1.00  0.00     0.034 A 
BRANCH  25  39
ATOM     39  C   UNL A   1      42.340  26.183  27.658  1.00  0.00     0.023 A 
ATOM     40  C   UNL A   1      43.139  26.631  26.587  1.00  0.00     0.012 A 
ATOM     41  C   UNL A   1      41.899  24.845  27.676  1.00  0.00     0.148 A 
ATOM     42  C   UNL A   1      43.466  25.775  25.536  1.00  0.00     0.002 A 
ATOM     43  C   UNL A   1      42.260  23.987  26.642  1.00  0.00     0.091 A 
ATOM     44  F   UNL A   1      41.120  24.439  28.689  1.00  0.00    -0.205 F 
ATOM     45  C   UNL A   1      43.034  24.452  25.568  1.00  0.00     0.022 A 
BRANCH  43  46
ATOM     46  S   UNL A   1      41.800  22.249  26.647  1.00  0.00     0.127 S 
ATOM     47  O   UNL A   1      42.336  21.797  25.366  1.00  0.00    -0.237 OA
ATOM     48  O   UNL A   1      42.513  21.737  27.819  1.00  0.00    -0.237 OA
ATOM     49  O   UNL A   1      40.349  22.232  26.775  1.00  0.00    -0.744 OA
ENDBRANCH  43  46
ENDBRANCH  25  39
BRANCH  26  50
ATOM     50  C   UNL A   1      39.650  32.178  35.155  1.00  0.00     0.023 A 
ATOM     51  C   UNL A   1      39.848  33.571  35.111  1.00  0.00     0.012 A 
ATOM     52  C   UNL A   1      38.947  31.614  36.238  1.00  0.00     0.148 A 
ATOM     53  C   UNL A   1      39.360  34.388  36.132  1.00  0.00     0.002 A 
ATOM     54  C   UNL A   1      38.418  32.439  37.224  1.00  0.00     0.091 A 
ATOM     55  F   UNL A   1      38.780  30.284  36.264  1.00  0.00    -0.205 F 
ATOM     56  C   UNL A   1      38.635  33.825  37.178  1.00  0.00     0.022 A 
BRANCH  54  57
ATOM     57  S   UNL A   1      37.353  31.823  38.533  1.00  0.00     0.127 S 
ATOM     58  O   UNL A   1      38.203  31.987  39.711  1.00  0.00    -0.237 OA
ATOM     59  O   UNL A   1      36.220  32.744  38.458  1.00  0.00    -0.237 OA
ATOM     60  O   UNL A   1      37.037  30.448  38.171  1.00  0.00    -0.744 OA
ENDBRANCH  54  57
ENDBRANCH  26  50
BRANCH  38  61
ATOM     61  C   UNL A   1      45.334  28.293  33.859  1.00  0.00     0.023 A 
ATOM     62  C   UNL A   1      46.421  29.183  33.765  1.00  0.00     0.012 A 
ATOM     63  C   UNL A   1      45.400  27.210  34.759  1.00  0.00     0.148 A 
ATOM     64  C   UNL A   1      47.561  28.992  34.545  1.00  0.00     0.002 A 
ATOM     65  C   UNL A   1      46.523  27.050  35.563  1.00  0.00     0.091 A 
ATOM     66  F   UNL A   1      44.361  26.364  34.818  1.00  0.00    -0.205 F 
ATOM     67  C   UNL A   1      47.607  27.936  35.452  1.00  0.00     0.022 A 
BRANCH  65  68
ATOM     68  S   UNL A   1      46.632  25.772  36.821  1.00  0.00     0.127 S 
ATOM     69  O   UNL A   1      45.481  26.089  37.668  1.00  0.00    -0.237 OA
ATOM     70  O   UNL A   1      46.488  24.546  36.034  1.00  0.00    -0.237 OA
ATOM     71  O   UNL A   1      47.933  25.936  37.450  1.00  0.00    -0.744 OA
ENDBRANCH  65  68
ENDBRANCH  38  61
ENDBRANCH  12  13
ENDBRANCH   5   7
ENDBRANCH   2   3
ENDBRANCH   1   2
BRANCH   1  72
ATOM     72  C   UNL A   1      32.453  26.644  26.146  1.00  0.00     0.023 C 
BRANCH  72  73
ATOM     73  C   UNL A   1      31.870  25.304  25.696  1.00  0.00     0.116 C 
BRANCH  73  74
ATOM     74  N   UNL A   1      31.779  24.266  26.720  1.00  0.00    -0.352 N 
ATOM     75  C   UNL A   1      32.604  23.186  26.974  1.00  0.00     0.253 C 
ATOM     76  H   UNL A   1      31.009  24.351  27.327  1.00  0.00     0.163 HD
ATOM     77  O   UNL A   1      32.538  22.582  28.041  1.00  0.00    -0.269 OA
BRANCH  75  78
ATOM     78  C   UNL A   1      33.667  22.840  26.033  1.00  0.00     0.071 A 
ATOM     79  C   UNL A   1      34.960  23.035  26.570  1.00  0.00     0.018 A 
ATOM     80  C   UNL A   1      33.543  22.297  24.756  1.00  0.00     0.141 A 
ATOM     81  C   UNL A   1      36.094  22.782  25.816  1.00  0.00     0.021 A 
ATOM     82  N   UNL A   1      34.685  22.092  24.010  1.00  0.00    -0.250 NA
ATOM     83  C   UNL A   1      35.904  22.329  24.536  1.00  0.00     0.112 A 
BRANCH  80  84
ATOM     84  C   UNL A   1      32.352  21.707  23.991  1.00  0.00     0.275 C 
ATOM     85  O   UNL A   1      31.450  22.478  23.630  1.00  0.00    -0.267 OA
ATOM     86  N   UNL A   1      32.275  20.455  23.432  1.00  0.00    -0.321 N 
ATOM     87  H   UNL A   1      31.971  20.461  22.495  1.00  0.00     0.170 HD
BRANCH  86  88
ATOM     88  C   UNL A   1      32.542  19.182  23.921  1.00  0.00     0.042 A 
ATOM     89  C   UNL A   1      32.809  18.179  22.977  1.00  0.00     0.033 A 
ATOM     90  C   UNL A   1      32.545  18.889  25.280  1.00  0.00     0.033 A 
ATOM     91  C   UNL A   1      33.317  16.948  23.392  1.00  0.00     0.088 A 
ATOM     92  C   UNL A   1      33.001  17.639  25.699  1.00  0.00     0.088 A 
ATOM     93  C   UNL A   1      33.470  16.718  24.757  1.00  0.00     0.269 A 
BRANCH  93  94
ATOM     94  N   UNL A   1      34.254  15.576  25.218  1.00  0.00     0.062 N 
ATOM     95  O   UNL A   1      35.453  15.759  25.462  1.00  0.00    -0.258 OA
ATOM     96  O   UNL A   1      33.644  14.505  25.376  1.00  0.00    -0.258 OA
ENDBRANCH  93  94
ENDBRANCH  86  88
ENDBRANCH  80  84
ENDBRANCH  75  78
ENDBRANCH  73  74
ENDBRANCH  72  73
ENDBRANCH   1  72
TORSDOF 17
ENDMDL
