MODEL 1
REMARK VINA RESULT:     -13.0      0.000      0.000
REMARK SMILES Cc1c(Cl)cc2c(c1C)O[C@@H](C(F)(F)F)C(C(=O)NCCCCNC(=O)c1ccc(-c3c4nc(c(-c5cccc(S(=O)(=O)[O-])c5F)c5ccc([nH]5)c(-c5cccc(S(=O)(=O)[O-])c5F)c5nc(c(-c6cccc(S(=O)(=O)[O-])c6F)c6ccc3[nH]6)C=C5)C=C4)cc1)=C2
REMARK SMILES IDX 22 1 21 2 20 3 19 4 17 5 18 6 16 8 1 9 2 10 3 11 8 12 4 13
REMARK SMILES IDX 5 14 7 15 9 16 6 17 10 18 90 19 11 20 12 21 13 22 14 23
REMARK SMILES IDX 15 24 23 25 24 26 25 27 26 29 27 30 28 31 89 32 29 33 88 34
REMARK SMILES IDX 30 35 31 36 32 37 82 38 33 39 87 40 81 41 83 42 34 43 86 44
REMARK SMILES IDX 80 45 79 46 35 48 67 49 47 50 66 51 48 52 51 53 65 54 84 55
REMARK SMILES IDX 49 56 50 57 64 59 85 60 52 61 36 62 37 63 45 64 38 65 40 66
REMARK SMILES IDX 46 67 39 68 41 69 42 70 43 71 44 72 68 73 69 74 77 75 70 76
REMARK SMILES IDX 72 77 78 78 71 79 73 80 74 81 75 82 76 83 53 84 54 85 62 86
REMARK SMILES IDX 55 87 57 88 63 89 56 90 58 91 59 92 60 93 61 94
REMARK H PARENT 19 7 24 28 83 47 51 58
REMARK Flexibility Score: inf
ROOT
ATOM      1  C   UNL A   1      32.476  29.348  24.977  1.00  0.00     0.023 C 
ENDROOT
BRANCH   1   2
ATOM      2  C   UNL A   1      33.819  28.906  24.395  1.00  0.00     0.023 C 
BRANCH   2   3
ATOM      3  C   UNL A   1      33.802  28.639  22.891  1.00  0.00     0.116 C 
BRANCH   3   4
ATOM      4  N   UNL A   1      32.461  28.375  22.408  1.00  0.00    -0.352 N 
ATOM      5  C   UNL A   1      31.592  27.339  22.445  1.00  0.00     0.251 C 
ATOM      6  O   UNL A   1      30.474  27.573  21.973  1.00  0.00    -0.270 OA
ATOM      7  H   UNL A   1      32.086  29.148  21.928  1.00  0.00     0.163 HD
BRANCH   5   8
ATOM      8  C   UNL A   1      31.882  25.981  22.994  1.00  0.00     0.067 C 
ATOM      9  C   UNL A   1      34.747  20.442  24.992  1.00  0.00     0.046 C 
ATOM     10  C   UNL A   1      34.297  21.753  24.399  1.00  0.00    -0.026 A 
ATOM     11  C   UNL A   1      35.239  22.610  23.790  1.00  0.00     0.045 A 
ATOM     12  C   UNL A   1      32.951  22.185  24.491  1.00  0.00    -0.004 A 
ATOM     13  Cl  UNL A   1      36.923  22.212  23.710  1.00  0.00    -0.084 Cl
ATOM     14  C   UNL A   1      34.856  23.832  23.231  1.00  0.00     0.032 A 
ATOM     15  C   UNL A   1      32.586  23.419  23.913  1.00  0.00     0.131 A 
ATOM     16  C   UNL A   1      31.870  21.389  25.180  1.00  0.00     0.049 C 
ATOM     17  C   UNL A   1      33.526  24.237  23.284  1.00  0.00     0.019 A 
ATOM     18  O   UNL A   1      31.262  23.772  23.953  1.00  0.00    -0.475 OA
ATOM     19  C   UNL A   1      33.103  25.500  22.694  1.00  0.00     0.025 C 
ATOM     20  C   UNL A   1      30.982  25.202  23.912  1.00  0.00     0.314 C 
BRANCH  20  21
ATOM     21  C   UNL A   1      30.904  25.761  25.343  1.00  0.00     0.429 C 
ATOM     22  F   UNL A   1      30.468  24.852  26.241  1.00  0.00    -0.167 F 
ATOM     23  F   UNL A   1      32.136  26.165  25.751  1.00  0.00    -0.167 F 
ATOM     24  F   UNL A   1      30.086  26.835  25.442  1.00  0.00    -0.167 F 
ENDBRANCH  20  21
ENDBRANCH   5   8
ENDBRANCH   3   4
ENDBRANCH   2   3
ENDBRANCH   1   2
BRANCH   1  25
ATOM     25  C   UNL A   1      32.498  29.709  26.457  1.00  0.00     0.116 C 
BRANCH  25  26
ATOM     26  N   UNL A   1      32.286  31.126  26.722  1.00  0.00    -0.352 N 
ATOM     27  C   UNL A   1      33.169  32.010  27.302  1.00  0.00     0.251 C 
ATOM     28  H   UNL A   1      31.413  31.493  26.458  1.00  0.00     0.163 HD
ATOM     29  O   UNL A   1      32.849  33.169  27.524  1.00  0.00    -0.269 OA
BRANCH  27  30
ATOM     30  C   UNL A   1      34.497  31.502  27.694  1.00  0.00     0.039 A 
ATOM     31  C   UNL A   1      35.533  32.416  27.892  1.00  0.00     0.014 A 
ATOM     32  C   UNL A   1      34.666  30.147  27.991  1.00  0.00     0.014 A 
ATOM     33  C   UNL A   1      36.724  31.979  28.471  1.00  0.00     0.010 A 
ATOM     34  C   UNL A   1      35.826  29.730  28.633  1.00  0.00     0.010 A 
ATOM     35  C   UNL A   1      36.860  30.643  28.886  1.00  0.00    -0.014 A 
BRANCH  35  36
ATOM     36  C   UNL A   1      38.071  30.191  29.614  1.00  0.00     0.031 A 
ATOM     37  C   UNL A   1      38.339  30.682  31.007  1.00  0.00     0.074 A 
ATOM     38  C   UNL A   1      38.963  29.399  28.988  1.00  0.00     0.049 A 
ATOM     39  N   UNL A   1      39.339  30.399  31.798  1.00  0.00    -0.248 NA
ATOM     40  C   UNL A   1      37.372  31.636  31.579  1.00  0.00     0.031 C 
ATOM     41  C   UNL A   1      38.858  28.936  27.602  1.00  0.00     0.029 A 
ATOM     42  N   UNL A   1      40.142  28.852  29.430  1.00  0.00    -0.354 N 
ATOM     43  C   UNL A   1      39.137  31.153  32.946  1.00  0.00     0.074 A 
ATOM     44  C   UNL A   1      37.944  31.943  32.733  1.00  0.00     0.031 C 
ATOM     45  C   UNL A   1      39.910  28.152  27.318  1.00  0.00     0.029 A 
ATOM     46  C   UNL A   1      40.774  28.067  28.493  1.00  0.00     0.049 A 
ATOM     47  H   UNL A   1      40.501  29.006  30.333  1.00  0.00     0.167 HD
ATOM     48  C   UNL A   1      39.851  31.151  34.095  1.00  0.00     0.034 A 
ATOM     49  C   UNL A   1      41.907  27.343  28.580  1.00  0.00     0.034 A 
ATOM     50  C   UNL A   1      40.994  30.313  34.325  1.00  0.00     0.049 A 
ATOM     51  C   UNL A   1      42.653  27.313  29.887  1.00  0.00     0.074 A 
ATOM     52  C   UNL A   1      41.730  30.165  35.487  1.00  0.00     0.029 A 
ATOM     53  N   UNL A   1      41.562  29.474  33.379  1.00  0.00    -0.354 N 
ATOM     54  N   UNL A   1      42.352  27.904  31.019  1.00  0.00    -0.248 NA
ATOM     55  C   UNL A   1      43.874  26.495  29.943  1.00  0.00     0.031 C 
ATOM     56  C   UNL A   1      42.744  29.234  35.242  1.00  0.00     0.029 A 
ATOM     57  C   UNL A   1      42.639  28.805  33.928  1.00  0.00     0.049 A 
ATOM     58  H   UNL A   1      41.244  29.371  32.452  1.00  0.00     0.167 HD
ATOM     59  C   UNL A   1      43.327  27.508  31.927  1.00  0.00     0.074 A 
ATOM     60  C   UNL A   1      44.218  26.611  31.220  1.00  0.00     0.031 C 
ATOM     61  C   UNL A   1      43.479  27.869  33.225  1.00  0.00     0.034 A 
BRANCH  48  62
ATOM     62  C   UNL A   1      39.354  32.008  35.225  1.00  0.00     0.023 A 
ATOM     63  C   UNL A   1      38.415  31.466  36.127  1.00  0.00     0.012 A 
ATOM     64  C   UNL A   1      39.843  33.311  35.433  1.00  0.00     0.148 A 
ATOM     65  C   UNL A   1      37.949  32.217  37.204  1.00  0.00     0.002 A 
ATOM     66  C   UNL A   1      39.400  34.041  36.530  1.00  0.00     0.091 A 
ATOM     67  F   UNL A   1      40.715  33.816  34.549  1.00  0.00    -0.205 F 
ATOM     68  C   UNL A   1      38.449  33.499  37.412  1.00  0.00     0.022 A 
BRANCH  66  69
ATOM     69  S   UNL A   1      40.032  35.677  36.920  1.00  0.00     0.127 S 
ATOM     70  O   UNL A   1      39.576  36.451  35.768  1.00  0.00    -0.237 OA
ATOM     71  O   UNL A   1      39.342  35.985  38.174  1.00  0.00    -0.237 OA
ATOM     72  O   UNL A   1      41.475  35.527  37.045  1.00  0.00    -0.744 OA
ENDBRANCH  66  69
ENDBRANCH  48  62
BRANCH  49  73
ATOM     73  C   UNL A   1      42.328  26.488  27.433  1.00  0.00     0.023 A 
ATOM     74  C   UNL A   1      43.166  27.043  26.447  1.00  0.00     0.012 A 
ATOM     75  C   UNL A   1      41.966  25.131  27.342  1.00  0.00     0.148 A 
ATOM     76  C   UNL A   1      43.624  26.267  25.381  1.00  0.00     0.002 A 
ATOM     77  C   UNL A   1      42.463  24.351  26.303  1.00  0.00     0.091 A 
ATOM     78  F   UNL A   1      41.154  24.624  28.281  1.00  0.00    -0.205 F 
ATOM     79  C   UNL A   1      43.282  24.919  25.315  1.00  0.00     0.022 A 
BRANCH  77  80
ATOM     80  S   UNL A   1      42.180  22.578  26.215  1.00  0.00     0.127 S 
ATOM     81  O   UNL A   1      42.840  22.231  24.960  1.00  0.00    -0.237 OA
ATOM     82  O   UNL A   1      42.856  22.099  27.421  1.00  0.00    -0.237 OA
ATOM     83  O   UNL A   1      40.732  22.417  26.241  1.00  0.00    -0.744 OA
ENDBRANCH  77  80
ENDBRANCH  49  73
BRANCH  61  84
ATOM     84  C   UNL A   1      44.647  27.304  33.985  1.00  0.00     0.023 A 
ATOM     85  C   UNL A   1      45.861  28.017  34.005  1.00  0.00     0.012 A 
ATOM     86  C   UNL A   1      44.499  26.158  34.792  1.00  0.00     0.148 A 
ATOM     87  C   UNL A   1      46.915  27.594  34.814  1.00  0.00     0.002 A 
ATOM     88  C   UNL A   1      45.539  25.767  35.626  1.00  0.00     0.091 A 
ATOM     89  F   UNL A   1      43.337  25.489  34.743  1.00  0.00    -0.205 F 
ATOM     90  C   UNL A   1      46.748  26.481  35.634  1.00  0.00     0.022 A 
BRANCH  88  91
ATOM     91  S   UNL A   1      45.383  24.406  36.790  1.00  0.00     0.127 S 
ATOM     92  O   UNL A   1      44.173  24.777  37.522  1.00  0.00    -0.237 OA
ATOM     93  O   UNL A   1      45.229  23.254  35.901  1.00  0.00    -0.237 OA
ATOM     94  O   UNL A   1      46.611  24.405  37.573  1.00  0.00    -0.744 OA
ENDBRANCH  88  91
ENDBRANCH  61  84
ENDBRANCH  35  36
ENDBRANCH  27  30
ENDBRANCH  25  26
ENDBRANCH   1  25
TORSDOF 15
ENDMDL
MODEL 2
REMARK VINA RESULT:     -12.9      4.978     10.008
REMARK SMILES Cc1c(Cl)cc2c(c1C)O[C@@H](C(F)(F)F)C(C(=O)NCCCCNC(=O)c1ccc(-c3c4nc(c(-c5cccc(S(=O)(=O)[O-])c5F)c5ccc([nH]5)c(-c5cccc(S(=O)(=O)[O-])c5F)c5nc(c(-c6cccc(S(=O)(=O)[O-])c6F)c6ccc3[nH]6)C=C5)C=C4)cc1)=C2
REMARK SMILES IDX 22 1 21 2 20 3 19 4 17 5 18 6 16 8 1 9 2 10 3 11 8 12 4 13
REMARK SMILES IDX 5 14 7 15 9 16 6 17 10 18 90 19 11 20 12 21 13 22 14 23
REMARK SMILES IDX 15 24 23 25 24 26 25 27 26 29 27 30 28 31 89 32 29 33 88 34
REMARK SMILES IDX 30 35 31 36 32 37 82 38 33 39 87 40 81 41 83 42 34 43 86 44
REMARK SMILES IDX 80 45 79 46 35 48 67 49 47 50 66 51 48 52 51 53 65 54 84 55
REMARK SMILES IDX 49 56 50 57 64 59 85 60 52 61 36 62 37 63 45 64 38 65 40 66
REMARK SMILES IDX 46 67 39 68 41 69 42 70 43 71 44 72 68 73 69 74 77 75 70 76
REMARK SMILES IDX 72 77 78 78 71 79 73 80 74 81 75 82 76 83 53 84 54 85 62 86
REMARK SMILES IDX 55 87 57 88 63 89 56 90 58 91 59 92 60 93 61 94
REMARK H PARENT 19 7 24 28 83 47 51 58
REMARK Flexibility Score: inf
ROOT
ATOM      1  C   UNL A   1      35.771  21.535  25.719  1.00  0.00     0.023 C 
ENDROOT
BRANCH   1   2
ATOM      2  C   UNL A   1      35.150  22.697  26.495  1.00  0.00     0.023 C 
BRANCH   2   3
ATOM      3  C   UNL A   1      34.007  22.299  27.426  1.00  0.00     0.116 C 
BRANCH   3   4
ATOM      4  N   UNL A   1      32.975  21.562  26.724  1.00  0.00    -0.352 N 
ATOM      5  C   UNL A   1      32.046  21.834  25.779  1.00  0.00     0.251 C 
ATOM      6  O   UNL A   1      31.403  20.859  25.376  1.00  0.00    -0.270 OA
ATOM      7  H   UNL A   1      32.940  20.620  27.008  1.00  0.00     0.163 HD
BRANCH   5   8
ATOM      8  C   UNL A   1      31.753  23.185  25.213  1.00  0.00     0.067 C 
ATOM      9  C   UNL A   1      30.950  29.616  24.274  1.00  0.00     0.046 C 
ATOM     10  C   UNL A   1      31.129  28.191  24.734  1.00  0.00    -0.026 A 
ATOM     11  C   UNL A   1      31.500  27.925  26.071  1.00  0.00     0.045 A 
ATOM     12  C   UNL A   1      30.995  27.101  23.840  1.00  0.00    -0.004 A 
ATOM     13  Cl  UNL A   1      31.777  29.195  27.216  1.00  0.00    -0.084 Cl
ATOM     14  C   UNL A   1      31.674  26.617  26.530  1.00  0.00     0.032 A 
ATOM     15  C   UNL A   1      31.168  25.789  24.329  1.00  0.00     0.131 A 
ATOM     16  C   UNL A   1      30.671  27.265  22.376  1.00  0.00     0.049 C 
ATOM     17  C   UNL A   1      31.501  25.544  25.661  1.00  0.00     0.019 A 
ATOM     18  O   UNL A   1      30.957  24.753  23.454  1.00  0.00    -0.475 OA
ATOM     19  C   UNL A   1      31.663  24.172  26.124  1.00  0.00     0.025 C 
ATOM     20  C   UNL A   1      31.670  23.516  23.749  1.00  0.00     0.314 C 
BRANCH  20  21
ATOM     21  C   UNL A   1      33.025  23.508  23.021  1.00  0.00     0.429 C 
ATOM     22  F   UNL A   1      32.961  24.040  21.782  1.00  0.00    -0.167 F 
ATOM     23  F   UNL A   1      33.932  24.238  23.722  1.00  0.00    -0.167 F 
ATOM     24  F   UNL A   1      33.541  22.264  22.888  1.00  0.00    -0.167 F 
ENDBRANCH  20  21
ENDBRANCH   5   8
ENDBRANCH   3   4
ENDBRANCH   2   3
ENDBRANCH   1   2
BRANCH   1  25
ATOM     25  C   UNL A   1      37.149  21.812  25.130  1.00  0.00     0.116 C 
BRANCH  25  26
ATOM     26  N   UNL A   1      38.116  20.747  25.364  1.00  0.00    -0.352 N 
ATOM     27  C   UNL A   1      39.308  20.833  26.049  1.00  0.00     0.251 C 
ATOM     28  H   UNL A   1      37.892  19.865  24.989  1.00  0.00     0.163 HD
ATOM     29  O   UNL A   1      40.063  19.874  26.127  1.00  0.00    -0.269 OA
BRANCH  27  30
ATOM     30  C   UNL A   1      39.669  22.134  26.644  1.00  0.00     0.039 A 
ATOM     31  C   UNL A   1      40.660  22.170  27.625  1.00  0.00     0.014 A 
ATOM     32  C   UNL A   1      39.121  23.312  26.130  1.00  0.00     0.014 A 
ATOM     33  C   UNL A   1      41.165  23.404  28.036  1.00  0.00     0.010 A 
ATOM     34  C   UNL A   1      39.676  24.534  26.489  1.00  0.00     0.010 A 
ATOM     35  C   UNL A   1      40.707  24.590  27.438  1.00  0.00    -0.014 A 
BRANCH  35  36
ATOM     36  C   UNL A   1      41.320  25.898  27.774  1.00  0.00     0.031 A 
ATOM     37  C   UNL A   1      42.728  26.201  27.352  1.00  0.00     0.074 A 
ATOM     38  C   UNL A   1      40.630  26.779  28.525  1.00  0.00     0.049 A 
ATOM     39  N   UNL A   1      43.429  27.284  27.554  1.00  0.00    -0.248 NA
ATOM     40  C   UNL A   1      43.454  25.140  26.632  1.00  0.00     0.031 C 
ATOM     41  C   UNL A   1      39.290  26.557  29.074  1.00  0.00     0.029 A 
ATOM     42  N   UNL A   1      40.963  28.036  28.967  1.00  0.00    -0.354 N 
ATOM     43  C   UNL A   1      44.681  27.029  27.010  1.00  0.00     0.074 A 
ATOM     44  C   UNL A   1      44.661  25.672  26.511  1.00  0.00     0.031 C 
ATOM     45  C   UNL A   1      38.904  27.649  29.753  1.00  0.00     0.029 A 
ATOM     46  C   UNL A   1      39.972  28.645  29.702  1.00  0.00     0.049 A 
ATOM     47  H   UNL A   1      41.830  28.461  28.776  1.00  0.00     0.167 HD
ATOM     48  C   UNL A   1      45.737  27.867  26.891  1.00  0.00     0.034 A 
ATOM     49  C   UNL A   1      39.922  29.874  30.250  1.00  0.00     0.034 A 
ATOM     50  C   UNL A   1      45.727  29.234  27.327  1.00  0.00     0.049 A 
ATOM     51  C   UNL A   1      41.087  30.806  30.056  1.00  0.00     0.074 A 
ATOM     52  C   UNL A   1      46.710  30.194  27.166  1.00  0.00     0.029 A 
ATOM     53  N   UNL A   1      44.678  29.841  28.001  1.00  0.00    -0.354 N 
ATOM     54  N   UNL A   1      42.200  30.604  29.392  1.00  0.00    -0.248 NA
ATOM     55  C   UNL A   1      40.982  32.145  30.656  1.00  0.00     0.031 C 
ATOM     56  C   UNL A   1      46.254  31.383  27.743  1.00  0.00     0.029 A 
ATOM     57  C   UNL A   1      44.988  31.162  28.263  1.00  0.00     0.049 A 
ATOM     58  H   UNL A   1      43.836  29.396  28.254  1.00  0.00     0.167 HD
ATOM     59  C   UNL A   1      42.913  31.795  29.468  1.00  0.00     0.074 A 
ATOM     60  C   UNL A   1      42.099  32.721  30.228  1.00  0.00     0.031 C 
ATOM     61  C   UNL A   1      44.139  32.087  28.969  1.00  0.00     0.034 A 
BRANCH  48  62
ATOM     62  C   UNL A   1      46.954  27.355  26.171  1.00  0.00     0.023 A 
ATOM     63  C   UNL A   1      47.049  27.544  24.777  1.00  0.00     0.012 A 
ATOM     64  C   UNL A   1      48.016  26.744  26.863  1.00  0.00     0.148 A 
ATOM     65  C   UNL A   1      48.172  27.110  24.077  1.00  0.00     0.002 A 
ATOM     66  C   UNL A   1      49.149  26.346  26.162  1.00  0.00     0.091 A 
ATOM     67  F   UNL A   1      47.894  26.551  28.184  1.00  0.00    -0.205 F 
ATOM     68  C   UNL A   1      49.225  26.521  24.770  1.00  0.00     0.022 A 
BRANCH  66  69
ATOM     69  S   UNL A   1      50.586  25.636  26.973  1.00  0.00     0.127 S 
ATOM     70  O   UNL A   1      50.970  26.710  27.887  1.00  0.00    -0.237 OA
ATOM     71  O   UNL A   1      50.021  24.453  27.626  1.00  0.00    -0.237 OA
ATOM     72  O   UNL A   1      51.539  25.343  25.911  1.00  0.00    -0.744 OA
ENDBRANCH  66  69
ENDBRANCH  48  62
BRANCH  49  73
ATOM     73  C   UNL A   1      38.672  30.332  30.923  1.00  0.00     0.023 A 
ATOM     74  C   UNL A   1      38.536  30.131  32.310  1.00  0.00     0.012 A 
ATOM     75  C   UNL A   1      37.658  31.016  30.226  1.00  0.00     0.148 A 
ATOM     76  C   UNL A   1      37.405  30.586  32.990  1.00  0.00     0.002 A 
ATOM     77  C   UNL A   1      36.555  31.509  30.917  1.00  0.00     0.091 A 
ATOM     78  F   UNL A   1      37.797  31.185  28.904  1.00  0.00    -0.205 F 
ATOM     79  C   UNL A   1      36.421  31.284  32.296  1.00  0.00     0.022 A 
BRANCH  77  80
ATOM     80  S   UNL A   1      35.307  32.531  30.126  1.00  0.00     0.127 S 
ATOM     81  O   UNL A   1      34.798  31.637  29.090  1.00  0.00    -0.237 OA
ATOM     82  O   UNL A   1      34.378  32.790  31.227  1.00  0.00    -0.237 OA
ATOM     83  O   UNL A   1      36.017  33.713  29.656  1.00  0.00    -0.744 OA
ENDBRANCH  77  80
ENDBRANCH  49  73
BRANCH  61  84
ATOM     84  C   UNL A   1      44.694  33.462  29.217  1.00  0.00     0.023 A 
ATOM     85  C   UNL A   1      45.475  33.689  30.366  1.00  0.00     0.012 A 
ATOM     86  C   UNL A   1      44.570  34.478  28.248  1.00  0.00     0.148 A 
ATOM     87  C   UNL A   1      46.121  34.910  30.551  1.00  0.00     0.002 A 
ATOM     88  C   UNL A   1      45.250  35.678  28.419  1.00  0.00     0.091 A 
ATOM     89  F   UNL A   1      43.808  34.241  27.169  1.00  0.00    -0.205 F 
ATOM     90  C   UNL A   1      46.021  35.897  29.572  1.00  0.00     0.022 A 
BRANCH  88  91
ATOM     91  S   UNL A   1      45.261  36.968  27.168  1.00  0.00     0.127 S 
ATOM     92  O   UNL A   1      46.028  36.336  26.096  1.00  0.00    -0.237 OA
ATOM     93  O   UNL A   1      43.836  37.135  26.882  1.00  0.00    -0.237 OA
ATOM     94  O   UNL A   1      45.893  38.124  27.790  1.00  0.00    -0.744 OA
ENDBRANCH  88  91
ENDBRANCH  61  84
ENDBRANCH  35  36
ENDBRANCH  27  30
ENDBRANCH  25  26
ENDBRANCH   1  25
TORSDOF 15
ENDMDL
MODEL 3
REMARK VINA RESULT:     -12.9      1.260      1.581
REMARK SMILES Cc1c(Cl)cc2c(c1C)O[C@@H](C(F)(F)F)C(C(=O)NCCCCNC(=O)c1ccc(-c3c4nc(c(-c5cccc(S(=O)(=O)[O-])c5F)c5ccc([nH]5)c(-c5cccc(S(=O)(=O)[O-])c5F)c5nc(c(-c6cccc(S(=O)(=O)[O-])c6F)c6ccc3[nH]6)C=C5)C=C4)cc1)=C2
REMARK SMILES IDX 22 1 21 2 20 3 19 4 17 5 18 6 16 8 1 9 2 10 3 11 8 12 4 13
REMARK SMILES IDX 5 14 7 15 9 16 6 17 10 18 90 19 11 20 12 21 13 22 14 23
REMARK SMILES IDX 15 24 23 25 24 26 25 27 26 29 27 30 28 31 89 32 29 33 88 34
REMARK SMILES IDX 30 35 31 36 32 37 82 38 33 39 87 40 81 41 83 42 34 43 86 44
REMARK SMILES IDX 80 45 79 46 35 48 67 49 47 50 66 51 48 52 51 53 65 54 84 55
REMARK SMILES IDX 49 56 50 57 64 59 85 60 52 61 36 62 37 63 45 64 38 65 40 66
REMARK SMILES IDX 46 67 39 68 41 69 42 70 43 71 44 72 68 73 69 74 77 75 70 76
REMARK SMILES IDX 72 77 78 78 71 79 73 80 74 81 75 82 76 83 53 84 54 85 62 86
REMARK SMILES IDX 55 87 57 88 63 89 56 90 58 91 59 92 60 93 61 94
REMARK H PARENT 19 7 24 28 83 47 51 58
REMARK Flexibility Score: inf
ROOT
ATOM      1  C   UNL A   1      32.581  29.631  25.267  1.00  0.00     0.023 C 
ENDROOT
BRANCH   1   2
ATOM      2  C   UNL A   1      33.596  28.650  24.681  1.00  0.00     0.023 C 
BRANCH   2   3
ATOM      3  C   UNL A   1      33.702  28.679  23.158  1.00  0.00     0.116 C 
BRANCH   3   4
ATOM      4  N   UNL A   1      32.435  28.366  22.526  1.00  0.00    -0.352 N 
ATOM      5  C   UNL A   1      31.615  27.292  22.454  1.00  0.00     0.251 C 
ATOM      6  O   UNL A   1      30.546  27.485  21.864  1.00  0.00    -0.270 OA
ATOM      7  H   UNL A   1      32.081  29.130  22.018  1.00  0.00     0.163 HD
BRANCH   5   8
ATOM      8  C   UNL A   1      31.904  25.939  23.015  1.00  0.00     0.067 C 
ATOM      9  C   UNL A   1      34.761  20.406  25.044  1.00  0.00     0.046 C 
ATOM     10  C   UNL A   1      34.311  21.713  24.441  1.00  0.00    -0.026 A 
ATOM     11  C   UNL A   1      35.251  22.558  23.811  1.00  0.00     0.045 A 
ATOM     12  C   UNL A   1      32.969  22.154  24.544  1.00  0.00    -0.004 A 
ATOM     13  Cl  UNL A   1      36.932  22.150  23.717  1.00  0.00    -0.084 Cl
ATOM     14  C   UNL A   1      34.868  23.776  23.243  1.00  0.00     0.032 A 
ATOM     15  C   UNL A   1      32.604  23.384  23.955  1.00  0.00     0.131 A 
ATOM     16  C   UNL A   1      31.892  21.372  25.254  1.00  0.00     0.049 C 
ATOM     17  C   UNL A   1      33.541  24.188  23.307  1.00  0.00     0.019 A 
ATOM     18  O   UNL A   1      31.282  23.744  24.006  1.00  0.00    -0.475 OA
ATOM     19  C   UNL A   1      33.119  25.447  22.707  1.00  0.00     0.025 C 
ATOM     20  C   UNL A   1      31.010  25.175  23.952  1.00  0.00     0.314 C 
BRANCH  20  21
ATOM     21  C   UNL A   1      30.952  25.751  25.378  1.00  0.00     0.429 C 
ATOM     22  F   UNL A   1      30.241  26.896  25.455  1.00  0.00    -0.167 F 
ATOM     23  F   UNL A   1      30.361  24.858  26.215  1.00  0.00    -0.167 F 
ATOM     24  F   UNL A   1      32.178  26.014  25.887  1.00  0.00    -0.167 F 
ENDBRANCH  20  21
ENDBRANCH   5   8
ENDBRANCH   3   4
ENDBRANCH   2   3
ENDBRANCH   1   2
BRANCH   1  25
ATOM     25  C   UNL A   1      32.779  29.969  26.740  1.00  0.00     0.116 C 
BRANCH  25  26
ATOM     26  N   UNL A   1      32.661  31.390  27.041  1.00  0.00    -0.352 N 
ATOM     27  C   UNL A   1      33.609  32.206  27.618  1.00  0.00     0.251 C 
ATOM     28  H   UNL A   1      31.805  31.815  26.806  1.00  0.00     0.163 HD
ATOM     29  O   UNL A   1      33.365  33.377  27.873  1.00  0.00    -0.269 OA
BRANCH  27  30
ATOM     30  C   UNL A   1      34.913  31.609  27.966  1.00  0.00     0.039 A 
ATOM     31  C   UNL A   1      36.030  32.441  28.046  1.00  0.00     0.014 A 
ATOM     32  C   UNL A   1      34.987  30.265  28.338  1.00  0.00     0.014 A 
ATOM     33  C   UNL A   1      37.215  31.939  28.583  1.00  0.00     0.010 A 
ATOM     34  C   UNL A   1      36.147  29.788  28.938  1.00  0.00     0.010 A 
ATOM     35  C   UNL A   1      37.266  30.623  29.074  1.00  0.00    -0.014 A 
BRANCH  35  36
ATOM     36  C   UNL A   1      38.478  30.112  29.759  1.00  0.00     0.031 A 
ATOM     37  C   UNL A   1      38.817  30.587  31.142  1.00  0.00     0.074 A 
ATOM     38  C   UNL A   1      39.310  29.280  29.102  1.00  0.00     0.049 A 
ATOM     39  N   UNL A   1      39.830  30.255  31.897  1.00  0.00    -0.248 NA
ATOM     40  C   UNL A   1      37.917  31.584  31.747  1.00  0.00     0.031 C 
ATOM     41  C   UNL A   1      39.135  28.825  27.720  1.00  0.00     0.029 A 
ATOM     42  N   UNL A   1      40.476  28.676  29.503  1.00  0.00    -0.354 N 
ATOM     43  C   UNL A   1      39.703  31.015  33.052  1.00  0.00     0.074 A 
ATOM     44  C   UNL A   1      38.544  31.862  32.881  1.00  0.00     0.031 C 
ATOM     45  C   UNL A   1      40.138  27.992  27.399  1.00  0.00     0.029 A 
ATOM     46  C   UNL A   1      41.036  27.864  28.544  1.00  0.00     0.049 A 
ATOM     47  H   UNL A   1      40.873  28.811  30.393  1.00  0.00     0.167 HD
ATOM     48  C   UNL A   1      40.456  30.977  34.175  1.00  0.00     0.034 A 
ATOM     49  C   UNL A   1      42.136  27.086  28.592  1.00  0.00     0.034 A 
ATOM     50  C   UNL A   1      41.565  30.086  34.366  1.00  0.00     0.049 A 
ATOM     51  C   UNL A   1      42.924  27.019  29.872  1.00  0.00     0.074 A 
ATOM     52  C   UNL A   1      42.333  29.900  35.502  1.00  0.00     0.029 A 
ATOM     53  N   UNL A   1      42.060  29.222  33.400  1.00  0.00    -0.354 N 
ATOM     54  N   UNL A   1      42.692  27.621  31.014  1.00  0.00    -0.248 NA
ATOM     55  C   UNL A   1      44.106  26.143  29.885  1.00  0.00     0.031 C 
ATOM     56  C   UNL A   1      43.292  28.923  35.221  1.00  0.00     0.029 A 
ATOM     57  C   UNL A   1      43.122  28.501  33.912  1.00  0.00     0.049 A 
ATOM     58  H   UNL A   1      41.706  29.136  32.485  1.00  0.00     0.167 HD
ATOM     59  C   UNL A   1      43.677  27.177  31.888  1.00  0.00     0.074 A 
ATOM     60  C   UNL A   1      44.499  26.241  31.150  1.00  0.00     0.031 C 
ATOM     61  C   UNL A   1      43.891  27.528  33.179  1.00  0.00     0.034 A 
BRANCH  48  62
ATOM     62  C   UNL A   1      40.040  31.855  35.323  1.00  0.00     0.023 A 
ATOM     63  C   UNL A   1      40.568  33.159  35.408  1.00  0.00     0.012 A 
ATOM     64  C   UNL A   1      39.099  31.424  36.276  1.00  0.00     0.148 A 
ATOM     65  C   UNL A   1      40.187  34.014  36.439  1.00  0.00     0.002 A 
ATOM     66  C   UNL A   1      38.696  32.296  37.282  1.00  0.00     0.091 A 
ATOM     67  F   UNL A   1      38.629  30.171  36.192  1.00  0.00    -0.205 F 
ATOM     68  C   UNL A   1      39.244  33.587  37.370  1.00  0.00     0.022 A 
BRANCH  66  69
ATOM     69  S   UNL A   1      37.439  31.861  38.490  1.00  0.00     0.127 S 
ATOM     70  O   UNL A   1      38.151  32.081  39.748  1.00  0.00    -0.237 OA
ATOM     71  O   UNL A   1      36.386  32.838  38.207  1.00  0.00    -0.237 OA
ATOM     72  O   UNL A   1      37.075  30.480  38.208  1.00  0.00    -0.744 OA
ENDBRANCH  66  69
ENDBRANCH  48  62
BRANCH  49  73
ATOM     73  C   UNL A   1      42.476  26.215  27.431  1.00  0.00     0.023 A 
ATOM     74  C   UNL A   1      43.288  26.738  26.405  1.00  0.00     0.012 A 
ATOM     75  C   UNL A   1      42.064  24.871  27.361  1.00  0.00     0.148 A 
ATOM     76  C   UNL A   1      43.670  25.945  25.323  1.00  0.00     0.002 A 
ATOM     77  C   UNL A   1      42.487  24.071  26.305  1.00  0.00     0.091 A 
ATOM     78  F   UNL A   1      41.279  24.395  28.338  1.00  0.00    -0.205 F 
ATOM     79  C   UNL A   1      43.280  24.609  25.278  1.00  0.00     0.022 A 
BRANCH  77  80
ATOM     80  S   UNL A   1      42.140  22.309  26.237  1.00  0.00     0.127 S 
ATOM     81  O   UNL A   1      40.686  22.294  26.114  1.00  0.00    -0.237 OA
ATOM     82  O   UNL A   1      42.864  21.900  25.032  1.00  0.00    -0.237 OA
ATOM     83  O   UNL A   1      42.684  21.761  27.472  1.00  0.00    -0.744 OA
ENDBRANCH  77  80
ENDBRANCH  49  73
BRANCH  61  84
ATOM     84  C   UNL A   1      45.056  26.906  33.899  1.00  0.00     0.023 A 
ATOM     85  C   UNL A   1      46.276  27.607  33.960  1.00  0.00     0.012 A 
ATOM     86  C   UNL A   1      44.902  25.713  34.631  1.00  0.00     0.148 A 
ATOM     87  C   UNL A   1      47.329  27.126  34.737  1.00  0.00     0.002 A 
ATOM     88  C   UNL A   1      45.940  25.261  35.436  1.00  0.00     0.091 A 
ATOM     89  F   UNL A   1      43.734  25.057  34.543  1.00  0.00    -0.205 F 
ATOM     90  C   UNL A   1      47.156  25.963  35.485  1.00  0.00     0.022 A 
BRANCH  88  91
ATOM     91  S   UNL A   1      45.776  23.830  36.510  1.00  0.00     0.127 S 
ATOM     92  O   UNL A   1      45.595  24.458  37.818  1.00  0.00    -0.237 OA
ATOM     93  O   UNL A   1      44.582  23.176  35.976  1.00  0.00    -0.237 OA
ATOM     94  O   UNL A   1      47.006  23.065  36.351  1.00  0.00    -0.744 OA
ENDBRANCH  88  91
ENDBRANCH  61  84
ENDBRANCH  35  36
ENDBRANCH  27  30
ENDBRANCH  25  26
ENDBRANCH   1  25
TORSDOF 15
ENDMDL
