MODEL 1
REMARK VINA RESULT:     -11.5      0.000      0.000
REMARK SMILES CSCC[C@H](C(=O)NCCCCNC(=O)c1ccc(-c2c3nc(c(-c4cccc(S(=O)(=O)[O-])c4F)c4ccc([nH]4)c(-c4cccc(S(=O)(=O)[O-])c4F)c4nc(c(-c5cccc(S(=O)(=O)[O-])c5F)c5ccc2[nH]5)C=C4)C=C3)cc1)N1C(=O)/C(=C/c2cn(C)c3ccccc23)SC1=S
REMARK SMILES IDX 10 1 9 2 8 3 6 4 7 5 5 7 4 8 3 9 2 10 1 11 79 12 80 13 95 14
REMARK SMILES IDX 81 15 82 16 94 17 96 18 83 19 84 20 85 21 93 22 86 23 88 24
REMARK SMILES IDX 92 25 87 26 89 27 91 28 90 29 11 30 12 31 13 32 14 33 15 35
REMARK SMILES IDX 16 36 17 37 78 38 18 39 77 40 19 41 20 42 21 43 71 44 22 45
REMARK SMILES IDX 76 46 70 47 72 48 23 49 75 50 69 51 68 52 24 54 56 55 36 56
REMARK SMILES IDX 55 57 37 58 40 59 54 60 73 61 38 62 39 63 53 65 74 66 41 67
REMARK SMILES IDX 25 68 26 69 34 70 27 71 29 72 35 73 28 74 30 75 31 76 32 77
REMARK SMILES IDX 33 78 57 79 58 80 66 81 59 82 61 83 67 84 60 85 62 86 63 87
REMARK SMILES IDX 64 88 65 89 42 90 43 91 51 92 44 93 46 94 52 95 45 96 47 97
REMARK SMILES IDX 48 98 49 99 50 100
REMARK H PARENT 8 6 13 34 72 53 40 64
REMARK Flexibility Score: inf
ROOT
ATOM      1  C   UNL A   1      32.112  30.631  26.810  1.00  0.00     0.023 C 
ENDROOT
BRANCH   1   2
ATOM      2  C   UNL A   1      32.002  29.986  25.419  1.00  0.00     0.116 C 
BRANCH   2   3
ATOM      3  N   UNL A   1      33.237  29.435  24.872  1.00  0.00    -0.354 N 
ATOM      4  C   UNL A   1      33.528  28.328  24.108  1.00  0.00     0.243 C 
ATOM      5  O   UNL A   1      34.674  28.250  23.660  1.00  0.00    -0.273 OA
ATOM      6  H   UNL A   1      34.032  29.968  25.100  1.00  0.00     0.163 HD
BRANCH   4   7
ATOM      7  C   UNL A   1      32.491  27.187  23.896  1.00  0.00     0.182 C 
BRANCH   7   8
ATOM      8  C   UNL A   1      32.447  26.730  22.425  1.00  0.00     0.046 C 
BRANCH   8   9
ATOM      9  C   UNL A   1      31.045  26.788  21.805  1.00  0.00     0.072 C 
BRANCH   9  10
ATOM     10  S   UNL A   1      29.848  27.842  22.702  1.00  0.00    -0.165 SA
ATOM     11  C   UNL A   1      30.326  29.489  22.125  1.00  0.00     0.085 C 
ENDBRANCH   9  10
ENDBRANCH   8   9
ENDBRANCH   7   8
BRANCH   7  12
ATOM     12  N   UNL A   1      32.650  26.037  24.832  1.00  0.00    -0.280 N 
ATOM     13  C   UNL A   1      33.718  24.721  24.268  1.00  0.00     0.266 C 
ATOM     14  C   UNL A   1      31.302  25.756  25.891  1.00  0.00     0.149 C 
ATOM     15  O   UNL A   1      34.605  24.834  23.433  1.00  0.00    -0.268 OA
ATOM     16  C   UNL A   1      33.022  22.977  24.923  1.00  0.00     0.081 C 
ATOM     17  S   UNL A   1      30.950  23.535  26.200  1.00  0.00    -0.054 SA
ATOM     18  S   UNL A   1      30.677  26.764  27.101  1.00  0.00    -0.052 S 
ATOM     19  C   UNL A   1      33.527  21.738  24.505  1.00  0.00     0.031 C 
BRANCH  19  20
ATOM     20  C   UNL A   1      32.666  20.589  24.762  1.00  0.00     0.001 A 
ATOM     21  C   UNL A   1      32.524  19.379  24.053  1.00  0.00     0.094 A 
ATOM     22  C   UNL A   1      33.298  20.162  25.972  1.00  0.00     0.007 A 
ATOM     23  N   UNL A   1      33.666  18.615  24.317  1.00  0.00    -0.350 N 
ATOM     24  C   UNL A   1      34.491  19.521  24.906  1.00  0.00     0.048 A 
ATOM     25  C   UNL A   1      33.653  21.415  27.139  1.00  0.00     0.011 A 
ATOM     26  C   UNL A   1      33.730  17.238  24.770  1.00  0.00     0.149 C 
ATOM     27  C   UNL A   1      36.018  20.196  24.553  1.00  0.00     0.027 A 
ATOM     28  C   UNL A   1      35.218  22.180  26.999  1.00  0.00     0.001 A 
ATOM     29  C   UNL A   1      36.492  21.527  25.565  1.00  0.00     0.002 A 
ENDBRANCH  19  20
ENDBRANCH   7  12
ENDBRANCH   4   7
ENDBRANCH   2   3
ENDBRANCH   1   2
BRANCH   1  30
ATOM     30  C   UNL A   1      31.819  32.125  26.915  1.00  0.00     0.023 C 
BRANCH  30  31
ATOM     31  C   UNL A   1      33.018  32.954  27.318  1.00  0.00     0.116 C 
BRANCH  31  32
ATOM     32  N   UNL A   1      32.644  34.306  27.716  1.00  0.00    -0.352 N 
ATOM     33  C   UNL A   1      33.111  35.055  28.768  1.00  0.00     0.251 C 
ATOM     34  H   UNL A   1      31.964  34.741  27.152  1.00  0.00     0.163 HD
ATOM     35  O   UNL A   1      32.558  36.111  29.061  1.00  0.00    -0.269 OA
BRANCH  33  36
ATOM     36  C   UNL A   1      34.262  34.564  29.553  1.00  0.00     0.039 A 
ATOM     37  C   UNL A   1      34.031  33.928  30.773  1.00  0.00     0.014 A 
ATOM     38  C   UNL A   1      35.562  34.691  29.058  1.00  0.00     0.014 A 
ATOM     39  C   UNL A   1      35.103  33.368  31.467  1.00  0.00     0.010 A 
ATOM     40  C   UNL A   1      36.607  34.030  29.689  1.00  0.00     0.010 A 
ATOM     41  C   UNL A   1      36.393  33.379  30.910  1.00  0.00    -0.014 A 
BRANCH  41  42
ATOM     42  C   UNL A   1      37.534  32.723  31.594  1.00  0.00     0.031 A 
ATOM     43  C   UNL A   1      38.241  31.567  30.939  1.00  0.00     0.074 A 
ATOM     44  C   UNL A   1      37.889  33.124  32.831  1.00  0.00     0.049 A 
ATOM     45  N   UNL A   1      39.228  30.842  31.396  1.00  0.00    -0.248 NA
ATOM     46  C   UNL A   1      37.763  31.154  29.609  1.00  0.00     0.031 C 
ATOM     47  C   UNL A   1      37.231  34.183  33.599  1.00  0.00     0.029 A 
ATOM     48  N   UNL A   1      38.879  32.674  33.668  1.00  0.00    -0.354 N 
ATOM     49  C   UNL A   1      39.466  29.873  30.429  1.00  0.00     0.074 A 
ATOM     50  C   UNL A   1      38.490  30.071  29.381  1.00  0.00     0.031 C 
ATOM     51  C   UNL A   1      37.843  34.311  34.786  1.00  0.00     0.029 A 
ATOM     52  C   UNL A   1      38.904  33.315  34.885  1.00  0.00     0.049 A 
ATOM     53  H   UNL A   1      39.511  31.961  33.421  1.00  0.00     0.167 HD
ATOM     54  C   UNL A   1      40.428  28.923  30.399  1.00  0.00     0.034 A 
ATOM     55  C   UNL A   1      39.679  33.107  35.967  1.00  0.00     0.034 A 
ATOM     56  C   UNL A   1      41.405  28.739  31.437  1.00  0.00     0.049 A 
ATOM     57  C   UNL A   1      40.739  32.041  35.910  1.00  0.00     0.074 A 
ATOM     58  C   UNL A   1      42.464  27.850  31.472  1.00  0.00     0.029 A 
ATOM     59  N   UNL A   1      41.430  29.440  32.634  1.00  0.00    -0.354 N 
ATOM     60  N   UNL A   1      41.037  31.225  34.928  1.00  0.00    -0.248 NA
ATOM     61  C   UNL A   1      41.590  31.888  37.099  1.00  0.00     0.031 C 
ATOM     62  C   UNL A   1      43.096  27.974  32.713  1.00  0.00     0.029 A 
ATOM     63  C   UNL A   1      42.473  28.989  33.423  1.00  0.00     0.049 A 
ATOM     64  H   UNL A   1      40.799  30.152  32.884  1.00  0.00     0.167 HD
ATOM     65  C   UNL A   1      42.135  30.492  35.363  1.00  0.00     0.074 A 
ATOM     66  C   UNL A   1      42.458  30.974  36.690  1.00  0.00     0.031 C 
ATOM     67  C   UNL A   1      42.808  29.504  34.725  1.00  0.00     0.034 A 
BRANCH  54  68
ATOM     68  C   UNL A   1      40.486  28.022  29.192  1.00  0.00     0.023 A 
ATOM     69  C   UNL A   1      39.571  26.955  29.065  1.00  0.00     0.012 A 
ATOM     70  C   UNL A   1      41.412  28.263  28.159  1.00  0.00     0.148 A 
ATOM     71  C   UNL A   1      39.605  26.119  27.950  1.00  0.00     0.002 A 
ATOM     72  C   UNL A   1      41.405  27.458  27.027  1.00  0.00     0.091 A 
ATOM     73  F   UNL A   1      42.285  29.269  28.306  1.00  0.00    -0.205 F 
ATOM     74  C   UNL A   1      40.513  26.377  26.927  1.00  0.00     0.022 A 
BRANCH  72  75
ATOM     75  S   UNL A   1      42.477  27.756  25.619  1.00  0.00     0.127 S 
ATOM     76  O   UNL A   1      42.237  26.563  24.809  1.00  0.00    -0.237 OA
ATOM     77  O   UNL A   1      41.918  28.990  25.067  1.00  0.00    -0.237 OA
ATOM     78  O   UNL A   1      43.825  27.882  26.155  1.00  0.00    -0.744 OA
ENDBRANCH  72  75
ENDBRANCH  54  68
BRANCH  55  79
ATOM     79  C   UNL A   1      39.495  33.938  37.189  1.00  0.00     0.023 A 
ATOM     80  C   UNL A   1      40.005  35.250  37.230  1.00  0.00     0.012 A 
ATOM     81  C   UNL A   1      38.810  33.433  38.311  1.00  0.00     0.148 A 
ATOM     82  C   UNL A   1      39.873  36.028  38.381  1.00  0.00     0.002 A 
ATOM     83  C   UNL A   1      38.629  34.233  39.431  1.00  0.00     0.091 A 
ATOM     84  F   UNL A   1      38.336  32.180  38.251  1.00  0.00    -0.205 F 
ATOM     85  C   UNL A   1      39.180  35.523  39.478  1.00  0.00     0.022 A 
BRANCH  83  86
ATOM     86  S   UNL A   1      37.644  33.713  40.839  1.00  0.00     0.127 S 
ATOM     87  O   UNL A   1      36.408  33.279  40.193  1.00  0.00    -0.237 OA
ATOM     88  O   UNL A   1      38.464  32.634  41.393  1.00  0.00    -0.237 OA
ATOM     89  O   UNL A   1      37.529  34.884  41.696  1.00  0.00    -0.744 OA
ENDBRANCH  83  86
ENDBRANCH  55  79
BRANCH  67  90
ATOM     90  C   UNL A   1      44.007  28.912  35.422  1.00  0.00     0.023 A 
ATOM     91  C   UNL A   1      45.292  29.449  35.213  1.00  0.00     0.012 A 
ATOM     92  C   UNL A   1      43.838  27.855  36.340  1.00  0.00     0.148 A 
ATOM     93  C   UNL A   1      46.398  28.915  35.876  1.00  0.00     0.002 A 
ATOM     94  C   UNL A   1      44.934  27.370  37.041  1.00  0.00     0.091 A 
ATOM     95  F   UNL A   1      42.609  27.351  36.515  1.00  0.00    -0.205 F 
ATOM     96  C   UNL A   1      46.217  27.885  36.798  1.00  0.00     0.022 A 
BRANCH  94  97
ATOM     97  S   UNL A   1      44.784  26.116  38.317  1.00  0.00     0.127 S 
ATOM     98  O   UNL A   1      44.334  24.958  37.545  1.00  0.00    -0.237 OA
ATOM     99  O   UNL A   1      46.156  26.021  38.817  1.00  0.00    -0.237 OA
ATOM    100  O   UNL A   1      43.821  26.630  39.281  1.00  0.00    -0.744 OA
ENDBRANCH  94  97
ENDBRANCH  67  90
ENDBRANCH  41  42
ENDBRANCH  33  36
ENDBRANCH  31  32
ENDBRANCH  30  31
ENDBRANCH   1  30
TORSDOF 19
ENDMDL
MODEL 2
REMARK VINA RESULT:     -11.0      1.202      7.406
REMARK SMILES CSCC[C@H](C(=O)NCCCCNC(=O)c1ccc(-c2c3nc(c(-c4cccc(S(=O)(=O)[O-])c4F)c4ccc([nH]4)c(-c4cccc(S(=O)(=O)[O-])c4F)c4nc(c(-c5cccc(S(=O)(=O)[O-])c5F)c5ccc2[nH]5)C=C4)C=C3)cc1)N1C(=O)/C(=C/c2cn(C)c3ccccc23)SC1=S
REMARK SMILES IDX 10 1 9 2 8 3 6 4 7 5 5 7 4 8 3 9 2 10 1 11 79 12 80 13 95 14
REMARK SMILES IDX 81 15 82 16 94 17 96 18 83 19 84 20 85 21 93 22 86 23 88 24
REMARK SMILES IDX 92 25 87 26 89 27 91 28 90 29 11 30 12 31 13 32 14 33 15 35
REMARK SMILES IDX 16 36 17 37 78 38 18 39 77 40 19 41 20 42 21 43 71 44 22 45
REMARK SMILES IDX 76 46 70 47 72 48 23 49 75 50 69 51 68 52 24 54 56 55 36 56
REMARK SMILES IDX 55 57 37 58 40 59 54 60 73 61 38 62 39 63 53 65 74 66 41 67
REMARK SMILES IDX 25 68 26 69 34 70 27 71 29 72 35 73 28 74 30 75 31 76 32 77
REMARK SMILES IDX 33 78 57 79 58 80 66 81 59 82 61 83 67 84 60 85 62 86 63 87
REMARK SMILES IDX 64 88 65 89 42 90 43 91 51 92 44 93 46 94 52 95 45 96 47 97
REMARK SMILES IDX 48 98 49 99 50 100
REMARK H PARENT 8 6 13 34 72 53 40 64
REMARK Flexibility Score: inf
ROOT
ATOM      1  C   UNL A   1      31.822  30.690  26.719  1.00  0.00     0.023 C 
ENDROOT
BRANCH   1   2
ATOM      2  C   UNL A   1      31.825  30.191  25.266  1.00  0.00     0.116 C 
BRANCH   2   3
ATOM      3  N   UNL A   1      33.090  29.651  24.779  1.00  0.00    -0.354 N 
ATOM      4  C   UNL A   1      33.433  28.516  24.081  1.00  0.00     0.243 C 
ATOM      5  O   UNL A   1      34.593  28.450  23.667  1.00  0.00    -0.273 OA
ATOM      6  H   UNL A   1      33.862  30.219  24.999  1.00  0.00     0.163 HD
BRANCH   4   7
ATOM      7  C   UNL A   1      32.436  27.334  23.903  1.00  0.00     0.182 C 
BRANCH   7   8
ATOM      8  C   UNL A   1      32.402  26.839  22.443  1.00  0.00     0.046 C 
BRANCH   8   9
ATOM      9  C   UNL A   1      31.026  26.976  21.779  1.00  0.00     0.072 C 
BRANCH   9  10
ATOM     10  S   UNL A   1      29.812  27.972  22.719  1.00  0.00    -0.165 SA
ATOM     11  C   UNL A   1      30.064  29.611  21.996  1.00  0.00     0.085 C 
ENDBRANCH   9  10
ENDBRANCH   8   9
ENDBRANCH   7   8
BRANCH   7  12
ATOM     12  N   UNL A   1      32.640  26.214  24.865  1.00  0.00    -0.280 N 
ATOM     13  C   UNL A   1      33.682  24.881  24.294  1.00  0.00     0.266 C 
ATOM     14  C   UNL A   1      31.342  25.967  25.993  1.00  0.00     0.149 C 
ATOM     15  O   UNL A   1      34.529  24.967  23.416  1.00  0.00    -0.268 OA
ATOM     16  C   UNL A   1      33.018  23.158  25.035  1.00  0.00     0.081 C 
ATOM     17  S   UNL A   1      31.006  23.756  26.388  1.00  0.00    -0.054 SA
ATOM     18  S   UNL A   1      30.772  27.012  27.199  1.00  0.00    -0.052 S 
ATOM     19  C   UNL A   1      33.505  21.907  24.633  1.00  0.00     0.031 C 
BRANCH  19  20
ATOM     20  C   UNL A   1      32.658  20.767  24.965  1.00  0.00     0.001 A 
ATOM     21  C   UNL A   1      32.462  19.547  24.286  1.00  0.00     0.094 A 
ATOM     22  C   UNL A   1      33.369  20.353  26.136  1.00  0.00     0.007 A 
ATOM     23  N   UNL A   1      33.616  18.781  24.483  1.00  0.00    -0.350 N 
ATOM     24  C   UNL A   1      34.483  19.690  25.001  1.00  0.00     0.048 A 
ATOM     25  C   UNL A   1      33.808  21.621  27.257  1.00  0.00     0.011 A 
ATOM     26  C   UNL A   1      33.704  17.410  24.952  1.00  0.00     0.149 C 
ATOM     27  C   UNL A   1      35.986  20.351  24.535  1.00  0.00     0.027 A 
ATOM     28  C   UNL A   1      35.364  22.375  27.000  1.00  0.00     0.001 A 
ATOM     29  C   UNL A   1      36.534  21.693  25.493  1.00  0.00     0.002 A 
ENDBRANCH  19  20
ENDBRANCH   7  12
ENDBRANCH   4   7
ENDBRANCH   2   3
ENDBRANCH   1   2
BRANCH   1  30
ATOM     30  C   UNL A   1      31.592  32.181  26.948  1.00  0.00     0.023 C 
BRANCH  30  31
ATOM     31  C   UNL A   1      32.854  32.951  27.269  1.00  0.00     0.116 C 
BRANCH  31  32
ATOM     32  N   UNL A   1      32.570  34.295  27.756  1.00  0.00    -0.352 N 
ATOM     33  C   UNL A   1      33.126  34.961  28.821  1.00  0.00     0.251 C 
ATOM     34  H   UNL A   1      31.887  34.794  27.253  1.00  0.00     0.163 HD
ATOM     35  O   UNL A   1      32.643  36.025  29.199  1.00  0.00    -0.269 OA
BRANCH  33  36
ATOM     36  C   UNL A   1      34.287  34.371  29.518  1.00  0.00     0.039 A 
ATOM     37  C   UNL A   1      34.069  33.519  30.602  1.00  0.00     0.014 A 
ATOM     38  C   UNL A   1      35.585  34.624  29.069  1.00  0.00     0.014 A 
ATOM     39  C   UNL A   1      35.155  32.875  31.195  1.00  0.00     0.010 A 
ATOM     40  C   UNL A   1      36.647  33.893  29.583  1.00  0.00     0.010 A 
ATOM     41  C   UNL A   1      36.447  33.026  30.664  1.00  0.00    -0.014 A 
BRANCH  41  42
ATOM     42  C   UNL A   1      37.604  32.292  31.232  1.00  0.00     0.031 A 
ATOM     43  C   UNL A   1      38.093  32.613  32.619  1.00  0.00     0.074 A 
ATOM     44  C   UNL A   1      38.254  31.384  30.476  1.00  0.00     0.049 A 
ATOM     45  N   UNL A   1      39.110  32.110  33.269  1.00  0.00    -0.248 NA
ATOM     46  C   UNL A   1      37.362  33.651  33.364  1.00  0.00     0.031 C 
ATOM     47  C   UNL A   1      37.921  31.042  29.091  1.00  0.00     0.029 A 
ATOM     48  N   UNL A   1      39.343  30.600  30.758  1.00  0.00    -0.354 N 
ATOM     49  C   UNL A   1      39.158  32.790  34.480  1.00  0.00     0.074 A 
ATOM     50  C   UNL A   1      38.100  33.774  34.457  1.00  0.00     0.031 C 
ATOM     51  C   UNL A   1      38.776  30.107  28.651  1.00  0.00     0.029 A 
ATOM     52  C   UNL A   1      39.747  29.818  29.701  1.00  0.00     0.049 A 
ATOM     53  H   UNL A   1      39.793  30.596  31.634  1.00  0.00     0.167 HD
ATOM     54  C   UNL A   1      39.989  32.594  35.529  1.00  0.00     0.034 A 
ATOM     55  C   UNL A   1      40.797  28.981  29.583  1.00  0.00     0.034 A 
ATOM     56  C   UNL A   1      41.031  31.604  35.552  1.00  0.00     0.049 A 
ATOM     57  C   UNL A   1      41.707  28.784  30.763  1.00  0.00     0.074 A 
ATOM     58  C   UNL A   1      41.883  31.279  36.591  1.00  0.00     0.029 A 
ATOM     59  N   UNL A   1      41.379  30.796  34.480  1.00  0.00    -0.354 N 
ATOM     60  N   UNL A   1      41.652  29.337  31.950  1.00  0.00    -0.248 NA
ATOM     61  C   UNL A   1      42.807  27.823  30.598  1.00  0.00     0.031 C 
ATOM     62  C   UNL A   1      42.783  30.313  36.131  1.00  0.00     0.029 A 
ATOM     63  C   UNL A   1      42.447  29.987  34.826  1.00  0.00     0.049 A 
ATOM     64  H   UNL A   1      40.933  30.798  33.603  1.00  0.00     0.167 HD
ATOM     65  C   UNL A   1      42.681  28.762  32.685  1.00  0.00     0.074 A 
ATOM     66  C   UNL A   1      43.331  27.804  31.815  1.00  0.00     0.031 C 
ATOM     67  C   UNL A   1      43.059  29.011  33.964  1.00  0.00     0.034 A 
BRANCH  54  68
ATOM     68  C   UNL A   1      39.789  33.454  36.751  1.00  0.00     0.023 A 
ATOM     69  C   UNL A   1      40.294  34.771  36.776  1.00  0.00     0.012 A 
ATOM     70  C   UNL A   1      39.055  32.975  37.854  1.00  0.00     0.148 A 
ATOM     71  C   UNL A   1      40.109  35.582  37.895  1.00  0.00     0.002 A 
ATOM     72  C   UNL A   1      38.829  33.807  38.942  1.00  0.00     0.091 A 
ATOM     73  F   UNL A   1      38.599  31.716  37.819  1.00  0.00    -0.205 F 
ATOM     74  C   UNL A   1      39.368  35.104  38.972  1.00  0.00     0.022 A 
BRANCH  72  75
ATOM     75  S   UNL A   1      37.818  33.319  40.343  1.00  0.00     0.127 S 
ATOM     76  O   UNL A   1      38.568  32.176  40.862  1.00  0.00    -0.237 OA
ATOM     77  O   UNL A   1      37.868  34.514  41.185  1.00  0.00    -0.237 OA
ATOM     78  O   UNL A   1      36.503  33.005  39.804  1.00  0.00    -0.744 OA
ENDBRANCH  72  75
ENDBRANCH  54  68
BRANCH  55  79
ATOM     79  C   UNL A   1      41.030  28.251  28.305  1.00  0.00     0.023 A 
ATOM     80  C   UNL A   1      41.601  28.922  27.206  1.00  0.00     0.012 A 
ATOM     81  C   UNL A   1      40.691  26.890  28.178  1.00  0.00     0.148 A 
ATOM     82  C   UNL A   1      41.791  28.262  25.991  1.00  0.00     0.002 A 
ATOM     83  C   UNL A   1      40.938  26.223  26.985  1.00  0.00     0.091 A 
ATOM     84  F   UNL A   1      40.145  26.273  29.235  1.00  0.00    -0.205 F 
ATOM     85  C   UNL A   1      41.467  26.912  25.883  1.00  0.00     0.022 A 
BRANCH  83  86
ATOM     86  S   UNL A   1      40.669  24.458  26.795  1.00  0.00     0.127 S 
ATOM     87  O   UNL A   1      40.985  23.963  28.132  1.00  0.00    -0.237 OA
ATOM     88  O   UNL A   1      39.252  24.411  26.436  1.00  0.00    -0.237 OA
ATOM     89  O   UNL A   1      41.574  24.033  25.736  1.00  0.00    -0.744 OA
ENDBRANCH  83  86
ENDBRANCH  55  79
BRANCH  67  90
ATOM     90  C   UNL A   1      44.192  28.193  34.529  1.00  0.00     0.023 A 
ATOM     91  C   UNL A   1      45.516  28.670  34.474  1.00  0.00     0.012 A 
ATOM     92  C   UNL A   1      43.923  26.970  35.178  1.00  0.00     0.148 A 
ATOM     93  C   UNL A   1      46.561  27.923  35.018  1.00  0.00     0.002 A 
ATOM     94  C   UNL A   1      44.960  26.261  35.771  1.00  0.00     0.091 A 
ATOM     95  F   UNL A   1      42.658  26.528  35.209  1.00  0.00    -0.205 F 
ATOM     96  C   UNL A   1      46.281  26.727  35.677  1.00  0.00     0.022 A 
BRANCH  94  97
ATOM     97  S   UNL A   1      44.685  24.765  36.723  1.00  0.00     0.127 S 
ATOM     98  O   UNL A   1      44.210  23.840  35.694  1.00  0.00    -0.237 OA
ATOM     99  O   UNL A   1      46.024  24.476  37.234  1.00  0.00    -0.237 OA
ATOM    100  O   UNL A   1      43.706  25.109  37.746  1.00  0.00    -0.744 OA
ENDBRANCH  94  97
ENDBRANCH  67  90
ENDBRANCH  41  42
ENDBRANCH  33  36
ENDBRANCH  31  32
ENDBRANCH  30  31
ENDBRANCH   1  30
TORSDOF 19
ENDMDL
MODEL 3
REMARK VINA RESULT:     -10.7      1.397      2.049
REMARK SMILES CSCC[C@H](C(=O)NCCCCNC(=O)c1ccc(-c2c3nc(c(-c4cccc(S(=O)(=O)[O-])c4F)c4ccc([nH]4)c(-c4cccc(S(=O)(=O)[O-])c4F)c4nc(c(-c5cccc(S(=O)(=O)[O-])c5F)c5ccc2[nH]5)C=C4)C=C3)cc1)N1C(=O)/C(=C/c2cn(C)c3ccccc23)SC1=S
REMARK SMILES IDX 10 1 9 2 8 3 6 4 7 5 5 7 4 8 3 9 2 10 1 11 79 12 80 13 95 14
REMARK SMILES IDX 81 15 82 16 94 17 96 18 83 19 84 20 85 21 93 22 86 23 88 24
REMARK SMILES IDX 92 25 87 26 89 27 91 28 90 29 11 30 12 31 13 32 14 33 15 35
REMARK SMILES IDX 16 36 17 37 78 38 18 39 77 40 19 41 20 42 21 43 71 44 22 45
REMARK SMILES IDX 76 46 70 47 72 48 23 49 75 50 69 51 68 52 24 54 56 55 36 56
REMARK SMILES IDX 55 57 37 58 40 59 54 60 73 61 38 62 39 63 53 65 74 66 41 67
REMARK SMILES IDX 25 68 26 69 34 70 27 71 29 72 35 73 28 74 30 75 31 76 32 77
REMARK SMILES IDX 33 78 57 79 58 80 66 81 59 82 61 83 67 84 60 85 62 86 63 87
REMARK SMILES IDX 64 88 65 89 42 90 43 91 51 92 44 93 46 94 52 95 45 96 47 97
REMARK SMILES IDX 48 98 49 99 50 100
REMARK H PARENT 8 6 13 34 72 53 40 64
REMARK Flexibility Score: inf
ROOT
ATOM      1  C   UNL A   1      31.820  29.506  27.279  1.00  0.00     0.023 C 
ENDROOT
BRANCH   1   2
ATOM      2  C   UNL A   1      31.758  28.263  26.376  1.00  0.00     0.116 C 
BRANCH   2   3
ATOM      3  N   UNL A   1      32.651  28.268  25.223  1.00  0.00    -0.354 N 
ATOM      4  C   UNL A   1      32.515  27.871  23.913  1.00  0.00     0.243 C 
ATOM      5  O   UNL A   1      33.424  28.184  23.141  1.00  0.00    -0.273 OA
ATOM      6  H   UNL A   1      33.543  28.632  25.427  1.00  0.00     0.163 HD
BRANCH   4   7
ATOM      7  C   UNL A   1      31.319  26.990  23.447  1.00  0.00     0.182 C 
BRANCH   7   8
ATOM      8  C   UNL A   1      30.470  27.709  22.381  1.00  0.00     0.046 C 
BRANCH   8   9
ATOM      9  C   UNL A   1      30.138  29.164  22.737  1.00  0.00     0.072 C 
BRANCH   9  10
ATOM     10  S   UNL A   1      28.351  29.553  22.801  1.00  0.00    -0.165 SA
ATOM     11  C   UNL A   1      28.377  31.216  23.512  1.00  0.00     0.085 C 
ENDBRANCH   9  10
ENDBRANCH   8   9
ENDBRANCH   7   8
BRANCH   7  12
ATOM     12  N   UNL A   1      31.704  25.615  23.018  1.00  0.00    -0.280 N 
ATOM     13  C   UNL A   1      32.096  24.474  24.335  1.00  0.00     0.266 C 
ATOM     14  C   UNL A   1      32.434  25.512  21.445  1.00  0.00     0.149 C 
ATOM     15  O   UNL A   1      31.711  24.565  25.492  1.00  0.00    -0.268 OA
ATOM     16  C   UNL A   1      33.537  23.241  23.735  1.00  0.00     0.081 C 
ATOM     17  S   UNL A   1      34.091  23.960  21.409  1.00  0.00    -0.054 SA
ATOM     18  S   UNL A   1      31.758  25.884  19.937  1.00  0.00    -0.052 S 
ATOM     19  C   UNL A   1      34.195  22.348  24.593  1.00  0.00     0.031 C 
BRANCH  19  20
ATOM     20  C   UNL A   1      35.463  21.822  24.099  1.00  0.00     0.001 A 
ATOM     21  C   UNL A   1      36.759  22.376  24.140  1.00  0.00     0.094 A 
ATOM     22  C   UNL A   1      35.569  20.728  25.014  1.00  0.00     0.007 A 
ATOM     23  N   UNL A   1      37.203  22.276  25.463  1.00  0.00    -0.350 N 
ATOM     24  C   UNL A   1      36.064  21.947  26.127  1.00  0.00     0.048 A 
ATOM     25  C   UNL A   1      34.122  19.773  25.244  1.00  0.00     0.011 A 
ATOM     26  C   UNL A   1      38.456  21.721  25.941  1.00  0.00     0.149 C 
ATOM     27  C   UNL A   1      35.116  22.656  27.357  1.00  0.00     0.027 A 
ATOM     28  C   UNL A   1      33.050  20.290  26.524  1.00  0.00     0.001 A 
ATOM     29  C   UNL A   1      33.588  21.883  27.654  1.00  0.00     0.002 A 
ENDBRANCH  19  20
ENDBRANCH   7  12
ENDBRANCH   4   7
ENDBRANCH   2   3
ENDBRANCH   1   2
BRANCH   1  30
ATOM     30  C   UNL A   1      31.963  30.862  26.597  1.00  0.00     0.023 C 
BRANCH  30  31
ATOM     31  C   UNL A   1      33.104  31.698  27.134  1.00  0.00     0.116 C 
BRANCH  31  32
ATOM     32  N   UNL A   1      32.708  33.079  27.379  1.00  0.00    -0.352 N 
ATOM     33  C   UNL A   1      33.163  33.949  28.339  1.00  0.00     0.251 C 
ATOM     34  H   UNL A   1      32.020  33.437  26.773  1.00  0.00     0.163 HD
ATOM     35  O   UNL A   1      32.593  35.022  28.515  1.00  0.00    -0.269 OA
BRANCH  33  36
ATOM     36  C   UNL A   1      34.324  33.568  29.170  1.00  0.00     0.039 A 
ATOM     37  C   UNL A   1      34.123  32.756  30.287  1.00  0.00     0.014 A 
ATOM     38  C   UNL A   1      35.612  33.976  28.815  1.00  0.00     0.014 A 
ATOM     39  C   UNL A   1      35.226  32.306  31.012  1.00  0.00     0.010 A 
ATOM     40  C   UNL A   1      36.710  33.430  29.465  1.00  0.00     0.010 A 
ATOM     41  C   UNL A   1      36.530  32.606  30.583  1.00  0.00    -0.014 A 
BRANCH  41  42
ATOM     42  C   UNL A   1      37.718  32.074  31.295  1.00  0.00     0.031 A 
ATOM     43  C   UNL A   1      38.516  30.950  30.693  1.00  0.00     0.074 A 
ATOM     44  C   UNL A   1      38.037  32.559  32.512  1.00  0.00     0.049 A 
ATOM     45  N   UNL A   1      39.556  30.327  31.182  1.00  0.00    -0.248 NA
ATOM     46  C   UNL A   1      38.075  30.440  29.383  1.00  0.00     0.031 C 
ATOM     47  C   UNL A   1      37.295  33.596  33.232  1.00  0.00     0.029 A 
ATOM     48  N   UNL A   1      39.058  32.228  33.367  1.00  0.00    -0.354 N 
ATOM     49  C   UNL A   1      39.873  29.337  30.259  1.00  0.00     0.074 A 
ATOM     50  C   UNL A   1      38.887  29.409  29.205  1.00  0.00     0.031 C 
ATOM     51  C   UNL A   1      37.892  33.827  34.410  1.00  0.00     0.029 A 
ATOM     52  C   UNL A   1      39.029  32.924  34.553  1.00  0.00     0.049 A 
ATOM     53  H   UNL A   1      39.745  31.557  33.152  1.00  0.00     0.167 HD
ATOM     54  C   UNL A   1      40.908  28.466  30.272  1.00  0.00     0.034 A 
ATOM     55  C   UNL A   1      39.815  32.828  35.643  1.00  0.00     0.034 A 
ATOM     56  C   UNL A   1      41.893  28.408  31.316  1.00  0.00     0.049 A 
ATOM     57  C   UNL A   1      40.956  31.848  35.633  1.00  0.00     0.074 A 
ATOM     58  C   UNL A   1      43.019  27.609  31.391  1.00  0.00     0.029 A 
ATOM     59  N   UNL A   1      41.860  29.163  32.479  1.00  0.00    -0.354 N 
ATOM     60  N   UNL A   1      41.321  31.015  34.689  1.00  0.00    -0.248 NA
ATOM     61  C   UNL A   1      41.814  31.818  36.827  1.00  0.00     0.031 C 
ATOM     62  C   UNL A   1      43.637  27.840  32.623  1.00  0.00     0.029 A 
ATOM     63  C   UNL A   1      42.934  28.833  33.287  1.00  0.00     0.049 A 
ATOM     64  H   UNL A   1      41.173  29.834  32.698  1.00  0.00     0.167 HD
ATOM     65  C   UNL A   1      42.472  30.392  35.157  1.00  0.00     0.074 A 
ATOM     66  C   UNL A   1      42.754  30.958  36.459  1.00  0.00     0.031 C 
ATOM     67  C   UNL A   1      43.224  29.432  34.564  1.00  0.00     0.034 A 
BRANCH  54  68
ATOM     68  C   UNL A   1      41.039  27.518  29.108  1.00  0.00     0.023 A 
ATOM     69  C   UNL A   1      40.312  26.309  29.097  1.00  0.00     0.012 A 
ATOM     70  C   UNL A   1      41.844  27.848  28.000  1.00  0.00     0.148 A 
ATOM     71  C   UNL A   1      40.415  25.427  28.023  1.00  0.00     0.002 A 
ATOM     72  C   UNL A   1      41.900  26.989  26.910  1.00  0.00     0.091 A 
ATOM     73  F   UNL A   1      42.541  28.991  28.036  1.00  0.00    -0.205 F 
ATOM     74  C   UNL A   1      41.200  25.771  26.926  1.00  0.00     0.022 A 
BRANCH  72  75
ATOM     75  S   UNL A   1      42.814  27.377  25.415  1.00  0.00     0.127 S 
ATOM     76  O   UNL A   1      42.667  26.139  24.651  1.00  0.00    -0.237 OA
ATOM     77  O   UNL A   1      42.062  28.514  24.885  1.00  0.00    -0.237 OA
ATOM     78  O   UNL A   1      44.172  27.687  25.839  1.00  0.00    -0.744 OA
ENDBRANCH  72  75
ENDBRANCH  54  68
BRANCH  55  79
ATOM     79  C   UNL A   1      39.563  33.697  36.826  1.00  0.00     0.023 A 
ATOM     80  C   UNL A   1      39.951  35.051  36.799  1.00  0.00     0.012 A 
ATOM     81  C   UNL A   1      38.933  33.187  37.977  1.00  0.00     0.148 A 
ATOM     82  C   UNL A   1      39.756  35.868  37.913  1.00  0.00     0.002 A 
ATOM     83  C   UNL A   1      38.686  34.020  39.060  1.00  0.00     0.091 A 
ATOM     84  F   UNL A   1      38.575  31.894  37.982  1.00  0.00    -0.205 F 
ATOM     85  C   UNL A   1      39.117  35.356  39.039  1.00  0.00     0.022 A 
BRANCH  83  86
ATOM     86  S   UNL A   1      37.760  33.481  40.500  1.00  0.00     0.127 S 
ATOM     87  O   UNL A   1      37.701  34.707  41.293  1.00  0.00    -0.237 OA
ATOM     88  O   UNL A   1      36.490  33.071  39.900  1.00  0.00    -0.237 OA
ATOM     89  O   UNL A   1      38.532  32.392  41.082  1.00  0.00    -0.744 OA
ENDBRANCH  83  86
ENDBRANCH  55  79
BRANCH  67  90
ATOM     90  C   UNL A   1      44.464  28.970  35.285  1.00  0.00     0.023 A 
ATOM     91  C   UNL A   1      45.709  29.578  35.030  1.00  0.00     0.012 A 
ATOM     92  C   UNL A   1      44.374  27.966  36.272  1.00  0.00     0.148 A 
ATOM     93  C   UNL A   1      46.852  29.165  35.714  1.00  0.00     0.002 A 
ATOM     94  C   UNL A   1      45.504  27.603  36.992  1.00  0.00     0.091 A 
ATOM     95  F   UNL A   1      43.182  27.392  36.491  1.00  0.00    -0.205 F 
ATOM     96  C   UNL A   1      46.747  28.188  36.703  1.00  0.00     0.022 A 
BRANCH  94  97
ATOM     97  S   UNL A   1      45.447  26.428  38.348  1.00  0.00     0.127 S 
ATOM     98  O   UNL A   1      46.869  26.198  38.602  1.00  0.00    -0.237 OA
ATOM     99  O   UNL A   1      44.756  27.192  39.386  1.00  0.00    -0.237 OA
ATOM    100  O   UNL A   1      44.712  25.272  37.853  1.00  0.00    -0.744 OA
ENDBRANCH  94  97
ENDBRANCH  67  90
ENDBRANCH  41  42
ENDBRANCH  33  36
ENDBRANCH  31  32
ENDBRANCH  30  31
ENDBRANCH   1  30
TORSDOF 19
ENDMDL
