MODEL 1
REMARK VINA RESULT:     -11.2      0.000      0.000
REMARK SMILES COc1ccc(CCNC(=O)c2cccnc2C(=O)NCCCCNC(=O)c2ccc(-c3c4nc(c(-c5cccc(S(=O)(=O)[O-])c5F)c5ccc([nH]5)c(-c5cccc(S(=O)(=O)[O-])c5F)c5nc(c(-c6cccc(S(=O)(=O)[O-])c6F)c6ccc3[nH]6)C=C5)C=C4)cc2)cc1OC
REMARK SMILES IDX 21 1 20 2 18 3 19 4 17 6 12 7 13 8 14 9 16 10 15 11 10 12
REMARK SMILES IDX 9 13 11 15 8 16 7 17 6 18 3 19 4 20 92 21 5 22 91 23 2 24
REMARK SMILES IDX 1 25 93 26 94 27 22 28 23 29 24 30 25 31 26 32 27 34 28 35
REMARK SMILES IDX 29 36 90 37 30 38 89 39 31 40 32 41 33 42 83 43 34 44 88 45
REMARK SMILES IDX 82 46 84 47 35 48 87 49 81 50 80 51 36 53 68 54 48 55 67 56
REMARK SMILES IDX 49 57 52 58 66 59 85 60 50 61 51 62 65 64 86 65 53 66 37 67
REMARK SMILES IDX 38 68 46 69 39 70 41 71 47 72 40 73 42 74 43 75 44 76 45 77
REMARK SMILES IDX 69 78 70 79 78 80 71 81 73 82 79 83 72 84 74 85 75 86 76 87
REMARK SMILES IDX 77 88 54 89 55 90 63 91 56 92 58 93 64 94 57 95 59 96 60 97
REMARK SMILES IDX 61 98 62 99
REMARK H PARENT 20 5 9 14 25 33 84 52 52 63
REMARK Flexibility Score: inf
ROOT
ATOM      1  C   UNL A   1      33.080  29.205  22.981  1.00  0.00     0.116 C 
ENDROOT
BRANCH   1   2
ATOM      2  N   UNL A   1      33.365  27.968  22.307  1.00  0.00    -0.351 N 
ATOM      3  C   UNL A   1      33.332  26.634  22.584  1.00  0.00     0.270 C 
ATOM      4  O   UNL A   1      33.668  25.958  21.598  1.00  0.00    -0.267 OA
ATOM      5  H   UNL A   1      33.670  28.130  21.385  1.00  0.00     0.163 HD
BRANCH   3   6
ATOM      6  C   UNL A   1      32.962  25.881  23.852  1.00  0.00     0.140 A 
ATOM      7  C   UNL A   1      31.880  25.080  24.210  1.00  0.00     0.071 A 
ATOM      8  C   UNL A   1      31.858  24.515  25.509  1.00  0.00     0.018 A 
ATOM      9  C   UNL A   1      32.859  24.788  26.432  1.00  0.00     0.021 A 
ATOM     10  N   UNL A   1      33.936  26.142  24.796  1.00  0.00    -0.250 NA
ATOM     11  C   UNL A   1      33.877  25.612  26.029  1.00  0.00     0.112 A 
BRANCH   7  12
ATOM     12  C   UNL A   1      30.791  24.589  23.365  1.00  0.00     0.253 C 
ATOM     13  N   UNL A   1      30.756  23.287  22.916  1.00  0.00    -0.352 N 
ATOM     14  H   UNL A   1      29.940  23.045  22.422  1.00  0.00     0.163 HD
ATOM     15  O   UNL A   1      29.996  25.407  22.911  1.00  0.00    -0.269 OA
BRANCH  13  16
ATOM     16  C   UNL A   1      31.730  22.210  23.052  1.00  0.00     0.121 C 
BRANCH  16  17
ATOM     17  C   UNL A   1      33.104  22.519  22.447  1.00  0.00     0.057 C 
BRANCH  17  18
ATOM     18  C   UNL A   1      34.256  22.651  23.419  1.00  0.00    -0.042 A 
ATOM     19  C   UNL A   1      36.516  22.672  25.124  1.00  0.00     0.160 A 
ATOM     20  C   UNL A   1      36.547  23.324  23.888  1.00  0.00     0.051 A 
ATOM     21  C   UNL A   1      35.331  22.053  25.544  1.00  0.00     0.160 A 
ATOM     22  C   UNL A   1      35.437  23.293  23.043  1.00  0.00     0.008 A 
ATOM     23  C   UNL A   1      34.209  22.063  24.693  1.00  0.00     0.054 A 
BRANCH  19  24
ATOM     24  O   UNL A   1      37.622  22.699  25.934  1.00  0.00    -0.493 OA
ATOM     25  C   UNL A   1      38.155  24.015  26.101  1.00  0.00     0.278 C 
ENDBRANCH  19  24
BRANCH  21  26
ATOM     26  O   UNL A   1      35.104  21.390  26.725  1.00  0.00    -0.493 OA
ATOM     27  C   UNL A   1      33.758  21.291  27.169  1.00  0.00     0.278 C 
ENDBRANCH  21  26
ENDBRANCH  17  18
ENDBRANCH  16  17
ENDBRANCH  13  16
ENDBRANCH   7  12
ENDBRANCH   3   6
ENDBRANCH   1   2
BRANCH   1  28
ATOM     28  C   UNL A   1      31.681  29.182  23.579  1.00  0.00     0.023 C 
BRANCH  28  29
ATOM     29  C   UNL A   1      31.650  28.869  25.074  1.00  0.00     0.023 C 
BRANCH  29  30
ATOM     30  C   UNL A   1      32.742  29.561  25.880  1.00  0.00     0.116 C 
BRANCH  30  31
ATOM     31  N   UNL A   1      32.360  30.871  26.393  1.00  0.00    -0.352 N 
ATOM     32  C   UNL A   1      33.086  31.713  27.212  1.00  0.00     0.251 C 
ATOM     33  H   UNL A   1      31.472  31.198  26.121  1.00  0.00     0.163 HD
ATOM     34  O   UNL A   1      32.599  32.746  27.635  1.00  0.00    -0.269 OA
BRANCH  32  35
ATOM     35  C   UNL A   1      34.451  31.301  27.608  1.00  0.00     0.039 A 
ATOM     36  C   UNL A   1      35.447  32.273  27.713  1.00  0.00     0.014 A 
ATOM     37  C   UNL A   1      34.706  29.978  27.974  1.00  0.00     0.014 A 
ATOM     38  C   UNL A   1      36.674  31.936  28.290  1.00  0.00     0.010 A 
ATOM     39  C   UNL A   1      35.888  29.670  28.635  1.00  0.00     0.010 A 
ATOM     40  C   UNL A   1      36.881  30.646  28.808  1.00  0.00    -0.014 A 
BRANCH  40  41
ATOM     41  C   UNL A   1      38.105  30.299  29.576  1.00  0.00     0.031 A 
ATOM     42  C   UNL A   1      39.110  29.339  29.002  1.00  0.00     0.074 A 
ATOM     43  C   UNL A   1      38.243  30.742  30.842  1.00  0.00     0.049 A 
ATOM     44  N   UNL A   1      40.181  28.836  29.560  1.00  0.00    -0.248 NA
ATOM     45  C   UNL A   1      38.855  28.843  27.639  1.00  0.00     0.031 C 
ATOM     46  C   UNL A   1      37.280  31.585  31.556  1.00  0.00     0.029 A 
ATOM     47  N   UNL A   1      39.230  30.515  31.769  1.00  0.00    -0.354 N 
ATOM     48  C   UNL A   1      40.694  27.929  28.641  1.00  0.00     0.074 A 
ATOM     49  C   UNL A   1      39.798  27.923  27.506  1.00  0.00     0.031 C 
ATOM     50  C   UNL A   1      37.728  31.811  32.801  1.00  0.00     0.029 A 
ATOM     51  C   UNL A   1      38.993  31.109  32.987  1.00  0.00     0.049 A 
ATOM     52  H   UNL A   1      40.033  29.977  31.579  1.00  0.00     0.167 HD
ATOM     53  C   UNL A   1      41.829  27.195  28.717  1.00  0.00     0.034 A 
ATOM     54  C   UNL A   1      39.713  31.089  34.126  1.00  0.00     0.034 A 
ATOM     55  C   UNL A   1      42.757  27.264  29.813  1.00  0.00     0.049 A 
ATOM     56  C   UNL A   1      41.018  30.343  34.153  1.00  0.00     0.074 A 
ATOM     57  C   UNL A   1      43.997  26.663  29.928  1.00  0.00     0.029 A 
ATOM     58  N   UNL A   1      42.546  27.977  30.982  1.00  0.00    -0.354 N 
ATOM     59  N   UNL A   1      41.584  29.639  33.201  1.00  0.00    -0.248 NA
ATOM     60  C   UNL A   1      41.804  30.416  35.393  1.00  0.00     0.031 C 
ATOM     61  C   UNL A   1      44.534  27.008  31.174  1.00  0.00     0.029 A 
ATOM     62  C   UNL A   1      43.630  27.830  31.829  1.00  0.00     0.049 A 
ATOM     63  H   UNL A   1      41.742  28.510  31.181  1.00  0.00     0.167 HD
ATOM     64  C   UNL A   1      42.801  29.210  33.715  1.00  0.00     0.074 A 
ATOM     65  C   UNL A   1      42.902  29.753  35.055  1.00  0.00     0.031 C 
ATOM     66  C   UNL A   1      43.741  28.422  33.138  1.00  0.00     0.034 A 
BRANCH  53  67
ATOM     67  C   UNL A   1      42.164  26.312  27.544  1.00  0.00     0.023 A 
ATOM     68  C   UNL A   1      42.698  26.889  26.373  1.00  0.00     0.012 A 
ATOM     69  C   UNL A   1      41.984  24.917  27.605  1.00  0.00     0.148 A 
ATOM     70  C   UNL A   1      43.008  26.100  25.267  1.00  0.00     0.002 A 
ATOM     71  C   UNL A   1      42.336  24.131  26.513  1.00  0.00     0.091 A 
ATOM     72  F   UNL A   1      41.451  24.386  28.715  1.00  0.00    -0.205 F 
ATOM     73  C   UNL A   1      42.835  24.721  25.340  1.00  0.00     0.022 A 
BRANCH  71  74
ATOM     74  S   UNL A   1      42.223  22.338  26.544  1.00  0.00     0.127 S 
ATOM     75  O   UNL A   1      42.929  22.017  27.783  1.00  0.00    -0.237 OA
ATOM     76  O   UNL A   1      40.775  22.118  26.594  1.00  0.00    -0.237 OA
ATOM     77  O   UNL A   1      42.859  21.880  25.317  1.00  0.00    -0.744 OA
ENDBRANCH  71  74
ENDBRANCH  53  67
BRANCH  54  78
ATOM     78  C   UNL A   1      39.253  31.879  35.304  1.00  0.00     0.023 A 
ATOM     79  C   UNL A   1      38.422  31.261  36.260  1.00  0.00     0.012 A 
ATOM     80  C   UNL A   1      39.672  33.207  35.514  1.00  0.00     0.148 A 
ATOM     81  C   UNL A   1      37.998  31.959  37.391  1.00  0.00     0.002 A 
ATOM     82  C   UNL A   1      39.289  33.878  36.669  1.00  0.00     0.091 A 
ATOM     83  F   UNL A   1      40.454  33.779  34.588  1.00  0.00    -0.205 F 
ATOM     84  C   UNL A   1      38.440  33.262  37.602  1.00  0.00     0.022 A 
BRANCH  82  85
ATOM     85  S   UNL A   1      39.919  35.507  37.093  1.00  0.00     0.127 S 
ATOM     86  O   UNL A   1      39.224  35.780  38.347  1.00  0.00    -0.237 OA
ATOM     87  O   UNL A   1      41.354  35.251  37.225  1.00  0.00    -0.237 OA
ATOM     88  O   UNL A   1      39.567  36.367  35.971  1.00  0.00    -0.744 OA
ENDBRANCH  82  85
ENDBRANCH  54  78
BRANCH  66  89
ATOM     89  C   UNL A   1      44.977  28.109  33.937  1.00  0.00     0.023 A 
ATOM     90  C   UNL A   1      46.072  28.995  33.899  1.00  0.00     0.012 A 
ATOM     91  C   UNL A   1      45.022  26.989  34.789  1.00  0.00     0.148 A 
ATOM     92  C   UNL A   1      47.202  28.758  34.680  1.00  0.00     0.002 A 
ATOM     93  C   UNL A   1      46.133  26.783  35.598  1.00  0.00     0.091 A 
ATOM     94  F   UNL A   1      43.978  26.146  34.795  1.00  0.00    -0.205 F 
ATOM     95  C   UNL A   1      47.227  27.661  35.538  1.00  0.00     0.022 A 
BRANCH  93  96
ATOM     96  S   UNL A   1      46.210  25.449  36.799  1.00  0.00     0.127 S 
ATOM     97  O   UNL A   1      46.214  24.270  35.936  1.00  0.00    -0.237 OA
ATOM     98  O   UNL A   1      47.479  25.711  37.479  1.00  0.00    -0.237 OA
ATOM     99  O   UNL A   1      45.033  25.607  37.644  1.00  0.00    -0.744 OA
ENDBRANCH  93  96
ENDBRANCH  66  89
ENDBRANCH  40  41
ENDBRANCH  32  35
ENDBRANCH  30  31
ENDBRANCH  29  30
ENDBRANCH  28  29
ENDBRANCH   1  28
TORSDOF 20
ENDMDL
MODEL 2
REMARK VINA RESULT:     -11.1      4.846      7.478
REMARK SMILES COc1ccc(CCNC(=O)c2cccnc2C(=O)NCCCCNC(=O)c2ccc(-c3c4nc(c(-c5cccc(S(=O)(=O)[O-])c5F)c5ccc([nH]5)c(-c5cccc(S(=O)(=O)[O-])c5F)c5nc(c(-c6cccc(S(=O)(=O)[O-])c6F)c6ccc3[nH]6)C=C5)C=C4)cc2)cc1OC
REMARK SMILES IDX 21 1 20 2 18 3 19 4 17 6 12 7 13 8 14 9 16 10 15 11 10 12
REMARK SMILES IDX 9 13 11 15 8 16 7 17 6 18 3 19 4 20 92 21 5 22 91 23 2 24
REMARK SMILES IDX 1 25 93 26 94 27 22 28 23 29 24 30 25 31 26 32 27 34 28 35
REMARK SMILES IDX 29 36 90 37 30 38 89 39 31 40 32 41 33 42 83 43 34 44 88 45
REMARK SMILES IDX 82 46 84 47 35 48 87 49 81 50 80 51 36 53 68 54 48 55 67 56
REMARK SMILES IDX 49 57 52 58 66 59 85 60 50 61 51 62 65 64 86 65 53 66 37 67
REMARK SMILES IDX 38 68 46 69 39 70 41 71 47 72 40 73 42 74 43 75 44 76 45 77
REMARK SMILES IDX 69 78 70 79 78 80 71 81 73 82 79 83 72 84 74 85 75 86 76 87
REMARK SMILES IDX 77 88 54 89 55 90 63 91 56 92 58 93 64 94 57 95 59 96 60 97
REMARK SMILES IDX 61 98 62 99
REMARK H PARENT 20 5 9 14 25 33 84 52 52 63
REMARK Flexibility Score: inf
ROOT
ATOM      1  C   UNL A   1      34.371  23.783  23.728  1.00  0.00     0.116 C 
ENDROOT
BRANCH   1   2
ATOM      2  N   UNL A   1      34.035  24.382  22.466  1.00  0.00    -0.351 N 
ATOM      3  C   UNL A   1      33.038  25.151  21.945  1.00  0.00     0.270 C 
ATOM      4  O   UNL A   1      33.254  25.427  20.753  1.00  0.00    -0.267 OA
ATOM      5  H   UNL A   1      34.718  24.181  21.786  1.00  0.00     0.163 HD
BRANCH   3   6
ATOM      6  C   UNL A   1      31.764  25.702  22.567  1.00  0.00     0.140 A 
ATOM      7  C   UNL A   1      30.743  25.132  23.323  1.00  0.00     0.071 A 
ATOM      8  C   UNL A   1      29.679  25.962  23.757  1.00  0.00     0.018 A 
ATOM      9  C   UNL A   1      29.617  27.302  23.397  1.00  0.00     0.021 A 
ATOM     10  N   UNL A   1      31.668  27.035  22.218  1.00  0.00    -0.250 NA
ATOM     11  C   UNL A   1      30.635  27.793  22.623  1.00  0.00     0.112 A 
BRANCH   7  12
ATOM     12  C   UNL A   1      30.672  23.785  23.890  1.00  0.00     0.253 C 
ATOM     13  N   UNL A   1      30.742  23.568  25.249  1.00  0.00    -0.352 N 
ATOM     14  H   UNL A   1      30.604  22.634  25.523  1.00  0.00     0.163 HD
ATOM     15  O   UNL A   1      30.729  22.829  23.122  1.00  0.00    -0.269 OA
BRANCH  13  16
ATOM     16  C   UNL A   1      30.988  24.498  26.346  1.00  0.00     0.121 C 
BRANCH  16  17
ATOM     17  C   UNL A   1      32.400  25.090  26.370  1.00  0.00     0.057 C 
BRANCH  17  18
ATOM     18  C   UNL A   1      32.501  26.598  26.446  1.00  0.00    -0.042 A 
ATOM     19  C   UNL A   1      32.683  29.420  26.315  1.00  0.00     0.160 A 
ATOM     20  C   UNL A   1      31.439  28.785  26.352  1.00  0.00     0.051 A 
ATOM     21  C   UNL A   1      33.850  28.649  26.405  1.00  0.00     0.160 A 
ATOM     22  C   UNL A   1      31.355  27.393  26.395  1.00  0.00     0.008 A 
ATOM     23  C   UNL A   1      33.744  27.247  26.485  1.00  0.00     0.054 A 
BRANCH  19  24
ATOM     24  O   UNL A   1      32.746  30.788  26.255  1.00  0.00    -0.493 OA
ATOM     25  C   UNL A   1      31.505  31.416  26.589  1.00  0.00     0.278 C 
ENDBRANCH  19  24
BRANCH  21  26
ATOM     26  O   UNL A   1      35.150  29.092  26.410  1.00  0.00    -0.493 OA
ATOM     27  C   UNL A   1      35.742  29.362  27.674  1.00  0.00     0.278 C 
ENDBRANCH  21  26
ENDBRANCH  17  18
ENDBRANCH  16  17
ENDBRANCH  13  16
ENDBRANCH   7  12
ENDBRANCH   3   6
ENDBRANCH   1   2
BRANCH   1  28
ATOM     28  C   UNL A   1      35.879  23.634  23.869  1.00  0.00     0.023 C 
BRANCH  28  29
ATOM     29  C   UNL A   1      36.335  22.213  24.195  1.00  0.00     0.023 C 
BRANCH  29  30
ATOM     30  C   UNL A   1      36.948  22.056  25.581  1.00  0.00     0.116 C 
BRANCH  30  31
ATOM     31  N   UNL A   1      38.066  21.121  25.632  1.00  0.00    -0.352 N 
ATOM     32  C   UNL A   1      39.339  21.337  26.122  1.00  0.00     0.251 C 
ATOM     33  H   UNL A   1      37.892  20.221  25.273  1.00  0.00     0.163 HD
ATOM     34  O   UNL A   1      40.201  20.484  26.019  1.00  0.00    -0.269 OA
BRANCH  32  35
ATOM     35  C   UNL A   1      39.642  22.653  26.728  1.00  0.00     0.039 A 
ATOM     36  C   UNL A   1      40.633  22.734  27.709  1.00  0.00     0.014 A 
ATOM     37  C   UNL A   1      39.024  23.807  26.246  1.00  0.00     0.014 A 
ATOM     38  C   UNL A   1      41.077  23.989  28.130  1.00  0.00     0.010 A 
ATOM     39  C   UNL A   1      39.534  25.051  26.593  1.00  0.00     0.010 A 
ATOM     40  C   UNL A   1      40.572  25.156  27.531  1.00  0.00    -0.014 A 
BRANCH  40  41
ATOM     41  C   UNL A   1      41.138  26.497  27.831  1.00  0.00     0.031 A 
ATOM     42  C   UNL A   1      42.574  26.802  27.506  1.00  0.00     0.074 A 
ATOM     43  C   UNL A   1      40.398  27.391  28.519  1.00  0.00     0.049 A 
ATOM     44  N   UNL A   1      43.273  27.871  27.784  1.00  0.00    -0.248 NA
ATOM     45  C   UNL A   1      43.339  25.749  26.817  1.00  0.00     0.031 C 
ATOM     46  C   UNL A   1      39.030  27.173  28.996  1.00  0.00     0.029 A 
ATOM     47  N   UNL A   1      40.705  28.652  28.968  1.00  0.00    -0.354 N 
ATOM     48  C   UNL A   1      44.566  27.600  27.355  1.00  0.00     0.074 A 
ATOM     49  C   UNL A   1      44.564  26.252  26.832  1.00  0.00     0.031 C 
ATOM     50  C   UNL A   1      38.615  28.262  29.661  1.00  0.00     0.029 A 
ATOM     51  C   UNL A   1      39.692  29.246  29.684  1.00  0.00     0.049 A 
ATOM     52  H   UNL A   1      41.571  29.089  28.795  1.00  0.00     0.167 HD
ATOM     53  C   UNL A   1      45.650  28.411  27.360  1.00  0.00     0.034 A 
ATOM     54  C   UNL A   1      39.636  30.448  30.291  1.00  0.00     0.034 A 
ATOM     55  C   UNL A   1      45.627  29.776  27.809  1.00  0.00     0.049 A 
ATOM     56  C   UNL A   1      40.822  31.368  30.200  1.00  0.00     0.074 A 
ATOM     57  C   UNL A   1      46.633  30.723  27.734  1.00  0.00     0.029 A 
ATOM     58  N   UNL A   1      44.543  30.390  28.414  1.00  0.00    -0.354 N 
ATOM     59  N   UNL A   1      41.981  31.163  29.620  1.00  0.00    -0.248 NA
ATOM     60  C   UNL A   1      40.684  32.698  30.811  1.00  0.00     0.031 C 
ATOM     61  C   UNL A   1      46.158  31.909  28.305  1.00  0.00     0.029 A 
ATOM     62  C   UNL A   1      44.853  31.703  28.725  1.00  0.00     0.049 A 
ATOM     63  H   UNL A   1      43.678  29.956  28.598  1.00  0.00     0.167 HD
ATOM     64  C   UNL A   1      42.698  32.343  29.770  1.00  0.00     0.074 A 
ATOM     65  C   UNL A   1      41.834  33.268  30.476  1.00  0.00     0.031 C 
ATOM     66  C   UNL A   1      43.963  32.629  29.378  1.00  0.00     0.034 A 
BRANCH  53  67
ATOM     67  C   UNL A   1      46.931  27.861  26.792  1.00  0.00     0.023 A 
ATOM     68  C   UNL A   1      47.898  27.319  27.663  1.00  0.00     0.012 A 
ATOM     69  C   UNL A   1      47.168  27.847  25.404  1.00  0.00     0.148 A 
ATOM     70  C   UNL A   1      49.098  26.812  27.169  1.00  0.00     0.002 A 
ATOM     71  C   UNL A   1      48.349  27.299  24.914  1.00  0.00     0.091 A 
ATOM     72  F   UNL A   1      46.251  28.388  24.590  1.00  0.00    -0.205 F 
ATOM     73  C   UNL A   1      49.320  26.794  25.795  1.00  0.00     0.022 A 
BRANCH  71  74
ATOM     74  S   UNL A   1      48.688  27.161  23.155  1.00  0.00     0.127 S 
ATOM     75  O   UNL A   1      48.200  25.814  22.865  1.00  0.00    -0.237 OA
ATOM     76  O   UNL A   1      47.869  28.239  22.595  1.00  0.00    -0.237 OA
ATOM     77  O   UNL A   1      50.123  27.359  23.012  1.00  0.00    -0.744 OA
ENDBRANCH  71  74
ENDBRANCH  53  67
BRANCH  54  78
ATOM     78  C   UNL A   1      38.375  30.880  30.959  1.00  0.00     0.023 A 
ATOM     79  C   UNL A   1      38.218  30.648  32.340  1.00  0.00     0.012 A 
ATOM     80  C   UNL A   1      37.363  31.563  30.258  1.00  0.00     0.148 A 
ATOM     81  C   UNL A   1      37.066  31.067  33.005  1.00  0.00     0.002 A 
ATOM     82  C   UNL A   1      36.241  32.024  30.938  1.00  0.00     0.091 A 
ATOM     83  F   UNL A   1      37.527  31.764  28.943  1.00  0.00    -0.205 F 
ATOM     84  C   UNL A   1      36.083  31.764  32.308  1.00  0.00     0.022 A 
BRANCH  82  85
ATOM     85  S   UNL A   1      34.991  33.049  30.154  1.00  0.00     0.127 S 
ATOM     86  O   UNL A   1      35.795  34.138  29.610  1.00  0.00    -0.237 OA
ATOM     87  O   UNL A   1      34.434  32.135  29.156  1.00  0.00    -0.237 OA
ATOM     88  O   UNL A   1      34.062  33.413  31.215  1.00  0.00    -0.744 OA
ENDBRANCH  82  85
ENDBRANCH  54  78
BRANCH  66  89
ATOM     89  C   UNL A   1      44.496  34.004  29.680  1.00  0.00     0.023 A 
ATOM     90  C   UNL A   1      45.251  34.214  30.850  1.00  0.00     0.012 A 
ATOM     91  C   UNL A   1      44.324  35.062  28.767  1.00  0.00     0.148 A 
ATOM     92  C   UNL A   1      45.807  35.463  31.119  1.00  0.00     0.002 A 
ATOM     93  C   UNL A   1      44.918  36.292  29.019  1.00  0.00     0.091 A 
ATOM     94  F   UNL A   1      43.583  34.847  27.669  1.00  0.00    -0.205 F 
ATOM     95  C   UNL A   1      45.653  36.497  30.198  1.00  0.00     0.022 A 
BRANCH  93  96
ATOM     96  S   UNL A   1      44.848  37.650  27.843  1.00  0.00     0.127 S 
ATOM     97  O   UNL A   1      43.513  37.483  27.274  1.00  0.00    -0.237 OA
ATOM     98  O   UNL A   1      45.001  38.821  28.707  1.00  0.00    -0.237 OA
ATOM     99  O   UNL A   1      45.956  37.435  26.922  1.00  0.00    -0.744 OA
ENDBRANCH  93  96
ENDBRANCH  66  89
ENDBRANCH  40  41
ENDBRANCH  32  35
ENDBRANCH  30  31
ENDBRANCH  29  30
ENDBRANCH  28  29
ENDBRANCH   1  28
TORSDOF 20
ENDMDL
MODEL 3
REMARK VINA RESULT:     -11.0      4.269      7.023
REMARK SMILES COc1ccc(CCNC(=O)c2cccnc2C(=O)NCCCCNC(=O)c2ccc(-c3c4nc(c(-c5cccc(S(=O)(=O)[O-])c5F)c5ccc([nH]5)c(-c5cccc(S(=O)(=O)[O-])c5F)c5nc(c(-c6cccc(S(=O)(=O)[O-])c6F)c6ccc3[nH]6)C=C5)C=C4)cc2)cc1OC
REMARK SMILES IDX 21 1 20 2 18 3 19 4 17 6 12 7 13 8 14 9 16 10 15 11 10 12
REMARK SMILES IDX 9 13 11 15 8 16 7 17 6 18 3 19 4 20 92 21 5 22 91 23 2 24
REMARK SMILES IDX 1 25 93 26 94 27 22 28 23 29 24 30 25 31 26 32 27 34 28 35
REMARK SMILES IDX 29 36 90 37 30 38 89 39 31 40 32 41 33 42 83 43 34 44 88 45
REMARK SMILES IDX 82 46 84 47 35 48 87 49 81 50 80 51 36 53 68 54 48 55 67 56
REMARK SMILES IDX 49 57 52 58 66 59 85 60 50 61 51 62 65 64 86 65 53 66 37 67
REMARK SMILES IDX 38 68 46 69 39 70 41 71 47 72 40 73 42 74 43 75 44 76 45 77
REMARK SMILES IDX 69 78 70 79 78 80 71 81 73 82 79 83 72 84 74 85 75 86 76 87
REMARK SMILES IDX 77 88 54 89 55 90 63 91 56 92 58 93 64 94 57 95 59 96 60 97
REMARK SMILES IDX 61 98 62 99
REMARK H PARENT 20 5 9 14 25 33 84 52 52 63
REMARK Flexibility Score: inf
ROOT
ATOM      1  C   UNL A   1      34.440  23.873  23.644  1.00  0.00     0.116 C 
ENDROOT
BRANCH   1   2
ATOM      2  N   UNL A   1      34.090  24.557  22.429  1.00  0.00    -0.351 N 
ATOM      3  C   UNL A   1      33.087  25.359  21.973  1.00  0.00     0.270 C 
ATOM      4  O   UNL A   1      33.289  25.715  20.800  1.00  0.00    -0.267 OA
ATOM      5  H   UNL A   1      34.764  24.402  21.729  1.00  0.00     0.163 HD
BRANCH   3   6
ATOM      6  C   UNL A   1      31.822  25.867  22.646  1.00  0.00     0.140 A 
ATOM      7  C   UNL A   1      30.826  25.253  23.403  1.00  0.00     0.071 A 
ATOM      8  C   UNL A   1      29.763  26.050  23.894  1.00  0.00     0.018 A 
ATOM      9  C   UNL A   1      29.675  27.403  23.590  1.00  0.00     0.021 A 
ATOM     10  N   UNL A   1      31.700  27.211  22.354  1.00  0.00    -0.250 NA
ATOM     11  C   UNL A   1      30.668  27.938  22.812  1.00  0.00     0.112 A 
BRANCH   7  12
ATOM     12  C   UNL A   1      30.787  23.884  23.917  1.00  0.00     0.253 C 
ATOM     13  N   UNL A   1      31.003  23.605  25.248  1.00  0.00    -0.352 N 
ATOM     14  H   UNL A   1      30.873  22.662  25.497  1.00  0.00     0.163 HD
ATOM     15  O   UNL A   1      30.735  22.962  23.107  1.00  0.00    -0.269 OA
BRANCH  13  16
ATOM     16  C   UNL A   1      31.391  24.480  26.350  1.00  0.00     0.121 C 
BRANCH  16  17
ATOM     17  C   UNL A   1      32.692  25.254  26.114  1.00  0.00     0.057 C 
BRANCH  17  18
ATOM     18  C   UNL A   1      32.705  26.703  26.550  1.00  0.00    -0.042 A 
ATOM     19  C   UNL A   1      32.657  29.478  27.110  1.00  0.00     0.160 A 
ATOM     20  C   UNL A   1      31.507  28.699  27.258  1.00  0.00     0.051 A 
ATOM     21  C   UNL A   1      33.860  28.862  26.738  1.00  0.00     0.160 A 
ATOM     22  C   UNL A   1      31.531  27.336  26.961  1.00  0.00     0.008 A 
ATOM     23  C   UNL A   1      33.873  27.477  26.477  1.00  0.00     0.054 A 
BRANCH  19  24
ATOM     24  O   UNL A   1      32.611  30.819  27.391  1.00  0.00    -0.493 OA
ATOM     25  C   UNL A   1      31.720  31.535  26.532  1.00  0.00     0.278 C 
ENDBRANCH  19  24
BRANCH  21  26
ATOM     26  O   UNL A   1      35.087  29.453  26.568  1.00  0.00    -0.493 OA
ATOM     27  C   UNL A   1      35.936  29.535  27.706  1.00  0.00     0.278 C 
ENDBRANCH  21  26
ENDBRANCH  17  18
ENDBRANCH  16  17
ENDBRANCH  13  16
ENDBRANCH   7  12
ENDBRANCH   3   6
ENDBRANCH   1   2
BRANCH   1  28
ATOM     28  C   UNL A   1      35.946  23.664  23.729  1.00  0.00     0.023 C 
BRANCH  28  29
ATOM     29  C   UNL A   1      36.356  22.218  24.003  1.00  0.00     0.023 C 
BRANCH  29  30
ATOM     30  C   UNL A   1      36.840  21.965  25.425  1.00  0.00     0.116 C 
BRANCH  30  31
ATOM     31  N   UNL A   1      37.892  20.959  25.523  1.00  0.00    -0.352 N 
ATOM     32  C   UNL A   1      39.164  21.101  26.043  1.00  0.00     0.251 C 
ATOM     33  H   UNL A   1      37.668  20.066  25.176  1.00  0.00     0.163 HD
ATOM     34  O   UNL A   1      39.971  20.191  25.978  1.00  0.00    -0.269 OA
BRANCH  32  35
ATOM     35  C   UNL A   1      39.539  22.406  26.631  1.00  0.00     0.039 A 
ATOM     36  C   UNL A   1      40.539  22.447  27.605  1.00  0.00     0.014 A 
ATOM     37  C   UNL A   1      38.978  23.586  26.139  1.00  0.00     0.014 A 
ATOM     38  C   UNL A   1      41.050  23.682  28.009  1.00  0.00     0.010 A 
ATOM     39  C   UNL A   1      39.554  24.805  26.469  1.00  0.00     0.010 A 
ATOM     40  C   UNL A   1      40.602  24.867  27.400  1.00  0.00    -0.014 A 
BRANCH  40  41
ATOM     41  C   UNL A   1      41.238  26.180  27.681  1.00  0.00     0.031 A 
ATOM     42  C   UNL A   1      42.656  26.440  27.253  1.00  0.00     0.074 A 
ATOM     43  C   UNL A   1      40.586  27.085  28.439  1.00  0.00     0.049 A 
ATOM     44  N   UNL A   1      43.413  27.478  27.497  1.00  0.00    -0.248 NA
ATOM     45  C   UNL A   1      43.327  25.376  26.488  1.00  0.00     0.031 C 
ATOM     46  C   UNL A   1      39.250  26.905  29.015  1.00  0.00     0.029 A 
ATOM     47  N   UNL A   1      40.973  28.324  28.888  1.00  0.00    -0.354 N 
ATOM     48  C   UNL A   1      44.659  27.170  26.966  1.00  0.00     0.074 A 
ATOM     49  C   UNL A   1      44.568  25.834  26.420  1.00  0.00     0.031 C 
ATOM     50  C   UNL A   1      38.928  27.994  29.730  1.00  0.00     0.029 A 
ATOM     51  C   UNL A   1      40.039  28.939  29.690  1.00  0.00     0.049 A 
ATOM     52  H   UNL A   1      41.838  28.734  28.657  1.00  0.00     0.167 HD
ATOM     53  C   UNL A   1      45.770  27.942  26.903  1.00  0.00     0.034 A 
ATOM     54  C   UNL A   1      40.074  30.128  30.321  1.00  0.00     0.034 A 
ATOM     55  C   UNL A   1      45.832  29.297  27.379  1.00  0.00     0.049 A 
ATOM     56  C   UNL A   1      41.282  31.007  30.158  1.00  0.00     0.074 A 
ATOM     57  C   UNL A   1      46.863  30.209  27.246  1.00  0.00     0.029 A 
ATOM     58  N   UNL A   1      44.819  29.936  28.076  1.00  0.00    -0.354 N 
ATOM     59  N   UNL A   1      42.386  30.773  29.487  1.00  0.00    -0.248 NA
ATOM     60  C   UNL A   1      41.241  32.328  30.802  1.00  0.00     0.031 C 
ATOM     61  C   UNL A   1      46.477  31.399  27.873  1.00  0.00     0.029 A 
ATOM     62  C   UNL A   1      45.201  31.230  28.387  1.00  0.00     0.049 A 
ATOM     63  H   UNL A   1      43.955  29.529  28.317  1.00  0.00     0.167 HD
ATOM     64  C   UNL A   1      43.156  31.924  29.605  1.00  0.00     0.074 A 
ATOM     65  C   UNL A   1      42.383  32.864  30.392  1.00  0.00     0.031 C 
ATOM     66  C   UNL A   1      44.398  32.173  29.123  1.00  0.00     0.034 A 
BRANCH  53  67
ATOM     67  C   UNL A   1      46.983  27.359  26.229  1.00  0.00     0.023 A 
ATOM     68  C   UNL A   1      47.150  27.526  24.839  1.00  0.00     0.012 A 
ATOM     69  C   UNL A   1      47.970  26.677  26.966  1.00  0.00     0.148 A 
ATOM     70  C   UNL A   1      48.257  26.989  24.184  1.00  0.00     0.002 A 
ATOM     71  C   UNL A   1      49.094  26.181  26.313  1.00  0.00     0.091 A 
ATOM     72  F   UNL A   1      47.785  26.503  28.282  1.00  0.00    -0.205 F 
ATOM     73  C   UNL A   1      49.232  26.324  24.922  1.00  0.00     0.022 A 
BRANCH  71  74
ATOM     74  S   UNL A   1      50.441  25.379  27.191  1.00  0.00     0.127 S 
ATOM     75  O   UNL A   1      50.866  26.436  28.108  1.00  0.00    -0.237 OA
ATOM     76  O   UNL A   1      49.764  24.251  27.835  1.00  0.00    -0.237 OA
ATOM     77  O   UNL A   1      51.408  24.999  26.171  1.00  0.00    -0.744 OA
ENDBRANCH  71  74
ENDBRANCH  53  67
BRANCH  54  78
ATOM     78  C   UNL A   1      38.883  30.590  31.091  1.00  0.00     0.023 A 
ATOM     79  C   UNL A   1      38.812  30.314  32.471  1.00  0.00     0.012 A 
ATOM     80  C   UNL A   1      37.858  31.344  30.487  1.00  0.00     0.148 A 
ATOM     81  C   UNL A   1      37.729  30.758  33.230  1.00  0.00     0.002 A 
ATOM     82  C   UNL A   1      36.810  31.828  31.261  1.00  0.00     0.091 A 
ATOM     83  F   UNL A   1      37.941  31.587  29.172  1.00  0.00    -0.205 F 
ATOM     84  C   UNL A   1      36.734  31.524  32.629  1.00  0.00     0.022 A 
BRANCH  82  85
ATOM     85  S   UNL A   1      35.558  32.936  30.603  1.00  0.00     0.127 S 
ATOM     86  O   UNL A   1      34.822  32.056  29.701  1.00  0.00    -0.237 OA
ATOM     87  O   UNL A   1      34.833  33.326  31.813  1.00  0.00    -0.237 OA
ATOM     88  O   UNL A   1      36.292  34.024  29.970  1.00  0.00    -0.744 OA
ENDBRANCH  82  85
ENDBRANCH  54  78
BRANCH  66  89
ATOM     89  C   UNL A   1      45.002  33.521  29.409  1.00  0.00     0.023 A 
ATOM     90  C   UNL A   1      44.752  34.595  28.532  1.00  0.00     0.012 A 
ATOM     91  C   UNL A   1      45.741  33.746  30.586  1.00  0.00     0.148 A 
ATOM     92  C   UNL A   1      45.247  35.867  28.810  1.00  0.00     0.002 A 
ATOM     93  C   UNL A   1      46.195  35.027  30.879  1.00  0.00     0.091 A 
ATOM     94  F   UNL A   1      45.987  32.707  31.397  1.00  0.00    -0.205 F 
ATOM     95  C   UNL A   1      45.957  36.086  29.989  1.00  0.00     0.022 A 
BRANCH  93  96
ATOM     96  S   UNL A   1      47.036  35.416  32.420  1.00  0.00     0.127 S 
ATOM     97  O   UNL A   1      47.238  36.857  32.293  1.00  0.00    -0.237 OA
ATOM     98  O   UNL A   1      46.047  35.025  33.425  1.00  0.00    -0.237 OA
ATOM     99  O   UNL A   1      48.249  34.608  32.425  1.00  0.00    -0.744 OA
ENDBRANCH  93  96
ENDBRANCH  66  89
ENDBRANCH  40  41
ENDBRANCH  32  35
ENDBRANCH  30  31
ENDBRANCH  29  30
ENDBRANCH  28  29
ENDBRANCH   1  28
TORSDOF 20
ENDMDL
