MODEL 1
REMARK VINA RESULT:     -13.1      0.000      0.000
REMARK SMILES COc1ccc2c(c1C)OC(=O)[C@@H](CC(=O)N[C@@H](CC1=c3ccccc3=NC1)C(=O)NCCCCNC(=O)c1ccc(-c3c4nc(c(-c5cccc(S(=O)(=O)[O-])c5F)c5ccc([nH]5)c(-c5cccc(S(=O)(=O)[O-])c5F)c5nc(c(-c6cccc(S(=O)(=O)[O-])c6F)c6ccc3[nH]6)C=C5)C=C4)cc1)[C@H]2C
REMARK SMILES IDX 33 1 32 2 31 3 29 4 30 5 18 7 17 8 15 9 16 10 14 12 13 13
REMARK SMILES IDX 3 14 4 15 8 16 5 17 7 18 9 19 6 20 10 21 102 22 11 23 103 24
REMARK SMILES IDX 12 25 2 26 1 27 19 28 20 29 21 30 28 31 22 32 26 33 27 34
REMARK SMILES IDX 23 35 25 36 24 37 34 38 35 39 36 40 37 41 38 43 39 44 40 45
REMARK SMILES IDX 101 46 41 47 100 48 42 49 43 50 44 51 94 52 45 53 99 54
REMARK SMILES IDX 93 55 95 56 46 57 98 58 92 59 91 60 47 62 79 63 59 64 78 65
REMARK SMILES IDX 60 66 63 67 77 68 96 69 61 70 62 71 76 73 97 74 64 75 48 76
REMARK SMILES IDX 49 77 57 78 50 79 52 80 58 81 51 82 53 83 54 84 55 85 56 86
REMARK SMILES IDX 80 87 81 88 89 89 82 90 84 91 90 92 83 93 85 94 86 95 87 96
REMARK SMILES IDX 88 97 65 98 66 99 74 100 67 101 69 102 75 103 68 104 70 105
REMARK SMILES IDX 71 106 72 107 73 108
REMARK H PARENT 31 6 17 11 36 42 95 61 63 72
REMARK Flexibility Score: inf
ROOT
ATOM      1  C   UNL A   1      34.918  30.407  27.308  1.00  0.00     0.023 C 
ENDROOT
BRANCH   1   2
ATOM      2  C   UNL A   1      34.329  29.016  27.278  1.00  0.00     0.116 C 
BRANCH   2   3
ATOM      3  N   UNL A   1      33.085  28.764  27.947  1.00  0.00    -0.354 N 
ATOM      4  C   UNL A   1      31.988  28.171  27.368  1.00  0.00     0.242 C 
ATOM      5  O   UNL A   1      31.066  27.790  28.092  1.00  0.00    -0.273 OA
ATOM      6  H   UNL A   1      33.011  29.036  28.890  1.00  0.00     0.163 HD
BRANCH   4   7
ATOM      7  C   UNL A   1      31.943  27.910  25.827  1.00  0.00     0.175 C 
BRANCH   7   8
ATOM      8  N   UNL A   1      31.354  26.568  25.504  1.00  0.00    -0.344 N 
ATOM      9  C   UNL A   1      31.724  25.294  25.156  1.00  0.00     0.221 C 
ATOM     10  O   UNL A   1      30.767  24.505  25.096  1.00  0.00    -0.275 OA
ATOM     11  H   UNL A   1      30.373  26.618  25.564  1.00  0.00     0.164 HD
BRANCH   9  12
ATOM     12  C   UNL A   1      33.142  24.725  24.788  1.00  0.00     0.116 C 
BRANCH  12  13
ATOM     13  C   UNL A   1      33.408  23.266  25.238  1.00  0.00     0.116 C 
ATOM     14  C   UNL A   1      33.776  18.480  24.111  1.00  0.00     0.125 A 
ATOM     15  C   UNL A   1      32.494  19.017  24.009  1.00  0.00     0.047 A 
ATOM     16  C   UNL A   1      34.813  19.242  24.714  1.00  0.00     0.034 A 
ATOM     17  C   UNL A   1      32.361  20.378  24.097  1.00  0.00     0.012 A 
ATOM     18  C   UNL A   1      34.528  20.570  25.008  1.00  0.00     0.140 A 
ATOM     19  C   UNL A   1      36.201  18.708  24.858  1.00  0.00     0.052 C 
ATOM     20  C   UNL A   1      33.495  21.124  24.329  1.00  0.00    -0.001 A 
ATOM     21  O   UNL A   1      35.180  21.500  25.866  1.00  0.00    -0.426 OA
ATOM     22  C   UNL A   1      33.674  22.540  23.973  1.00  0.00     0.035 C 
ATOM     23  C   UNL A   1      34.612  22.837  26.145  1.00  0.00     0.315 C 
ATOM     24  C   UNL A   1      35.071  22.955  23.385  1.00  0.00     0.014 C 
ATOM     25  O   UNL A   1      35.080  23.549  27.026  1.00  0.00    -0.251 OA
BRANCH  14  26
ATOM     26  O   UNL A   1      34.010  17.208  23.648  1.00  0.00    -0.496 OA
ATOM     27  C   UNL A   1      33.635  16.190  24.598  1.00  0.00     0.278 C 
ENDBRANCH  14  26
ENDBRANCH  12  13
ENDBRANCH   9  12
ENDBRANCH   7   8
BRANCH   7  28
ATOM     28  C   UNL A   1      31.425  29.251  25.139  1.00  0.00     0.068 C 
BRANCH  28  29
ATOM     29  C   UNL A   1      30.583  29.480  23.894  1.00  0.00    -0.037 C 
ATOM     30  C   UNL A   1      29.679  30.376  23.485  1.00  0.00     0.001 A 
ATOM     31  C   UNL A   1      30.816  28.468  22.786  1.00  0.00     0.174 C 
ATOM     32  C   UNL A   1      29.011  31.514  24.039  1.00  0.00     0.010 A 
ATOM     33  C   UNL A   1      29.405  29.968  22.089  1.00  0.00     0.065 A 
ATOM     34  N   UNL A   1      29.995  28.906  21.643  1.00  0.00    -0.280 NA
ATOM     35  C   UNL A   1      28.188  32.243  23.269  1.00  0.00     0.001 A 
ATOM     36  C   UNL A   1      28.518  30.839  21.290  1.00  0.00     0.028 A 
ATOM     37  C   UNL A   1      27.969  31.916  21.874  1.00  0.00     0.002 A 
ENDBRANCH  28  29
ENDBRANCH   7  28
ENDBRANCH   4   7
ENDBRANCH   2   3
ENDBRANCH   1   2
BRANCH   1  38
ATOM     38  C   UNL A   1      34.074  31.442  28.038  1.00  0.00     0.023 C 
BRANCH  38  39
ATOM     39  C   UNL A   1      34.410  32.906  27.750  1.00  0.00     0.116 C 
BRANCH  39  40
ATOM     40  N   UNL A   1      33.515  33.865  28.392  1.00  0.00    -0.352 N 
ATOM     41  C   UNL A   1      33.555  34.348  29.688  1.00  0.00     0.251 C 
ATOM     42  H   UNL A   1      32.786  34.213  27.829  1.00  0.00     0.163 HD
ATOM     43  O   UNL A   1      32.692  35.081  30.135  1.00  0.00    -0.269 OA
BRANCH  41  44
ATOM     44  C   UNL A   1      34.680  33.895  30.522  1.00  0.00     0.039 A 
ATOM     45  C   UNL A   1      34.469  32.848  31.419  1.00  0.00     0.014 A 
ATOM     46  C   UNL A   1      35.964  34.356  30.222  1.00  0.00     0.014 A 
ATOM     47  C   UNL A   1      35.573  32.175  31.939  1.00  0.00     0.010 A 
ATOM     48  C   UNL A   1      37.054  33.620  30.661  1.00  0.00     0.010 A 
ATOM     49  C   UNL A   1      36.867  32.521  31.518  1.00  0.00    -0.014 A 
BRANCH  49  50
ATOM     50  C   UNL A   1      38.055  31.768  31.983  1.00  0.00     0.031 A 
ATOM     51  C   UNL A   1      38.688  32.152  33.289  1.00  0.00     0.074 A 
ATOM     52  C   UNL A   1      38.609  30.816  31.204  1.00  0.00     0.049 A 
ATOM     53  N   UNL A   1      39.774  31.686  33.842  1.00  0.00    -0.248 NA
ATOM     54  C   UNL A   1      38.033  33.224  34.060  1.00  0.00     0.031 C 
ATOM     55  C   UNL A   1      38.134  30.415  29.877  1.00  0.00     0.029 A 
ATOM     56  N   UNL A   1      39.712  30.025  31.411  1.00  0.00    -0.354 N 
ATOM     57  C   UNL A   1      39.954  32.436  34.996  1.00  0.00     0.074 A 
ATOM     58  C   UNL A   1      38.893  33.412  35.049  1.00  0.00     0.031 C 
ATOM     59  C   UNL A   1      38.932  29.444  29.397  1.00  0.00     0.029 A 
ATOM     60  C   UNL A   1      39.985  29.168  30.370  1.00  0.00     0.049 A 
ATOM     61  H   UNL A   1      40.257  30.067  32.230  1.00  0.00     0.167 HD
ATOM     62  C   UNL A   1      40.895  32.292  35.954  1.00  0.00     0.034 A 
ATOM     63  C   UNL A   1      40.970  28.259  30.224  1.00  0.00     0.034 A 
ATOM     64  C   UNL A   1      41.892  31.264  35.948  1.00  0.00     0.049 A 
ATOM     65  C   UNL A   1      41.965  28.074  31.339  1.00  0.00     0.074 A 
ATOM     66  C   UNL A   1      42.820  30.968  36.928  1.00  0.00     0.029 A 
ATOM     67  N   UNL A   1      42.080  30.357  34.918  1.00  0.00    -0.354 N 
ATOM     68  N   UNL A   1      42.032  28.698  32.490  1.00  0.00    -0.248 NA
ATOM     69  C   UNL A   1      42.999  27.044  31.152  1.00  0.00     0.031 C 
ATOM     70  C   UNL A   1      43.573  29.876  36.490  1.00  0.00     0.029 A 
ATOM     71  C   UNL A   1      43.110  29.496  35.239  1.00  0.00     0.049 A 
ATOM     72  H   UNL A   1      41.558  30.331  34.084  1.00  0.00     0.167 HD
ATOM     73  C   UNL A   1      43.098  28.123  33.173  1.00  0.00     0.074 A 
ATOM     74  C   UNL A   1      43.638  27.090  32.315  1.00  0.00     0.031 C 
ATOM     75  C   UNL A   1      43.594  28.437  34.393  1.00  0.00     0.034 A 
BRANCH  62  76
ATOM     76  C   UNL A   1      40.831  33.213  37.136  1.00  0.00     0.023 A 
ATOM     77  C   UNL A   1      39.934  32.922  38.182  1.00  0.00     0.012 A 
ATOM     78  C   UNL A   1      41.701  34.313  37.244  1.00  0.00     0.148 A 
ATOM     79  C   UNL A   1      39.894  33.722  39.320  1.00  0.00     0.002 A 
ATOM     80  C   UNL A   1      41.678  35.089  38.396  1.00  0.00     0.091 A 
ATOM     81  F   UNL A   1      42.530  34.575  36.224  1.00  0.00    -0.205 F 
ATOM     82  C   UNL A   1      40.772  34.798  39.431  1.00  0.00     0.022 A 
BRANCH  80  83
ATOM     83  S   UNL A   1      42.796  36.467  38.665  1.00  0.00     0.127 S 
ATOM     84  O   UNL A   1      42.112  37.200  39.730  1.00  0.00    -0.237 OA
ATOM     85  O   UNL A   1      44.020  35.786  39.082  1.00  0.00    -0.237 OA
ATOM     86  O   UNL A   1      42.883  37.171  37.394  1.00  0.00    -0.744 OA
ENDBRANCH  80  83
ENDBRANCH  62  76
BRANCH  63  87
ATOM     87  C   UNL A   1      41.016  27.399  29.009  1.00  0.00     0.023 A 
ATOM     88  C   UNL A   1      40.101  26.335  28.890  1.00  0.00     0.012 A 
ATOM     89  C   UNL A   1      41.924  27.649  27.963  1.00  0.00     0.148 A 
ATOM     90  C   UNL A   1      40.103  25.519  27.757  1.00  0.00     0.002 A 
ATOM     91  C   UNL A   1      41.896  26.855  26.821  1.00  0.00     0.091 A 
ATOM     92  F   UNL A   1      42.788  28.664  28.102  1.00  0.00    -0.205 F 
ATOM     93  C   UNL A   1      40.994  25.784  26.720  1.00  0.00     0.022 A 
BRANCH  91  94
ATOM     94  S   UNL A   1      42.936  27.173  25.391  1.00  0.00     0.127 S 
ATOM     95  O   UNL A   1      44.218  27.490  26.018  1.00  0.00    -0.237 OA
ATOM     96  O   UNL A   1      42.890  25.887  24.696  1.00  0.00    -0.237 OA
ATOM     97  O   UNL A   1      42.300  28.271  24.676  1.00  0.00    -0.744 OA
ENDBRANCH  91  94
ENDBRANCH  63  87
BRANCH  75  98
ATOM     98  C   UNL A   1      44.774  27.662  34.904  1.00  0.00     0.023 A 
ATOM     99  C   UNL A   1      46.071  28.148  34.657  1.00  0.00     0.012 A 
ATOM    100  C   UNL A   1      44.590  26.557  35.757  1.00  0.00     0.148 A 
ATOM    101  C   UNL A   1      47.174  27.543  35.256  1.00  0.00     0.002 A 
ATOM    102  C   UNL A   1      45.691  25.981  36.378  1.00  0.00     0.091 A 
ATOM    103  F   UNL A   1      43.342  26.113  35.968  1.00  0.00    -0.205 F 
ATOM    104  C   UNL A   1      46.984  26.471  36.125  1.00  0.00     0.022 A 
BRANCH 102 105
ATOM    105  S   UNL A   1      45.540  24.655  37.581  1.00  0.00     0.127 S 
ATOM    106  O   UNL A   1      44.521  25.187  38.483  1.00  0.00    -0.237 OA
ATOM    107  O   UNL A   1      45.098  23.535  36.751  1.00  0.00    -0.237 OA
ATOM    108  O   UNL A   1      46.864  24.491  38.168  1.00  0.00    -0.744 OA
ENDBRANCH 102 105
ENDBRANCH  75  98
ENDBRANCH  49  50
ENDBRANCH  41  44
ENDBRANCH  39  40
ENDBRANCH  38  39
ENDBRANCH   1  38
TORSDOF 20
ENDMDL
MODEL 2
REMARK VINA RESULT:     -12.9      1.546      7.170
REMARK SMILES COc1ccc2c(c1C)OC(=O)[C@@H](CC(=O)N[C@@H](CC1=c3ccccc3=NC1)C(=O)NCCCCNC(=O)c1ccc(-c3c4nc(c(-c5cccc(S(=O)(=O)[O-])c5F)c5ccc([nH]5)c(-c5cccc(S(=O)(=O)[O-])c5F)c5nc(c(-c6cccc(S(=O)(=O)[O-])c6F)c6ccc3[nH]6)C=C5)C=C4)cc1)[C@H]2C
REMARK SMILES IDX 33 1 32 2 31 3 29 4 30 5 18 7 17 8 15 9 16 10 14 12 13 13
REMARK SMILES IDX 3 14 4 15 8 16 5 17 7 18 9 19 6 20 10 21 102 22 11 23 103 24
REMARK SMILES IDX 12 25 2 26 1 27 19 28 20 29 21 30 28 31 22 32 26 33 27 34
REMARK SMILES IDX 23 35 25 36 24 37 34 38 35 39 36 40 37 41 38 43 39 44 40 45
REMARK SMILES IDX 101 46 41 47 100 48 42 49 43 50 44 51 94 52 45 53 99 54
REMARK SMILES IDX 93 55 95 56 46 57 98 58 92 59 91 60 47 62 79 63 59 64 78 65
REMARK SMILES IDX 60 66 63 67 77 68 96 69 61 70 62 71 76 73 97 74 64 75 48 76
REMARK SMILES IDX 49 77 57 78 50 79 52 80 58 81 51 82 53 83 54 84 55 85 56 86
REMARK SMILES IDX 80 87 81 88 89 89 82 90 84 91 90 92 83 93 85 94 86 95 87 96
REMARK SMILES IDX 88 97 65 98 66 99 74 100 67 101 69 102 75 103 68 104 70 105
REMARK SMILES IDX 71 106 72 107 73 108
REMARK H PARENT 31 6 17 11 36 42 95 61 63 72
REMARK Flexibility Score: inf
ROOT
ATOM      1  C   UNL A   1      34.912  30.319  27.403  1.00  0.00     0.023 C 
ENDROOT
BRANCH   1   2
ATOM      2  C   UNL A   1      34.328  28.927  27.346  1.00  0.00     0.116 C 
BRANCH   2   3
ATOM      3  N   UNL A   1      33.062  28.669  27.971  1.00  0.00    -0.354 N 
ATOM      4  C   UNL A   1      31.981  28.094  27.346  1.00  0.00     0.242 C 
ATOM      5  O   UNL A   1      31.035  27.704  28.033  1.00  0.00    -0.273 OA
ATOM      6  H   UNL A   1      32.960  28.923  28.916  1.00  0.00     0.163 HD
BRANCH   4   7
ATOM      7  C   UNL A   1      31.983  27.863  25.800  1.00  0.00     0.175 C 
BRANCH   7   8
ATOM      8  N   UNL A   1      31.397  26.531  25.433  1.00  0.00    -0.344 N 
ATOM      9  C   UNL A   1      31.768  25.248  25.124  1.00  0.00     0.221 C 
ATOM     10  O   UNL A   1      30.803  24.478  24.983  1.00  0.00    -0.275 OA
ATOM     11  H   UNL A   1      30.415  26.602  25.406  1.00  0.00     0.164 HD
BRANCH   9  12
ATOM     12  C   UNL A   1      33.200  24.647  24.884  1.00  0.00     0.116 C 
BRANCH  12  13
ATOM     13  C   UNL A   1      33.365  23.155  25.268  1.00  0.00     0.116 C 
ATOM     14  C   UNL A   1      33.673  18.430  23.889  1.00  0.00     0.125 A 
ATOM     15  C   UNL A   1      32.429  19.026  23.694  1.00  0.00     0.047 A 
ATOM     16  C   UNL A   1      34.670  19.112  24.640  1.00  0.00     0.034 A 
ATOM     17  C   UNL A   1      32.337  20.384  23.852  1.00  0.00     0.012 A 
ATOM     18  C   UNL A   1      34.405  20.431  24.985  1.00  0.00     0.140 A 
ATOM     19  C   UNL A   1      36.016  18.512  24.888  1.00  0.00     0.052 C 
ATOM     20  C   UNL A   1      33.467  21.066  24.241  1.00  0.00    -0.001 A 
ATOM     21  O   UNL A   1      34.999  21.281  25.960  1.00  0.00    -0.426 OA
ATOM     22  C   UNL A   1      33.733  22.492  23.994  1.00  0.00     0.035 C 
ATOM     23  C   UNL A   1      34.454  22.623  26.262  1.00  0.00     0.315 C 
ATOM     24  C   UNL A   1      35.198  22.881  23.575  1.00  0.00     0.014 C 
ATOM     25  O   UNL A   1      34.855  23.263  27.228  1.00  0.00    -0.251 OA
BRANCH  14  26
ATOM     26  O   UNL A   1      33.907  17.178  23.375  1.00  0.00    -0.496 OA
ATOM     27  C   UNL A   1      33.464  16.123  24.251  1.00  0.00     0.278 C 
ENDBRANCH  14  26
ENDBRANCH  12  13
ENDBRANCH   9  12
ENDBRANCH   7   8
BRANCH   7  28
ATOM     28  C   UNL A   1      31.496  29.220  25.123  1.00  0.00     0.068 C 
BRANCH  28  29
ATOM     29  C   UNL A   1      30.637  29.478  23.894  1.00  0.00    -0.037 C 
ATOM     30  C   UNL A   1      29.741  30.392  23.511  1.00  0.00     0.001 A 
ATOM     31  C   UNL A   1      30.835  28.475  22.771  1.00  0.00     0.174 C 
ATOM     32  C   UNL A   1      29.102  31.535  24.088  1.00  0.00     0.010 A 
ATOM     33  C   UNL A   1      29.438  30.005  22.114  1.00  0.00     0.065 A 
ATOM     34  N   UNL A   1      30.003  28.939  21.647  1.00  0.00    -0.280 NA
ATOM     35  C   UNL A   1      28.278  32.286  23.340  1.00  0.00     0.001 A 
ATOM     36  C   UNL A   1      28.552  30.900  21.340  1.00  0.00     0.028 A 
ATOM     37  C   UNL A   1      28.031  31.979  21.946  1.00  0.00     0.002 A 
ENDBRANCH  28  29
ENDBRANCH   7  28
ENDBRANCH   4   7
ENDBRANCH   2   3
ENDBRANCH   1   2
BRANCH   1  38
ATOM     38  C   UNL A   1      33.898  31.428  27.651  1.00  0.00     0.023 C 
BRANCH  38  39
ATOM     39  C   UNL A   1      34.412  32.858  27.481  1.00  0.00     0.116 C 
BRANCH  39  40
ATOM     40  N   UNL A   1      33.461  33.889  27.886  1.00  0.00    -0.352 N 
ATOM     41  C   UNL A   1      33.397  34.581  29.084  1.00  0.00     0.251 C 
ATOM     42  H   UNL A   1      32.775  34.124  27.220  1.00  0.00     0.163 HD
ATOM     43  O   UNL A   1      32.495  35.358  29.337  1.00  0.00    -0.269 OA
BRANCH  41  44
ATOM     44  C   UNL A   1      34.458  34.296  30.063  1.00  0.00     0.039 A 
ATOM     45  C   UNL A   1      34.206  33.364  31.070  1.00  0.00     0.014 A 
ATOM     46  C   UNL A   1      35.745  34.777  29.814  1.00  0.00     0.014 A 
ATOM     47  C   UNL A   1      35.284  32.820  31.767  1.00  0.00     0.010 A 
ATOM     48  C   UNL A   1      36.818  34.159  30.438  1.00  0.00     0.010 A 
ATOM     49  C   UNL A   1      36.597  33.173  31.415  1.00  0.00    -0.014 A 
BRANCH  49  50
ATOM     50  C   UNL A   1      37.766  32.547  32.075  1.00  0.00     0.031 A 
ATOM     51  C   UNL A   1      38.459  31.407  31.386  1.00  0.00     0.074 A 
ATOM     52  C   UNL A   1      38.143  32.935  33.310  1.00  0.00     0.049 A 
ATOM     53  N   UNL A   1      39.442  30.664  31.817  1.00  0.00    -0.248 NA
ATOM     54  C   UNL A   1      37.961  31.029  30.051  1.00  0.00     0.031 C 
ATOM     55  C   UNL A   1      37.493  33.974  34.114  1.00  0.00     0.029 A 
ATOM     56  N   UNL A   1      39.158  32.483  34.116  1.00  0.00    -0.354 N 
ATOM     57  C   UNL A   1      39.647  29.710  30.831  1.00  0.00     0.074 A 
ATOM     58  C   UNL A   1      38.666  29.938  29.797  1.00  0.00     0.031 C 
ATOM     59  C   UNL A   1      38.135  34.088  35.291  1.00  0.00     0.029 A 
ATOM     60  C   UNL A   1      39.227  33.119  35.334  1.00  0.00     0.049 A 
ATOM     61  H   UNL A   1      39.780  31.769  33.847  1.00  0.00     0.167 HD
ATOM     62  C   UNL A   1      40.601  28.756  30.768  1.00  0.00     0.034 A 
ATOM     63  C   UNL A   1      40.079  32.942  36.364  1.00  0.00     0.034 A 
ATOM     64  C   UNL A   1      41.631  28.591  31.749  1.00  0.00     0.049 A 
ATOM     65  C   UNL A   1      41.175  31.918  36.238  1.00  0.00     0.074 A 
ATOM     66  C   UNL A   1      42.707  27.725  31.720  1.00  0.00     0.029 A 
ATOM     67  N   UNL A   1      41.720  29.315  32.926  1.00  0.00    -0.354 N 
ATOM     68  N   UNL A   1      41.440  31.120  35.232  1.00  0.00    -0.248 NA
ATOM     69  C   UNL A   1      42.105  31.787  37.369  1.00  0.00     0.031 C 
ATOM     70  C   UNL A   1      43.452  27.926  32.884  1.00  0.00     0.029 A 
ATOM     71  C   UNL A   1      42.837  28.917  33.634  1.00  0.00     0.049 A 
ATOM     72  H   UNL A   1      41.083  30.008  33.215  1.00  0.00     0.167 HD
ATOM     73  C   UNL A   1      42.577  30.410  35.598  1.00  0.00     0.074 A 
ATOM     74  C   UNL A   1      42.962  30.882  36.911  1.00  0.00     0.031 C 
ATOM     75  C   UNL A   1      43.232  29.442  34.914  1.00  0.00     0.034 A 
BRANCH  62  76
ATOM     76  C   UNL A   1      40.629  27.879  29.553  1.00  0.00     0.023 A 
ATOM     77  C   UNL A   1      39.739  26.790  29.475  1.00  0.00     0.012 A 
ATOM     78  C   UNL A   1      41.475  28.171  28.468  1.00  0.00     0.148 A 
ATOM     79  C   UNL A   1      39.698  25.993  28.335  1.00  0.00     0.002 A 
ATOM     80  C   UNL A   1      41.406  27.390  27.321  1.00  0.00     0.091 A 
ATOM     81  F   UNL A   1      42.324  29.203  28.580  1.00  0.00    -0.205 F 
ATOM     82  C   UNL A   1      40.523  26.299  27.255  1.00  0.00     0.022 A 
BRANCH  80  83
ATOM     83  S   UNL A   1      42.387  27.724  25.856  1.00  0.00     0.127 S 
ATOM     84  O   UNL A   1      41.949  26.657  24.956  1.00  0.00    -0.237 OA
ATOM     85  O   UNL A   1      41.929  29.062  25.484  1.00  0.00    -0.237 OA
ATOM     86  O   UNL A   1      43.780  27.642  26.272  1.00  0.00    -0.744 OA
ENDBRANCH  80  83
ENDBRANCH  62  76
BRANCH  63  87
ATOM     87  C   UNL A   1      39.980  33.811  37.570  1.00  0.00     0.023 A 
ATOM     88  C   UNL A   1      40.704  35.019  37.605  1.00  0.00     0.012 A 
ATOM     89  C   UNL A   1      39.153  33.471  38.656  1.00  0.00     0.148 A 
ATOM     90  C   UNL A   1      40.621  35.865  38.711  1.00  0.00     0.002 A 
ATOM     91  C   UNL A   1      39.046  34.337  39.739  1.00  0.00     0.091 A 
ATOM     92  F   UNL A   1      38.478  32.314  38.602  1.00  0.00    -0.205 F 
ATOM     93  C   UNL A   1      39.787  35.530  39.773  1.00  0.00     0.022 A 
BRANCH  91  94
ATOM     94  S   UNL A   1      37.927  34.042  41.113  1.00  0.00     0.127 S 
ATOM     95  O   UNL A   1      36.805  33.380  40.449  1.00  0.00    -0.237 OA
ATOM     96  O   UNL A   1      38.732  33.176  41.974  1.00  0.00    -0.237 OA
ATOM     97  O   UNL A   1      37.637  35.354  41.677  1.00  0.00    -0.744 OA
ENDBRANCH  91  94
ENDBRANCH  63  87
BRANCH  75  98
ATOM     98  C   UNL A   1      44.444  28.819  35.545  1.00  0.00     0.023 A 
ATOM     99  C   UNL A   1      45.693  29.450  35.399  1.00  0.00     0.012 A 
ATOM    100  C   UNL A   1      44.313  27.715  36.409  1.00  0.00     0.148 A 
ATOM    101  C   UNL A   1      46.801  28.989  36.108  1.00  0.00     0.002 A 
ATOM    102  C   UNL A   1      45.413  27.283  37.139  1.00  0.00     0.091 A 
ATOM    103  F   UNL A   1      43.110  27.132  36.523  1.00  0.00    -0.205 F 
ATOM    104  C   UNL A   1      46.658  27.916  36.986  1.00  0.00     0.022 A 
BRANCH 102 105
ATOM    105  S   UNL A   1      45.309  25.969  38.359  1.00  0.00     0.127 S 
ATOM    106  O   UNL A   1      46.617  25.330  38.220  1.00  0.00    -0.237 OA
ATOM    107  O   UNL A   1      45.123  26.715  39.602  1.00  0.00    -0.237 OA
ATOM    108  O   UNL A   1      44.173  25.144  37.969  1.00  0.00    -0.744 OA
ENDBRANCH 102 105
ENDBRANCH  75  98
ENDBRANCH  49  50
ENDBRANCH  41  44
ENDBRANCH  39  40
ENDBRANCH  38  39
ENDBRANCH   1  38
TORSDOF 20
ENDMDL
MODEL 3
REMARK VINA RESULT:     -12.6      5.641      9.981
REMARK SMILES COc1ccc2c(c1C)OC(=O)[C@@H](CC(=O)N[C@@H](CC1=c3ccccc3=NC1)C(=O)NCCCCNC(=O)c1ccc(-c3c4nc(c(-c5cccc(S(=O)(=O)[O-])c5F)c5ccc([nH]5)c(-c5cccc(S(=O)(=O)[O-])c5F)c5nc(c(-c6cccc(S(=O)(=O)[O-])c6F)c6ccc3[nH]6)C=C5)C=C4)cc1)[C@H]2C
REMARK SMILES IDX 33 1 32 2 31 3 29 4 30 5 18 7 17 8 15 9 16 10 14 12 13 13
REMARK SMILES IDX 3 14 4 15 8 16 5 17 7 18 9 19 6 20 10 21 102 22 11 23 103 24
REMARK SMILES IDX 12 25 2 26 1 27 19 28 20 29 21 30 28 31 22 32 26 33 27 34
REMARK SMILES IDX 23 35 25 36 24 37 34 38 35 39 36 40 37 41 38 43 39 44 40 45
REMARK SMILES IDX 101 46 41 47 100 48 42 49 43 50 44 51 94 52 45 53 99 54
REMARK SMILES IDX 93 55 95 56 46 57 98 58 92 59 91 60 47 62 79 63 59 64 78 65
REMARK SMILES IDX 60 66 63 67 77 68 96 69 61 70 62 71 76 73 97 74 64 75 48 76
REMARK SMILES IDX 49 77 57 78 50 79 52 80 58 81 51 82 53 83 54 84 55 85 56 86
REMARK SMILES IDX 80 87 81 88 89 89 82 90 84 91 90 92 83 93 85 94 86 95 87 96
REMARK SMILES IDX 88 97 65 98 66 99 74 100 67 101 69 102 75 103 68 104 70 105
REMARK SMILES IDX 71 106 72 107 73 108
REMARK H PARENT 31 6 17 11 36 42 95 61 63 72
REMARK Flexibility Score: inf
ROOT
ATOM      1  C   UNL A   1      38.073  22.360  25.294  1.00  0.00     0.023 C 
ENDROOT
BRANCH   1   2
ATOM      2  C   UNL A   1      37.180  21.142  25.273  1.00  0.00     0.116 C 
BRANCH   2   3
ATOM      3  N   UNL A   1      36.189  20.978  26.298  1.00  0.00    -0.354 N 
ATOM      4  C   UNL A   1      34.938  21.547  26.280  1.00  0.00     0.242 C 
ATOM      5  O   UNL A   1      34.092  21.150  27.083  1.00  0.00    -0.273 OA
ATOM      6  H   UNL A   1      36.423  20.416  27.071  1.00  0.00     0.163 HD
BRANCH   4   7
ATOM      7  C   UNL A   1      34.566  22.622  25.207  1.00  0.00     0.175 C 
BRANCH   7   8
ATOM      8  N   UNL A   1      33.477  22.144  24.291  1.00  0.00    -0.344 N 
ATOM      9  C   UNL A   1      32.983  22.333  23.026  1.00  0.00     0.221 C 
ATOM     10  O   UNL A   1      32.057  21.557  22.739  1.00  0.00    -0.275 OA
ATOM     11  H   UNL A   1      32.934  21.465  24.755  1.00  0.00     0.164 HD
BRANCH   9  12
ATOM     12  C   UNL A   1      33.385  23.396  21.940  1.00  0.00     0.116 C 
BRANCH  12  13
ATOM     13  C   UNL A   1      32.321  24.485  21.653  1.00  0.00     0.116 C 
ATOM     14  C   UNL A   1      29.268  27.977  23.328  1.00  0.00     0.125 A 
ATOM     15  C   UNL A   1      28.936  26.673  23.691  1.00  0.00     0.047 A 
ATOM     16  C   UNL A   1      30.287  28.201  22.362  1.00  0.00     0.034 A 
ATOM     17  C   UNL A   1      29.853  25.685  23.444  1.00  0.00     0.012 A 
ATOM     18  C   UNL A   1      31.030  27.095  21.966  1.00  0.00     0.140 A 
ATOM     19  C   UNL A   1      30.673  29.578  21.930  1.00  0.00     0.052 C 
ATOM     20  C   UNL A   1      31.022  26.036  22.809  1.00  0.00    -0.001 A 
ATOM     21  O   UNL A   1      31.873  26.891  20.837  1.00  0.00    -0.426 OA
ATOM     22  C   UNL A   1      32.294  25.300  22.892  1.00  0.00     0.035 C 
ATOM     23  C   UNL A   1      32.459  25.568  20.529  1.00  0.00     0.315 C 
ATOM     24  C   UNL A   1      33.605  26.157  23.015  1.00  0.00     0.014 C 
ATOM     25  O   UNL A   1      33.022  25.361  19.460  1.00  0.00    -0.251 OA
BRANCH  14  26
ATOM     26  O   UNL A   1      28.584  29.026  23.892  1.00  0.00    -0.496 OA
ATOM     27  C   UNL A   1      27.345  29.314  23.213  1.00  0.00     0.278 C 
ENDBRANCH  14  26
ENDBRANCH  12  13
ENDBRANCH   9  12
ENDBRANCH   7   8
BRANCH   7  28
ATOM     28  C   UNL A   1      34.490  24.026  25.956  1.00  0.00     0.068 C 
BRANCH  28  29
ATOM     29  C   UNL A   1      33.313  24.939  26.261  1.00  0.00    -0.037 C 
ATOM     30  C   UNL A   1      33.096  26.256  26.317  1.00  0.00     0.001 A 
ATOM     31  C   UNL A   1      32.015  24.209  26.558  1.00  0.00     0.174 C 
ATOM     32  C   UNL A   1      33.874  27.450  26.184  1.00  0.00     0.010 A 
ATOM     33  C   UNL A   1      31.641  26.350  26.572  1.00  0.00     0.065 A 
ATOM     34  N   UNL A   1      30.984  25.246  26.731  1.00  0.00    -0.280 NA
ATOM     35  C   UNL A   1      33.269  28.647  26.231  1.00  0.00     0.001 A 
ATOM     36  C   UNL A   1      31.038  27.699  26.571  1.00  0.00     0.028 A 
ATOM     37  C   UNL A   1      31.834  28.765  26.393  1.00  0.00     0.002 A 
ENDBRANCH  28  29
ENDBRANCH   7  28
ENDBRANCH   4   7
ENDBRANCH   2   3
ENDBRANCH   1   2
BRANCH   1  38
ATOM     38  C   UNL A   1      39.515  22.088  25.701  1.00  0.00     0.023 C 
BRANCH  38  39
ATOM     39  C   UNL A   1      39.717  21.040  26.796  1.00  0.00     0.116 C 
BRANCH  39  40
ATOM     40  N   UNL A   1      40.394  19.826  26.348  1.00  0.00    -0.352 N 
ATOM     41  C   UNL A   1      41.739  19.635  26.083  1.00  0.00     0.251 C 
ATOM     42  H   UNL A   1      39.816  19.039  26.216  1.00  0.00     0.163 HD
ATOM     43  O   UNL A   1      42.169  18.592  25.624  1.00  0.00    -0.269 OA
BRANCH  41  44
ATOM     44  C   UNL A   1      42.627  20.779  26.345  1.00  0.00     0.039 A 
ATOM     45  C   UNL A   1      43.086  21.531  25.262  1.00  0.00     0.014 A 
ATOM     46  C   UNL A   1      42.784  21.217  27.661  1.00  0.00     0.014 A 
ATOM     47  C   UNL A   1      43.612  22.799  25.500  1.00  0.00     0.010 A 
ATOM     48  C   UNL A   1      43.213  22.517  27.882  1.00  0.00     0.010 A 
ATOM     49  C   UNL A   1      43.625  23.320  26.805  1.00  0.00    -0.014 A 
BRANCH  49  50
ATOM     50  C   UNL A   1      44.095  24.697  27.079  1.00  0.00     0.031 A 
ATOM     51  C   UNL A   1      43.114  25.703  27.610  1.00  0.00     0.074 A 
ATOM     52  C   UNL A   1      45.357  25.063  26.773  1.00  0.00     0.049 A 
ATOM     53  N   UNL A   1      43.288  26.976  27.840  1.00  0.00    -0.248 NA
ATOM     54  C   UNL A   1      41.748  25.223  27.887  1.00  0.00     0.031 C 
ATOM     55  C   UNL A   1      46.376  24.197  26.174  1.00  0.00     0.029 A 
ATOM     56  N   UNL A   1      45.991  26.273  26.907  1.00  0.00    -0.354 N 
ATOM     57  C   UNL A   1      42.049  27.453  28.243  1.00  0.00     0.074 A 
ATOM     58  C   UNL A   1      41.121  26.348  28.191  1.00  0.00     0.031 C 
ATOM     59  C   UNL A   1      47.510  24.900  26.006  1.00  0.00     0.029 A 
ATOM     60  C   UNL A   1      47.295  26.269  26.466  1.00  0.00     0.049 A 
ATOM     61  H   UNL A   1      45.554  27.070  27.285  1.00  0.00     0.167 HD
ATOM     62  C   UNL A   1      41.722  28.692  28.667  1.00  0.00     0.034 A 
ATOM     63  C   UNL A   1      48.210  27.258  26.442  1.00  0.00     0.034 A 
ATOM     64  C   UNL A   1      42.663  29.763  28.807  1.00  0.00     0.049 A 
ATOM     65  C   UNL A   1      47.838  28.613  26.985  1.00  0.00     0.074 A 
ATOM     66  C   UNL A   1      42.451  31.024  29.332  1.00  0.00     0.029 A 
ATOM     67  N   UNL A   1      43.994  29.694  28.434  1.00  0.00    -0.354 N 
ATOM     68  N   UNL A   1      46.696  29.005  27.496  1.00  0.00    -0.248 NA
ATOM     69  C   UNL A   1      48.880  29.650  26.975  1.00  0.00     0.031 C 
ATOM     70  C   UNL A   1      43.660  31.720  29.277  1.00  0.00     0.029 A 
ATOM     71  C   UNL A   1      44.621  30.891  28.719  1.00  0.00     0.049 A 
ATOM     72  H   UNL A   1      44.429  28.909  28.026  1.00  0.00     0.167 HD
ATOM     73  C   UNL A   1      46.889  30.325  27.889  1.00  0.00     0.074 A 
ATOM     74  C   UNL A   1      48.261  30.661  27.572  1.00  0.00     0.031 C 
ATOM     75  C   UNL A   1      46.003  31.184  28.447  1.00  0.00     0.034 A 
BRANCH  62  76
ATOM     76  C   UNL A   1      40.305  28.930  29.097  1.00  0.00     0.023 A 
ATOM     77  C   UNL A   1      39.323  29.167  28.116  1.00  0.00     0.012 A 
ATOM     78  C   UNL A   1      39.936  28.848  30.452  1.00  0.00     0.148 A 
ATOM     79  C   UNL A   1      37.989  29.330  28.478  1.00  0.00     0.002 A 
ATOM     80  C   UNL A   1      38.599  28.981  30.803  1.00  0.00     0.091 A 
ATOM     81  F   UNL A   1      40.897  28.641  31.364  1.00  0.00    -0.205 F 
ATOM     82  C   UNL A   1      37.626  29.227  29.819  1.00  0.00     0.022 A 
BRANCH  80  83
ATOM     83  S   UNL A   1      38.015  28.818  32.493  1.00  0.00     0.127 S 
ATOM     84  O   UNL A   1      36.639  29.301  32.378  1.00  0.00    -0.237 OA
ATOM     85  O   UNL A   1      38.140  27.379  32.718  1.00  0.00    -0.237 OA
ATOM     86  O   UNL A   1      38.891  29.649  33.306  1.00  0.00    -0.744 OA
ENDBRANCH  80  83
ENDBRANCH  62  76
BRANCH  63  87
ATOM     87  C   UNL A   1      49.593  26.982  25.962  1.00  0.00     0.023 A 
ATOM     88  C   UNL A   1      50.511  26.368  26.835  1.00  0.00     0.012 A 
ATOM     89  C   UNL A   1      49.990  27.285  24.646  1.00  0.00     0.148 A 
ATOM     90  C   UNL A   1      51.809  26.078  26.413  1.00  0.00     0.002 A 
ATOM     91  C   UNL A   1      51.273  26.960  24.220  1.00  0.00     0.091 A 
ATOM     92  F   UNL A   1      49.100  27.874  23.835  1.00  0.00    -0.205 F 
ATOM     93  C   UNL A   1      52.188  26.366  25.105  1.00  0.00     0.022 A 
BRANCH  91  94
ATOM     94  S   UNL A   1      51.826  27.202  22.528  1.00  0.00     0.127 S 
ATOM     95  O   UNL A   1      52.054  28.645  22.491  1.00  0.00    -0.237 OA
ATOM     96  O   UNL A   1      53.038  26.384  22.490  1.00  0.00    -0.237 OA
ATOM     97  O   UNL A   1      50.742  26.716  21.684  1.00  0.00    -0.744 OA
ENDBRANCH  91  94
ENDBRANCH  63  87
BRANCH  75  98
ATOM     98  C   UNL A   1      46.466  32.575  28.770  1.00  0.00     0.023 A 
ATOM     99  C   UNL A   1      47.127  32.810  29.990  1.00  0.00     0.012 A 
ATOM    100  C   UNL A   1      46.393  33.596  27.804  1.00  0.00     0.148 A 
ATOM    101  C   UNL A   1      47.713  34.048  30.245  1.00  0.00     0.002 A 
ATOM    102  C   UNL A   1      47.010  34.817  28.051  1.00  0.00     0.091 A 
ATOM    103  F   UNL A   1      45.752  33.343  26.654  1.00  0.00    -0.205 F 
ATOM    104  C   UNL A   1      47.666  35.045  29.272  1.00  0.00     0.022 A 
BRANCH 102 105
ATOM    105  S   UNL A   1      47.080  36.130  26.828  1.00  0.00     0.127 S 
ATOM    106  O   UNL A   1      47.642  35.431  25.673  1.00  0.00    -0.237 OA
ATOM    107  O   UNL A   1      45.672  36.501  26.692  1.00  0.00    -0.237 OA
ATOM    108  O   UNL A   1      47.929  37.168  27.398  1.00  0.00    -0.744 OA
ENDBRANCH 102 105
ENDBRANCH  75  98
ENDBRANCH  49  50
ENDBRANCH  41  44
ENDBRANCH  39  40
ENDBRANCH  38  39
ENDBRANCH   1  38
TORSDOF 20
ENDMDL
