MODEL 1
REMARK VINA RESULT:     -12.1      0.000      0.000
REMARK SMILES CC(C)N1C(=O)C[C@@H]([N@@H+]2CC[C@H](C(=O)NCCCCNC(=O)c3ccc(-c4c5nc(c(-c6cccc(S(=O)(=O)[O-])c6F)c6ccc([nH]6)c(-c6cccc(S(=O)(=O)[O-])c6F)c6nc(c(-c7cccc(S(=O)(=O)[O-])c7F)c7ccc4[nH]7)C=C6)C=C5)cc3)[C@@H]2C)C1=O
REMARK SMILES IDX 18 1 17 2 16 3 15 4 13 5 14 6 12 8 9 9 10 10 86 11 11 13
REMARK SMILES IDX 87 14 8 15 4 16 5 17 88 18 6 19 7 20 89 21 2 22 1 23 3 24
REMARK SMILES IDX 19 25 20 26 21 27 22 29 23 30 24 31 85 32 25 33 84 34 26 35
REMARK SMILES IDX 27 36 28 37 78 38 29 39 83 40 77 41 79 42 30 43 82 44 76 45
REMARK SMILES IDX 75 46 31 48 63 49 43 50 62 51 44 52 47 53 61 54 80 55 45 56
REMARK SMILES IDX 46 57 60 59 81 60 48 61 32 62 33 63 41 64 34 65 36 66 42 67
REMARK SMILES IDX 35 68 37 69 38 70 39 71 40 72 64 73 65 74 73 75 66 76 68 77
REMARK SMILES IDX 74 78 67 79 69 80 70 81 71 82 72 83 49 84 50 85 58 86 51 87
REMARK SMILES IDX 53 88 59 89 52 90 54 91 55 92 56 93 57 94
REMARK H PARENT 15 7 9 12 20 28 79 47 47 58
REMARK Flexibility Score: inf
ROOT
ATOM      1  C   UNL A   1      31.661  28.930  26.968  1.00  0.00     0.023 C 
ENDROOT
BRANCH   1   2
ATOM      2  C   UNL A   1      31.873  27.432  26.747  1.00  0.00     0.023 C 
BRANCH   2   3
ATOM      3  C   UNL A   1      31.911  26.992  25.286  1.00  0.00     0.116 C 
BRANCH   3   4
ATOM      4  N   UNL A   1      33.140  26.297  24.948  1.00  0.00    -0.356 N 
ATOM      5  C   UNL A   1      33.336  25.049  24.439  1.00  0.00     0.229 C 
ATOM      6  O   UNL A   1      34.484  24.720  24.138  1.00  0.00    -0.275 OA
ATOM      7  H   UNL A   1      33.963  26.810  25.111  1.00  0.00     0.163 HD
BRANCH   5   8
ATOM      8  C   UNL A   1      32.160  24.094  24.286  1.00  0.00     0.142 C 
ATOM      9  N   UNL A   1      32.577  21.782  24.806  1.00  0.00    -0.321 N 
ATOM     10  C   UNL A   1      33.058  22.039  23.447  1.00  0.00     0.264 C 
ATOM     11  C   UNL A   1      32.085  23.035  25.400  1.00  0.00     0.194 C 
ATOM     12  H   UNL A   1      31.755  21.178  24.770  1.00  0.00     0.349 HD
ATOM     13  C   UNL A   1      32.306  23.277  23.007  1.00  0.00     0.081 C 
ATOM     14  C   UNL A   1      32.614  23.478  26.764  1.00  0.00     0.076 C 
BRANCH   9  15
ATOM     15  C   UNL A   1      33.408  20.876  25.610  1.00  0.00     0.284 C 
ATOM     16  N   UNL A   1      34.335  18.907  24.699  1.00  0.00    -0.275 N 
ATOM     17  C   UNL A   1      35.401  19.721  24.977  1.00  0.00     0.236 C 
ATOM     18  C   UNL A   1      33.166  19.430  25.180  1.00  0.00     0.288 C 
ATOM     19  O   UNL A   1      36.582  19.434  24.844  1.00  0.00    -0.274 OA
ATOM     20  C   UNL A   1      34.920  21.036  25.504  1.00  0.00     0.176 C 
ATOM     21  O   UNL A   1      32.083  18.866  25.264  1.00  0.00    -0.267 OA
BRANCH  16  22
ATOM     22  C   UNL A   1      34.528  17.604  24.048  1.00  0.00     0.087 C 
ATOM     23  C   UNL A   1      34.483  16.390  24.978  1.00  0.00     0.031 C 
ATOM     24  C   UNL A   1      33.484  17.407  22.937  1.00  0.00     0.031 C 
ENDBRANCH  16  22
ENDBRANCH   9  15
ENDBRANCH   5   8
ENDBRANCH   3   4
ENDBRANCH   2   3
ENDBRANCH   1   2
BRANCH   1  25
ATOM     25  C   UNL A   1      32.551  29.850  26.139  1.00  0.00     0.116 C 
BRANCH  25  26
ATOM     26  N   UNL A   1      32.426  31.253  26.512  1.00  0.00    -0.352 N 
ATOM     27  C   UNL A   1      33.249  32.022  27.300  1.00  0.00     0.251 C 
ATOM     28  H   UNL A   1      31.639  31.717  26.145  1.00  0.00     0.163 HD
ATOM     29  O   UNL A   1      32.909  33.161  27.607  1.00  0.00    -0.269 OA
BRANCH  27  30
ATOM     30  C   UNL A   1      34.521  31.462  27.808  1.00  0.00     0.039 A 
ATOM     31  C   UNL A   1      35.601  32.325  28.011  1.00  0.00     0.014 A 
ATOM     32  C   UNL A   1      34.640  30.103  28.111  1.00  0.00     0.014 A 
ATOM     33  C   UNL A   1      36.772  31.840  28.596  1.00  0.00     0.010 A 
ATOM     34  C   UNL A   1      35.780  29.638  28.761  1.00  0.00     0.010 A 
ATOM     35  C   UNL A   1      36.854  30.503  29.020  1.00  0.00    -0.014 A 
BRANCH  35  36
ATOM     36  C   UNL A   1      38.026  30.014  29.794  1.00  0.00     0.031 A 
ATOM     37  C   UNL A   1      38.284  30.499  31.192  1.00  0.00     0.074 A 
ATOM     38  C   UNL A   1      38.920  29.207  29.188  1.00  0.00     0.049 A 
ATOM     39  N   UNL A   1      39.283  30.216  31.990  1.00  0.00    -0.248 NA
ATOM     40  C   UNL A   1      37.312  31.444  31.761  1.00  0.00     0.031 C 
ATOM     41  C   UNL A   1      38.835  28.742  27.801  1.00  0.00     0.029 A 
ATOM     42  N   UNL A   1      40.096  28.664  29.647  1.00  0.00    -0.354 N 
ATOM     43  C   UNL A   1      39.083  30.974  33.135  1.00  0.00     0.074 A 
ATOM     44  C   UNL A   1      37.879  31.751  32.919  1.00  0.00     0.031 C 
ATOM     45  C   UNL A   1      39.910  27.990  27.523  1.00  0.00     0.029 A 
ATOM     46  C   UNL A   1      40.779  27.946  28.694  1.00  0.00     0.049 A 
ATOM     47  H   UNL A   1      40.418  28.779  30.570  1.00  0.00     0.167 HD
ATOM     48  C   UNL A   1      39.819  31.008  34.271  1.00  0.00     0.034 A 
ATOM     49  C   UNL A   1      41.979  27.333  28.746  1.00  0.00     0.034 A 
ATOM     50  C   UNL A   1      40.997  30.210  34.494  1.00  0.00     0.049 A 
ATOM     51  C   UNL A   1      42.757  27.351  30.030  1.00  0.00     0.074 A 
ATOM     52  C   UNL A   1      41.741  30.084  35.654  1.00  0.00     0.029 A 
ATOM     53  N   UNL A   1      41.617  29.426  33.534  1.00  0.00    -0.354 N 
ATOM     54  N   UNL A   1      42.451  27.920  31.171  1.00  0.00    -0.248 NA
ATOM     55  C   UNL A   1      44.030  26.615  30.048  1.00  0.00     0.031 C 
ATOM     56  C   UNL A   1      42.836  29.255  35.383  1.00  0.00     0.029 A 
ATOM     57  C   UNL A   1      42.753  28.835  34.065  1.00  0.00     0.049 A 
ATOM     58  H   UNL A   1      41.298  29.306  32.611  1.00  0.00     0.167 HD
ATOM     59  C   UNL A   1      43.480  27.596  32.047  1.00  0.00     0.074 A 
ATOM     60  C   UNL A   1      44.403  26.755  31.313  1.00  0.00     0.031 C 
ATOM     61  C   UNL A   1      43.652  27.975  33.338  1.00  0.00     0.034 A 
BRANCH  48  62
ATOM     62  C   UNL A   1      39.353  31.914  35.382  1.00  0.00     0.023 A 
ATOM     63  C   UNL A   1      38.445  31.430  36.347  1.00  0.00     0.012 A 
ATOM     64  C   UNL A   1      39.852  33.226  35.503  1.00  0.00     0.148 A 
ATOM     65  C   UNL A   1      38.012  32.248  37.389  1.00  0.00     0.002 A 
ATOM     66  C   UNL A   1      39.451  34.019  36.571  1.00  0.00     0.091 A 
ATOM     67  F   UNL A   1      40.697  33.678  34.565  1.00  0.00    -0.205 F 
ATOM     68  C   UNL A   1      38.522  33.538  37.507  1.00  0.00     0.022 A 
BRANCH  66  69
ATOM     69  S   UNL A   1      40.115  35.665  36.855  1.00  0.00     0.127 S 
ATOM     70  O   UNL A   1      39.604  36.392  35.693  1.00  0.00    -0.237 OA
ATOM     71  O   UNL A   1      39.490  36.034  38.126  1.00  0.00    -0.237 OA
ATOM     72  O   UNL A   1      41.561  35.510  36.912  1.00  0.00    -0.744 OA
ENDBRANCH  66  69
ENDBRANCH  48  62
BRANCH  49  73
ATOM     73  C   UNL A   1      42.489  26.616  27.544  1.00  0.00     0.023 A 
ATOM     74  C   UNL A   1      43.345  27.284  26.647  1.00  0.00     0.012 A 
ATOM     75  C   UNL A   1      42.177  25.261  27.318  1.00  0.00     0.148 A 
ATOM     76  C   UNL A   1      43.862  26.621  25.533  1.00  0.00     0.002 A 
ATOM     77  C   UNL A   1      42.742  24.592  26.240  1.00  0.00     0.091 A 
ATOM     78  F   UNL A   1      41.352  24.649  28.180  1.00  0.00    -0.205 F 
ATOM     79  C   UNL A   1      43.572  25.274  25.336  1.00  0.00     0.022 A 
BRANCH  77  80
ATOM     80  S   UNL A   1      42.542  22.824  25.991  1.00  0.00     0.127 S 
ATOM     81  O   UNL A   1      43.146  22.637  24.674  1.00  0.00    -0.237 OA
ATOM     82  O   UNL A   1      43.311  22.274  27.107  1.00  0.00    -0.237 OA
ATOM     83  O   UNL A   1      41.108  22.574  26.069  1.00  0.00    -0.744 OA
ENDBRANCH  77  80
ENDBRANCH  49  73
BRANCH  61  84
ATOM     84  C   UNL A   1      44.882  27.478  34.054  1.00  0.00     0.023 A 
ATOM     85  C   UNL A   1      46.086  28.206  33.963  1.00  0.00     0.012 A 
ATOM     86  C   UNL A   1      44.830  26.331  34.870  1.00  0.00     0.148 A 
ATOM     87  C   UNL A   1      47.225  27.780  34.645  1.00  0.00     0.002 A 
ATOM     88  C   UNL A   1      45.955  25.941  35.587  1.00  0.00     0.091 A 
ATOM     89  F   UNL A   1      43.681  25.641  34.930  1.00  0.00    -0.205 F 
ATOM     90  C   UNL A   1      47.157  26.656  35.465  1.00  0.00     0.022 A 
BRANCH  88  91
ATOM     91  S   UNL A   1      45.937  24.564  36.739  1.00  0.00     0.127 S 
ATOM     92  O   UNL A   1      44.817  24.919  37.610  1.00  0.00    -0.237 OA
ATOM     93  O   UNL A   1      45.686  23.424  35.857  1.00  0.00    -0.237 OA
ATOM     94  O   UNL A   1      47.246  24.558  37.380  1.00  0.00    -0.744 OA
ENDBRANCH  88  91
ENDBRANCH  61  84
ENDBRANCH  35  36
ENDBRANCH  27  30
ENDBRANCH  25  26
ENDBRANCH   1  25
TORSDOF 16
ENDMDL
MODEL 2
REMARK VINA RESULT:     -12.1      1.953      2.603
REMARK SMILES CC(C)N1C(=O)C[C@@H]([N@@H+]2CC[C@H](C(=O)NCCCCNC(=O)c3ccc(-c4c5nc(c(-c6cccc(S(=O)(=O)[O-])c6F)c6ccc([nH]6)c(-c6cccc(S(=O)(=O)[O-])c6F)c6nc(c(-c7cccc(S(=O)(=O)[O-])c7F)c7ccc4[nH]7)C=C6)C=C5)cc3)[C@@H]2C)C1=O
REMARK SMILES IDX 18 1 17 2 16 3 15 4 13 5 14 6 12 8 9 9 10 10 86 11 11 13
REMARK SMILES IDX 87 14 8 15 4 16 5 17 88 18 6 19 7 20 89 21 2 22 1 23 3 24
REMARK SMILES IDX 19 25 20 26 21 27 22 29 23 30 24 31 85 32 25 33 84 34 26 35
REMARK SMILES IDX 27 36 28 37 78 38 29 39 83 40 77 41 79 42 30 43 82 44 76 45
REMARK SMILES IDX 75 46 31 48 63 49 43 50 62 51 44 52 47 53 61 54 80 55 45 56
REMARK SMILES IDX 46 57 60 59 81 60 48 61 32 62 33 63 41 64 34 65 36 66 42 67
REMARK SMILES IDX 35 68 37 69 38 70 39 71 40 72 64 73 65 74 73 75 66 76 68 77
REMARK SMILES IDX 74 78 67 79 69 80 70 81 71 82 72 83 49 84 50 85 58 86 51 87
REMARK SMILES IDX 53 88 59 89 52 90 54 91 55 92 56 93 57 94
REMARK H PARENT 15 7 9 12 20 28 79 47 47 58
REMARK Flexibility Score: inf
ROOT
ATOM      1  C   UNL A   1      32.881  27.172  26.607  1.00  0.00     0.023 C 
ENDROOT
BRANCH   1   2
ATOM      2  C   UNL A   1      31.635  27.467  25.771  1.00  0.00     0.023 C 
BRANCH   2   3
ATOM      3  C   UNL A   1      31.398  26.515  24.602  1.00  0.00     0.116 C 
BRANCH   3   4
ATOM      4  N   UNL A   1      32.608  25.824  24.196  1.00  0.00    -0.356 N 
ATOM      5  C   UNL A   1      32.798  24.532  23.808  1.00  0.00     0.229 C 
ATOM      6  O   UNL A   1      33.917  24.206  23.408  1.00  0.00    -0.275 OA
ATOM      7  H   UNL A   1      33.421  26.377  24.200  1.00  0.00     0.163 HD
BRANCH   5   8
ATOM      8  C   UNL A   1      31.656  23.530  23.906  1.00  0.00     0.142 C 
ATOM      9  N   UNL A   1      32.218  21.331  24.704  1.00  0.00    -0.321 N 
ATOM     10  C   UNL A   1      32.561  21.404  23.283  1.00  0.00     0.264 C 
ATOM     11  C   UNL A   1      31.729  22.642  25.160  1.00  0.00     0.194 C 
ATOM     12  H   UNL A   1      31.423  20.704  24.834  1.00  0.00     0.349 HD
ATOM     13  C   UNL A   1      31.719  22.542  22.747  1.00  0.00     0.081 C 
ATOM     14  C   UNL A   1      32.361  23.293  26.390  1.00  0.00     0.076 C 
BRANCH   9  15
ATOM     15  C   UNL A   1      33.158  20.576  25.544  1.00  0.00     0.284 C 
ATOM     16  N   UNL A   1      34.287  18.668  24.735  1.00  0.00    -0.275 N 
ATOM     17  C   UNL A   1      35.258  19.612  24.939  1.00  0.00     0.236 C 
ATOM     18  C   UNL A   1      33.074  19.088  25.209  1.00  0.00     0.288 C 
ATOM     19  O   UNL A   1      36.461  19.450  24.798  1.00  0.00    -0.274 OA
ATOM     20  C   UNL A   1      34.640  20.896  25.394  1.00  0.00     0.176 C 
ATOM     21  O   UNL A   1      32.061  18.413  25.350  1.00  0.00    -0.267 OA
BRANCH  16  22
ATOM     22  C   UNL A   1      34.614  17.357  24.161  1.00  0.00     0.087 C 
ATOM     23  C   UNL A   1      34.569  16.181  25.138  1.00  0.00     0.031 C 
ATOM     24  C   UNL A   1      33.681  17.046  22.980  1.00  0.00     0.031 C 
ENDBRANCH  16  22
ENDBRANCH   9  15
ENDBRANCH   5   8
ENDBRANCH   3   4
ENDBRANCH   2   3
ENDBRANCH   1   2
BRANCH   1  25
ATOM     25  C   UNL A   1      34.045  28.139  26.416  1.00  0.00     0.116 C 
BRANCH  25  26
ATOM     26  N   UNL A   1      33.669  29.531  26.621  1.00  0.00    -0.352 N 
ATOM     27  C   UNL A   1      34.294  30.502  27.367  1.00  0.00     0.251 C 
ATOM     28  H   UNL A   1      32.849  29.819  26.157  1.00  0.00     0.163 HD
ATOM     29  O   UNL A   1      33.754  31.594  27.522  1.00  0.00    -0.269 OA
BRANCH  27  30
ATOM     30  C   UNL A   1      35.595  30.217  28.011  1.00  0.00     0.039 A 
ATOM     31  C   UNL A   1      35.603  29.694  29.306  1.00  0.00     0.014 A 
ATOM     32  C   UNL A   1      36.798  30.434  27.332  1.00  0.00     0.014 A 
ATOM     33  C   UNL A   1      36.813  29.311  29.890  1.00  0.00     0.010 A 
ATOM     34  C   UNL A   1      37.993  29.984  27.885  1.00  0.00     0.010 A 
ATOM     35  C   UNL A   1      38.013  29.408  29.165  1.00  0.00    -0.014 A 
BRANCH  35  36
ATOM     36  C   UNL A   1      39.282  28.851  29.704  1.00  0.00     0.031 A 
ATOM     37  C   UNL A   1      40.002  29.528  30.836  1.00  0.00     0.074 A 
ATOM     38  C   UNL A   1      39.841  27.786  29.096  1.00  0.00     0.049 A 
ATOM     39  N   UNL A   1      41.142  29.209  31.394  1.00  0.00    -0.248 NA
ATOM     40  C   UNL A   1      39.377  30.735  31.398  1.00  0.00     0.031 C 
ATOM     41  C   UNL A   1      39.291  27.097  27.926  1.00  0.00     0.029 A 
ATOM     42  N   UNL A   1      41.015  27.119  29.351  1.00  0.00    -0.354 N 
ATOM     43  C   UNL A   1      41.391  30.193  32.342  1.00  0.00     0.074 A 
ATOM     44  C   UNL A   1      40.295  31.135  32.266  1.00  0.00     0.031 C 
ATOM     45  C   UNL A   1      40.125  26.110  27.564  1.00  0.00     0.029 A 
ATOM     46  C   UNL A   1      41.284  26.116  28.450  1.00  0.00     0.049 A 
ATOM     47  H   UNL A   1      41.605  27.339  30.107  1.00  0.00     0.167 HD
ATOM     48  C   UNL A   1      42.426  30.292  33.210  1.00  0.00     0.034 A 
ATOM     49  C   UNL A   1      42.352  25.301  28.334  1.00  0.00     0.034 A 
ATOM     50  C   UNL A   1      43.498  29.335  33.303  1.00  0.00     0.049 A 
ATOM     51  C   UNL A   1      43.468  25.405  29.335  1.00  0.00     0.074 A 
ATOM     52  C   UNL A   1      44.525  29.285  34.229  1.00  0.00     0.029 A 
ATOM     53  N   UNL A   1      43.697  28.280  32.427  1.00  0.00    -0.354 N 
ATOM     54  N   UNL A   1      43.589  26.225  30.350  1.00  0.00    -0.248 NA
ATOM     55  C   UNL A   1      44.577  24.451  29.196  1.00  0.00     0.031 C 
ATOM     56  C   UNL A   1      45.369  28.221  33.888  1.00  0.00     0.029 A 
ATOM     57  C   UNL A   1      44.847  27.588  32.772  1.00  0.00     0.049 A 
ATOM     58  H   UNL A   1      43.108  28.055  31.671  1.00  0.00     0.167 HD
ATOM     59  C   UNL A   1      44.776  25.876  30.983  1.00  0.00     0.074 A 
ATOM     60  C   UNL A   1      45.320  24.748  30.255  1.00  0.00     0.031 C 
ATOM     61  C   UNL A   1      45.368  26.448  32.061  1.00  0.00     0.034 A 
BRANCH  48  62
ATOM     62  C   UNL A   1      42.433  31.463  34.159  1.00  0.00     0.023 A 
ATOM     63  C   UNL A   1      43.118  32.646  33.808  1.00  0.00     0.012 A 
ATOM     64  C   UNL A   1      41.720  31.416  35.373  1.00  0.00     0.148 A 
ATOM     65  C   UNL A   1      43.126  33.744  34.665  1.00  0.00     0.002 A 
ATOM     66  C   UNL A   1      41.694  32.532  36.201  1.00  0.00     0.091 A 
ATOM     67  F   UNL A   1      41.093  30.277  35.702  1.00  0.00    -0.205 F 
ATOM     68  C   UNL A   1      42.406  33.691  35.856  1.00  0.00     0.022 A 
BRANCH  66  69
ATOM     69  S   UNL A   1      40.729  32.589  37.715  1.00  0.00     0.127 S 
ATOM     70  O   UNL A   1      41.608  31.888  38.651  1.00  0.00    -0.237 OA
ATOM     71  O   UNL A   1      40.612  34.029  37.952  1.00  0.00    -0.237 OA
ATOM     72  O   UNL A   1      39.471  31.920  37.415  1.00  0.00    -0.744 OA
ENDBRANCH  66  69
ENDBRANCH  48  62
BRANCH  49  73
ATOM     73  C   UNL A   1      42.386  24.287  27.243  1.00  0.00     0.023 A 
ATOM     74  C   UNL A   1      43.193  24.508  26.111  1.00  0.00     0.012 A 
ATOM     75  C   UNL A   1      41.668  23.079  27.351  1.00  0.00     0.148 A 
ATOM     76  C   UNL A   1      43.266  23.556  25.094  1.00  0.00     0.002 A 
ATOM     77  C   UNL A   1      41.791  22.111  26.363  1.00  0.00     0.091 A 
ATOM     78  F   UNL A   1      40.898  22.894  28.432  1.00  0.00    -0.205 F 
ATOM     79  C   UNL A   1      42.576  22.354  25.225  1.00  0.00     0.022 A 
BRANCH  77  80
ATOM     80  S   UNL A   1      41.057  20.479  26.515  1.00  0.00     0.127 S 
ATOM     81  O   UNL A   1      39.655  20.750  26.206  1.00  0.00    -0.237 OA
ATOM     82  O   UNL A   1      41.782  19.727  25.490  1.00  0.00    -0.237 OA
ATOM     83  O   UNL A   1      41.331  20.048  27.880  1.00  0.00    -0.744 OA
ENDBRANCH  77  80
ENDBRANCH  49  73
BRANCH  61  84
ATOM     84  C   UNL A   1      46.675  25.862  32.533  1.00  0.00     0.023 A 
ATOM     85  C   UNL A   1      47.891  26.394  32.058  1.00  0.00     0.012 A 
ATOM     86  C   UNL A   1      46.700  24.834  33.495  1.00  0.00     0.148 A 
ATOM     87  C   UNL A   1      49.110  25.887  32.508  1.00  0.00     0.002 A 
ATOM     88  C   UNL A   1      47.918  24.368  33.976  1.00  0.00     0.091 A 
ATOM     89  F   UNL A   1      45.533  24.328  33.921  1.00  0.00    -0.205 F 
ATOM     90  C   UNL A   1      49.124  24.884  33.474  1.00  0.00     0.022 A 
BRANCH  88  91
ATOM     91  S   UNL A   1      48.035  23.146  35.288  1.00  0.00     0.127 S 
ATOM     92  O   UNL A   1      49.483  22.981  35.411  1.00  0.00    -0.237 OA
ATOM     93  O   UNL A   1      47.402  23.836  36.411  1.00  0.00    -0.237 OA
ATOM     94  O   UNL A   1      47.313  21.974  34.811  1.00  0.00    -0.744 OA
ENDBRANCH  88  91
ENDBRANCH  61  84
ENDBRANCH  35  36
ENDBRANCH  27  30
ENDBRANCH  25  26
ENDBRANCH   1  25
TORSDOF 16
ENDMDL
MODEL 3
REMARK VINA RESULT:     -12.1      0.466      7.751
REMARK SMILES CC(C)N1C(=O)C[C@@H]([N@@H+]2CC[C@H](C(=O)NCCCCNC(=O)c3ccc(-c4c5nc(c(-c6cccc(S(=O)(=O)[O-])c6F)c6ccc([nH]6)c(-c6cccc(S(=O)(=O)[O-])c6F)c6nc(c(-c7cccc(S(=O)(=O)[O-])c7F)c7ccc4[nH]7)C=C6)C=C5)cc3)[C@@H]2C)C1=O
REMARK SMILES IDX 18 1 17 2 16 3 15 4 13 5 14 6 12 8 9 9 10 10 86 11 11 13
REMARK SMILES IDX 87 14 8 15 4 16 5 17 88 18 6 19 7 20 89 21 2 22 1 23 3 24
REMARK SMILES IDX 19 25 20 26 21 27 22 29 23 30 24 31 85 32 25 33 84 34 26 35
REMARK SMILES IDX 27 36 28 37 78 38 29 39 83 40 77 41 79 42 30 43 82 44 76 45
REMARK SMILES IDX 75 46 31 48 63 49 43 50 62 51 44 52 47 53 61 54 80 55 45 56
REMARK SMILES IDX 46 57 60 59 81 60 48 61 32 62 33 63 41 64 34 65 36 66 42 67
REMARK SMILES IDX 35 68 37 69 38 70 39 71 40 72 64 73 65 74 73 75 66 76 68 77
REMARK SMILES IDX 74 78 67 79 69 80 70 81 71 82 72 83 49 84 50 85 58 86 51 87
REMARK SMILES IDX 53 88 59 89 52 90 54 91 55 92 56 93 57 94
REMARK H PARENT 15 7 9 12 20 28 79 47 47 58
REMARK Flexibility Score: inf
ROOT
ATOM      1  C   UNL A   1      31.611  28.753  27.105  1.00  0.00     0.023 C 
ENDROOT
BRANCH   1   2
ATOM      2  C   UNL A   1      31.787  27.254  26.855  1.00  0.00     0.023 C 
BRANCH   2   3
ATOM      3  C   UNL A   1      31.894  26.851  25.387  1.00  0.00     0.116 C 
BRANCH   3   4
ATOM      4  N   UNL A   1      33.158  26.207  25.080  1.00  0.00    -0.356 N 
ATOM      5  C   UNL A   1      33.416  24.992  24.520  1.00  0.00     0.229 C 
ATOM      6  O   UNL A   1      34.588  24.710  24.264  1.00  0.00    -0.275 OA
ATOM      7  H   UNL A   1      33.957  26.732  25.312  1.00  0.00     0.163 HD
BRANCH   5   8
ATOM      8  C   UNL A   1      32.278  24.016  24.257  1.00  0.00     0.142 C 
ATOM      9  N   UNL A   1      32.714  21.700  24.738  1.00  0.00    -0.321 N 
ATOM     10  C   UNL A   1      33.282  22.009  23.425  1.00  0.00     0.264 C 
ATOM     11  C   UNL A   1      32.151  22.923  25.332  1.00  0.00     0.194 C 
ATOM     12  H   UNL A   1      31.912  21.079  24.627  1.00  0.00     0.349 HD
ATOM     13  C   UNL A   1      32.533  23.242  22.969  1.00  0.00     0.081 C 
ATOM     14  C   UNL A   1      32.573  23.336  26.742  1.00  0.00     0.076 C 
BRANCH   9  15
ATOM     15  C   UNL A   1      33.509  20.788  25.573  1.00  0.00     0.284 C 
ATOM     16  N   UNL A   1      34.417  18.789  24.708  1.00  0.00    -0.275 N 
ATOM     17  C   UNL A   1      35.492  19.587  25.000  1.00  0.00     0.236 C 
ATOM     18  C   UNL A   1      33.248  19.342  25.156  1.00  0.00     0.288 C 
ATOM     19  O   UNL A   1      36.670  19.274  24.897  1.00  0.00    -0.274 OA
ATOM     20  C   UNL A   1      35.026  20.917  25.498  1.00  0.00     0.176 C 
ATOM     21  O   UNL A   1      32.152  18.800  25.222  1.00  0.00    -0.267 OA
BRANCH  16  22
ATOM     22  C   UNL A   1      34.598  17.475  24.079  1.00  0.00     0.087 C 
ATOM     23  C   UNL A   1      34.750  16.298  25.044  1.00  0.00     0.031 C 
ATOM     24  C   UNL A   1      33.429  17.177  23.126  1.00  0.00     0.031 C 
ENDBRANCH  16  22
ENDBRANCH   9  15
ENDBRANCH   5   8
ENDBRANCH   3   4
ENDBRANCH   2   3
ENDBRANCH   1   2
BRANCH   1  25
ATOM     25  C   UNL A   1      32.483  29.669  26.252  1.00  0.00     0.116 C 
BRANCH  25  26
ATOM     26  N   UNL A   1      32.283  31.082  26.546  1.00  0.00    -0.352 N 
ATOM     27  C   UNL A   1      33.086  31.948  27.248  1.00  0.00     0.251 C 
ATOM     28  H   UNL A   1      31.453  31.473  26.188  1.00  0.00     0.163 HD
ATOM     29  O   UNL A   1      32.687  33.081  27.501  1.00  0.00    -0.269 OA
BRANCH  27  30
ATOM     30  C   UNL A   1      34.412  31.501  27.730  1.00  0.00     0.039 A 
ATOM     31  C   UNL A   1      35.421  32.452  27.896  1.00  0.00     0.014 A 
ATOM     32  C   UNL A   1      34.649  30.161  28.045  1.00  0.00     0.014 A 
ATOM     33  C   UNL A   1      36.643  32.073  28.457  1.00  0.00     0.010 A 
ATOM     34  C   UNL A   1      35.839  29.799  28.671  1.00  0.00     0.010 A 
ATOM     35  C   UNL A   1      36.845  30.753  28.894  1.00  0.00    -0.014 A 
BRANCH  35  36
ATOM     36  C   UNL A   1      38.071  30.371  29.643  1.00  0.00     0.031 A 
ATOM     37  C   UNL A   1      39.042  29.374  29.076  1.00  0.00     0.074 A 
ATOM     38  C   UNL A   1      38.252  30.848  30.891  1.00  0.00     0.049 A 
ATOM     39  N   UNL A   1      40.132  28.890  29.615  1.00  0.00    -0.248 NA
ATOM     40  C   UNL A   1      38.738  28.829  27.745  1.00  0.00     0.031 C 
ATOM     41  C   UNL A   1      37.333  31.747  31.593  1.00  0.00     0.029 A 
ATOM     42  N   UNL A   1      39.251  30.616  31.805  1.00  0.00    -0.354 N 
ATOM     43  C   UNL A   1      40.623  27.957  28.710  1.00  0.00     0.074 A 
ATOM     44  C   UNL A   1      39.696  27.925  27.598  1.00  0.00     0.031 C 
ATOM     45  C   UNL A   1      37.806  31.986  32.825  1.00  0.00     0.029 A 
ATOM     46  C   UNL A   1      39.042  31.234  33.016  1.00  0.00     0.049 A 
ATOM     47  H   UNL A   1      40.040  30.061  31.612  1.00  0.00     0.167 HD
ATOM     48  C   UNL A   1      41.751  27.212  28.787  1.00  0.00     0.034 A 
ATOM     49  C   UNL A   1      39.752  31.189  34.161  1.00  0.00     0.034 A 
ATOM     50  C   UNL A   1      42.686  27.271  29.880  1.00  0.00     0.049 A 
ATOM     51  C   UNL A   1      41.021  30.386  34.207  1.00  0.00     0.074 A 
ATOM     52  C   UNL A   1      43.915  26.645  29.993  1.00  0.00     0.029 A 
ATOM     53  N   UNL A   1      42.485  27.973  31.058  1.00  0.00    -0.354 N 
ATOM     54  N   UNL A   1      41.571  29.660  33.264  1.00  0.00    -0.248 NA
ATOM     55  C   UNL A   1      41.787  30.423  35.461  1.00  0.00     0.031 C 
ATOM     56  C   UNL A   1      44.440  26.938  31.258  1.00  0.00     0.029 A 
ATOM     57  C   UNL A   1      43.554  27.774  31.917  1.00  0.00     0.049 A 
ATOM     58  H   UNL A   1      41.699  28.532  31.256  1.00  0.00     0.167 HD
ATOM     59  C   UNL A   1      42.754  29.169  33.802  1.00  0.00     0.074 A 
ATOM     60  C   UNL A   1      42.857  29.707  35.143  1.00  0.00     0.031 C 
ATOM     61  C   UNL A   1      43.665  28.336  33.240  1.00  0.00     0.034 A 
BRANCH  48  62
ATOM     62  C   UNL A   1      42.059  26.288  27.636  1.00  0.00     0.023 A 
ATOM     63  C   UNL A   1      42.787  26.769  26.527  1.00  0.00     0.012 A 
ATOM     64  C   UNL A   1      41.677  24.933  27.674  1.00  0.00     0.148 A 
ATOM     65  C   UNL A   1      43.093  25.927  25.459  1.00  0.00     0.002 A 
ATOM     66  C   UNL A   1      42.027  24.089  26.627  1.00  0.00     0.091 A 
ATOM     67  F   UNL A   1      40.967  24.497  28.725  1.00  0.00    -0.205 F 
ATOM     68  C   UNL A   1      42.722  24.586  25.514  1.00  0.00     0.022 A 
BRANCH  66  69
ATOM     69  S   UNL A   1      41.666  22.329  26.642  1.00  0.00     0.127 S 
ATOM     70  O   UNL A   1      40.204  22.329  26.669  1.00  0.00    -0.237 OA
ATOM     71  O   UNL A   1      42.251  21.883  25.377  1.00  0.00    -0.237 OA
ATOM     72  O   UNL A   1      42.315  21.796  27.832  1.00  0.00    -0.744 OA
ENDBRANCH  66  69
ENDBRANCH  48  62
BRANCH  49  73
ATOM     73  C   UNL A   1      39.288  31.968  35.343  1.00  0.00     0.023 A 
ATOM     74  C   UNL A   1      38.460  31.352  36.301  1.00  0.00     0.012 A 
ATOM     75  C   UNL A   1      39.711  33.296  35.551  1.00  0.00     0.148 A 
ATOM     76  C   UNL A   1      38.042  32.053  37.433  1.00  0.00     0.002 A 
ATOM     77  C   UNL A   1      39.340  33.967  36.709  1.00  0.00     0.091 A 
ATOM     78  F   UNL A   1      40.491  33.865  34.621  1.00  0.00    -0.205 F 
ATOM     79  C   UNL A   1      38.491  33.353  37.644  1.00  0.00     0.022 A 
BRANCH  77  80
ATOM     80  S   UNL A   1      39.986  35.588  37.133  1.00  0.00     0.127 S 
ATOM     81  O   UNL A   1      39.282  35.874  38.381  1.00  0.00    -0.237 OA
ATOM     82  O   UNL A   1      41.415  35.312  37.280  1.00  0.00    -0.237 OA
ATOM     83  O   UNL A   1      39.654  36.453  36.008  1.00  0.00    -0.744 OA
ENDBRANCH  77  80
ENDBRANCH  49  73
BRANCH  61  84
ATOM     84  C   UNL A   1      44.866  27.953  34.067  1.00  0.00     0.023 A 
ATOM     85  C   UNL A   1      46.024  28.755  34.033  1.00  0.00     0.012 A 
ATOM     86  C   UNL A   1      44.823  26.839  34.929  1.00  0.00     0.148 A 
ATOM     87  C   UNL A   1      47.132  28.436  34.817  1.00  0.00     0.002 A 
ATOM     88  C   UNL A   1      45.913  26.556  35.745  1.00  0.00     0.091 A 
ATOM     89  F   UNL A   1      43.720  26.077  34.936  1.00  0.00    -0.205 F 
ATOM     90  C   UNL A   1      47.072  27.345  35.680  1.00  0.00     0.022 A 
BRANCH  88  91
ATOM     91  S   UNL A   1      45.893  25.229  36.956  1.00  0.00     0.127 S 
ATOM     92  O   UNL A   1      45.881  24.044  36.099  1.00  0.00    -0.237 OA
ATOM     93  O   UNL A   1      47.148  25.449  37.676  1.00  0.00    -0.237 OA
ATOM     94  O   UNL A   1      44.692  25.431  37.756  1.00  0.00    -0.744 OA
ENDBRANCH  88  91
ENDBRANCH  61  84
ENDBRANCH  35  36
ENDBRANCH  27  30
ENDBRANCH  25  26
ENDBRANCH   1  25
TORSDOF 16
ENDMDL
