MODEL 1
REMARK VINA RESULT:     -12.4      0.000      0.000
REMARK SMILES C[C@H](C[C@H]1CSc2ccccc21)C(=O)NCCCCNC(=O)c1ccc(-c2c3nc(c(-c4cccc(S(=O)(=O)[O-])c4F)c4ccc([nH]4)c(-c4cccc(S(=O)(=O)[O-])c4F)c4nc(c(-c5cccc(S(=O)(=O)[O-])c5F)c5ccc2[nH]5)C=C4)C=C3)cc1
REMARK SMILES IDX 18 1 17 2 16 3 15 4 13 5 14 6 2 8 1 9 3 10 4 11 5 12 12 13
REMARK SMILES IDX 6 14 7 15 11 16 8 17 10 18 9 19 19 20 20 21 21 22 22 24
REMARK SMILES IDX 23 25 24 26 85 27 25 28 84 29 26 30 27 31 28 32 78 33 29 34
REMARK SMILES IDX 83 35 77 36 79 37 30 38 82 39 76 40 75 41 31 43 63 44 43 45
REMARK SMILES IDX 62 46 44 47 47 48 61 49 80 50 45 51 46 52 60 54 81 55 48 56
REMARK SMILES IDX 32 57 33 58 41 59 34 60 36 61 42 62 35 63 37 64 38 65 39 66
REMARK SMILES IDX 40 67 64 68 65 69 73 70 66 71 68 72 74 73 67 74 69 75 70 76
REMARK SMILES IDX 71 77 72 78 49 79 50 80 58 81 51 82 53 83 59 84 52 85 54 86
REMARK SMILES IDX 55 87 56 88 57 89
REMARK H PARENT 15 7 20 23 79 42 47 53
REMARK Flexibility Score: inf
ROOT
ATOM      1  C   UNL A   1      31.670  28.739  27.090  1.00  0.00     0.023 C 
ENDROOT
BRANCH   1   2
ATOM      2  C   UNL A   1      32.012  27.276  26.853  1.00  0.00     0.023 C 
BRANCH   2   3
ATOM      3  C   UNL A   1      31.088  26.540  25.898  1.00  0.00     0.116 C 
BRANCH   3   4
ATOM      4  N   UNL A   1      30.411  25.391  26.458  1.00  0.00    -0.356 N 
ATOM      5  C   UNL A   1      30.654  24.061  26.333  1.00  0.00     0.222 C 
ATOM      6  O   UNL A   1      30.216  23.353  27.251  1.00  0.00    -0.275 OA
ATOM      7  H   UNL A   1      29.639  25.613  27.027  1.00  0.00     0.163 HD
BRANCH   5   8
ATOM      8  C   UNL A   1      31.295  23.369  25.109  1.00  0.00     0.076 C 
ATOM      9  C   UNL A   1      30.668  23.808  23.780  1.00  0.00     0.018 C 
BRANCH   8  10
ATOM     10  C   UNL A   1      31.733  21.903  25.138  1.00  0.00     0.022 C 
BRANCH  10  11
ATOM     11  C   UNL A   1      33.067  21.412  24.498  1.00  0.00     0.031 C 
ATOM     12  C   UNL A   1      34.198  21.883  25.463  1.00  0.00     0.083 C 
ATOM     13  C   UNL A   1      33.337  19.941  24.227  1.00  0.00    -0.030 A 
ATOM     14  S   UNL A   1      35.617  20.784  25.290  1.00  0.00    -0.125 SA
ATOM     15  C   UNL A   1      34.606  19.498  24.629  1.00  0.00     0.011 A 
ATOM     16  C   UNL A   1      32.503  19.035  23.572  1.00  0.00     0.005 A 
ATOM     17  C   UNL A   1      35.009  18.176  24.482  1.00  0.00     0.015 A 
ATOM     18  C   UNL A   1      32.902  17.702  23.409  1.00  0.00     0.000 A 
ATOM     19  C   UNL A   1      34.142  17.269  23.880  1.00  0.00     0.001 A 
ENDBRANCH  10  11
ENDBRANCH   8  10
ENDBRANCH   5   8
ENDBRANCH   3   4
ENDBRANCH   2   3
ENDBRANCH   1   2
BRANCH   1  20
ATOM     20  C   UNL A   1      32.553  29.756  26.374  1.00  0.00     0.116 C 
BRANCH  20  21
ATOM     21  N   UNL A   1      32.341  31.142  26.781  1.00  0.00    -0.352 N 
ATOM     22  C   UNL A   1      33.236  32.014  27.368  1.00  0.00     0.251 C 
ATOM     23  H   UNL A   1      31.440  31.503  26.616  1.00  0.00     0.163 HD
ATOM     24  O   UNL A   1      32.890  33.147  27.686  1.00  0.00    -0.269 OA
BRANCH  22  25
ATOM     25  C   UNL A   1      34.605  31.536  27.653  1.00  0.00     0.039 A 
ATOM     26  C   UNL A   1      34.833  30.178  27.872  1.00  0.00     0.014 A 
ATOM     27  C   UNL A   1      35.627  32.468  27.845  1.00  0.00     0.014 A 
ATOM     28  C   UNL A   1      36.003  29.784  28.508  1.00  0.00     0.010 A 
ATOM     29  C   UNL A   1      36.843  32.050  28.393  1.00  0.00     0.010 A 
ATOM     30  C   UNL A   1      37.011  30.718  28.806  1.00  0.00    -0.014 A 
BRANCH  30  31
ATOM     31  C   UNL A   1      38.199  30.284  29.589  1.00  0.00     0.031 A 
ATOM     32  C   UNL A   1      38.386  30.714  31.024  1.00  0.00     0.074 A 
ATOM     33  C   UNL A   1      39.082  29.434  29.029  1.00  0.00     0.049 A 
ATOM     34  N   UNL A   1      39.345  30.396  31.857  1.00  0.00    -0.248 NA
ATOM     35  C   UNL A   1      37.375  31.616  31.603  1.00  0.00     0.031 C 
ATOM     36  C   UNL A   1      39.021  28.948  27.649  1.00  0.00     0.029 A 
ATOM     37  N   UNL A   1      40.185  28.809  29.553  1.00  0.00    -0.354 N 
ATOM     38  C   UNL A   1      39.084  31.094  33.031  1.00  0.00     0.074 A 
ATOM     39  C   UNL A   1      37.874  31.853  32.809  1.00  0.00     0.031 C 
ATOM     40  C   UNL A   1      40.003  28.058  27.453  1.00  0.00     0.029 A 
ATOM     41  C   UNL A   1      40.800  27.951  28.671  1.00  0.00     0.049 A 
ATOM     42  H   UNL A   1      40.505  28.960  30.471  1.00  0.00     0.167 HD
ATOM     43  C   UNL A   1      39.775  31.087  34.194  1.00  0.00     0.034 A 
ATOM     44  C   UNL A   1      41.884  27.167  28.819  1.00  0.00     0.034 A 
ATOM     45  C   UNL A   1      40.934  30.276  34.448  1.00  0.00     0.049 A 
ATOM     46  C   UNL A   1      42.614  27.155  30.129  1.00  0.00     0.074 A 
ATOM     47  C   UNL A   1      41.669  30.172  35.617  1.00  0.00     0.029 A 
ATOM     48  N   UNL A   1      41.519  29.420  33.529  1.00  0.00    -0.354 N 
ATOM     49  N   UNL A   1      42.312  27.779  31.241  1.00  0.00    -0.248 NA
ATOM     50  C   UNL A   1      43.827  26.330  30.209  1.00  0.00     0.031 C 
ATOM     51  C   UNL A   1      42.698  29.248  35.405  1.00  0.00     0.029 A 
ATOM     52  C   UNL A   1      42.603  28.781  34.104  1.00  0.00     0.049 A 
ATOM     53  H   UNL A   1      41.209  29.286  32.604  1.00  0.00     0.167 HD
ATOM     54  C   UNL A   1      43.295  27.421  32.154  1.00  0.00     0.074 A 
ATOM     55  C   UNL A   1      44.187  26.503  31.475  1.00  0.00     0.031 C 
ATOM     56  C   UNL A   1      43.456  27.837  33.433  1.00  0.00     0.034 A 
BRANCH  43  57
ATOM     57  C   UNL A   1      39.271  31.942  35.325  1.00  0.00     0.023 A 
ATOM     58  C   UNL A   1      38.388  31.381  36.268  1.00  0.00     0.012 A 
ATOM     59  C   UNL A   1      39.754  33.251  35.517  1.00  0.00     0.148 A 
ATOM     60  C   UNL A   1      37.986  32.114  37.384  1.00  0.00     0.002 A 
ATOM     61  C   UNL A   1      39.370  33.966  36.645  1.00  0.00     0.091 A 
ATOM     62  F   UNL A   1      40.585  33.765  34.599  1.00  0.00    -0.205 F 
ATOM     63  C   UNL A   1      38.484  33.400  37.578  1.00  0.00     0.022 A 
BRANCH  61  64
ATOM     64  S   UNL A   1      39.995  35.609  37.019  1.00  0.00     0.127 S 
ATOM     65  O   UNL A   1      39.277  35.922  38.253  1.00  0.00    -0.237 OA
ATOM     66  O   UNL A   1      41.427  35.361  37.191  1.00  0.00    -0.237 OA
ATOM     67  O   UNL A   1      39.653  36.440  35.873  1.00  0.00    -0.744 OA
ENDBRANCH  61  64
ENDBRANCH  43  57
BRANCH  44  68
ATOM     68  C   UNL A   1      42.298  26.290  27.691  1.00  0.00     0.023 A 
ATOM     69  C   UNL A   1      43.250  26.762  26.769  1.00  0.00     0.012 A 
ATOM     70  C   UNL A   1      41.830  24.966  27.589  1.00  0.00     0.148 A 
ATOM     71  C   UNL A   1      43.732  25.927  25.761  1.00  0.00     0.002 A 
ATOM     72  C   UNL A   1      42.350  24.125  26.614  1.00  0.00     0.091 A 
ATOM     73  F   UNL A   1      40.917  24.548  28.476  1.00  0.00    -0.205 F 
ATOM     74  C   UNL A   1      43.294  24.606  25.692  1.00  0.00     0.022 A 
BRANCH  72  75
ATOM     75  S   UNL A   1      41.944  22.378  26.530  1.00  0.00     0.127 S 
ATOM     76  O   UNL A   1      42.420  21.899  27.826  1.00  0.00    -0.237 OA
ATOM     77  O   UNL A   1      40.488  22.416  26.383  1.00  0.00    -0.237 OA
ATOM     78  O   UNL A   1      42.655  21.862  25.368  1.00  0.00    -0.744 OA
ENDBRANCH  72  75
ENDBRANCH  44  68
BRANCH  56  79
ATOM     79  C   UNL A   1      44.642  27.320  34.196  1.00  0.00     0.023 A 
ATOM     80  C   UNL A   1      45.844  28.052  34.165  1.00  0.00     0.012 A 
ATOM     81  C   UNL A   1      44.532  26.190  35.028  1.00  0.00     0.148 A 
ATOM     82  C   UNL A   1      46.928  27.661  34.950  1.00  0.00     0.002 A 
ATOM     83  C   UNL A   1      45.607  25.823  35.829  1.00  0.00     0.091 A 
ATOM     84  F   UNL A   1      43.379  25.507  35.029  1.00  0.00    -0.205 F 
ATOM     85  C   UNL A   1      46.806  26.556  35.788  1.00  0.00     0.022 A 
BRANCH  83  86
ATOM     86  S   UNL A   1      45.525  24.457  36.993  1.00  0.00     0.127 S 
ATOM     87  O   UNL A   1      46.866  24.481  37.574  1.00  0.00    -0.237 OA
ATOM     88  O   UNL A   1      44.460  24.886  37.898  1.00  0.00    -0.237 OA
ATOM     89  O   UNL A   1      45.210  23.273  36.204  1.00  0.00    -0.744 OA
ENDBRANCH  83  86
ENDBRANCH  56  79
ENDBRANCH  30  31
ENDBRANCH  22  25
ENDBRANCH  20  21
ENDBRANCH   1  20
TORSDOF 16
ENDMDL
MODEL 2
REMARK VINA RESULT:     -12.3      2.159      2.619
REMARK SMILES C[C@H](C[C@H]1CSc2ccccc21)C(=O)NCCCCNC(=O)c1ccc(-c2c3nc(c(-c4cccc(S(=O)(=O)[O-])c4F)c4ccc([nH]4)c(-c4cccc(S(=O)(=O)[O-])c4F)c4nc(c(-c5cccc(S(=O)(=O)[O-])c5F)c5ccc2[nH]5)C=C4)C=C3)cc1
REMARK SMILES IDX 18 1 17 2 16 3 15 4 13 5 14 6 2 8 1 9 3 10 4 11 5 12 12 13
REMARK SMILES IDX 6 14 7 15 11 16 8 17 10 18 9 19 19 20 20 21 21 22 22 24
REMARK SMILES IDX 23 25 24 26 85 27 25 28 84 29 26 30 27 31 28 32 78 33 29 34
REMARK SMILES IDX 83 35 77 36 79 37 30 38 82 39 76 40 75 41 31 43 63 44 43 45
REMARK SMILES IDX 62 46 44 47 47 48 61 49 80 50 45 51 46 52 60 54 81 55 48 56
REMARK SMILES IDX 32 57 33 58 41 59 34 60 36 61 42 62 35 63 37 64 38 65 39 66
REMARK SMILES IDX 40 67 64 68 65 69 73 70 66 71 68 72 74 73 67 74 69 75 70 76
REMARK SMILES IDX 71 77 72 78 49 79 50 80 58 81 51 82 53 83 59 84 52 85 54 86
REMARK SMILES IDX 55 87 56 88 57 89
REMARK H PARENT 15 7 20 23 79 42 47 53
REMARK Flexibility Score: inf
ROOT
ATOM      1  C   UNL A   1      31.212  30.564  25.342  1.00  0.00     0.023 C 
ENDROOT
BRANCH   1   2
ATOM      2  C   UNL A   1      31.088  29.099  24.951  1.00  0.00     0.023 C 
BRANCH   2   3
ATOM      3  C   UNL A   1      31.063  28.826  23.457  1.00  0.00     0.116 C 
BRANCH   3   4
ATOM      4  N   UNL A   1      32.361  28.712  22.830  1.00  0.00    -0.356 N 
ATOM      5  C   UNL A   1      33.210  27.658  22.717  1.00  0.00     0.222 C 
ATOM      6  O   UNL A   1      34.011  27.719  21.773  1.00  0.00    -0.275 OA
ATOM      7  H   UNL A   1      32.686  29.543  22.414  1.00  0.00     0.163 HD
BRANCH   5   8
ATOM      8  C   UNL A   1      33.342  26.490  23.721  1.00  0.00     0.076 C 
ATOM      9  C   UNL A   1      34.020  26.905  25.033  1.00  0.00     0.018 C 
BRANCH   8  10
ATOM     10  C   UNL A   1      33.671  25.064  23.274  1.00  0.00     0.022 C 
BRANCH  10  11
ATOM     11  C   UNL A   1      33.715  23.862  24.266  1.00  0.00     0.031 C 
ATOM     12  C   UNL A   1      32.823  22.753  23.628  1.00  0.00     0.083 C 
ATOM     13  C   UNL A   1      35.019  23.179  24.646  1.00  0.00    -0.030 A 
ATOM     14  S   UNL A   1      33.378  21.140  24.213  1.00  0.00    -0.125 SA
ATOM     15  C   UNL A   1      34.973  21.778  24.617  1.00  0.00     0.011 A 
ATOM     16  C   UNL A   1      36.197  23.788  25.080  1.00  0.00     0.005 A 
ATOM     17  C   UNL A   1      36.084  20.994  24.909  1.00  0.00     0.015 A 
ATOM     18  C   UNL A   1      37.320  23.009  25.386  1.00  0.00     0.000 A 
ATOM     19  C   UNL A   1      37.271  21.618  25.282  1.00  0.00     0.001 A 
ENDBRANCH  10  11
ENDBRANCH   8  10
ENDBRANCH   5   8
ENDBRANCH   3   4
ENDBRANCH   2   3
ENDBRANCH   1   2
BRANCH   1  20
ATOM     20  C   UNL A   1      32.148  30.868  26.507  1.00  0.00     0.116 C 
BRANCH  20  21
ATOM     21  N   UNL A   1      32.055  32.229  27.025  1.00  0.00    -0.352 N 
ATOM     22  C   UNL A   1      33.024  32.977  27.663  1.00  0.00     0.251 C 
ATOM     23  H   UNL A   1      31.185  32.674  26.903  1.00  0.00     0.163 HD
ATOM     24  O   UNL A   1      32.775  34.106  28.075  1.00  0.00    -0.269 OA
BRANCH  22  25
ATOM     25  C   UNL A   1      34.352  32.368  27.888  1.00  0.00     0.039 A 
ATOM     26  C   UNL A   1      34.451  31.008  28.175  1.00  0.00     0.014 A 
ATOM     27  C   UNL A   1      35.477  33.193  27.955  1.00  0.00     0.014 A 
ATOM     28  C   UNL A   1      35.615  30.524  28.758  1.00  0.00     0.010 A 
ATOM     29  C   UNL A   1      36.679  32.675  28.447  1.00  0.00     0.010 A 
ATOM     30  C   UNL A   1      36.734  31.358  28.930  1.00  0.00    -0.014 A 
BRANCH  30  31
ATOM     31  C   UNL A   1      37.923  30.840  29.660  1.00  0.00     0.031 A 
ATOM     32  C   UNL A   1      38.154  31.178  31.113  1.00  0.00     0.074 A 
ATOM     33  C   UNL A   1      38.766  29.996  29.031  1.00  0.00     0.049 A 
ATOM     34  N   UNL A   1      39.118  30.780  31.905  1.00  0.00    -0.248 NA
ATOM     35  C   UNL A   1      37.186  32.076  31.766  1.00  0.00     0.031 C 
ATOM     36  C   UNL A   1      38.660  29.595  27.627  1.00  0.00     0.029 A 
ATOM     37  N   UNL A   1      39.858  29.306  29.493  1.00  0.00    -0.354 N 
ATOM     38  C   UNL A   1      38.905  31.415  33.123  1.00  0.00     0.074 A 
ATOM     39  C   UNL A   1      37.717  32.225  32.973  1.00  0.00     0.031 C 
ATOM     40  C   UNL A   1      39.608  28.687  27.358  1.00  0.00     0.029 A 
ATOM     41  C   UNL A   1      40.425  28.483  28.550  1.00  0.00     0.049 A 
ATOM     42  H   UNL A   1      40.202  29.392  30.412  1.00  0.00     0.167 HD
ATOM     43  C   UNL A   1      39.619  31.317  34.268  1.00  0.00     0.034 A 
ATOM     44  C   UNL A   1      41.485  27.657  28.627  1.00  0.00     0.034 A 
ATOM     45  C   UNL A   1      40.755  30.456  34.448  1.00  0.00     0.049 A 
ATOM     46  C   UNL A   1      42.242  27.544  29.917  1.00  0.00     0.074 A 
ATOM     47  C   UNL A   1      41.509  30.259  35.592  1.00  0.00     0.029 A 
ATOM     48  N   UNL A   1      41.292  29.637  33.468  1.00  0.00    -0.354 N 
ATOM     49  N   UNL A   1      41.984  28.110  31.070  1.00  0.00    -0.248 NA
ATOM     50  C   UNL A   1      43.427  26.677  29.921  1.00  0.00     0.031 C 
ATOM     51  C   UNL A   1      42.502  29.317  35.304  1.00  0.00     0.029 A 
ATOM     52  C   UNL A   1      42.366  28.931  33.980  1.00  0.00     0.049 A 
ATOM     53  H   UNL A   1      40.960  29.569  32.543  1.00  0.00     0.167 HD
ATOM     54  C   UNL A   1      42.972  27.667  31.938  1.00  0.00     0.074 A 
ATOM     55  C   UNL A   1      43.819  26.764  31.188  1.00  0.00     0.031 C 
ATOM     56  C   UNL A   1      43.173  28.002  33.236  1.00  0.00     0.034 A 
BRANCH  43  57
ATOM     57  C   UNL A   1      39.166  32.119  35.458  1.00  0.00     0.023 A 
ATOM     58  C   UNL A   1      39.332  33.518  35.446  1.00  0.00     0.012 A 
ATOM     59  C   UNL A   1      38.480  31.509  36.527  1.00  0.00     0.148 A 
ATOM     60  C   UNL A   1      38.829  34.298  36.486  1.00  0.00     0.002 A 
ATOM     61  C   UNL A   1      37.958  32.296  37.546  1.00  0.00     0.091 A 
ATOM     62  F   UNL A   1      38.346  30.175  36.519  1.00  0.00    -0.205 F 
ATOM     63  C   UNL A   1      38.134  33.690  37.528  1.00  0.00     0.022 A 
BRANCH  61  64
ATOM     64  S   UNL A   1      37.000  31.620  38.908  1.00  0.00     0.127 S 
ATOM     65  O   UNL A   1      36.762  30.253  38.448  1.00  0.00    -0.237 OA
ATOM     66  O   UNL A   1      37.935  31.734  40.028  1.00  0.00    -0.237 OA
ATOM     67  O   UNL A   1      35.812  32.455  39.017  1.00  0.00    -0.744 OA
ENDBRANCH  61  64
ENDBRANCH  43  57
BRANCH  44  68
ATOM     68  C   UNL A   1      41.847  26.835  27.441  1.00  0.00     0.023 A 
ATOM     69  C   UNL A   1      42.525  27.442  26.366  1.00  0.00     0.012 A 
ATOM     70  C   UNL A   1      41.613  25.448  27.418  1.00  0.00     0.148 A 
ATOM     71  C   UNL A   1      42.965  26.677  25.287  1.00  0.00     0.002 A 
ATOM     72  C   UNL A   1      42.097  24.684  26.363  1.00  0.00     0.091 A 
ATOM     73  F   UNL A   1      40.957  24.900  28.450  1.00  0.00    -0.205 F 
ATOM     74  C   UNL A   1      42.765  25.299  25.292  1.00  0.00     0.022 A 
BRANCH  72  75
ATOM     75  S   UNL A   1      42.001  22.892  26.346  1.00  0.00     0.127 S 
ATOM     76  O   UNL A   1      42.789  22.540  27.525  1.00  0.00    -0.237 OA
ATOM     77  O   UNL A   1      40.560  22.668  26.477  1.00  0.00    -0.237 OA
ATOM     78  O   UNL A   1      42.561  22.478  25.067  1.00  0.00    -0.744 OA
ENDBRANCH  72  75
ENDBRANCH  44  68
BRANCH  56  79
ATOM     79  C   UNL A   1      44.356  27.402  33.941  1.00  0.00     0.023 A 
ATOM     80  C   UNL A   1      45.593  28.072  33.885  1.00  0.00     0.012 A 
ATOM     81  C   UNL A   1      44.217  26.256  34.746  1.00  0.00     0.148 A 
ATOM     82  C   UNL A   1      46.682  27.604  34.619  1.00  0.00     0.002 A 
ATOM     83  C   UNL A   1      45.298  25.811  35.496  1.00  0.00     0.091 A 
ATOM     84  F   UNL A   1      43.029  25.633  34.770  1.00  0.00    -0.205 F 
ATOM     85  C   UNL A   1      46.532  26.482  35.431  1.00  0.00     0.022 A 
BRANCH  83  86
ATOM     86  S   UNL A   1      45.186  24.418  36.625  1.00  0.00     0.127 S 
ATOM     87  O   UNL A   1      46.546  24.357  37.159  1.00  0.00    -0.237 OA
ATOM     88  O   UNL A   1      44.176  24.875  37.579  1.00  0.00    -0.237 OA
ATOM     89  O   UNL A   1      44.784  23.275  35.817  1.00  0.00    -0.744 OA
ENDBRANCH  83  86
ENDBRANCH  56  79
ENDBRANCH  30  31
ENDBRANCH  22  25
ENDBRANCH  20  21
ENDBRANCH   1  20
TORSDOF 16
ENDMDL
MODEL 3
REMARK VINA RESULT:     -12.2      5.029      8.189
REMARK SMILES C[C@H](C[C@H]1CSc2ccccc21)C(=O)NCCCCNC(=O)c1ccc(-c2c3nc(c(-c4cccc(S(=O)(=O)[O-])c4F)c4ccc([nH]4)c(-c4cccc(S(=O)(=O)[O-])c4F)c4nc(c(-c5cccc(S(=O)(=O)[O-])c5F)c5ccc2[nH]5)C=C4)C=C3)cc1
REMARK SMILES IDX 18 1 17 2 16 3 15 4 13 5 14 6 2 8 1 9 3 10 4 11 5 12 12 13
REMARK SMILES IDX 6 14 7 15 11 16 8 17 10 18 9 19 19 20 20 21 21 22 22 24
REMARK SMILES IDX 23 25 24 26 85 27 25 28 84 29 26 30 27 31 28 32 78 33 29 34
REMARK SMILES IDX 83 35 77 36 79 37 30 38 82 39 76 40 75 41 31 43 63 44 43 45
REMARK SMILES IDX 62 46 44 47 47 48 61 49 80 50 45 51 46 52 60 54 81 55 48 56
REMARK SMILES IDX 32 57 33 58 41 59 34 60 36 61 42 62 35 63 37 64 38 65 39 66
REMARK SMILES IDX 40 67 64 68 65 69 73 70 66 71 68 72 74 73 67 74 69 75 70 76
REMARK SMILES IDX 71 77 72 78 49 79 50 80 58 81 51 82 53 83 59 84 52 85 54 86
REMARK SMILES IDX 55 87 56 88 57 89
REMARK H PARENT 15 7 20 23 79 42 47 53
REMARK Flexibility Score: inf
ROOT
ATOM      1  C   UNL A   1      35.772  21.165  25.364  1.00  0.00     0.023 C 
ENDROOT
BRANCH   1   2
ATOM      2  C   UNL A   1      35.282  21.968  26.560  1.00  0.00     0.023 C 
BRANCH   2   3
ATOM      3  C   UNL A   1      33.879  21.629  27.036  1.00  0.00     0.116 C 
BRANCH   3   4
ATOM      4  N   UNL A   1      33.068  22.764  27.419  1.00  0.00    -0.356 N 
ATOM      5  C   UNL A   1      32.324  23.623  26.675  1.00  0.00     0.222 C 
ATOM      6  O   UNL A   1      31.407  24.194  27.283  1.00  0.00    -0.275 OA
ATOM      7  H   UNL A   1      33.055  22.946  28.386  1.00  0.00     0.163 HD
BRANCH   5   8
ATOM      8  C   UNL A   1      32.605  24.032  25.213  1.00  0.00     0.076 C 
ATOM      9  C   UNL A   1      32.168  22.966  24.200  1.00  0.00     0.018 C 
BRANCH   8  10
ATOM     10  C   UNL A   1      33.869  24.795  24.808  1.00  0.00     0.022 C 
BRANCH  10  11
ATOM     11  C   UNL A   1      33.846  26.298  24.393  1.00  0.00     0.031 C 
ATOM     12  C   UNL A   1      33.093  26.349  23.027  1.00  0.00     0.083 C 
ATOM     13  C   UNL A   1      33.199  27.364  25.263  1.00  0.00    -0.030 A 
ATOM     14  S   UNL A   1      32.339  27.974  22.829  1.00  0.00    -0.125 SA
ATOM     15  C   UNL A   1      32.372  28.260  24.570  1.00  0.00     0.011 A 
ATOM     16  C   UNL A   1      33.401  27.578  26.627  1.00  0.00     0.005 A 
ATOM     17  C   UNL A   1      31.680  29.279  25.214  1.00  0.00     0.015 A 
ATOM     18  C   UNL A   1      32.717  28.608  27.286  1.00  0.00     0.000 A 
ATOM     19  C   UNL A   1      31.845  29.443  26.587  1.00  0.00     0.001 A 
ENDBRANCH  10  11
ENDBRANCH   8  10
ENDBRANCH   5   8
ENDBRANCH   3   4
ENDBRANCH   2   3
ENDBRANCH   1   2
BRANCH   1  20
ATOM     20  C   UNL A   1      37.173  21.502  24.863  1.00  0.00     0.116 C 
BRANCH  20  21
ATOM     21  N   UNL A   1      38.185  20.491  25.154  1.00  0.00    -0.352 N 
ATOM     22  C   UNL A   1      39.322  20.607  25.927  1.00  0.00     0.251 C 
ATOM     23  H   UNL A   1      38.037  19.608  24.743  1.00  0.00     0.163 HD
ATOM     24  O   UNL A   1      40.099  19.664  26.046  1.00  0.00    -0.269 OA
BRANCH  22  25
ATOM     25  C   UNL A   1      39.612  21.908  26.567  1.00  0.00     0.039 A 
ATOM     26  C   UNL A   1      38.958  23.057  26.127  1.00  0.00     0.014 A 
ATOM     27  C   UNL A   1      40.644  21.992  27.504  1.00  0.00     0.014 A 
ATOM     28  C   UNL A   1      39.493  24.300  26.440  1.00  0.00     0.010 A 
ATOM     29  C   UNL A   1      41.114  23.249  27.896  1.00  0.00     0.010 A 
ATOM     30  C   UNL A   1      40.597  24.412  27.303  1.00  0.00    -0.014 A 
BRANCH  30  31
ATOM     31  C   UNL A   1      41.215  25.747  27.526  1.00  0.00     0.031 A 
ATOM     32  C   UNL A   1      40.512  26.804  28.343  1.00  0.00     0.074 A 
ATOM     33  C   UNL A   1      42.454  25.987  27.052  1.00  0.00     0.049 A 
ATOM     34  N   UNL A   1      40.927  28.004  28.663  1.00  0.00    -0.248 NA
ATOM     35  C   UNL A   1      39.174  26.482  28.869  1.00  0.00     0.031 C 
ATOM     36  C   UNL A   1      43.239  25.053  26.243  1.00  0.00     0.029 A 
ATOM     37  N   UNL A   1      43.279  27.072  27.202  1.00  0.00    -0.354 N 
ATOM     38  C   UNL A   1      39.890  28.595  29.376  1.00  0.00     0.074 A 
ATOM     39  C   UNL A   1      38.822  27.623  29.448  1.00  0.00     0.031 C 
ATOM     40  C   UNL A   1      44.450  25.579  26.017  1.00  0.00     0.029 A 
ATOM     41  C   UNL A   1      44.511  26.909  26.614  1.00  0.00     0.049 A 
ATOM     42  H   UNL A   1      43.015  27.889  27.684  1.00  0.00     0.167 HD
ATOM     43  C   UNL A   1      39.838  29.825  29.938  1.00  0.00     0.034 A 
ATOM     44  C   UNL A   1      45.573  27.734  26.556  1.00  0.00     0.034 A 
ATOM     45  C   UNL A   1      40.924  30.767  29.936  1.00  0.00     0.049 A 
ATOM     46  C   UNL A   1      45.501  29.080  27.213  1.00  0.00     0.074 A 
ATOM     47  C   UNL A   1      40.972  32.019  30.524  1.00  0.00     0.029 A 
ATOM     48  N   UNL A   1      42.153  30.558  29.334  1.00  0.00    -0.354 N 
ATOM     49  N   UNL A   1      44.531  29.590  27.931  1.00  0.00    -0.248 NA
ATOM     50  C   UNL A   1      46.667  29.960  27.060  1.00  0.00     0.031 C 
ATOM     51  C   UNL A   1      42.236  32.567  30.279  1.00  0.00     0.029 A 
ATOM     52  C   UNL A   1      42.969  31.656  29.537  1.00  0.00     0.049 A 
ATOM     53  H   UNL A   1      42.408  29.749  28.833  1.00  0.00     0.167 HD
ATOM     54  C   UNL A   1      44.968  30.849  28.317  1.00  0.00     0.074 A 
ATOM     55  C   UNL A   1      46.302  31.017  27.778  1.00  0.00     0.031 C 
ATOM     56  C   UNL A   1      44.310  31.792  29.034  1.00  0.00     0.034 A 
BRANCH  43  57
ATOM     57  C   UNL A   1      38.582  30.221  30.665  1.00  0.00     0.023 A 
ATOM     58  C   UNL A   1      38.453  29.909  32.032  1.00  0.00     0.012 A 
ATOM     59  C   UNL A   1      37.589  30.993  30.031  1.00  0.00     0.148 A 
ATOM     60  C   UNL A   1      37.349  30.354  32.758  1.00  0.00     0.002 A 
ATOM     61  C   UNL A   1      36.504  31.455  30.767  1.00  0.00     0.091 A 
ATOM     62  F   UNL A   1      37.729  31.266  28.725  1.00  0.00    -0.205 F 
ATOM     63  C   UNL A   1      36.383  31.135  32.130  1.00  0.00     0.022 A 
BRANCH  61  64
ATOM     64  S   UNL A   1      35.230  32.512  30.068  1.00  0.00     0.127 S 
ATOM     65  O   UNL A   1      34.725  31.680  28.977  1.00  0.00    -0.237 OA
ATOM     66  O   UNL A   1      34.309  32.669  31.194  1.00  0.00    -0.237 OA
ATOM     67  O   UNL A   1      35.904  33.736  29.656  1.00  0.00    -0.744 OA
ENDBRANCH  61  64
ENDBRANCH  43  57
BRANCH  44  68
ATOM     68  C   UNL A   1      46.815  27.264  25.884  1.00  0.00     0.023 A 
ATOM     69  C   UNL A   1      47.022  27.579  24.527  1.00  0.00     0.012 A 
ATOM     70  C   UNL A   1      47.826  26.599  26.603  1.00  0.00     0.148 A 
ATOM     71  C   UNL A   1      48.219  27.239  23.898  1.00  0.00     0.002 A 
ATOM     72  C   UNL A   1      49.035  26.308  25.985  1.00  0.00     0.091 A 
ATOM     73  F   UNL A   1      47.596  26.304  27.890  1.00  0.00    -0.205 F 
ATOM     74  C   UNL A   1      49.230  26.619  24.629  1.00  0.00     0.022 A 
BRANCH  72  75
ATOM     75  S   UNL A   1      50.436  25.630  26.878  1.00  0.00     0.127 S 
ATOM     76  O   UNL A   1      49.878  24.390  27.411  1.00  0.00    -0.237 OA
ATOM     77  O   UNL A   1      51.418  25.455  25.806  1.00  0.00    -0.237 OA
ATOM     78  O   UNL A   1      50.798  26.635  27.868  1.00  0.00    -0.744 OA
ENDBRANCH  72  75
ENDBRANCH  44  68
BRANCH  56  79
ATOM     79  C   UNL A   1      45.006  33.100  29.279  1.00  0.00     0.023 A 
ATOM     80  C   UNL A   1      45.827  33.233  30.416  1.00  0.00     0.012 A 
ATOM     81  C   UNL A   1      44.945  34.143  28.336  1.00  0.00     0.148 A 
ATOM     82  C   UNL A   1      46.574  34.393  30.614  1.00  0.00     0.002 A 
ATOM     83  C   UNL A   1      45.714  35.284  28.525  1.00  0.00     0.091 A 
ATOM     84  F   UNL A   1      44.147  33.992  27.269  1.00  0.00    -0.205 F 
ATOM     85  C   UNL A   1      46.527  35.412  29.665  1.00  0.00     0.022 A 
BRANCH  83  86
ATOM     86  S   UNL A   1      45.775  36.621  27.327  1.00  0.00     0.127 S 
ATOM     87  O   UNL A   1      46.134  35.907  26.103  1.00  0.00    -0.237 OA
ATOM     88  O   UNL A   1      44.403  37.127  27.358  1.00  0.00    -0.237 OA
ATOM     89  O   UNL A   1      46.777  37.557  27.817  1.00  0.00    -0.744 OA
ENDBRANCH  83  86
ENDBRANCH  56  79
ENDBRANCH  30  31
ENDBRANCH  22  25
ENDBRANCH  20  21
ENDBRANCH   1  20
TORSDOF 16
ENDMDL
