MODEL 1
REMARK VINA RESULT:     -12.1      0.000      0.000
REMARK SMILES C[NH2+][C@]1(C(=O)NCCCCNC(=O)c2ccc(-c3c4nc(c(-c5cccc(S(=O)(=O)[O-])c5F)c5ccc([nH]5)c(-c5cccc(S(=O)(=O)[O-])c5F)c5nc(c(-c6cccc(S(=O)(=O)[O-])c6F)c6ccc3[nH]6)C=C5)C=C4)cc2)CCC[C@H](Oc2ccc(C)cc2)C1
REMARK SMILES IDX 9 1 8 2 7 3 6 4 4 5 5 6 3 8 77 9 89 10 78 11 80 12 79 13
REMARK SMILES IDX 2 14 1 15 81 18 82 19 83 20 88 21 84 22 87 23 85 24 86 25
REMARK SMILES IDX 10 26 11 27 12 28 13 30 14 31 15 32 76 33 16 34 75 35 17 36
REMARK SMILES IDX 18 37 19 38 69 39 20 40 74 41 68 42 70 43 21 44 73 45 67 46
REMARK SMILES IDX 66 47 22 49 54 50 34 51 53 52 35 53 38 54 52 55 71 56 36 57
REMARK SMILES IDX 37 58 51 60 72 61 39 62 23 63 24 64 32 65 25 66 27 67 33 68
REMARK SMILES IDX 26 69 28 70 29 71 30 72 31 73 55 74 56 75 64 76 57 77 59 78
REMARK SMILES IDX 65 79 58 80 60 81 61 82 62 83 63 84 40 85 41 86 49 87 42 88
REMARK SMILES IDX 44 89 50 90 43 91 45 92 46 93 47 94 48 95
REMARK H PARENT 6 7 2 16 2 17 11 29 70 48 38 59
REMARK Flexibility Score: inf
ROOT
ATOM      1  C   UNL A   1      32.555  29.686  25.352  1.00  0.00     0.023 C 
ENDROOT
BRANCH   1   2
ATOM      2  C   UNL A   1      31.450  28.913  24.636  1.00  0.00     0.023 C 
BRANCH   2   3
ATOM      3  C   UNL A   1      31.670  27.401  24.545  1.00  0.00     0.116 C 
BRANCH   3   4
ATOM      4  N   UNL A   1      30.787  26.668  25.433  1.00  0.00    -0.351 N 
ATOM      5  C   UNL A   1      30.780  25.378  25.888  1.00  0.00     0.281 C 
ATOM      6  O   UNL A   1      29.790  25.084  26.567  1.00  0.00    -0.268 OA
ATOM      7  H   UNL A   1      30.042  27.209  25.778  1.00  0.00     0.163 HD
BRANCH   5   8
ATOM      8  C   UNL A   1      31.953  24.364  25.588  1.00  0.00     0.178 C 
ATOM      9  C   UNL A   1      33.296  25.036  25.999  1.00  0.00     0.079 C 
ATOM     10  C   UNL A   1      31.710  23.017  26.332  1.00  0.00     0.124 C 
ATOM     11  C   UNL A   1      34.481  24.087  26.141  1.00  0.00     0.011 C 
ATOM     12  C   UNL A   1      32.944  22.096  26.388  1.00  0.00     0.180 C 
ATOM     13  C   UNL A   1      34.116  22.880  26.994  1.00  0.00     0.046 C 
BRANCH   8  14
ATOM     14  N   UNL A   1      32.112  24.150  24.110  1.00  0.00    -0.336 N 
ATOM     15  C   UNL A   1      30.973  23.565  23.411  1.00  0.00     0.331 C 
ATOM     16  H   UNL A   1      32.303  25.057  23.685  1.00  0.00     0.346 HD
ATOM     17  H   UNL A   1      32.865  23.469  24.016  1.00  0.00     0.346 HD
ENDBRANCH   8  14
BRANCH  12  18
ATOM     18  O   UNL A   1      33.194  21.661  25.046  1.00  0.00    -0.490 OA
BRANCH  18  19
ATOM     19  C   UNL A   1      33.497  20.362  24.784  1.00  0.00     0.119 A 
ATOM     20  C   UNL A   1      34.760  19.781  24.836  1.00  0.00     0.047 A 
ATOM     21  C   UNL A   1      32.398  19.583  24.415  1.00  0.00     0.047 A 
ATOM     22  C   UNL A   1      34.930  18.446  24.455  1.00  0.00     0.007 A 
ATOM     23  C   UNL A   1      32.563  18.249  24.045  1.00  0.00     0.007 A 
ATOM     24  C   UNL A   1      33.835  17.671  24.052  1.00  0.00    -0.051 A 
ATOM     25  C   UNL A   1      34.037  16.259  23.592  1.00  0.00     0.044 C 
ENDBRANCH  18  19
ENDBRANCH  12  18
ENDBRANCH   5   8
ENDBRANCH   3   4
ENDBRANCH   2   3
ENDBRANCH   1   2
BRANCH   1  26
ATOM     26  C   UNL A   1      32.202  30.189  26.745  1.00  0.00     0.116 C 
BRANCH  26  27
ATOM     27  N   UNL A   1      32.198  31.643  26.850  1.00  0.00    -0.352 N 
ATOM     28  C   UNL A   1      33.148  32.462  27.411  1.00  0.00     0.251 C 
ATOM     29  H   UNL A   1      31.412  32.098  26.469  1.00  0.00     0.163 HD
ATOM     30  O   UNL A   1      32.944  33.669  27.508  1.00  0.00    -0.269 OA
BRANCH  28  31
ATOM     31  C   UNL A   1      34.399  31.870  27.930  1.00  0.00     0.039 A 
ATOM     32  C   UNL A   1      35.532  32.679  28.049  1.00  0.00     0.014 A 
ATOM     33  C   UNL A   1      34.436  30.535  28.343  1.00  0.00     0.014 A 
ATOM     34  C   UNL A   1      36.683  32.167  28.649  1.00  0.00     0.010 A 
ATOM     35  C   UNL A   1      35.559  30.049  29.003  1.00  0.00     0.010 A 
ATOM     36  C   UNL A   1      36.694  30.860  29.164  1.00  0.00    -0.014 A 
BRANCH  36  37
ATOM     37  C   UNL A   1      37.872  30.322  29.890  1.00  0.00     0.031 A 
ATOM     38  C   UNL A   1      38.172  30.786  31.288  1.00  0.00     0.074 A 
ATOM     39  C   UNL A   1      38.722  29.492  29.254  1.00  0.00     0.049 A 
ATOM     40  N   UNL A   1      39.188  30.487  32.055  1.00  0.00    -0.248 NA
ATOM     41  C   UNL A   1      37.221  31.733  31.895  1.00  0.00     0.031 C 
ATOM     42  C   UNL A   1      38.584  29.036  27.869  1.00  0.00     0.029 A 
ATOM     43  N   UNL A   1      39.889  28.908  29.680  1.00  0.00    -0.354 N 
ATOM     44  C   UNL A   1      39.019  31.232  33.215  1.00  0.00     0.074 A 
ATOM     45  C   UNL A   1      37.823  32.025  33.040  1.00  0.00     0.031 C 
ATOM     46  C   UNL A   1      39.620  28.238  27.563  1.00  0.00     0.029 A 
ATOM     47  C   UNL A   1      40.508  28.146  28.717  1.00  0.00     0.049 A 
ATOM     48  H   UNL A   1      40.248  29.023  30.589  1.00  0.00     0.167 HD
ATOM     49  C   UNL A   1      39.773  31.232  34.340  1.00  0.00     0.034 A 
ATOM     50  C   UNL A   1      41.663  27.452  28.760  1.00  0.00     0.034 A 
ATOM     51  C   UNL A   1      40.932  30.403  34.532  1.00  0.00     0.049 A 
ATOM     52  C   UNL A   1      42.454  27.429  30.040  1.00  0.00     0.074 A 
ATOM     53  C   UNL A   1      41.713  30.265  35.665  1.00  0.00     0.029 A 
ATOM     54  N   UNL A   1      41.476  29.568  33.567  1.00  0.00    -0.354 N 
ATOM     55  N   UNL A   1      42.192  28.016  31.182  1.00  0.00    -0.248 NA
ATOM     56  C   UNL A   1      43.680  26.617  30.050  1.00  0.00     0.031 C 
ATOM     57  C   UNL A   1      42.735  29.352  35.383  1.00  0.00     0.029 A 
ATOM     58  C   UNL A   1      42.582  28.913  34.078  1.00  0.00     0.049 A 
ATOM     59  H   UNL A   1      41.126  29.459  32.654  1.00  0.00     0.167 HD
ATOM     60  C   UNL A   1      43.197  27.619  32.055  1.00  0.00     0.074 A 
ATOM     61  C   UNL A   1      44.063  26.723  31.315  1.00  0.00     0.031 C 
ATOM     62  C   UNL A   1      43.396  27.976  33.348  1.00  0.00     0.034 A 
BRANCH  49  63
ATOM     63  C   UNL A   1      39.323  32.106  35.480  1.00  0.00     0.023 A 
ATOM     64  C   UNL A   1      38.429  31.583  36.437  1.00  0.00     0.012 A 
ATOM     65  C   UNL A   1      39.817  33.415  35.639  1.00  0.00     0.148 A 
ATOM     66  C   UNL A   1      38.006  32.358  37.515  1.00  0.00     0.002 A 
ATOM     67  C   UNL A   1      39.424  34.168  36.740  1.00  0.00     0.091 A 
ATOM     68  F   UNL A   1      40.647  33.904  34.707  1.00  0.00    -0.205 F 
ATOM     69  C   UNL A   1      38.512  33.646  37.672  1.00  0.00     0.022 A 
BRANCH  67  70
ATOM     70  S   UNL A   1      40.074  35.811  37.071  1.00  0.00     0.127 S 
ATOM     71  O   UNL A   1      41.502  35.537  37.221  1.00  0.00    -0.237 OA
ATOM     72  O   UNL A   1      39.716  36.536  35.852  1.00  0.00    -0.237 OA
ATOM     73  O   UNL A   1      39.394  36.274  38.273  1.00  0.00    -0.744 OA
ENDBRANCH  67  70
ENDBRANCH  49  63
BRANCH  50  74
ATOM     74  C   UNL A   1      42.092  26.649  27.580  1.00  0.00     0.023 A 
ATOM     75  C   UNL A   1      42.840  27.275  26.563  1.00  0.00     0.012 A 
ATOM     76  C   UNL A   1      41.799  25.277  27.471  1.00  0.00     0.148 A 
ATOM     77  C   UNL A   1      43.264  26.556  25.445  1.00  0.00     0.002 A 
ATOM     78  C   UNL A   1      42.268  24.554  26.379  1.00  0.00     0.091 A 
ATOM     79  F   UNL A   1      41.075  24.703  28.441  1.00  0.00    -0.205 F 
ATOM     80  C   UNL A   1      42.987  25.195  25.358  1.00  0.00     0.022 A 
BRANCH  78  81
ATOM     81  S   UNL A   1      42.070  22.774  26.248  1.00  0.00     0.127 S 
ATOM     82  O   UNL A   1      42.716  22.493  24.969  1.00  0.00    -0.237 OA
ATOM     83  O   UNL A   1      42.800  22.299  27.425  1.00  0.00    -0.237 OA
ATOM     84  O   UNL A   1      40.634  22.537  26.302  1.00  0.00    -0.744 OA
ENDBRANCH  78  81
ENDBRANCH  50  74
BRANCH  62  85
ATOM     85  C   UNL A   1      44.577  27.377  34.064  1.00  0.00     0.023 A 
ATOM     86  C   UNL A   1      45.823  28.032  34.023  1.00  0.00     0.012 A 
ATOM     87  C   UNL A   1      44.431  26.212  34.843  1.00  0.00     0.148 A 
ATOM     88  C   UNL A   1      46.914  27.523  34.725  1.00  0.00     0.002 A 
ATOM     89  C   UNL A   1      45.512  25.736  35.577  1.00  0.00     0.091 A 
ATOM     90  F   UNL A   1      43.243  25.592  34.853  1.00  0.00    -0.205 F 
ATOM     91  C   UNL A   1      46.756  26.384  35.512  1.00  0.00     0.022 A 
BRANCH  89  92
ATOM     92  S   UNL A   1      45.372  24.330  36.687  1.00  0.00     0.127 S 
ATOM     93  O   UNL A   1      46.746  24.191  37.166  1.00  0.00    -0.237 OA
ATOM     94  O   UNL A   1      44.423  24.817  37.690  1.00  0.00    -0.237 OA
ATOM     95  O   UNL A   1      44.874  23.229  35.874  1.00  0.00    -0.744 OA
ENDBRANCH  89  92
ENDBRANCH  62  85
ENDBRANCH  36  37
ENDBRANCH  28  31
ENDBRANCH  26  27
ENDBRANCH   1  26
TORSDOF 17
ENDMDL
MODEL 2
REMARK VINA RESULT:     -12.1      5.088     10.591
REMARK SMILES C[NH2+][C@]1(C(=O)NCCCCNC(=O)c2ccc(-c3c4nc(c(-c5cccc(S(=O)(=O)[O-])c5F)c5ccc([nH]5)c(-c5cccc(S(=O)(=O)[O-])c5F)c5nc(c(-c6cccc(S(=O)(=O)[O-])c6F)c6ccc3[nH]6)C=C5)C=C4)cc2)CCC[C@H](Oc2ccc(C)cc2)C1
REMARK SMILES IDX 9 1 8 2 7 3 6 4 4 5 5 6 3 8 77 9 89 10 78 11 80 12 79 13
REMARK SMILES IDX 2 14 1 15 81 18 82 19 83 20 88 21 84 22 87 23 85 24 86 25
REMARK SMILES IDX 10 26 11 27 12 28 13 30 14 31 15 32 76 33 16 34 75 35 17 36
REMARK SMILES IDX 18 37 19 38 69 39 20 40 74 41 68 42 70 43 21 44 73 45 67 46
REMARK SMILES IDX 66 47 22 49 54 50 34 51 53 52 35 53 38 54 52 55 71 56 36 57
REMARK SMILES IDX 37 58 51 60 72 61 39 62 23 63 24 64 32 65 25 66 27 67 33 68
REMARK SMILES IDX 26 69 28 70 29 71 30 72 31 73 55 74 56 75 64 76 57 77 59 78
REMARK SMILES IDX 65 79 58 80 60 81 61 82 62 83 63 84 40 85 41 86 49 87 42 88
REMARK SMILES IDX 44 89 50 90 43 91 45 92 46 93 47 94 48 95
REMARK H PARENT 6 7 2 16 2 17 11 29 70 48 38 59
REMARK Flexibility Score: inf
ROOT
ATOM      1  C   UNL A   1      36.328  21.106  24.769  1.00  0.00     0.023 C 
ENDROOT
BRANCH   1   2
ATOM      2  C   UNL A   1      35.236  21.370  25.805  1.00  0.00     0.023 C 
BRANCH   2   3
ATOM      3  C   UNL A   1      33.951  21.987  25.248  1.00  0.00     0.116 C 
BRANCH   3   4
ATOM      4  N   UNL A   1      34.102  22.408  23.868  1.00  0.00    -0.351 N 
ATOM      5  C   UNL A   1      33.731  23.536  23.188  1.00  0.00     0.281 C 
ATOM      6  O   UNL A   1      33.947  23.492  21.973  1.00  0.00    -0.268 OA
ATOM      7  H   UNL A   1      34.567  21.748  23.306  1.00  0.00     0.163 HD
BRANCH   5   8
ATOM      8  C   UNL A   1      33.103  24.794  23.908  1.00  0.00     0.178 C 
ATOM      9  C   UNL A   1      34.017  25.176  25.109  1.00  0.00     0.079 C 
ATOM     10  C   UNL A   1      32.929  25.967  22.898  1.00  0.00     0.124 C 
ATOM     11  C   UNL A   1      33.789  26.571  25.682  1.00  0.00     0.011 C 
ATOM     12  C   UNL A   1      32.653  27.332  23.557  1.00  0.00     0.180 C 
ATOM     13  C   UNL A   1      33.763  27.618  24.578  1.00  0.00     0.046 C 
BRANCH   8  14
ATOM     14  N   UNL A   1      31.800  24.441  24.564  1.00  0.00    -0.336 N 
ATOM     15  C   UNL A   1      30.815  23.759  23.732  1.00  0.00     0.331 C 
ATOM     16  H   UNL A   1      32.007  23.835  25.358  1.00  0.00     0.346 HD
ATOM     17  H   UNL A   1      31.372  25.334  24.811  1.00  0.00     0.346 HD
ENDBRANCH   8  14
BRANCH  12  18
ATOM     18  O   UNL A   1      31.353  27.247  24.150  1.00  0.00    -0.490 OA
BRANCH  18  19
ATOM     19  C   UNL A   1      30.391  28.159  23.847  1.00  0.00     0.119 A 
ATOM     20  C   UNL A   1      29.176  27.902  23.222  1.00  0.00     0.047 A 
ATOM     21  C   UNL A   1      30.715  29.469  24.204  1.00  0.00     0.047 A 
ATOM     22  C   UNL A   1      28.320  28.960  22.896  1.00  0.00     0.007 A 
ATOM     23  C   UNL A   1      29.860  30.525  23.891  1.00  0.00     0.007 A 
ATOM     24  C   UNL A   1      28.658  30.279  23.223  1.00  0.00    -0.051 A 
ATOM     25  C   UNL A   1      27.761  31.410  22.820  1.00  0.00     0.044 C 
ENDBRANCH  18  19
ENDBRANCH  12  18
ENDBRANCH   5   8
ENDBRANCH   3   4
ENDBRANCH   2   3
ENDBRANCH   1   2
BRANCH   1  26
ATOM     26  C   UNL A   1      37.699  21.673  25.109  1.00  0.00     0.116 C 
BRANCH  26  27
ATOM     27  N   UNL A   1      38.626  20.672  25.623  1.00  0.00    -0.352 N 
ATOM     28  C   UNL A   1      39.763  20.864  26.371  1.00  0.00     0.251 C 
ATOM     29  H   UNL A   1      38.411  19.736  25.405  1.00  0.00     0.163 HD
ATOM     30  O   UNL A   1      40.494  19.915  26.640  1.00  0.00    -0.269 OA
BRANCH  28  31
ATOM     31  C   UNL A   1      40.116  22.229  26.814  1.00  0.00     0.039 A 
ATOM     32  C   UNL A   1      41.033  22.386  27.857  1.00  0.00     0.014 A 
ATOM     33  C   UNL A   1      39.581  23.347  26.169  1.00  0.00     0.014 A 
ATOM     34  C   UNL A   1      41.467  23.666  28.206  1.00  0.00     0.010 A 
ATOM     35  C   UNL A   1      40.068  24.615  26.469  1.00  0.00     0.010 A 
ATOM     36  C   UNL A   1      41.016  24.787  27.490  1.00  0.00    -0.014 A 
BRANCH  36  37
ATOM     37  C   UNL A   1      41.532  26.149  27.777  1.00  0.00     0.031 A 
ATOM     38  C   UNL A   1      42.929  26.527  27.370  1.00  0.00     0.074 A 
ATOM     39  C   UNL A   1      40.778  27.009  28.489  1.00  0.00     0.049 A 
ATOM     40  N   UNL A   1      43.580  27.639  27.594  1.00  0.00    -0.248 NA
ATOM     41  C   UNL A   1      43.708  25.513  26.639  1.00  0.00     0.031 C 
ATOM     42  C   UNL A   1      39.438  26.729  29.013  1.00  0.00     0.029 A 
ATOM     43  N   UNL A   1      41.041  28.285  28.921  1.00  0.00    -0.354 N 
ATOM     44  C   UNL A   1      44.851  27.447  27.067  1.00  0.00     0.074 A 
ATOM     45  C   UNL A   1      44.893  26.100  26.542  1.00  0.00     0.031 C 
ATOM     46  C   UNL A   1      38.997  27.802  29.689  1.00  0.00     0.029 A 
ATOM     47  C   UNL A   1      40.026  28.835  29.669  1.00  0.00     0.049 A 
ATOM     48  H   UNL A   1      41.878  28.762  28.715  1.00  0.00     0.167 HD
ATOM     49  C   UNL A   1      45.880  28.323  26.995  1.00  0.00     0.034 A 
ATOM     50  C   UNL A   1      39.937  30.038  30.271  1.00  0.00     0.034 A 
ATOM     51  C   UNL A   1      45.817  29.679  27.470  1.00  0.00     0.049 A 
ATOM     52  C   UNL A   1      41.077  31.011  30.132  1.00  0.00     0.074 A 
ATOM     53  C   UNL A   1      46.775  30.672  27.366  1.00  0.00     0.029 A 
ATOM     54  N   UNL A   1      44.736  30.234  28.137  1.00  0.00    -0.354 N 
ATOM     55  N   UNL A   1      42.211  30.866  29.491  1.00  0.00    -0.248 NA
ATOM     56  C   UNL A   1      40.909  32.327  30.766  1.00  0.00     0.031 C 
ATOM     57  C   UNL A   1      46.275  31.826  27.978  1.00  0.00     0.029 A 
ATOM     58  C   UNL A   1      45.002  31.555  28.451  1.00  0.00     0.049 A 
ATOM     59  H   UNL A   1      43.902  29.757  28.354  1.00  0.00     0.167 HD
ATOM     60  C   UNL A   1      42.876  32.080  29.614  1.00  0.00     0.074 A 
ATOM     61  C   UNL A   1      42.008  32.957  30.373  1.00  0.00     0.031 C 
ATOM     62  C   UNL A   1      44.102  32.433  29.153  1.00  0.00     0.034 A 
BRANCH  49  63
ATOM     63  C   UNL A   1      47.140  27.863  26.312  1.00  0.00     0.023 A 
ATOM     64  C   UNL A   1      48.161  27.266  27.079  1.00  0.00     0.012 A 
ATOM     65  C   UNL A   1      47.297  27.968  24.916  1.00  0.00     0.148 A 
ATOM     66  C   UNL A   1      49.333  26.812  26.476  1.00  0.00     0.002 A 
ATOM     67  C   UNL A   1      48.450  27.475  24.316  1.00  0.00     0.091 A 
ATOM     68  F   UNL A   1      46.326  28.560  24.205  1.00  0.00    -0.205 F 
ATOM     69  C   UNL A   1      49.473  26.908  25.094  1.00  0.00     0.022 A 
BRANCH  67  70
ATOM     70  S   UNL A   1      48.695  27.485  22.535  1.00  0.00     0.127 S 
ATOM     71  O   UNL A   1      49.998  28.136  22.421  1.00  0.00    -0.237 OA
ATOM     72  O   UNL A   1      48.696  26.058  22.216  1.00  0.00    -0.237 OA
ATOM     73  O   UNL A   1      47.571  28.228  21.982  1.00  0.00    -0.744 OA
ENDBRANCH  67  70
ENDBRANCH  49  63
BRANCH  50  74
ATOM     74  C   UNL A   1      38.687  30.421  30.986  1.00  0.00     0.023 A 
ATOM     75  C   UNL A   1      38.549  30.091  32.349  1.00  0.00     0.012 A 
ATOM     76  C   UNL A   1      37.655  31.131  30.344  1.00  0.00     0.148 A 
ATOM     77  C   UNL A   1      37.395  30.436  33.053  1.00  0.00     0.002 A 
ATOM     78  C   UNL A   1      36.529  31.517  31.065  1.00  0.00     0.091 A 
ATOM     79  F   UNL A   1      37.798  31.424  29.044  1.00  0.00    -0.205 F 
ATOM     80  C   UNL A   1      36.391  31.157  32.414  1.00  0.00     0.022 A 
BRANCH  78  81
ATOM     81  S   UNL A   1      35.247  32.558  30.358  1.00  0.00     0.127 S 
ATOM     82  O   UNL A   1      35.992  33.772  30.032  1.00  0.00    -0.237 OA
ATOM     83  O   UNL A   1      34.817  31.770  29.203  1.00  0.00    -0.237 OA
ATOM     84  O   UNL A   1      34.237  32.692  31.399  1.00  0.00    -0.744 OA
ENDBRANCH  78  81
ENDBRANCH  50  74
BRANCH  62  85
ATOM     85  C   UNL A   1      44.573  33.836  29.427  1.00  0.00     0.023 A 
ATOM     86  C   UNL A   1      45.191  34.137  30.656  1.00  0.00     0.012 A 
ATOM     87  C   UNL A   1      44.480  34.833  28.436  1.00  0.00     0.148 A 
ATOM     88  C   UNL A   1      45.684  35.416  30.906  1.00  0.00     0.002 A 
ATOM     89  C   UNL A   1      45.014  36.094  28.676  1.00  0.00     0.091 A 
ATOM     90  F   UNL A   1      43.870  34.533  27.280  1.00  0.00    -0.205 F 
ATOM     91  C   UNL A   1      45.608  36.390  29.914  1.00  0.00     0.022 A 
BRANCH  89  92
ATOM     92  S   UNL A   1      45.042  37.378  27.420  1.00  0.00     0.127 S 
ATOM     93  O   UNL A   1      45.665  38.487  28.141  1.00  0.00    -0.237 OA
ATOM     94  O   UNL A   1      45.880  36.781  26.379  1.00  0.00    -0.237 OA
ATOM     95  O   UNL A   1      43.654  37.583  27.029  1.00  0.00    -0.744 OA
ENDBRANCH  89  92
ENDBRANCH  62  85
ENDBRANCH  36  37
ENDBRANCH  28  31
ENDBRANCH  26  27
ENDBRANCH   1  26
TORSDOF 17
ENDMDL
MODEL 3
REMARK VINA RESULT:     -12.0      1.495      1.813
REMARK SMILES C[NH2+][C@]1(C(=O)NCCCCNC(=O)c2ccc(-c3c4nc(c(-c5cccc(S(=O)(=O)[O-])c5F)c5ccc([nH]5)c(-c5cccc(S(=O)(=O)[O-])c5F)c5nc(c(-c6cccc(S(=O)(=O)[O-])c6F)c6ccc3[nH]6)C=C5)C=C4)cc2)CCC[C@H](Oc2ccc(C)cc2)C1
REMARK SMILES IDX 9 1 8 2 7 3 6 4 4 5 5 6 3 8 77 9 89 10 78 11 80 12 79 13
REMARK SMILES IDX 2 14 1 15 81 18 82 19 83 20 88 21 84 22 87 23 85 24 86 25
REMARK SMILES IDX 10 26 11 27 12 28 13 30 14 31 15 32 76 33 16 34 75 35 17 36
REMARK SMILES IDX 18 37 19 38 69 39 20 40 74 41 68 42 70 43 21 44 73 45 67 46
REMARK SMILES IDX 66 47 22 49 54 50 34 51 53 52 35 53 38 54 52 55 71 56 36 57
REMARK SMILES IDX 37 58 51 60 72 61 39 62 23 63 24 64 32 65 25 66 27 67 33 68
REMARK SMILES IDX 26 69 28 70 29 71 30 72 31 73 55 74 56 75 64 76 57 77 59 78
REMARK SMILES IDX 65 79 58 80 60 81 61 82 62 83 63 84 40 85 41 86 49 87 42 88
REMARK SMILES IDX 44 89 50 90 43 91 45 92 46 93 47 94 48 95
REMARK H PARENT 6 7 2 16 2 17 11 29 70 48 38 59
REMARK Flexibility Score: inf
ROOT
ATOM      1  C   UNL A   1      31.582  29.126  26.023  1.00  0.00     0.023 C 
ENDROOT
BRANCH   1   2
ATOM      2  C   UNL A   1      31.738  28.020  27.065  1.00  0.00     0.023 C 
BRANCH   2   3
ATOM      3  C   UNL A   1      31.026  26.708  26.730  1.00  0.00     0.116 C 
BRANCH   3   4
ATOM      4  N   UNL A   1      30.655  26.633  25.329  1.00  0.00    -0.351 N 
ATOM      5  C   UNL A   1      31.164  25.945  24.262  1.00  0.00     0.281 C 
ATOM      6  O   UNL A   1      30.632  26.216  23.181  1.00  0.00    -0.268 OA
ATOM      7  H   UNL A   1      29.877  27.191  25.100  1.00  0.00     0.163 HD
BRANCH   5   8
ATOM      8  C   UNL A   1      32.317  24.875  24.413  1.00  0.00     0.178 C 
ATOM      9  C   UNL A   1      33.501  25.537  25.178  1.00  0.00     0.079 C 
ATOM     10  C   UNL A   1      31.783  23.600  25.132  1.00  0.00     0.124 C 
ATOM     11  C   UNL A   1      34.531  24.568  25.747  1.00  0.00     0.011 C 
ATOM     12  C   UNL A   1      32.888  22.650  25.633  1.00  0.00     0.180 C 
ATOM     13  C   UNL A   1      33.855  23.445  26.521  1.00  0.00     0.046 C 
BRANCH   8  14
ATOM     14  N   UNL A   1      32.913  24.539  23.077  1.00  0.00    -0.336 N 
ATOM     15  C   UNL A   1      33.656  25.601  22.409  1.00  0.00     0.331 C 
ATOM     16  H   UNL A   1      33.549  23.753  23.211  1.00  0.00     0.346 HD
ATOM     17  H   UNL A   1      32.118  24.343  22.469  1.00  0.00     0.346 HD
ENDBRANCH   8  14
BRANCH  12  18
ATOM     18  O   UNL A   1      33.517  22.101  24.470  1.00  0.00    -0.490 OA
BRANCH  18  19
ATOM     19  C   UNL A   1      33.478  20.764  24.226  1.00  0.00     0.119 A 
ATOM     20  C   UNL A   1      32.471  20.075  23.557  1.00  0.00     0.047 A 
ATOM     21  C   UNL A   1      34.571  20.060  24.733  1.00  0.00     0.047 A 
ATOM     22  C   UNL A   1      32.527  18.681  23.457  1.00  0.00     0.007 A 
ATOM     23  C   UNL A   1      34.636  18.671  24.625  1.00  0.00     0.007 A 
ATOM     24  C   UNL A   1      33.607  17.968  23.994  1.00  0.00    -0.051 A 
ATOM     25  C   UNL A   1      33.629  16.471  23.931  1.00  0.00     0.044 C 
ENDBRANCH  18  19
ENDBRANCH  12  18
ENDBRANCH   5   8
ENDBRANCH   3   4
ENDBRANCH   2   3
ENDBRANCH   1   2
BRANCH   1  26
ATOM     26  C   UNL A   1      32.784  30.048  25.867  1.00  0.00     0.116 C 
BRANCH  26  27
ATOM     27  N   UNL A   1      32.540  31.401  26.351  1.00  0.00    -0.352 N 
ATOM     28  C   UNL A   1      33.272  32.130  27.258  1.00  0.00     0.251 C 
ATOM     29  H   UNL A   1      31.747  31.853  25.980  1.00  0.00     0.163 HD
ATOM     30  O   UNL A   1      32.871  33.227  27.636  1.00  0.00    -0.269 OA
BRANCH  28  31
ATOM     31  C   UNL A   1      34.523  31.562  27.801  1.00  0.00     0.039 A 
ATOM     32  C   UNL A   1      35.618  32.407  28.003  1.00  0.00     0.014 A 
ATOM     33  C   UNL A   1      34.597  30.211  28.154  1.00  0.00     0.014 A 
ATOM     34  C   UNL A   1      36.764  31.911  28.626  1.00  0.00     0.010 A 
ATOM     35  C   UNL A   1      35.712  29.738  28.838  1.00  0.00     0.010 A 
ATOM     36  C   UNL A   1      36.806  30.583  29.081  1.00  0.00    -0.014 A 
BRANCH  36  37
ATOM     37  C   UNL A   1      37.975  30.056  29.830  1.00  0.00     0.031 A 
ATOM     38  C   UNL A   1      38.252  30.536  31.228  1.00  0.00     0.074 A 
ATOM     39  C   UNL A   1      38.838  29.223  29.216  1.00  0.00     0.049 A 
ATOM     40  N   UNL A   1      39.258  30.248  32.013  1.00  0.00    -0.248 NA
ATOM     41  C   UNL A   1      37.289  31.485  31.811  1.00  0.00     0.031 C 
ATOM     42  C   UNL A   1      38.721  28.752  27.833  1.00  0.00     0.029 A 
ATOM     43  N   UNL A   1      40.000  28.647  29.665  1.00  0.00    -0.354 N 
ATOM     44  C   UNL A   1      39.069  31.004  33.163  1.00  0.00     0.074 A 
ATOM     45  C   UNL A   1      37.873  31.791  32.961  1.00  0.00     0.031 C 
ATOM     46  C   UNL A   1      39.765  27.956  27.551  1.00  0.00     0.029 A 
ATOM     47  C   UNL A   1      40.636  27.878  28.718  1.00  0.00     0.049 A 
ATOM     48  H   UNL A   1      40.345  28.773  30.578  1.00  0.00     0.167 HD
ATOM     49  C   UNL A   1      39.806  31.018  34.299  1.00  0.00     0.034 A 
ATOM     50  C   UNL A   1      41.792  27.188  28.786  1.00  0.00     0.034 A 
ATOM     51  C   UNL A   1      40.965  30.195  34.516  1.00  0.00     0.049 A 
ATOM     52  C   UNL A   1      42.564  27.182  30.078  1.00  0.00     0.074 A 
ATOM     53  C   UNL A   1      41.729  30.071  35.663  1.00  0.00     0.029 A 
ATOM     54  N   UNL A   1      41.526  29.352  33.569  1.00  0.00    -0.354 N 
ATOM     55  N   UNL A   1      42.283  27.779  31.210  1.00  0.00    -0.248 NA
ATOM     56  C   UNL A   1      43.793  26.374  30.114  1.00  0.00     0.031 C 
ATOM     57  C   UNL A   1      42.758  29.159  35.405  1.00  0.00     0.029 A 
ATOM     58  C   UNL A   1      42.627  28.706  34.102  1.00  0.00     0.049 A 
ATOM     59  H   UNL A   1      41.190  29.233  32.651  1.00  0.00     0.167 HD
ATOM     60  C   UNL A   1      43.277  27.394  32.102  1.00  0.00     0.074 A 
ATOM     61  C   UNL A   1      44.156  26.494  31.384  1.00  0.00     0.031 C 
ATOM     62  C   UNL A   1      43.455  27.765  33.394  1.00  0.00     0.034 A 
BRANCH  49  63
ATOM     63  C   UNL A   1      39.336  31.901  35.423  1.00  0.00     0.023 A 
ATOM     64  C   UNL A   1      39.634  33.279  35.388  1.00  0.00     0.012 A 
ATOM     65  C   UNL A   1      38.559  31.389  36.481  1.00  0.00     0.148 A 
ATOM     66  C   UNL A   1      39.198  34.128  36.404  1.00  0.00     0.002 A 
ATOM     67  C   UNL A   1      38.093  32.250  37.468  1.00  0.00     0.091 A 
ATOM     68  F   UNL A   1      38.306  30.073  36.511  1.00  0.00    -0.205 F 
ATOM     69  C   UNL A   1      38.420  33.615  37.438  1.00  0.00     0.022 A 
BRANCH  67  70
ATOM     70  S   UNL A   1      37.021  31.700  38.803  1.00  0.00     0.127 S 
ATOM     71  O   UNL A   1      37.875  31.911  39.971  1.00  0.00    -0.237 OA
ATOM     72  O   UNL A   1      35.895  32.627  38.697  1.00  0.00    -0.237 OA
ATOM     73  O   UNL A   1      36.694  30.312  38.507  1.00  0.00    -0.744 OA
ENDBRANCH  67  70
ENDBRANCH  49  63
BRANCH  50  74
ATOM     74  C   UNL A   1      42.242  26.376  27.621  1.00  0.00     0.023 A 
ATOM     75  C   UNL A   1      43.072  26.972  26.651  1.00  0.00     0.012 A 
ATOM     76  C   UNL A   1      41.887  25.021  27.481  1.00  0.00     0.148 A 
ATOM     77  C   UNL A   1      43.517  26.243  25.548  1.00  0.00     0.002 A 
ATOM     78  C   UNL A   1      42.376  24.285  26.407  1.00  0.00     0.091 A 
ATOM     79  F   UNL A   1      41.086  24.475  28.407  1.00  0.00    -0.205 F 
ATOM     80  C   UNL A   1      43.178  24.898  25.431  1.00  0.00     0.022 A 
BRANCH  78  81
ATOM     81  S   UNL A   1      42.097  22.518  26.246  1.00  0.00     0.127 S 
ATOM     82  O   UNL A   1      42.692  22.008  27.478  1.00  0.00    -0.237 OA
ATOM     83  O   UNL A   1      40.636  22.445  26.191  1.00  0.00    -0.237 OA
ATOM     84  O   UNL A   1      42.762  22.130  25.010  1.00  0.00    -0.744 OA
ENDBRANCH  78  81
ENDBRANCH  50  74
BRANCH  62  85
ATOM     85  C   UNL A   1      44.627  27.178  34.133  1.00  0.00     0.023 A 
ATOM     86  C   UNL A   1      45.853  27.870  34.161  1.00  0.00     0.012 A 
ATOM     87  C   UNL A   1      44.489  25.983  34.868  1.00  0.00     0.148 A 
ATOM     88  C   UNL A   1      46.933  27.370  34.886  1.00  0.00     0.002 A 
ATOM     89  C   UNL A   1      45.557  25.515  35.625  1.00  0.00     0.091 A 
ATOM     90  F   UNL A   1      43.321  25.328  34.813  1.00  0.00    -0.205 F 
ATOM     91  C   UNL A   1      46.782  26.201  35.628  1.00  0.00     0.022 A 
BRANCH  89  92
ATOM     92  S   UNL A   1      45.420  24.069  36.683  1.00  0.00     0.127 S 
ATOM     93  O   UNL A   1      46.821  23.802  37.006  1.00  0.00    -0.237 OA
ATOM     94  O   UNL A   1      44.622  24.573  37.802  1.00  0.00    -0.237 OA
ATOM     95  O   UNL A   1      44.755  23.050  35.882  1.00  0.00    -0.744 OA
ENDBRANCH  89  92
ENDBRANCH  62  85
ENDBRANCH  36  37
ENDBRANCH  28  31
ENDBRANCH  26  27
ENDBRANCH   1  26
TORSDOF 17
ENDMDL
