MODEL 1
REMARK VINA RESULT:     -11.5      0.000      0.000
REMARK SMILES C[C@@H](NC(=O)c1cc(C(=O)NCCCCNC(=O)c2ccc(-c3c4nc(c(-c5cccc(S(=O)(=O)[O-])c5F)c5ccc([nH]5)c(-c5cccc(S(=O)(=O)[O-])c5F)c5nc(c(-c6cccc(S(=O)(=O)[O-])c6F)c6ccc3[nH]6)C=C5)C=C4)cc2)n(C)n1)c1ccccc1
REMARK SMILES IDX 13 1 12 2 11 3 9 4 10 5 8 7 6 8 7 9 84 10 82 11 83 12 4 13
REMARK SMILES IDX 3 14 5 16 2 17 1 18 85 19 86 20 90 21 87 22 89 23 88 24
REMARK SMILES IDX 14 25 15 26 16 27 17 28 18 30 19 31 20 32 81 33 21 34 80 35
REMARK SMILES IDX 22 36 23 37 24 38 74 39 25 40 79 41 73 42 75 43 26 44 78 45
REMARK SMILES IDX 72 46 71 47 27 49 59 50 39 51 58 52 40 53 43 54 57 55 76 56
REMARK SMILES IDX 41 57 42 58 56 60 77 61 44 62 28 63 29 64 37 65 30 66 32 67
REMARK SMILES IDX 38 68 31 69 33 70 34 71 35 72 36 73 60 74 61 75 69 76 62 77
REMARK SMILES IDX 64 78 70 79 63 80 65 81 66 82 67 83 68 84 45 85 46 86 54 87
REMARK SMILES IDX 47 88 49 89 55 90 48 91 50 92 51 93 52 94 53 95
REMARK H PARENT 11 6 3 15 16 29 75 48 43 59
REMARK Flexibility Score: inf
ROOT
ATOM      1  C   UNL A   1      33.943  28.789  24.540  1.00  0.00     0.023 C 
ENDROOT
BRANCH   1   2
ATOM      2  C   UNL A   1      33.325  28.876  23.144  1.00  0.00     0.116 C 
BRANCH   2   3
ATOM      3  N   UNL A   1      33.617  27.714  22.350  1.00  0.00    -0.351 N 
ATOM      4  C   UNL A   1      33.148  26.433  22.308  1.00  0.00     0.269 C 
ATOM      5  O   UNL A   1      33.482  25.843  21.270  1.00  0.00    -0.268 OA
ATOM      6  H   UNL A   1      34.318  27.882  21.678  1.00  0.00     0.163 HD
BRANCH   4   7
ATOM      7  C   UNL A   1      32.361  25.736  23.315  1.00  0.00     0.126 A 
ATOM      8  C   UNL A   1      32.063  24.501  25.179  1.00  0.00     0.151 A 
ATOM      9  C   UNL A   1      32.948  24.756  24.120  1.00  0.00     0.069 A 
ATOM     10  N   UNL A   1      30.890  25.099  24.952  1.00  0.00    -0.167 NA
ATOM     11  N   UNL A   1      31.094  25.852  23.848  1.00  0.00    -0.262 N 
ATOM     12  C   UNL A   1      29.974  26.687  23.504  1.00  0.00     0.174 C 
BRANCH   8  13
ATOM     13  C   UNL A   1      32.289  23.703  26.371  1.00  0.00     0.272 C 
ATOM     14  N   UNL A   1      33.320  22.800  26.416  1.00  0.00    -0.344 N 
ATOM     15  H   UNL A   1      33.480  22.469  27.329  1.00  0.00     0.164 HD
ATOM     16  O   UNL A   1      31.593  23.822  27.382  1.00  0.00    -0.267 OA
BRANCH  14  17
ATOM     17  C   UNL A   1      34.248  22.204  25.448  1.00  0.00     0.109 C 
ATOM     18  C   UNL A   1      33.933  20.707  25.311  1.00  0.00     0.036 C 
BRANCH  17  19
ATOM     19  C   UNL A   1      35.736  22.446  25.586  1.00  0.00    -0.026 A 
ATOM     20  C   UNL A   1      36.631  21.391  25.334  1.00  0.00     0.006 A 
ATOM     21  C   UNL A   1      36.266  23.673  26.017  1.00  0.00     0.006 A 
ATOM     22  C   UNL A   1      38.008  21.557  25.508  1.00  0.00     0.000 A 
ATOM     23  C   UNL A   1      37.644  23.835  26.199  1.00  0.00     0.000 A 
ATOM     24  C   UNL A   1      38.514  22.779  25.943  1.00  0.00     0.000 A 
ENDBRANCH  17  19
ENDBRANCH  14  17
ENDBRANCH   8  13
ENDBRANCH   4   7
ENDBRANCH   2   3
ENDBRANCH   1   2
BRANCH   1  25
ATOM     25  C   UNL A   1      32.980  28.445  25.678  1.00  0.00     0.023 C 
BRANCH  25  26
ATOM     26  C   UNL A   1      33.474  28.756  27.084  1.00  0.00     0.116 C 
BRANCH  26  27
ATOM     27  N   UNL A   1      33.504  30.175  27.402  1.00  0.00    -0.352 N 
ATOM     28  C   UNL A   1      34.516  30.896  27.998  1.00  0.00     0.251 C 
ATOM     29  H   UNL A   1      32.697  30.686  27.162  1.00  0.00     0.163 HD
ATOM     30  O   UNL A   1      34.358  32.079  28.253  1.00  0.00    -0.269 OA
BRANCH  28  31
ATOM     31  C   UNL A   1      35.769  30.202  28.370  1.00  0.00     0.039 A 
ATOM     32  C   UNL A   1      36.832  30.212  27.465  1.00  0.00     0.014 A 
ATOM     33  C   UNL A   1      35.910  29.595  29.621  1.00  0.00     0.014 A 
ATOM     34  C   UNL A   1      38.064  29.677  27.844  1.00  0.00     0.010 A 
ATOM     35  C   UNL A   1      37.157  29.129  30.023  1.00  0.00     0.010 A 
ATOM     36  C   UNL A   1      38.246  29.169  29.140  1.00  0.00    -0.014 A 
BRANCH  36  37
ATOM     37  C   UNL A   1      39.574  28.686  29.596  1.00  0.00     0.031 A 
ATOM     38  C   UNL A   1      40.328  29.436  30.659  1.00  0.00     0.074 A 
ATOM     39  C   UNL A   1      40.136  27.621  28.989  1.00  0.00     0.049 A 
ATOM     40  N   UNL A   1      41.518  29.202  31.146  1.00  0.00    -0.248 NA
ATOM     41  C   UNL A   1      39.669  30.623  31.234  1.00  0.00     0.031 C 
ATOM     42  C   UNL A   1      39.542  26.865  27.882  1.00  0.00     0.029 A 
ATOM     43  N   UNL A   1      41.344  27.004  29.199  1.00  0.00    -0.354 N 
ATOM     44  C   UNL A   1      41.761  30.216  32.064  1.00  0.00     0.074 A 
ATOM     45  C   UNL A   1      40.612  31.097  32.035  1.00  0.00     0.031 C 
ATOM     46  C   UNL A   1      40.386  25.887  27.514  1.00  0.00     0.029 A 
ATOM     47  C   UNL A   1      41.585  25.955  28.342  1.00  0.00     0.049 A 
ATOM     48  H   UNL A   1      41.976  27.285  29.899  1.00  0.00     0.167 HD
ATOM     49  C   UNL A   1      42.823  30.379  32.887  1.00  0.00     0.034 A 
ATOM     50  C   UNL A   1      42.655  25.140  28.239  1.00  0.00     0.034 A 
ATOM     51  C   UNL A   1      43.939  29.477  32.947  1.00  0.00     0.049 A 
ATOM     52  C   UNL A   1      43.795  25.312  29.206  1.00  0.00     0.074 A 
ATOM     53  C   UNL A   1      45.039  29.523  33.786  1.00  0.00     0.029 A 
ATOM     54  N   UNL A   1      44.095  28.359  32.143  1.00  0.00    -0.354 N 
ATOM     55  N   UNL A   1      43.934  26.190  30.170  1.00  0.00    -0.248 NA
ATOM     56  C   UNL A   1      44.906  24.355  29.101  1.00  0.00     0.031 C 
ATOM     57  C   UNL A   1      45.860  28.429  33.488  1.00  0.00     0.029 A 
ATOM     58  C   UNL A   1      45.266  27.699  32.472  1.00  0.00     0.049 A 
ATOM     59  H   UNL A   1      43.465  28.076  31.441  1.00  0.00     0.167 HD
ATOM     60  C   UNL A   1      45.127  25.868  30.808  1.00  0.00     0.074 A 
ATOM     61  C   UNL A   1      45.657  24.699  30.138  1.00  0.00     0.031 C 
ATOM     62  C   UNL A   1      45.741  26.497  31.840  1.00  0.00     0.034 A 
BRANCH  49  63
ATOM     63  C   UNL A   1      42.786  31.531  33.856  1.00  0.00     0.023 A 
ATOM     64  C   UNL A   1      43.284  32.785  33.445  1.00  0.00     0.012 A 
ATOM     65  C   UNL A   1      42.204  31.403  35.131  1.00  0.00     0.148 A 
ATOM     66  C   UNL A   1      43.228  33.887  34.296  1.00  0.00     0.002 A 
ATOM     67  C   UNL A   1      42.116  32.516  35.960  1.00  0.00     0.091 A 
ATOM     68  F   UNL A   1      41.753  30.199  35.511  1.00  0.00    -0.205 F 
ATOM     69  C   UNL A   1      42.635  33.755  35.548  1.00  0.00     0.022 A 
BRANCH  67  70
ATOM     70  S   UNL A   1      41.309  32.475  37.564  1.00  0.00     0.127 S 
ATOM     71  O   UNL A   1      41.333  33.887  37.943  1.00  0.00    -0.237 OA
ATOM     72  O   UNL A   1      39.982  31.956  37.228  1.00  0.00    -0.237 OA
ATOM     73  O   UNL A   1      42.114  31.593  38.399  1.00  0.00    -0.744 OA
ENDBRANCH  67  70
ENDBRANCH  49  63
BRANCH  50  74
ATOM     74  C   UNL A   1      42.665  24.037  27.235  1.00  0.00     0.023 A 
ATOM     75  C   UNL A   1      43.256  24.257  25.976  1.00  0.00     0.012 A 
ATOM     76  C   UNL A   1      42.103  22.779  27.517  1.00  0.00     0.148 A 
ATOM     77  C   UNL A   1      43.248  23.259  25.000  1.00  0.00     0.002 A 
ATOM     78  C   UNL A   1      42.147  21.769  26.561  1.00  0.00     0.091 A 
ATOM     79  F   UNL A   1      41.530  22.587  28.714  1.00  0.00    -0.205 F 
ATOM     80  C   UNL A   1      42.702  22.013  25.296  1.00  0.00     0.022 A 
BRANCH  78  81
ATOM     81  S   UNL A   1      41.587  20.102  26.923  1.00  0.00     0.127 S 
ATOM     82  O   UNL A   1      41.344  19.568  25.586  1.00  0.00    -0.237 OA
ATOM     83  O   UNL A   1      42.742  19.527  27.614  1.00  0.00    -0.237 OA
ATOM     84  O   UNL A   1      40.415  20.273  27.772  1.00  0.00    -0.744 OA
ENDBRANCH  78  81
ENDBRANCH  50  74
BRANCH  62  85
ATOM     85  C   UNL A   1      47.036  25.914  32.337  1.00  0.00     0.023 A 
ATOM     86  C   UNL A   1      47.034  25.078  33.471  1.00  0.00     0.012 A 
ATOM     87  C   UNL A   1      48.240  26.136  31.640  1.00  0.00     0.148 A 
ATOM     88  C   UNL A   1      48.218  24.496  33.923  1.00  0.00     0.002 A 
ATOM     89  C   UNL A   1      49.408  25.516  32.072  1.00  0.00     0.091 A 
ATOM     90  F   UNL A   1      48.225  26.951  30.576  1.00  0.00    -0.205 F 
ATOM     91  C   UNL A   1      49.400  24.706  33.219  1.00  0.00     0.022 A 
BRANCH  89  92
ATOM     92  S   UNL A   1      50.955  25.658  31.171  1.00  0.00     0.127 S 
ATOM     93  O   UNL A   1      51.809  24.717  31.893  1.00  0.00    -0.237 OA
ATOM     94  O   UNL A   1      50.575  25.227  29.825  1.00  0.00    -0.237 OA
ATOM     95  O   UNL A   1      51.343  27.060  31.266  1.00  0.00    -0.744 OA
ENDBRANCH  89  92
ENDBRANCH  62  85
ENDBRANCH  36  37
ENDBRANCH  28  31
ENDBRANCH  26  27
ENDBRANCH  25  26
ENDBRANCH   1  25
TORSDOF 17
ENDMDL
MODEL 2
REMARK VINA RESULT:     -11.4      2.747      3.489
REMARK SMILES C[C@@H](NC(=O)c1cc(C(=O)NCCCCNC(=O)c2ccc(-c3c4nc(c(-c5cccc(S(=O)(=O)[O-])c5F)c5ccc([nH]5)c(-c5cccc(S(=O)(=O)[O-])c5F)c5nc(c(-c6cccc(S(=O)(=O)[O-])c6F)c6ccc3[nH]6)C=C5)C=C4)cc2)n(C)n1)c1ccccc1
REMARK SMILES IDX 13 1 12 2 11 3 9 4 10 5 8 7 6 8 7 9 84 10 82 11 83 12 4 13
REMARK SMILES IDX 3 14 5 16 2 17 1 18 85 19 86 20 90 21 87 22 89 23 88 24
REMARK SMILES IDX 14 25 15 26 16 27 17 28 18 30 19 31 20 32 81 33 21 34 80 35
REMARK SMILES IDX 22 36 23 37 24 38 74 39 25 40 79 41 73 42 75 43 26 44 78 45
REMARK SMILES IDX 72 46 71 47 27 49 59 50 39 51 58 52 40 53 43 54 57 55 76 56
REMARK SMILES IDX 41 57 42 58 56 60 77 61 44 62 28 63 29 64 37 65 30 66 32 67
REMARK SMILES IDX 38 68 31 69 33 70 34 71 35 72 36 73 60 74 61 75 69 76 62 77
REMARK SMILES IDX 64 78 70 79 63 80 65 81 66 82 67 83 68 84 45 85 46 86 54 87
REMARK SMILES IDX 47 88 49 89 55 90 48 91 50 92 51 93 52 94 53 95
REMARK H PARENT 11 6 3 15 16 29 75 48 43 59
REMARK Flexibility Score: inf
ROOT
ATOM      1  C   UNL A   1      32.829  29.267  24.583  1.00  0.00     0.023 C 
ENDROOT
BRANCH   1   2
ATOM      2  C   UNL A   1      32.106  28.969  23.269  1.00  0.00     0.116 C 
BRANCH   2   3
ATOM      3  N   UNL A   1      32.889  28.136  22.398  1.00  0.00    -0.351 N 
ATOM      4  C   UNL A   1      33.150  26.799  22.320  1.00  0.00     0.269 C 
ATOM      5  O   UNL A   1      33.652  26.480  21.233  1.00  0.00    -0.268 OA
ATOM      6  H   UNL A   1      33.343  28.651  21.691  1.00  0.00     0.163 HD
BRANCH   4   7
ATOM      7  C   UNL A   1      32.924  25.785  23.339  1.00  0.00     0.126 A 
ATOM      8  C   UNL A   1      33.541  24.138  24.753  1.00  0.00     0.151 A 
ATOM      9  C   UNL A   1      33.849  24.754  23.531  1.00  0.00     0.069 A 
ATOM     10  N   UNL A   1      32.366  24.582  25.209  1.00  0.00    -0.167 NA
ATOM     11  N   UNL A   1      32.024  25.582  24.364  1.00  0.00    -0.262 N 
ATOM     12  C   UNL A   1      30.834  26.288  24.759  1.00  0.00     0.174 C 
BRANCH   8  13
ATOM     13  C   UNL A   1      34.309  23.143  25.480  1.00  0.00     0.272 C 
ATOM     14  N   UNL A   1      34.094  21.806  25.261  1.00  0.00    -0.344 N 
ATOM     15  H   UNL A   1      34.797  21.249  25.667  1.00  0.00     0.164 HD
ATOM     16  O   UNL A   1      35.186  23.453  26.289  1.00  0.00    -0.267 OA
BRANCH  14  17
ATOM     17  C   UNL A   1      33.084  20.994  24.574  1.00  0.00     0.109 C 
ATOM     18  C   UNL A   1      31.778  21.034  25.382  1.00  0.00     0.036 C 
BRANCH  17  19
ATOM     19  C   UNL A   1      33.421  19.586  24.135  1.00  0.00    -0.026 A 
ATOM     20  C   UNL A   1      32.559  18.915  23.250  1.00  0.00     0.006 A 
ATOM     21  C   UNL A   1      34.538  18.888  24.626  1.00  0.00     0.006 A 
ATOM     22  C   UNL A   1      32.805  17.593  22.869  1.00  0.00     0.000 A 
ATOM     23  C   UNL A   1      34.777  17.562  24.250  1.00  0.00     0.000 A 
ATOM     24  C   UNL A   1      33.912  16.915  23.372  1.00  0.00     0.000 A 
ENDBRANCH  17  19
ENDBRANCH  14  17
ENDBRANCH   8  13
ENDBRANCH   4   7
ENDBRANCH   2   3
ENDBRANCH   1   2
BRANCH   1  25
ATOM     25  C   UNL A   1      31.965  29.841  25.707  1.00  0.00     0.023 C 
BRANCH  25  26
ATOM     26  C   UNL A   1      32.714  30.318  26.944  1.00  0.00     0.116 C 
BRANCH  26  27
ATOM     27  N   UNL A   1      32.745  31.764  27.099  1.00  0.00    -0.352 N 
ATOM     28  C   UNL A   1      33.750  32.545  27.626  1.00  0.00     0.251 C 
ATOM     29  H   UNL A   1      31.944  32.246  26.789  1.00  0.00     0.163 HD
ATOM     30  O   UNL A   1      33.593  33.751  27.743  1.00  0.00    -0.269 OA
BRANCH  28  31
ATOM     31  C   UNL A   1      34.993  31.896  28.096  1.00  0.00     0.039 A 
ATOM     32  C   UNL A   1      36.135  32.683  28.263  1.00  0.00     0.014 A 
ATOM     33  C   UNL A   1      35.017  30.537  28.419  1.00  0.00     0.014 A 
ATOM     34  C   UNL A   1      37.282  32.121  28.826  1.00  0.00     0.010 A 
ATOM     35  C   UNL A   1      36.135  29.998  29.047  1.00  0.00     0.010 A 
ATOM     36  C   UNL A   1      37.276  30.785  29.259  1.00  0.00    -0.014 A 
BRANCH  36  37
ATOM     37  C   UNL A   1      38.451  30.197  29.950  1.00  0.00     0.031 A 
ATOM     38  C   UNL A   1      38.832  30.665  31.327  1.00  0.00     0.074 A 
ATOM     39  C   UNL A   1      39.222  29.302  29.300  1.00  0.00     0.049 A 
ATOM     40  N   UNL A   1      39.852  30.312  32.065  1.00  0.00    -0.248 NA
ATOM     41  C   UNL A   1      37.970  31.687  31.948  1.00  0.00     0.031 C 
ATOM     42  C   UNL A   1      39.007  28.836  27.926  1.00  0.00     0.029 A 
ATOM     43  N   UNL A   1      40.359  28.642  29.697  1.00  0.00    -0.354 N 
ATOM     44  C   UNL A   1      39.768  31.077  33.222  1.00  0.00     0.074 A 
ATOM     45  C   UNL A   1      38.622  31.948  33.071  1.00  0.00     0.031 C 
ATOM     46  C   UNL A   1      39.977  27.967  27.599  1.00  0.00     0.029 A 
ATOM     47  C   UNL A   1      40.892  27.826  28.727  1.00  0.00     0.049 A 
ATOM     48  H   UNL A   1      40.754  28.744  30.593  1.00  0.00     0.167 HD
ATOM     49  C   UNL A   1      40.547  31.030  34.328  1.00  0.00     0.034 A 
ATOM     50  C   UNL A   1      41.995  27.050  28.747  1.00  0.00     0.034 A 
ATOM     51  C   UNL A   1      41.655  30.130  34.493  1.00  0.00     0.049 A 
ATOM     52  C   UNL A   1      42.808  26.977  30.012  1.00  0.00     0.074 A 
ATOM     53  C   UNL A   1      42.473  29.966  35.598  1.00  0.00     0.029 A 
ATOM     54  N   UNL A   1      42.095  29.235  33.532  1.00  0.00    -0.354 N 
ATOM     55  N   UNL A   1      42.620  27.599  31.150  1.00  0.00    -0.248 NA
ATOM     56  C   UNL A   1      43.960  26.064  30.009  1.00  0.00     0.031 C 
ATOM     57  C   UNL A   1      43.408  28.968  35.303  1.00  0.00     0.029 A 
ATOM     58  C   UNL A   1      43.166  28.506  34.019  1.00  0.00     0.049 A 
ATOM     59  H   UNL A   1      41.704  29.133  32.634  1.00  0.00     0.167 HD
ATOM     60  C   UNL A   1      43.606  27.125  32.009  1.00  0.00     0.074 A 
ATOM     61  C   UNL A   1      44.371  26.145  31.267  1.00  0.00     0.031 C 
ATOM     62  C   UNL A   1      43.869  27.485  33.290  1.00  0.00     0.034 A 
BRANCH  49  63
ATOM     63  C   UNL A   1      40.172  31.918  35.484  1.00  0.00     0.023 A 
ATOM     64  C   UNL A   1      40.886  33.119  35.682  1.00  0.00     0.012 A 
ATOM     65  C   UNL A   1      39.086  31.613  36.326  1.00  0.00     0.148 A 
ATOM     66  C   UNL A   1      40.543  33.990  36.714  1.00  0.00     0.002 A 
ATOM     67  C   UNL A   1      38.724  32.506  37.329  1.00  0.00     0.091 A 
ATOM     68  F   UNL A   1      38.432  30.459  36.134  1.00  0.00    -0.205 F 
ATOM     69  C   UNL A   1      39.456  33.688  37.530  1.00  0.00     0.022 A 
BRANCH  67  70
ATOM     70  S   UNL A   1      37.298  32.251  38.391  1.00  0.00     0.127 S 
ATOM     71  O   UNL A   1      37.784  32.775  39.667  1.00  0.00    -0.237 OA
ATOM     72  O   UNL A   1      36.279  33.077  37.742  1.00  0.00    -0.237 OA
ATOM     73  O   UNL A   1      37.028  30.820  38.369  1.00  0.00    -0.744 OA
ENDBRANCH  67  70
ENDBRANCH  49  63
BRANCH  50  74
ATOM     74  C   UNL A   1      42.351  26.218  27.562  1.00  0.00     0.023 A 
ATOM     75  C   UNL A   1      43.116  26.787  26.525  1.00  0.00     0.012 A 
ATOM     76  C   UNL A   1      41.944  24.875  27.456  1.00  0.00     0.148 A 
ATOM     77  C   UNL A   1      43.433  26.047  25.385  1.00  0.00     0.002 A 
ATOM     78  C   UNL A   1      42.310  24.126  26.341  1.00  0.00     0.091 A 
ATOM     79  F   UNL A   1      41.203  24.351  28.442  1.00  0.00    -0.205 F 
ATOM     80  C   UNL A   1      43.039  24.715  25.297  1.00  0.00     0.022 A 
BRANCH  78  81
ATOM     81  S   UNL A   1      41.954  22.370  26.228  1.00  0.00     0.127 S 
ATOM     82  O   UNL A   1      42.654  21.998  25.001  1.00  0.00    -0.237 OA
ATOM     83  O   UNL A   1      42.551  21.849  27.459  1.00  0.00    -0.237 OA
ATOM     84  O   UNL A   1      40.500  22.281  26.193  1.00  0.00    -0.744 OA
ENDBRANCH  78  81
ENDBRANCH  50  74
BRANCH  62  85
ATOM     85  C   UNL A   1      45.007  26.790  33.986  1.00  0.00     0.023 A 
ATOM     86  C   UNL A   1      46.313  27.309  33.876  1.00  0.00     0.012 A 
ATOM     87  C   UNL A   1      44.774  25.668  34.806  1.00  0.00     0.148 A 
ATOM     88  C   UNL A   1      47.374  26.703  34.546  1.00  0.00     0.002 A 
ATOM     89  C   UNL A   1      45.831  25.097  35.506  1.00  0.00     0.091 A 
ATOM     90  F   UNL A   1      43.529  25.177  34.882  1.00  0.00    -0.205 F 
ATOM     91  C   UNL A   1      47.132  25.606  35.368  1.00  0.00     0.022 A 
BRANCH  89  92
ATOM     92  S   UNL A   1      45.592  23.739  36.657  1.00  0.00     0.127 S 
ATOM     93  O   UNL A   1      46.961  23.477  37.097  1.00  0.00    -0.237 OA
ATOM     94  O   UNL A   1      44.729  24.339  37.675  1.00  0.00    -0.237 OA
ATOM     95  O   UNL A   1      44.963  22.672  35.889  1.00  0.00    -0.744 OA
ENDBRANCH  89  92
ENDBRANCH  62  85
ENDBRANCH  36  37
ENDBRANCH  28  31
ENDBRANCH  26  27
ENDBRANCH  25  26
ENDBRANCH   1  25
TORSDOF 17
ENDMDL
MODEL 3
REMARK VINA RESULT:     -11.4      4.336      9.489
REMARK SMILES C[C@@H](NC(=O)c1cc(C(=O)NCCCCNC(=O)c2ccc(-c3c4nc(c(-c5cccc(S(=O)(=O)[O-])c5F)c5ccc([nH]5)c(-c5cccc(S(=O)(=O)[O-])c5F)c5nc(c(-c6cccc(S(=O)(=O)[O-])c6F)c6ccc3[nH]6)C=C5)C=C4)cc2)n(C)n1)c1ccccc1
REMARK SMILES IDX 13 1 12 2 11 3 9 4 10 5 8 7 6 8 7 9 84 10 82 11 83 12 4 13
REMARK SMILES IDX 3 14 5 16 2 17 1 18 85 19 86 20 90 21 87 22 89 23 88 24
REMARK SMILES IDX 14 25 15 26 16 27 17 28 18 30 19 31 20 32 81 33 21 34 80 35
REMARK SMILES IDX 22 36 23 37 24 38 74 39 25 40 79 41 73 42 75 43 26 44 78 45
REMARK SMILES IDX 72 46 71 47 27 49 59 50 39 51 58 52 40 53 43 54 57 55 76 56
REMARK SMILES IDX 41 57 42 58 56 60 77 61 44 62 28 63 29 64 37 65 30 66 32 67
REMARK SMILES IDX 38 68 31 69 33 70 34 71 35 72 36 73 60 74 61 75 69 76 62 77
REMARK SMILES IDX 64 78 70 79 63 80 65 81 66 82 67 83 68 84 45 85 46 86 54 87
REMARK SMILES IDX 47 88 49 89 55 90 48 91 50 92 51 93 52 94 53 95
REMARK H PARENT 11 6 3 15 16 29 75 48 43 59
REMARK Flexibility Score: inf
ROOT
ATOM      1  C   UNL A   1      37.250  21.613  24.400  1.00  0.00     0.023 C 
ENDROOT
BRANCH   1   2
ATOM      2  C   UNL A   1      37.171  22.832  25.321  1.00  0.00     0.116 C 
BRANCH   2   3
ATOM      3  N   UNL A   1      36.163  22.680  26.334  1.00  0.00    -0.351 N 
ATOM      4  C   UNL A   1      34.799  22.670  26.342  1.00  0.00     0.269 C 
ATOM      5  O   UNL A   1      34.338  22.223  27.403  1.00  0.00    -0.268 OA
ATOM      6  H   UNL A   1      36.547  22.554  27.233  1.00  0.00     0.163 HD
BRANCH   4   7
ATOM      7  C   UNL A   1      33.896  23.124  25.296  1.00  0.00     0.126 A 
ATOM      8  C   UNL A   1      33.198  24.517  23.664  1.00  0.00     0.151 A 
ATOM      9  C   UNL A   1      33.924  24.453  24.862  1.00  0.00     0.069 A 
ATOM     10  N   UNL A   1      32.552  23.367  23.455  1.00  0.00    -0.167 NA
ATOM     11  N   UNL A   1      32.999  22.539  24.426  1.00  0.00    -0.262 N 
ATOM     12  C   UNL A   1      32.515  21.190  24.302  1.00  0.00     0.174 C 
BRANCH   8  13
ATOM     13  C   UNL A   1      33.087  25.628  22.735  1.00  0.00     0.272 C 
ATOM     14  N   UNL A   1      32.240  26.673  23.001  1.00  0.00    -0.344 N 
ATOM     15  H   UNL A   1      32.397  27.436  22.400  1.00  0.00     0.164 HD
ATOM     16  O   UNL A   1      33.757  25.689  21.701  1.00  0.00    -0.267 OA
BRANCH  14  17
ATOM     17  C   UNL A   1      31.159  26.942  23.956  1.00  0.00     0.109 C 
ATOM     18  C   UNL A   1      29.896  27.346  23.181  1.00  0.00     0.036 C 
BRANCH  17  19
ATOM     19  C   UNL A   1      31.406  27.865  25.130  1.00  0.00    -0.026 A 
ATOM     20  C   UNL A   1      31.729  29.212  24.891  1.00  0.00     0.006 A 
ATOM     21  C   UNL A   1      31.387  27.417  26.461  1.00  0.00     0.006 A 
ATOM     22  C   UNL A   1      32.022  30.081  25.946  1.00  0.00     0.000 A 
ATOM     23  C   UNL A   1      31.690  28.286  27.515  1.00  0.00     0.000 A 
ATOM     24  C   UNL A   1      32.006  29.617  27.258  1.00  0.00     0.000 A 
ENDBRANCH  17  19
ENDBRANCH  14  17
ENDBRANCH   8  13
ENDBRANCH   4   7
ENDBRANCH   2   3
ENDBRANCH   1   2
BRANCH   1  25
ATOM     25  C   UNL A   1      37.913  20.369  24.991  1.00  0.00     0.023 C 
BRANCH  25  26
ATOM     26  C   UNL A   1      39.091  20.622  25.921  1.00  0.00     0.116 C 
BRANCH  26  27
ATOM     27  N   UNL A   1      40.108  19.582  25.889  1.00  0.00    -0.352 N 
ATOM     28  C   UNL A   1      41.459  19.701  26.127  1.00  0.00     0.251 C 
ATOM     29  H   UNL A   1      39.789  18.676  25.669  1.00  0.00     0.163 HD
ATOM     30  O   UNL A   1      42.193  18.733  25.999  1.00  0.00    -0.269 OA
BRANCH  28  31
ATOM     31  C   UNL A   1      42.012  21.026  26.484  1.00  0.00     0.039 A 
ATOM     32  C   UNL A   1      42.261  21.943  25.461  1.00  0.00     0.014 A 
ATOM     33  C   UNL A   1      42.230  21.378  27.819  1.00  0.00     0.014 A 
ATOM     34  C   UNL A   1      42.660  23.241  25.782  1.00  0.00     0.010 A 
ATOM     35  C   UNL A   1      42.556  22.692  28.139  1.00  0.00     0.010 A 
ATOM     36  C   UNL A   1      42.771  23.636  27.125  1.00  0.00    -0.014 A 
BRANCH  36  37
ATOM     37  C   UNL A   1      43.097  25.038  27.488  1.00  0.00     0.031 A 
ATOM     38  C   UNL A   1      44.513  25.535  27.392  1.00  0.00     0.074 A 
ATOM     39  C   UNL A   1      42.130  25.835  27.985  1.00  0.00     0.049 A 
ATOM     40  N   UNL A   1      44.999  26.704  27.716  1.00  0.00    -0.248 NA
ATOM     41  C   UNL A   1      45.522  24.584  26.892  1.00  0.00     0.031 C 
ATOM     42  C   UNL A   1      40.736  25.440  28.211  1.00  0.00     0.029 A 
ATOM     43  N   UNL A   1      42.176  27.139  28.415  1.00  0.00    -0.354 N 
ATOM     44  C   UNL A   1      46.367  26.626  27.480  1.00  0.00     0.074 A 
ATOM     45  C   UNL A   1      46.642  25.279  27.029  1.00  0.00     0.031 C 
ATOM     46  C   UNL A   1      40.063  26.477  28.734  1.00  0.00     0.029 A 
ATOM     47  C   UNL A   1      40.975  27.604  28.899  1.00  0.00     0.049 A 
ATOM     48  H   UNL A   1      42.992  27.688  28.378  1.00  0.00     0.167 HD
ATOM     49  C   UNL A   1      47.303  27.598  27.589  1.00  0.00     0.034 A 
ATOM     50  C   UNL A   1      40.648  28.806  29.416  1.00  0.00     0.034 A 
ATOM     51  C   UNL A   1      47.018  28.947  27.992  1.00  0.00     0.049 A 
ATOM     52  C   UNL A   1      41.699  29.882  29.471  1.00  0.00     0.074 A 
ATOM     53  C   UNL A   1      47.887  30.020  28.080  1.00  0.00     0.029 A 
ATOM     54  N   UNL A   1      45.768  29.412  28.365  1.00  0.00    -0.354 N 
ATOM     55  N   UNL A   1      42.955  29.829  29.099  1.00  0.00    -0.248 NA
ATOM     56  C   UNL A   1      41.277  31.197  29.976  1.00  0.00     0.031 C 
ATOM     57  C   UNL A   1      47.159  31.137  28.507  1.00  0.00     0.029 A 
ATOM     58  C   UNL A   1      45.837  30.759  28.673  1.00  0.00     0.049 A 
ATOM     59  H   UNL A   1      44.950  28.865  28.405  1.00  0.00     0.167 HD
ATOM     60  C   UNL A   1      43.462  31.109  29.290  1.00  0.00     0.074 A 
ATOM     61  C   UNL A   1      42.370  31.922  29.785  1.00  0.00     0.031 C 
ATOM     62  C   UNL A   1      44.724  31.567  29.096  1.00  0.00     0.034 A 
BRANCH  49  63
ATOM     63  C   UNL A   1      48.712  27.259  27.180  1.00  0.00     0.023 A 
ATOM     64  C   UNL A   1      49.540  26.569  28.089  1.00  0.00     0.012 A 
ATOM     65  C   UNL A   1      49.195  27.553  25.891  1.00  0.00     0.148 A 
ATOM     66  C   UNL A   1      50.835  26.199  27.734  1.00  0.00     0.002 A 
ATOM     67  C   UNL A   1      50.475  27.146  25.529  1.00  0.00     0.091 A 
ATOM     68  F   UNL A   1      48.400  28.226  25.047  1.00  0.00    -0.205 F 
ATOM     69  C   UNL A   1      51.298  26.477  26.452  1.00  0.00     0.022 A 
BRANCH  67  70
ATOM     70  S   UNL A   1      51.146  27.391  23.881  1.00  0.00     0.127 S 
ATOM     71  O   UNL A   1      51.236  28.849  23.813  1.00  0.00    -0.237 OA
ATOM     72  O   UNL A   1      52.436  26.704  23.969  1.00  0.00    -0.237 OA
ATOM     73  O   UNL A   1      50.193  26.782  22.963  1.00  0.00    -0.744 OA
ENDBRANCH  67  70
ENDBRANCH  49  63
BRANCH  50  74
ATOM     74  C   UNL A   1      39.248  29.083  29.847  1.00  0.00     0.023 A 
ATOM     75  C   UNL A   1      38.813  28.629  31.108  1.00  0.00     0.012 A 
ATOM     76  C   UNL A   1      38.351  29.791  29.027  1.00  0.00     0.148 A 
ATOM     77  C   UNL A   1      37.498  28.839  31.526  1.00  0.00     0.002 A 
ATOM     78  C   UNL A   1      37.057  30.044  29.472  1.00  0.00     0.091 A 
ATOM     79  F   UNL A   1      38.773  30.202  27.823  1.00  0.00    -0.205 F 
ATOM     80  C   UNL A   1      36.623  29.553  30.713  1.00  0.00     0.022 A 
BRANCH  78  81
ATOM     81  S   UNL A   1      35.923  31.075  28.536  1.00  0.00     0.127 S 
ATOM     82  O   UNL A   1      34.856  31.309  29.506  1.00  0.00    -0.237 OA
ATOM     83  O   UNL A   1      36.745  32.247  28.231  1.00  0.00    -0.237 OA
ATOM     84  O   UNL A   1      35.568  30.281  27.366  1.00  0.00    -0.744 OA
ENDBRANCH  78  81
ENDBRANCH  50  74
BRANCH  62  85
ATOM     85  C   UNL A   1      44.987  33.021  29.381  1.00  0.00     0.023 A 
ATOM     86  C   UNL A   1      45.390  33.416  30.672  1.00  0.00     0.012 A 
ATOM     87  C   UNL A   1      44.904  33.983  28.356  1.00  0.00     0.148 A 
ATOM     88  C   UNL A   1      45.677  34.752  30.946  1.00  0.00     0.002 A 
ATOM     89  C   UNL A   1      45.235  35.307  28.626  1.00  0.00     0.091 A 
ATOM     90  F   UNL A   1      44.498  33.592  27.139  1.00  0.00    -0.205 F 
ATOM     91  C   UNL A   1      45.610  35.693  29.923  1.00  0.00     0.022 A 
BRANCH  89  92
ATOM     92  S   UNL A   1      45.264  36.566  27.346  1.00  0.00     0.127 S 
ATOM     93  O   UNL A   1      46.225  36.005  26.398  1.00  0.00    -0.237 OA
ATOM     94  O   UNL A   1      43.878  36.570  26.879  1.00  0.00    -0.237 OA
ATOM     95  O   UNL A   1      45.678  37.796  28.009  1.00  0.00    -0.744 OA
ENDBRANCH  89  92
ENDBRANCH  62  85
ENDBRANCH  36  37
ENDBRANCH  28  31
ENDBRANCH  26  27
ENDBRANCH  25  26
ENDBRANCH   1  25
TORSDOF 17
ENDMDL
