MODEL 1
REMARK VINA RESULT:     -12.9      0.000      0.000
REMARK SMILES COC(=O)c1ccc(NC(=O)[C@@H]2CC=CC[C@@H]2C(=O)NCCCCNC(=O)c2ccc(-c3c4nc(c(-c5cccc(S(=O)(=O)[O-])c5F)c5ccc([nH]5)c(-c5cccc(S(=O)(=O)[O-])c5F)c5nc(c(-c6cccc(S(=O)(=O)[O-])c6F)c6ccc3[nH]6)C=C5)C=C4)cc2)c(C)c1
REMARK SMILES IDX 22 1 21 2 20 3 18 4 19 5 17 7 12 8 13 9 14 10 16 11 15 12
REMARK SMILES IDX 10 13 9 14 11 16 8 17 5 18 6 19 93 20 7 21 91 22 92 23 3 24
REMARK SMILES IDX 4 25 2 26 1 27 23 28 24 29 25 30 26 31 27 33 28 34 29 35
REMARK SMILES IDX 90 36 30 37 89 38 31 39 32 40 33 41 83 42 34 43 88 44 82 45
REMARK SMILES IDX 84 46 35 47 87 48 81 49 80 50 36 52 68 53 48 54 67 55 49 56
REMARK SMILES IDX 52 57 66 58 85 59 50 60 51 61 65 63 86 64 53 65 37 66 38 67
REMARK SMILES IDX 46 68 39 69 41 70 47 71 40 72 42 73 43 74 44 75 45 76 69 77
REMARK SMILES IDX 70 78 78 79 71 80 73 81 79 82 72 83 74 84 75 85 76 86 77 87
REMARK SMILES IDX 54 88 55 89 63 90 56 91 58 92 64 93 57 94 59 95 60 96 61 97
REMARK SMILES IDX 62 98
REMARK H PARENT 20 6 9 15 25 32 84 51 52 62
REMARK Flexibility Score: inf
ROOT
ATOM      1  C   UNL A   1      33.235  28.446  27.139  1.00  0.00     0.023 C 
ENDROOT
BRANCH   1   2
ATOM      2  C   UNL A   1      34.031  27.504  26.237  1.00  0.00     0.116 C 
BRANCH   2   3
ATOM      3  N   UNL A   1      34.018  27.889  24.840  1.00  0.00    -0.356 N 
ATOM      4  C   UNL A   1      33.345  27.375  23.772  1.00  0.00     0.224 C 
ATOM      5  O   UNL A   1      33.540  27.930  22.693  1.00  0.00    -0.275 OA
ATOM      6  H   UNL A   1      34.594  28.657  24.624  1.00  0.00     0.163 HD
BRANCH   4   7
ATOM      7  C   UNL A   1      32.476  26.119  23.924  1.00  0.00     0.095 C 
ATOM      8  C   UNL A   1      31.799  25.672  22.600  1.00  0.00     0.095 C 
ATOM      9  C   UNL A   1      30.852  26.756  22.055  1.00  0.00     0.041 C 
ATOM     10  C   UNL A   1      29.931  27.249  23.140  1.00  0.00    -0.030 C 
ATOM     11  C   UNL A   1      31.354  26.304  24.970  1.00  0.00     0.041 C 
ATOM     12  C   UNL A   1      30.140  27.014  24.444  1.00  0.00    -0.030 C 
BRANCH   8  13
ATOM     13  C   UNL A   1      32.785  25.144  21.575  1.00  0.00     0.228 C 
ATOM     14  N   UNL A   1      33.372  23.912  21.685  1.00  0.00    -0.326 N 
ATOM     15  H   UNL A   1      34.065  23.763  20.999  1.00  0.00     0.169 HD
ATOM     16  O   UNL A   1      33.063  25.771  20.548  1.00  0.00    -0.274 OA
BRANCH  14  17
ATOM     17  C   UNL A   1      33.224  22.803  22.545  1.00  0.00     0.044 A 
ATOM     18  C   UNL A   1      33.206  20.463  24.144  1.00  0.00     0.060 A 
ATOM     19  C   UNL A   1      32.214  20.674  23.191  1.00  0.00     0.018 A 
ATOM     20  C   UNL A   1      34.177  21.449  24.339  1.00  0.00     0.021 A 
ATOM     21  C   UNL A   1      32.223  21.835  22.413  1.00  0.00     0.027 A 
ATOM     22  C   UNL A   1      34.172  22.638  23.582  1.00  0.00    -0.027 A 
ATOM     23  C   UNL A   1      35.226  23.671  23.891  1.00  0.00     0.046 C 
BRANCH  18  24
ATOM     24  C   UNL A   1      33.191  19.193  24.915  1.00  0.00     0.337 C 
ATOM     25  O   UNL A   1      32.300  18.898  25.707  1.00  0.00    -0.246 OA
BRANCH  24  26
ATOM     26  O   UNL A   1      34.221  18.370  24.611  1.00  0.00    -0.465 OA
ATOM     27  C   UNL A   1      33.891  17.369  23.645  1.00  0.00     0.282 C 
ENDBRANCH  24  26
ENDBRANCH  18  24
ENDBRANCH  14  17
ENDBRANCH   8  13
ENDBRANCH   4   7
ENDBRANCH   2   3
ENDBRANCH   1   2
BRANCH   1  28
ATOM     28  C   UNL A   1      33.274  29.925  26.773  1.00  0.00     0.023 C 
BRANCH  28  29
ATOM     29  C   UNL A   1      33.476  30.869  27.940  1.00  0.00     0.116 C 
BRANCH  29  30
ATOM     30  N   UNL A   1      34.496  31.870  27.709  1.00  0.00    -0.352 N 
ATOM     31  C   UNL A   1      35.824  31.882  28.095  1.00  0.00     0.251 C 
ATOM     32  H   UNL A   1      34.201  32.660  27.201  1.00  0.00     0.163 HD
ATOM     33  O   UNL A   1      36.414  32.959  28.060  1.00  0.00    -0.269 OA
BRANCH  31  34
ATOM     34  C   UNL A   1      36.561  30.609  28.339  1.00  0.00     0.039 A 
ATOM     35  C   UNL A   1      36.768  30.245  29.678  1.00  0.00     0.014 A 
ATOM     36  C   UNL A   1      37.351  30.039  27.351  1.00  0.00     0.014 A 
ATOM     37  C   UNL A   1      37.942  29.597  30.037  1.00  0.00     0.010 A 
ATOM     38  C   UNL A   1      38.579  29.561  27.700  1.00  0.00     0.010 A 
ATOM     39  C   UNL A   1      38.889  29.401  29.049  1.00  0.00    -0.014 A 
BRANCH  39  40
ATOM     40  C   UNL A   1      40.221  28.887  29.242  1.00  0.00     0.031 A 
ATOM     41  C   UNL A   1      40.416  27.457  28.980  1.00  0.00     0.074 A 
ATOM     42  C   UNL A   1      41.217  29.797  29.247  1.00  0.00     0.049 A 
ATOM     43  N   UNL A   1      41.528  26.849  29.149  1.00  0.00    -0.248 NA
ATOM     44  C   UNL A   1      39.347  26.587  28.491  1.00  0.00     0.031 C 
ATOM     45  C   UNL A   1      42.608  29.631  28.857  1.00  0.00     0.029 A 
ATOM     46  N   UNL A   1      41.171  31.081  29.783  1.00  0.00    -0.354 N 
ATOM     47  C   UNL A   1      41.425  25.623  28.529  1.00  0.00     0.074 A 
ATOM     48  C   UNL A   1      40.026  25.467  28.225  1.00  0.00     0.031 C 
ATOM     49  C   UNL A   1      43.335  30.630  29.390  1.00  0.00     0.029 A 
ATOM     50  C   UNL A   1      42.452  31.359  30.286  1.00  0.00     0.049 A 
ATOM     51  H   UNL A   1      40.389  31.678  29.805  1.00  0.00     0.167 HD
ATOM     52  C   UNL A   1      42.584  24.980  28.227  1.00  0.00     0.034 A 
ATOM     53  C   UNL A   1      42.619  31.455  31.642  1.00  0.00     0.034 A 
ATOM     54  C   UNL A   1      43.719  25.740  28.775  1.00  0.00     0.049 A 
ATOM     55  C   UNL A   1      43.482  30.337  32.207  1.00  0.00     0.074 A 
ATOM     56  C   UNL A   1      44.597  26.659  28.224  1.00  0.00     0.029 A 
ATOM     57  N   UNL A   1      43.831  25.861  30.153  1.00  0.00    -0.354 N 
ATOM     58  N   UNL A   1      43.770  29.237  31.563  1.00  0.00    -0.248 NA
ATOM     59  C   UNL A   1      44.144  30.392  33.505  1.00  0.00     0.031 C 
ATOM     60  C   UNL A   1      45.190  27.387  29.295  1.00  0.00     0.029 A 
ATOM     61  C   UNL A   1      44.694  26.890  30.489  1.00  0.00     0.049 A 
ATOM     62  H   UNL A   1      43.360  25.294  30.805  1.00  0.00     0.167 HD
ATOM     63  C   UNL A   1      44.580  28.430  32.320  1.00  0.00     0.074 A 
ATOM     64  C   UNL A   1      44.816  29.226  33.515  1.00  0.00     0.031 C 
ATOM     65  C   UNL A   1      44.964  27.182  31.893  1.00  0.00     0.034 A 
BRANCH  52  66
ATOM     66  C   UNL A   1      42.774  23.826  27.262  1.00  0.00     0.023 A 
ATOM     67  C   UNL A   1      43.498  24.115  26.082  1.00  0.00     0.012 A 
ATOM     68  C   UNL A   1      42.284  22.504  27.375  1.00  0.00     0.148 A 
ATOM     69  C   UNL A   1      43.678  23.188  25.053  1.00  0.00     0.002 A 
ATOM     70  C   UNL A   1      42.451  21.574  26.340  1.00  0.00     0.091 A 
ATOM     71  F   UNL A   1      41.676  22.106  28.492  1.00  0.00    -0.205 F 
ATOM     72  C   UNL A   1      43.143  21.919  25.176  1.00  0.00     0.022 A 
BRANCH  70  73
ATOM     73  S   UNL A   1      41.785  19.900  26.404  1.00  0.00     0.127 S 
ATOM     74  O   UNL A   1      42.342  19.302  25.189  1.00  0.00    -0.237 OA
ATOM     75  O   UNL A   1      42.354  19.382  27.648  1.00  0.00    -0.237 OA
ATOM     76  O   UNL A   1      40.333  20.030  26.397  1.00  0.00    -0.744 OA
ENDBRANCH  70  73
ENDBRANCH  52  66
BRANCH  53  77
ATOM     77  C   UNL A   1      41.427  32.113  32.286  1.00  0.00     0.023 A 
ATOM     78  C   UNL A   1      41.053  33.367  31.729  1.00  0.00     0.012 A 
ATOM     79  C   UNL A   1      40.458  31.381  32.995  1.00  0.00     0.148 A 
ATOM     80  C   UNL A   1      39.712  33.752  31.664  1.00  0.00     0.002 A 
ATOM     81  C   UNL A   1      39.126  31.808  32.977  1.00  0.00     0.091 A 
ATOM     82  F   UNL A   1      40.830  30.259  33.624  1.00  0.00    -0.205 F 
ATOM     83  C   UNL A   1      38.743  32.946  32.246  1.00  0.00     0.022 A 
BRANCH  81  84
ATOM     84  S   UNL A   1      37.828  30.895  33.827  1.00  0.00     0.127 S 
ATOM     85  O   UNL A   1      36.634  31.375  33.135  1.00  0.00    -0.237 OA
ATOM     86  O   UNL A   1      38.168  29.500  33.548  1.00  0.00    -0.237 OA
ATOM     87  O   UNL A   1      37.954  31.271  35.227  1.00  0.00    -0.744 OA
ENDBRANCH  81  84
ENDBRANCH  53  77
BRANCH  65  88
ATOM     88  C   UNL A   1      45.627  26.085  32.726  1.00  0.00     0.023 A 
ATOM     89  C   UNL A   1      47.020  25.974  32.870  1.00  0.00     0.012 A 
ATOM     90  C   UNL A   1      44.846  25.198  33.524  1.00  0.00     0.148 A 
ATOM     91  C   UNL A   1      47.608  25.031  33.724  1.00  0.00     0.002 A 
ATOM     92  C   UNL A   1      45.431  24.359  34.468  1.00  0.00     0.091 A 
ATOM     93  F   UNL A   1      43.519  25.123  33.358  1.00  0.00    -0.205 F 
ATOM     94  C   UNL A   1      46.816  24.247  34.549  1.00  0.00     0.022 A 
BRANCH  92  95
ATOM     95  S   UNL A   1      44.439  23.523  35.717  1.00  0.00     0.127 S 
ATOM     96  O   UNL A   1      43.773  22.488  34.928  1.00  0.00    -0.237 OA
ATOM     97  O   UNL A   1      45.462  23.023  36.638  1.00  0.00    -0.237 OA
ATOM     98  O   UNL A   1      43.580  24.554  36.282  1.00  0.00    -0.744 OA
ENDBRANCH  92  95
ENDBRANCH  65  88
ENDBRANCH  39  40
ENDBRANCH  31  34
ENDBRANCH  29  30
ENDBRANCH  28  29
ENDBRANCH   1  28
TORSDOF 18
ENDMDL
MODEL 2
REMARK VINA RESULT:     -12.6      3.803      9.541
REMARK SMILES COC(=O)c1ccc(NC(=O)[C@@H]2CC=CC[C@@H]2C(=O)NCCCCNC(=O)c2ccc(-c3c4nc(c(-c5cccc(S(=O)(=O)[O-])c5F)c5ccc([nH]5)c(-c5cccc(S(=O)(=O)[O-])c5F)c5nc(c(-c6cccc(S(=O)(=O)[O-])c6F)c6ccc3[nH]6)C=C5)C=C4)cc2)c(C)c1
REMARK SMILES IDX 22 1 21 2 20 3 18 4 19 5 17 7 12 8 13 9 14 10 16 11 15 12
REMARK SMILES IDX 10 13 9 14 11 16 8 17 5 18 6 19 93 20 7 21 91 22 92 23 3 24
REMARK SMILES IDX 4 25 2 26 1 27 23 28 24 29 25 30 26 31 27 33 28 34 29 35
REMARK SMILES IDX 90 36 30 37 89 38 31 39 32 40 33 41 83 42 34 43 88 44 82 45
REMARK SMILES IDX 84 46 35 47 87 48 81 49 80 50 36 52 68 53 48 54 67 55 49 56
REMARK SMILES IDX 52 57 66 58 85 59 50 60 51 61 65 63 86 64 53 65 37 66 38 67
REMARK SMILES IDX 46 68 39 69 41 70 47 71 40 72 42 73 43 74 44 75 45 76 69 77
REMARK SMILES IDX 70 78 78 79 71 80 73 81 79 82 72 83 74 84 75 85 76 86 77 87
REMARK SMILES IDX 54 88 55 89 63 90 56 91 58 92 64 93 57 94 59 95 60 96 61 97
REMARK SMILES IDX 62 98
REMARK H PARENT 20 6 9 15 25 32 84 51 52 62
REMARK Flexibility Score: inf
ROOT
ATOM      1  C   UNL A   1      36.349  21.123  24.357  1.00  0.00     0.023 C 
ENDROOT
BRANCH   1   2
ATOM      2  C   UNL A   1      35.243  20.402  25.125  1.00  0.00     0.116 C 
BRANCH   2   3
ATOM      3  N   UNL A   1      34.794  21.117  26.303  1.00  0.00    -0.356 N 
ATOM      4  C   UNL A   1      33.753  21.975  26.491  1.00  0.00     0.224 C 
ATOM      5  O   UNL A   1      33.624  22.426  27.628  1.00  0.00    -0.275 OA
ATOM      6  H   UNL A   1      35.335  20.953  27.109  1.00  0.00     0.163 HD
BRANCH   4   7
ATOM      7  C   UNL A   1      32.869  22.406  25.313  1.00  0.00     0.095 C 
ATOM      8  C   UNL A   1      32.581  23.931  25.281  1.00  0.00     0.095 C 
ATOM      9  C   UNL A   1      31.826  24.390  26.542  1.00  0.00     0.041 C 
ATOM     10  C   UNL A   1      30.644  23.493  26.807  1.00  0.00    -0.030 C 
ATOM     11  C   UNL A   1      31.504  21.683  25.308  1.00  0.00     0.041 C 
ATOM     12  C   UNL A   1      30.485  22.296  26.224  1.00  0.00    -0.030 C 
BRANCH   8  13
ATOM     13  C   UNL A   1      33.808  24.764  24.962  1.00  0.00     0.228 C 
ATOM     14  N   UNL A   1      33.728  25.988  24.353  1.00  0.00    -0.326 N 
ATOM     15  H   UNL A   1      34.615  26.350  24.120  1.00  0.00     0.169 HD
ATOM     16  O   UNL A   1      34.944  24.413  25.295  1.00  0.00    -0.274 OA
BRANCH  14  17
ATOM     17  C   UNL A   1      32.680  26.856  23.978  1.00  0.00     0.044 A 
ATOM     18  C   UNL A   1      30.778  28.709  22.990  1.00  0.00     0.060 A 
ATOM     19  C   UNL A   1      31.301  28.850  24.271  1.00  0.00     0.018 A 
ATOM     20  C   UNL A   1      31.163  27.608  22.220  1.00  0.00     0.021 A 
ATOM     21  C   UNL A   1      32.231  27.926  24.756  1.00  0.00     0.027 A 
ATOM     22  C   UNL A   1      32.074  26.654  22.716  1.00  0.00    -0.027 A 
ATOM     23  C   UNL A   1      32.396  25.470  21.840  1.00  0.00     0.046 C 
BRANCH  18  24
ATOM     24  C   UNL A   1      29.831  29.740  22.492  1.00  0.00     0.337 C 
ATOM     25  O   UNL A   1      29.686  30.001  21.301  1.00  0.00    -0.246 OA
BRANCH  24  26
ATOM     26  O   UNL A   1      29.101  30.316  23.475  1.00  0.00    -0.465 OA
ATOM     27  C   UNL A   1      28.679  31.648  23.172  1.00  0.00     0.282 C 
ENDBRANCH  24  26
ENDBRANCH  18  24
ENDBRANCH  14  17
ENDBRANCH   8  13
ENDBRANCH   4   7
ENDBRANCH   2   3
ENDBRANCH   1   2
BRANCH   1  28
ATOM     28  C   UNL A   1      37.732  21.115  24.996  1.00  0.00     0.023 C 
BRANCH  28  29
ATOM     29  C   UNL A   1      38.066  22.342  25.818  1.00  0.00     0.116 C 
BRANCH  29  30
ATOM     30  N   UNL A   1      39.290  22.218  26.579  1.00  0.00    -0.352 N 
ATOM     31  C   UNL A   1      40.215  23.186  26.927  1.00  0.00     0.251 C 
ATOM     32  H   UNL A   1      39.495  21.309  26.899  1.00  0.00     0.163 HD
ATOM     33  O   UNL A   1      41.320  22.803  27.304  1.00  0.00    -0.269 OA
BRANCH  31  34
ATOM     34  C   UNL A   1      39.818  24.618  27.040  1.00  0.00     0.039 A 
ATOM     35  C   UNL A   1      40.586  25.546  26.321  1.00  0.00     0.014 A 
ATOM     36  C   UNL A   1      39.028  25.060  28.091  1.00  0.00     0.014 A 
ATOM     37  C   UNL A   1      40.812  26.807  26.855  1.00  0.00     0.010 A 
ATOM     38  C   UNL A   1      39.373  26.224  28.714  1.00  0.00     0.010 A 
ATOM     39  C   UNL A   1      40.312  27.062  28.119  1.00  0.00    -0.014 A 
BRANCH  39  40
ATOM     40  C   UNL A   1      40.560  28.243  28.905  1.00  0.00     0.031 A 
ATOM     41  C   UNL A   1      39.627  29.360  28.721  1.00  0.00     0.074 A 
ATOM     42  C   UNL A   1      41.342  28.084  29.993  1.00  0.00     0.049 A 
ATOM     43  N   UNL A   1      39.742  30.487  29.314  1.00  0.00    -0.248 NA
ATOM     44  C   UNL A   1      38.464  29.286  27.838  1.00  0.00     0.031 C 
ATOM     45  C   UNL A   1      41.337  28.831  31.240  1.00  0.00     0.029 A 
ATOM     46  N   UNL A   1      42.453  27.253  30.105  1.00  0.00    -0.354 N 
ATOM     47  C   UNL A   1      38.554  31.164  29.146  1.00  0.00     0.074 A 
ATOM     48  C   UNL A   1      37.835  30.425  28.142  1.00  0.00     0.031 C 
ATOM     49  C   UNL A   1      42.509  28.637  31.873  1.00  0.00     0.029 A 
ATOM     50  C   UNL A   1      43.364  27.902  30.955  1.00  0.00     0.049 A 
ATOM     51  H   UNL A   1      42.576  26.377  29.672  1.00  0.00     0.167 HD
ATOM     52  C   UNL A   1      38.292  32.184  30.006  1.00  0.00     0.034 A 
ATOM     53  C   UNL A   1      44.533  28.379  30.423  1.00  0.00     0.034 A 
ATOM     54  C   UNL A   1      39.460  32.399  30.876  1.00  0.00     0.049 A 
ATOM     55  C   UNL A   1      44.611  29.898  30.447  1.00  0.00     0.074 A 
ATOM     56  C   UNL A   1      39.776  31.979  32.158  1.00  0.00     0.029 A 
ATOM     57  N   UNL A   1      40.645  32.834  30.298  1.00  0.00    -0.354 N 
ATOM     58  N   UNL A   1      43.583  30.682  30.642  1.00  0.00    -0.248 NA
ATOM     59  C   UNL A   1      45.852  30.654  30.324  1.00  0.00     0.031 C 
ATOM     60  C   UNL A   1      41.186  32.103  32.319  1.00  0.00     0.029 A 
ATOM     61  C   UNL A   1      41.716  32.623  31.149  1.00  0.00     0.049 A 
ATOM     62  H   UNL A   1      40.716  33.237  29.403  1.00  0.00     0.167 HD
ATOM     63  C   UNL A   1      43.969  31.998  30.629  1.00  0.00     0.074 A 
ATOM     64  C   UNL A   1      45.412  31.919  30.466  1.00  0.00     0.031 C 
ATOM     65  C   UNL A   1      43.059  33.021  30.739  1.00  0.00     0.034 A 
BRANCH  52  66
ATOM     66  C   UNL A   1      36.955  32.847  30.270  1.00  0.00     0.023 A 
ATOM     67  C   UNL A   1      36.208  33.215  29.127  1.00  0.00     0.012 A 
ATOM     68  C   UNL A   1      36.375  33.178  31.517  1.00  0.00     0.148 A 
ATOM     69  C   UNL A   1      35.002  33.917  29.199  1.00  0.00     0.002 A 
ATOM     70  C   UNL A   1      35.172  33.892  31.594  1.00  0.00     0.091 A 
ATOM     71  F   UNL A   1      36.952  32.784  32.651  1.00  0.00    -0.205 F 
ATOM     72  C   UNL A   1      34.489  34.268  30.434  1.00  0.00     0.022 A 
BRANCH  70  73
ATOM     73  S   UNL A   1      34.428  34.401  33.156  1.00  0.00     0.127 S 
ATOM     74  O   UNL A   1      35.263  35.542  33.535  1.00  0.00    -0.237 OA
ATOM     75  O   UNL A   1      33.067  34.754  32.756  1.00  0.00    -0.237 OA
ATOM     76  O   UNL A   1      34.529  33.258  34.056  1.00  0.00    -0.744 OA
ENDBRANCH  70  73
ENDBRANCH  52  66
BRANCH  53  77
ATOM     77  C   UNL A   1      45.063  27.447  29.366  1.00  0.00     0.023 A 
ATOM     78  C   UNL A   1      45.272  26.106  29.790  1.00  0.00     0.012 A 
ATOM     79  C   UNL A   1      44.889  27.694  27.992  1.00  0.00     0.148 A 
ATOM     80  C   UNL A   1      45.064  25.035  28.918  1.00  0.00     0.002 A 
ATOM     81  C   UNL A   1      44.743  26.613  27.114  1.00  0.00     0.091 A 
ATOM     82  F   UNL A   1      44.811  28.961  27.569  1.00  0.00    -0.205 F 
ATOM     83  C   UNL A   1      44.750  25.291  27.590  1.00  0.00     0.022 A 
BRANCH  81  84
ATOM     84  S   UNL A   1      44.474  26.857  25.351  1.00  0.00     0.127 S 
ATOM     85  O   UNL A   1      43.880  25.580  24.968  1.00  0.00    -0.237 OA
ATOM     86  O   UNL A   1      43.549  27.990  25.312  1.00  0.00    -0.237 OA
ATOM     87  O   UNL A   1      45.792  27.144  24.802  1.00  0.00    -0.744 OA
ENDBRANCH  81  84
ENDBRANCH  53  77
BRANCH  65  88
ATOM     88  C   UNL A   1      43.303  34.506  30.475  1.00  0.00     0.023 A 
ATOM     89  C   UNL A   1      43.694  35.406  31.480  1.00  0.00     0.012 A 
ATOM     90  C   UNL A   1      43.286  35.027  29.147  1.00  0.00     0.148 A 
ATOM     91  C   UNL A   1      44.019  36.740  31.202  1.00  0.00     0.002 A 
ATOM     92  C   UNL A   1      43.740  36.311  28.860  1.00  0.00     0.091 A 
ATOM     93  F   UNL A   1      42.793  34.298  28.137  1.00  0.00    -0.205 F 
ATOM     94  C   UNL A   1      44.077  37.185  29.890  1.00  0.00     0.022 A 
BRANCH  92  95
ATOM     95  S   UNL A   1      44.065  36.831  27.168  1.00  0.00     0.127 S 
ATOM     96  O   UNL A   1      44.960  35.776  26.696  1.00  0.00    -0.237 OA
ATOM     97  O   UNL A   1      42.726  36.803  26.574  1.00  0.00    -0.237 OA
ATOM     98  O   UNL A   1      44.641  38.163  27.277  1.00  0.00    -0.744 OA
ENDBRANCH  92  95
ENDBRANCH  65  88
ENDBRANCH  39  40
ENDBRANCH  31  34
ENDBRANCH  29  30
ENDBRANCH  28  29
ENDBRANCH   1  28
TORSDOF 18
ENDMDL
MODEL 3
REMARK VINA RESULT:     -12.4      3.767      9.421
REMARK SMILES COC(=O)c1ccc(NC(=O)[C@@H]2CC=CC[C@@H]2C(=O)NCCCCNC(=O)c2ccc(-c3c4nc(c(-c5cccc(S(=O)(=O)[O-])c5F)c5ccc([nH]5)c(-c5cccc(S(=O)(=O)[O-])c5F)c5nc(c(-c6cccc(S(=O)(=O)[O-])c6F)c6ccc3[nH]6)C=C5)C=C4)cc2)c(C)c1
REMARK SMILES IDX 22 1 21 2 20 3 18 4 19 5 17 7 12 8 13 9 14 10 16 11 15 12
REMARK SMILES IDX 10 13 9 14 11 16 8 17 5 18 6 19 93 20 7 21 91 22 92 23 3 24
REMARK SMILES IDX 4 25 2 26 1 27 23 28 24 29 25 30 26 31 27 33 28 34 29 35
REMARK SMILES IDX 90 36 30 37 89 38 31 39 32 40 33 41 83 42 34 43 88 44 82 45
REMARK SMILES IDX 84 46 35 47 87 48 81 49 80 50 36 52 68 53 48 54 67 55 49 56
REMARK SMILES IDX 52 57 66 58 85 59 50 60 51 61 65 63 86 64 53 65 37 66 38 67
REMARK SMILES IDX 46 68 39 69 41 70 47 71 40 72 42 73 43 74 44 75 45 76 69 77
REMARK SMILES IDX 70 78 78 79 71 80 73 81 79 82 72 83 74 84 75 85 76 86 77 87
REMARK SMILES IDX 54 88 55 89 63 90 56 91 58 92 64 93 57 94 59 95 60 96 61 97
REMARK SMILES IDX 62 98
REMARK H PARENT 20 6 9 15 25 32 84 51 52 62
REMARK Flexibility Score: inf
ROOT
ATOM      1  C   UNL A   1      36.412  20.398  25.012  1.00  0.00     0.023 C 
ENDROOT
BRANCH   1   2
ATOM      2  C   UNL A   1      35.465  21.295  25.807  1.00  0.00     0.116 C 
BRANCH   2   3
ATOM      3  N   UNL A   1      34.063  21.033  25.548  1.00  0.00    -0.356 N 
ATOM      4  C   UNL A   1      33.051  21.860  25.163  1.00  0.00     0.224 C 
ATOM      5  O   UNL A   1      31.950  21.333  25.018  1.00  0.00    -0.275 OA
ATOM      6  H   UNL A   1      33.795  20.094  25.669  1.00  0.00     0.163 HD
BRANCH   4   7
ATOM      7  C   UNL A   1      33.283  23.370  25.020  1.00  0.00     0.095 C 
ATOM      8  C   UNL A   1      32.653  23.974  23.737  1.00  0.00     0.095 C 
ATOM      9  C   UNL A   1      33.253  23.350  22.464  1.00  0.00     0.041 C 
ATOM     10  C   UNL A   1      34.758  23.353  22.532  1.00  0.00    -0.030 C 
ATOM     11  C   UNL A   1      34.785  23.734  25.006  1.00  0.00     0.041 C 
ATOM     12  C   UNL A   1      35.441  23.562  23.667  1.00  0.00    -0.030 C 
BRANCH   8  13
ATOM     13  C   UNL A   1      31.136  23.979  23.763  1.00  0.00     0.228 C 
ATOM     14  N   UNL A   1      30.414  24.961  24.387  1.00  0.00    -0.326 N 
ATOM     15  H   UNL A   1      29.448  24.764  24.405  1.00  0.00     0.169 HD
ATOM     16  O   UNL A   1      30.466  23.131  23.165  1.00  0.00    -0.274 OA
BRANCH  14  17
ATOM     17  C   UNL A   1      30.721  26.190  25.011  1.00  0.00     0.044 A 
ATOM     18  C   UNL A   1      31.604  28.664  26.073  1.00  0.00     0.060 A 
ATOM     19  C   UNL A   1      31.545  27.531  26.878  1.00  0.00     0.018 A 
ATOM     20  C   UNL A   1      31.168  28.575  24.748  1.00  0.00     0.021 A 
ATOM     21  C   UNL A   1      31.098  26.316  26.351  1.00  0.00     0.027 A 
ATOM     22  C   UNL A   1      30.685  27.361  24.219  1.00  0.00    -0.027 A 
ATOM     23  C   UNL A   1      30.188  27.365  22.796  1.00  0.00     0.046 C 
BRANCH  18  24
ATOM     24  C   UNL A   1      32.133  29.924  26.657  1.00  0.00     0.337 C 
ATOM     25  O   UNL A   1      31.702  31.035  26.362  1.00  0.00    -0.246 OA
BRANCH  24  26
ATOM     26  O   UNL A   1      33.092  29.720  27.589  1.00  0.00    -0.465 OA
ATOM     27  C   UNL A   1      34.417  29.978  27.117  1.00  0.00     0.282 C 
ENDBRANCH  24  26
ENDBRANCH  18  24
ENDBRANCH  14  17
ENDBRANCH   8  13
ENDBRANCH   4   7
ENDBRANCH   2   3
ENDBRANCH   1   2
BRANCH   1  28
ATOM     28  C   UNL A   1      37.853  20.877  24.890  1.00  0.00     0.023 C 
BRANCH  28  29
ATOM     29  C   UNL A   1      38.185  22.120  25.688  1.00  0.00     0.116 C 
BRANCH  29  30
ATOM     30  N   UNL A   1      39.318  21.959  26.573  1.00  0.00    -0.352 N 
ATOM     31  C   UNL A   1      40.227  22.899  27.024  1.00  0.00     0.251 C 
ATOM     32  H   UNL A   1      39.464  21.043  26.905  1.00  0.00     0.163 HD
ATOM     33  O   UNL A   1      41.275  22.484  27.513  1.00  0.00    -0.269 OA
BRANCH  31  34
ATOM     34  C   UNL A   1      39.858  24.341  27.107  1.00  0.00     0.039 A 
ATOM     35  C   UNL A   1      40.667  25.242  26.400  1.00  0.00     0.014 A 
ATOM     36  C   UNL A   1      39.046  24.814  28.127  1.00  0.00     0.014 A 
ATOM     37  C   UNL A   1      40.905  26.505  26.925  1.00  0.00     0.010 A 
ATOM     38  C   UNL A   1      39.396  25.978  28.746  1.00  0.00     0.010 A 
ATOM     39  C   UNL A   1      40.372  26.788  28.169  1.00  0.00    -0.014 A 
BRANCH  39  40
ATOM     40  C   UNL A   1      40.621  27.974  28.948  1.00  0.00     0.031 A 
ATOM     41  C   UNL A   1      39.659  29.071  28.797  1.00  0.00     0.074 A 
ATOM     42  C   UNL A   1      41.443  27.831  30.008  1.00  0.00     0.049 A 
ATOM     43  N   UNL A   1      39.770  30.199  29.387  1.00  0.00    -0.248 NA
ATOM     44  C   UNL A   1      38.468  28.972  27.954  1.00  0.00     0.031 C 
ATOM     45  C   UNL A   1      41.465  28.578  31.256  1.00  0.00     0.029 A 
ATOM     46  N   UNL A   1      42.575  27.024  30.082  1.00  0.00    -0.354 N 
ATOM     47  C   UNL A   1      38.563  30.852  29.260  1.00  0.00     0.074 A 
ATOM     48  C   UNL A   1      37.825  30.097  28.280  1.00  0.00     0.031 C 
ATOM     49  C   UNL A   1      42.661  28.409  31.847  1.00  0.00     0.029 A 
ATOM     50  C   UNL A   1      43.500  27.692  30.900  1.00  0.00     0.049 A 
ATOM     51  H   UNL A   1      42.702  26.151  29.644  1.00  0.00     0.167 HD
ATOM     52  C   UNL A   1      38.309  31.865  30.129  1.00  0.00     0.034 A 
ATOM     53  C   UNL A   1      44.640  28.194  30.329  1.00  0.00     0.034 A 
ATOM     54  C   UNL A   1      39.501  32.105  30.959  1.00  0.00     0.049 A 
ATOM     55  C   UNL A   1      44.686  29.715  30.352  1.00  0.00     0.074 A 
ATOM     56  C   UNL A   1      39.869  31.692  32.229  1.00  0.00     0.029 A 
ATOM     57  N   UNL A   1      40.656  32.565  30.341  1.00  0.00    -0.354 N 
ATOM     58  N   UNL A   1      43.649  30.476  30.583  1.00  0.00    -0.248 NA
ATOM     59  C   UNL A   1      45.906  30.497  30.188  1.00  0.00     0.031 C 
ATOM     60  C   UNL A   1      41.280  31.846  32.342  1.00  0.00     0.029 A 
ATOM     61  C   UNL A   1      41.759  32.377  31.155  1.00  0.00     0.049 A 
ATOM     62  H   UNL A   1      40.687  32.970  29.445  1.00  0.00     0.167 HD
ATOM     63  C   UNL A   1      44.006  31.800  30.558  1.00  0.00     0.074 A 
ATOM     64  C   UNL A   1      45.445  31.752  30.345  1.00  0.00     0.031 C 
ATOM     65  C   UNL A   1      43.079  32.804  30.700  1.00  0.00     0.034 A 
BRANCH  52  66
ATOM     66  C   UNL A   1      36.967  32.499  30.439  1.00  0.00     0.023 A 
ATOM     67  C   UNL A   1      36.471  32.296  31.748  1.00  0.00     0.012 A 
ATOM     68  C   UNL A   1      36.129  33.238  29.571  1.00  0.00     0.148 A 
ATOM     69  C   UNL A   1      35.211  32.734  32.161  1.00  0.00     0.002 A 
ATOM     70  C   UNL A   1      34.859  33.669  29.977  1.00  0.00     0.091 A 
ATOM     71  F   UNL A   1      36.550  33.568  28.351  1.00  0.00    -0.205 F 
ATOM     72  C   UNL A   1      34.397  33.411  31.271  1.00  0.00     0.022 A 
BRANCH  70  73
ATOM     73  S   UNL A   1      33.725  34.551  28.888  1.00  0.00     0.127 S 
ATOM     74  O   UNL A   1      32.742  35.081  29.835  1.00  0.00    -0.237 OA
ATOM     75  O   UNL A   1      34.591  35.564  28.286  1.00  0.00    -0.237 OA
ATOM     76  O   UNL A   1      33.190  33.564  27.958  1.00  0.00    -0.744 OA
ENDBRANCH  70  73
ENDBRANCH  52  66
BRANCH  53  77
ATOM     77  C   UNL A   1      45.154  27.273  29.254  1.00  0.00     0.023 A 
ATOM     78  C   UNL A   1      45.435  25.945  29.677  1.00  0.00     0.012 A 
ATOM     79  C   UNL A   1      44.903  27.501  27.889  1.00  0.00     0.148 A 
ATOM     80  C   UNL A   1      45.226  24.860  28.823  1.00  0.00     0.002 A 
ATOM     81  C   UNL A   1      44.756  26.408  27.027  1.00  0.00     0.091 A 
ATOM     82  F   UNL A   1      44.755  28.761  27.462  1.00  0.00    -0.205 F 
ATOM     83  C   UNL A   1      44.838  25.091  27.510  1.00  0.00     0.022 A 
BRANCH  81  84
ATOM     84  S   UNL A   1      44.392  26.627  25.278  1.00  0.00     0.127 S 
ATOM     85  O   UNL A   1      43.504  27.785  25.308  1.00  0.00    -0.237 OA
ATOM     86  O   UNL A   1      45.708  26.889  24.696  1.00  0.00    -0.237 OA
ATOM     87  O   UNL A   1      43.793  25.369  24.855  1.00  0.00    -0.744 OA
ENDBRANCH  81  84
ENDBRANCH  53  77
BRANCH  65  88
ATOM     88  C   UNL A   1      43.282  34.294  30.429  1.00  0.00     0.023 A 
ATOM     89  C   UNL A   1      43.577  35.220  31.443  1.00  0.00     0.012 A 
ATOM     90  C   UNL A   1      43.326  34.797  29.095  1.00  0.00     0.148 A 
ATOM     91  C   UNL A   1      43.868  36.563  31.165  1.00  0.00     0.002 A 
ATOM     92  C   UNL A   1      43.747  36.094  28.817  1.00  0.00     0.091 A 
ATOM     93  F   UNL A   1      42.922  34.037  28.068  1.00  0.00    -0.205 F 
ATOM     94  C   UNL A   1      43.988  36.992  29.852  1.00  0.00     0.022 A 
BRANCH  92  95
ATOM     95  S   UNL A   1      44.154  36.605  27.139  1.00  0.00     0.127 S 
ATOM     96  O   UNL A   1      42.851  36.535  26.480  1.00  0.00    -0.237 OA
ATOM     97  O   UNL A   1      44.660  37.963  27.345  1.00  0.00    -0.237 OA
ATOM     98  O   UNL A   1      45.159  35.656  26.680  1.00  0.00    -0.744 OA
ENDBRANCH  92  95
ENDBRANCH  65  88
ENDBRANCH  39  40
ENDBRANCH  31  34
ENDBRANCH  29  30
ENDBRANCH  28  29
ENDBRANCH   1  28
TORSDOF 18
ENDMDL
