MODEL 1
REMARK VINA RESULT:     -12.3      0.000      0.000
REMARK SMILES Cc1cc(C(=O)NC[C@@H]2CC[C@H](C(=O)NCCCCNC(=O)c3ccc(-c4c5nc(c(-c6cccc(S(=O)(=O)[O-])c6F)c6ccc([nH]6)c(-c6cccc(S(=O)(=O)[O-])c6F)c6nc(c(-c7cccc(S(=O)(=O)[O-])c7F)c7ccc4[nH]7)C=C6)C=C5)cc3)O2)on1
REMARK SMILES IDX 17 1 16 2 15 3 13 4 14 5 12 7 9 8 10 9 86 10 11 11 8 12 7 13
REMARK SMILES IDX 5 14 6 15 4 17 1 18 2 19 3 20 88 21 87 22 18 23 19 24 20 25
REMARK SMILES IDX 21 26 22 28 23 29 24 30 85 31 25 32 84 33 26 34 27 35 28 36
REMARK SMILES IDX 78 37 29 38 83 39 77 40 79 41 30 42 82 43 76 44 75 45 31 47
REMARK SMILES IDX 63 48 43 49 62 50 44 51 47 52 61 53 80 54 45 55 46 56 60 58
REMARK SMILES IDX 81 59 48 60 32 61 33 62 41 63 34 64 36 65 42 66 35 67 37 68
REMARK SMILES IDX 38 69 39 70 40 71 64 72 65 73 73 74 66 75 68 76 74 77 67 78
REMARK SMILES IDX 69 79 70 80 71 81 72 82 49 83 50 84 58 85 51 86 53 87 59 88
REMARK SMILES IDX 52 89 54 90 55 91 56 92 57 93
REMARK H PARENT 15 6 7 16 20 27 79 46 47 57
REMARK Flexibility Score: inf
ROOT
ATOM      1  C   UNL A   1      34.986  20.522  24.918  1.00  0.00     0.023 C 
ENDROOT
BRANCH   1   2
ATOM      2  C   UNL A   1      33.512  20.914  24.947  1.00  0.00     0.116 C 
BRANCH   2   3
ATOM      3  N   UNL A   1      33.151  21.851  23.912  1.00  0.00    -0.354 N 
ATOM      4  C   UNL A   1      32.865  23.182  23.998  1.00  0.00     0.249 C 
ATOM      5  O   UNL A   1      32.647  23.788  22.943  1.00  0.00    -0.272 OA
ATOM      6  H   UNL A   1      33.102  21.471  23.004  1.00  0.00     0.163 HD
BRANCH   4   7
ATOM      7  C   UNL A   1      32.794  23.932  25.354  1.00  0.00     0.207 C 
ATOM      8  C   UNL A   1      31.801  25.983  25.948  1.00  0.00     0.138 C 
ATOM      9  C   UNL A   1      33.287  26.262  25.749  1.00  0.00     0.037 C 
ATOM     10  O   UNL A   1      31.563  24.614  25.585  1.00  0.00    -0.363 OA
ATOM     11  C   UNL A   1      33.933  24.902  25.609  1.00  0.00     0.045 C 
BRANCH   8  12
ATOM     12  C   UNL A   1      30.862  26.850  25.086  1.00  0.00     0.148 C 
BRANCH  12  13
ATOM     13  N   UNL A   1      31.014  26.588  23.670  1.00  0.00    -0.347 N 
ATOM     14  C   UNL A   1      30.698  27.323  22.556  1.00  0.00     0.289 C 
ATOM     15  O   UNL A   1      31.120  26.871  21.489  1.00  0.00    -0.266 OA
ATOM     16  H   UNL A   1      31.420  25.714  23.469  1.00  0.00     0.164 HD
BRANCH  14  17
ATOM     17  C   UNL A   1      29.918  28.539  22.632  1.00  0.00     0.224 A 
ATOM     18  C   UNL A   1      27.644  31.319  23.385  1.00  0.00     0.070 C 
ATOM     19  C   UNL A   1      28.628  30.326  22.902  1.00  0.00     0.081 A 
ATOM     20  C   UNL A   1      28.900  29.039  23.416  1.00  0.00     0.083 A 
ATOM     21  N   UNL A   1      29.391  30.590  21.840  1.00  0.00    -0.084 NA
ATOM     22  O   UNL A   1      30.194  29.478  21.671  1.00  0.00    -0.351 OA
ENDBRANCH  14  17
ENDBRANCH  12  13
ENDBRANCH   8  12
ENDBRANCH   4   7
ENDBRANCH   2   3
ENDBRANCH   1   2
BRANCH   1  23
ATOM     23  C   UNL A   1      35.885  21.436  25.743  1.00  0.00     0.023 C 
BRANCH  23  24
ATOM     24  C   UNL A   1      37.262  21.701  25.141  1.00  0.00     0.116 C 
BRANCH  24  25
ATOM     25  N   UNL A   1      38.246  20.663  25.434  1.00  0.00    -0.352 N 
ATOM     26  C   UNL A   1      39.441  20.812  26.104  1.00  0.00     0.251 C 
ATOM     27  H   UNL A   1      38.032  19.756  25.116  1.00  0.00     0.163 HD
ATOM     28  O   UNL A   1      40.224  19.875  26.208  1.00  0.00    -0.269 OA
BRANCH  26  29
ATOM     29  C   UNL A   1      39.770  22.144  26.651  1.00  0.00     0.039 A 
ATOM     30  C   UNL A   1      40.791  22.259  27.597  1.00  0.00     0.014 A 
ATOM     31  C   UNL A   1      39.159  23.281  26.116  1.00  0.00     0.014 A 
ATOM     32  C   UNL A   1      41.263  23.528  27.942  1.00  0.00     0.010 A 
ATOM     33  C   UNL A   1      39.686  24.533  26.400  1.00  0.00     0.010 A 
ATOM     34  C   UNL A   1      40.749  24.671  27.309  1.00  0.00    -0.014 A 
BRANCH  34  35
ATOM     35  C   UNL A   1      41.302  26.027  27.561  1.00  0.00     0.031 A 
ATOM     36  C   UNL A   1      42.704  26.348  27.122  1.00  0.00     0.074 A 
ATOM     37  C   UNL A   1      40.595  26.922  28.282  1.00  0.00     0.049 A 
ATOM     38  N   UNL A   1      43.424  27.410  27.370  1.00  0.00    -0.248 NA
ATOM     39  C   UNL A   1      43.402  25.323  26.326  1.00  0.00     0.031 C 
ATOM     40  C   UNL A   1      39.248  26.708  28.818  1.00  0.00     0.029 A 
ATOM     41  N   UNL A   1      40.926  28.183  28.717  1.00  0.00    -0.354 N 
ATOM     42  C   UNL A   1      44.666  27.168  26.795  1.00  0.00     0.074 A 
ATOM     43  C   UNL A   1      44.615  25.842  26.222  1.00  0.00     0.031 C 
ATOM     44  C   UNL A   1      38.868  27.798  29.507  1.00  0.00     0.029 A 
ATOM     45  C   UNL A   1      39.956  28.770  29.499  1.00  0.00     0.049 A 
ATOM     46  H   UNL A   1      41.776  28.623  28.492  1.00  0.00     0.167 HD
ATOM     47  C   UNL A   1      45.741  27.987  26.722  1.00  0.00     0.034 A 
ATOM     48  C   UNL A   1      39.952  29.953  30.147  1.00  0.00     0.034 A 
ATOM     49  C   UNL A   1      45.771  29.320  27.254  1.00  0.00     0.049 A 
ATOM     50  C   UNL A   1      41.158  30.850  30.038  1.00  0.00     0.074 A 
ATOM     51  C   UNL A   1      46.789  30.253  27.177  1.00  0.00     0.029 A 
ATOM     52  N   UNL A   1      44.735  29.912  27.961  1.00  0.00    -0.354 N 
ATOM     53  N   UNL A   1      42.274  30.653  29.382  1.00  0.00    -0.248 NA
ATOM     54  C   UNL A   1      41.091  32.146  30.731  1.00  0.00     0.031 C 
ATOM     55  C   UNL A   1      46.375  31.405  27.852  1.00  0.00     0.029 A 
ATOM     56  C   UNL A   1      45.089  31.199  28.323  1.00  0.00     0.049 A 
ATOM     57  H   UNL A   1      43.877  29.481  28.172  1.00  0.00     0.167 HD
ATOM     58  C   UNL A   1      43.019  31.818  29.537  1.00  0.00     0.074 A 
ATOM     59  C   UNL A   1      42.225  32.717  30.346  1.00  0.00     0.031 C 
ATOM     60  C   UNL A   1      44.253  32.111  29.060  1.00  0.00     0.034 A 
BRANCH  47  61
ATOM     61  C   UNL A   1      46.955  27.484  25.988  1.00  0.00     0.023 A 
ATOM     62  C   UNL A   1      47.875  26.651  26.659  1.00  0.00     0.012 A 
ATOM     63  C   UNL A   1      47.156  27.778  24.626  1.00  0.00     0.148 A 
ATOM     64  C   UNL A   1      48.993  26.148  25.998  1.00  0.00     0.002 A 
ATOM     65  C   UNL A   1      48.248  27.235  23.960  1.00  0.00     0.091 A 
ATOM     66  F   UNL A   1      46.282  28.587  24.011  1.00  0.00    -0.205 F 
ATOM     67  C   UNL A   1      49.173  26.431  24.647  1.00  0.00     0.022 A 
BRANCH  65  68
ATOM     68  S   UNL A   1      48.527  27.468  22.201  1.00  0.00     0.127 S 
ATOM     69  O   UNL A   1      49.696  28.347  22.203  1.00  0.00    -0.237 OA
ATOM     70  O   UNL A   1      48.792  26.102  21.748  1.00  0.00    -0.237 OA
ATOM     71  O   UNL A   1      47.304  28.058  21.674  1.00  0.00    -0.744 OA
ENDBRANCH  65  68
ENDBRANCH  47  61
BRANCH  48  72
ATOM     72  C   UNL A   1      38.746  30.393  30.909  1.00  0.00     0.023 A 
ATOM     73  C   UNL A   1      38.653  30.095  32.283  1.00  0.00     0.012 A 
ATOM     74  C   UNL A   1      37.699  31.101  30.290  1.00  0.00     0.148 A 
ATOM     75  C   UNL A   1      37.523  30.457  33.016  1.00  0.00     0.002 A 
ATOM     76  C   UNL A   1      36.600  31.508  31.039  1.00  0.00     0.091 A 
ATOM     77  F   UNL A   1      37.797  31.366  28.979  1.00  0.00    -0.205 F 
ATOM     78  C   UNL A   1      36.500  31.171  32.398  1.00  0.00     0.022 A 
BRANCH  76  79
ATOM     79  S   UNL A   1      35.300  32.542  30.355  1.00  0.00     0.127 S 
ATOM     80  O   UNL A   1      36.031  33.759  30.016  1.00  0.00    -0.237 OA
ATOM     81  O   UNL A   1      34.855  31.750  29.207  1.00  0.00    -0.237 OA
ATOM     82  O   UNL A   1      34.306  32.670  31.412  1.00  0.00    -0.744 OA
ENDBRANCH  76  79
ENDBRANCH  48  72
BRANCH  60  83
ATOM     83  C   UNL A   1      44.809  33.484  29.326  1.00  0.00     0.023 A 
ATOM     84  C   UNL A   1      45.598  33.718  30.467  1.00  0.00     0.012 A 
ATOM     85  C   UNL A   1      44.642  34.509  28.373  1.00  0.00     0.148 A 
ATOM     86  C   UNL A   1      46.200  34.960  30.666  1.00  0.00     0.002 A 
ATOM     87  C   UNL A   1      45.285  35.726  28.553  1.00  0.00     0.091 A 
ATOM     88  F   UNL A   1      43.872  34.266  27.302  1.00  0.00    -0.205 F 
ATOM     89  C   UNL A   1      46.056  35.958  29.703  1.00  0.00     0.022 A 
BRANCH  87  90
ATOM     90  S   UNL A   1      45.242  37.033  27.320  1.00  0.00     0.127 S 
ATOM     91  O   UNL A   1      45.849  38.147  28.046  1.00  0.00    -0.237 OA
ATOM     92  O   UNL A   1      46.071  36.475  26.252  1.00  0.00    -0.237 OA
ATOM     93  O   UNL A   1      43.839  37.213  26.970  1.00  0.00    -0.744 OA
ENDBRANCH  87  90
ENDBRANCH  60  83
ENDBRANCH  34  35
ENDBRANCH  26  29
ENDBRANCH  24  25
ENDBRANCH  23  24
ENDBRANCH   1  23
TORSDOF 17
ENDMDL
MODEL 2
REMARK VINA RESULT:     -12.0      1.474      7.969
REMARK SMILES Cc1cc(C(=O)NC[C@@H]2CC[C@H](C(=O)NCCCCNC(=O)c3ccc(-c4c5nc(c(-c6cccc(S(=O)(=O)[O-])c6F)c6ccc([nH]6)c(-c6cccc(S(=O)(=O)[O-])c6F)c6nc(c(-c7cccc(S(=O)(=O)[O-])c7F)c7ccc4[nH]7)C=C6)C=C5)cc3)O2)on1
REMARK SMILES IDX 17 1 16 2 15 3 13 4 14 5 12 7 9 8 10 9 86 10 11 11 8 12 7 13
REMARK SMILES IDX 5 14 6 15 4 17 1 18 2 19 3 20 88 21 87 22 18 23 19 24 20 25
REMARK SMILES IDX 21 26 22 28 23 29 24 30 85 31 25 32 84 33 26 34 27 35 28 36
REMARK SMILES IDX 78 37 29 38 83 39 77 40 79 41 30 42 82 43 76 44 75 45 31 47
REMARK SMILES IDX 63 48 43 49 62 50 44 51 47 52 61 53 80 54 45 55 46 56 60 58
REMARK SMILES IDX 81 59 48 60 32 61 33 62 41 63 34 64 36 65 42 66 35 67 37 68
REMARK SMILES IDX 38 69 39 70 40 71 64 72 65 73 73 74 66 75 68 76 74 77 67 78
REMARK SMILES IDX 69 79 70 80 71 81 72 82 49 83 50 84 58 85 51 86 53 87 59 88
REMARK SMILES IDX 52 89 54 90 55 91 56 92 57 93
REMARK H PARENT 15 6 7 16 20 27 79 46 47 57
REMARK Flexibility Score: inf
ROOT
ATOM      1  C   UNL A   1      35.819  23.240  23.627  1.00  0.00     0.023 C 
ENDROOT
BRANCH   1   2
ATOM      2  C   UNL A   1      34.790  24.318  23.948  1.00  0.00     0.116 C 
BRANCH   2   3
ATOM      3  N   UNL A   1      34.192  24.904  22.774  1.00  0.00    -0.354 N 
ATOM      4  C   UNL A   1      33.607  26.126  22.606  1.00  0.00     0.249 C 
ATOM      5  O   UNL A   1      33.225  26.424  21.470  1.00  0.00    -0.272 OA
ATOM      6  H   UNL A   1      34.208  24.335  21.970  1.00  0.00     0.163 HD
BRANCH   4   7
ATOM      7  C   UNL A   1      33.401  27.117  23.781  1.00  0.00     0.207 C 
ATOM      8  C   UNL A   1      31.628  27.372  25.309  1.00  0.00     0.138 C 
ATOM      9  C   UNL A   1      31.431  28.436  24.235  1.00  0.00     0.037 C 
ATOM     10  O   UNL A   1      32.743  26.557  24.915  1.00  0.00    -0.363 OA
ATOM     11  C   UNL A   1      32.698  28.410  23.411  1.00  0.00     0.045 C 
BRANCH   8  12
ATOM     12  C   UNL A   1      30.425  26.429  25.510  1.00  0.00     0.148 C 
BRANCH  12  13
ATOM     13  N   UNL A   1      30.668  25.435  26.534  1.00  0.00    -0.347 N 
ATOM     14  C   UNL A   1      31.157  24.155  26.481  1.00  0.00     0.289 C 
ATOM     15  O   UNL A   1      31.398  23.637  27.574  1.00  0.00    -0.266 OA
ATOM     16  H   UNL A   1      30.436  25.736  27.442  1.00  0.00     0.164 HD
BRANCH  14  17
ATOM     17  C   UNL A   1      31.366  23.463  25.228  1.00  0.00     0.224 A 
ATOM     18  C   UNL A   1      32.159  21.197  22.453  1.00  0.00     0.070 C 
ATOM     19  C   UNL A   1      31.768  22.256  23.409  1.00  0.00     0.081 A 
ATOM     20  C   UNL A   1      31.915  22.268  24.813  1.00  0.00     0.083 A 
ATOM     21  N   UNL A   1      31.209  23.386  22.974  1.00  0.00    -0.084 NA
ATOM     22  O   UNL A   1      30.959  24.138  24.106  1.00  0.00    -0.351 OA
ENDBRANCH  14  17
ENDBRANCH  12  13
ENDBRANCH   8  12
ENDBRANCH   4   7
ENDBRANCH   2   3
ENDBRANCH   1   2
BRANCH   1  23
ATOM     23  C   UNL A   1      35.653  21.963  24.444  1.00  0.00     0.023 C 
BRANCH  23  24
ATOM     24  C   UNL A   1      36.593  21.835  25.638  1.00  0.00     0.116 C 
BRANCH  24  25
ATOM     25  N   UNL A   1      37.590  20.778  25.496  1.00  0.00    -0.352 N 
ATOM     26  C   UNL A   1      38.922  20.835  25.846  1.00  0.00     0.251 C 
ATOM     27  H   UNL A   1      37.275  19.930  25.106  1.00  0.00     0.163 HD
ATOM     28  O   UNL A   1      39.678  19.904  25.593  1.00  0.00    -0.269 OA
BRANCH  26  29
ATOM     29  C   UNL A   1      39.419  22.067  26.491  1.00  0.00     0.039 A 
ATOM     30  C   UNL A   1      40.449  21.976  27.429  1.00  0.00     0.014 A 
ATOM     31  C   UNL A   1      38.955  23.310  26.055  1.00  0.00     0.014 A 
ATOM     32  C   UNL A   1      41.080  23.144  27.867  1.00  0.00     0.010 A 
ATOM     33  C   UNL A   1      39.638  24.460  26.429  1.00  0.00     0.010 A 
ATOM     34  C   UNL A   1      40.713  24.389  27.332  1.00  0.00    -0.014 A 
BRANCH  34  35
ATOM     35  C   UNL A   1      41.434  25.640  27.682  1.00  0.00     0.031 A 
ATOM     36  C   UNL A   1      40.716  26.720  28.444  1.00  0.00     0.074 A 
ATOM     37  C   UNL A   1      42.683  25.853  27.219  1.00  0.00     0.049 A 
ATOM     38  N   UNL A   1      41.110  27.935  28.722  1.00  0.00    -0.248 NA
ATOM     39  C   UNL A   1      39.361  26.404  28.929  1.00  0.00     0.031 C 
ATOM     40  C   UNL A   1      43.464  24.907  26.417  1.00  0.00     0.029 A 
ATOM     41  N   UNL A   1      43.505  26.949  27.328  1.00  0.00    -0.354 N 
ATOM     42  C   UNL A   1      40.043  28.537  29.378  1.00  0.00     0.074 A 
ATOM     43  C   UNL A   1      38.971  27.568  29.421  1.00  0.00     0.031 C 
ATOM     44  C   UNL A   1      44.649  25.463  26.108  1.00  0.00     0.029 A 
ATOM     45  C   UNL A   1      44.697  26.816  26.653  1.00  0.00     0.049 A 
ATOM     46  H   UNL A   1      43.262  27.753  27.840  1.00  0.00     0.167 HD
ATOM     47  C   UNL A   1      39.972  29.773  29.925  1.00  0.00     0.034 A 
ATOM     48  C   UNL A   1      45.708  27.692  26.479  1.00  0.00     0.034 A 
ATOM     49  C   UNL A   1      41.055  30.716  29.919  1.00  0.00     0.049 A 
ATOM     50  C   UNL A   1      45.608  29.056  27.110  1.00  0.00     0.074 A 
ATOM     51  C   UNL A   1      41.105  31.970  30.501  1.00  0.00     0.029 A 
ATOM     52  N   UNL A   1      42.279  30.509  29.302  1.00  0.00    -0.354 N 
ATOM     53  N   UNL A   1      44.640  29.560  27.836  1.00  0.00    -0.248 NA
ATOM     54  C   UNL A   1      46.751  29.963  26.926  1.00  0.00     0.031 C 
ATOM     55  C   UNL A   1      42.356  32.529  30.221  1.00  0.00     0.029 A 
ATOM     56  C   UNL A   1      43.093  31.611  29.492  1.00  0.00     0.049 A 
ATOM     57  H   UNL A   1      42.531  29.699  28.805  1.00  0.00     0.167 HD
ATOM     58  C   UNL A   1      45.079  30.817  28.239  1.00  0.00     0.074 A 
ATOM     59  C   UNL A   1      46.402  30.997  27.681  1.00  0.00     0.031 C 
ATOM     60  C   UNL A   1      44.439  31.741  28.996  1.00  0.00     0.034 A 
BRANCH  47  61
ATOM     61  C   UNL A   1      38.697  30.155  30.630  1.00  0.00     0.023 A 
ATOM     62  C   UNL A   1      38.521  29.800  31.983  1.00  0.00     0.012 A 
ATOM     63  C   UNL A   1      37.706  30.916  29.981  1.00  0.00     0.148 A 
ATOM     64  C   UNL A   1      37.365  30.164  32.670  1.00  0.00     0.002 A 
ATOM     65  C   UNL A   1      36.577  31.316  30.685  1.00  0.00     0.091 A 
ATOM     66  F   UNL A   1      37.883  31.228  28.689  1.00  0.00    -0.205 F 
ATOM     67  C   UNL A   1      36.399  30.930  32.024  1.00  0.00     0.022 A 
BRANCH  65  68
ATOM     68  S   UNL A   1      35.313  32.374  29.973  1.00  0.00     0.127 S 
ATOM     69  O   UNL A   1      36.096  33.547  29.584  1.00  0.00    -0.237 OA
ATOM     70  O   UNL A   1      34.829  31.566  28.853  1.00  0.00    -0.237 OA
ATOM     71  O   UNL A   1      34.334  32.600  31.028  1.00  0.00    -0.744 OA
ENDBRANCH  65  68
ENDBRANCH  47  61
BRANCH  48  72
ATOM     72  C   UNL A   1      46.934  27.292  25.729  1.00  0.00     0.023 A 
ATOM     73  C   UNL A   1      47.928  26.539  26.384  1.00  0.00     0.012 A 
ATOM     74  C   UNL A   1      47.123  27.647  24.379  1.00  0.00     0.148 A 
ATOM     75  C   UNL A   1      49.104  26.182  25.724  1.00  0.00     0.002 A 
ATOM     76  C   UNL A   1      48.272  27.240  23.710  1.00  0.00     0.091 A 
ATOM     77  F   UNL A   1      46.173  28.373  23.773  1.00  0.00    -0.205 F 
ATOM     78  C   UNL A   1      49.273  26.524  24.385  1.00  0.00     0.022 A 
BRANCH  76  79
ATOM     79  S   UNL A   1      48.513  27.524  21.953  1.00  0.00     0.127 S 
ATOM     80  O   UNL A   1      49.662  28.426  21.950  1.00  0.00    -0.237 OA
ATOM     81  O   UNL A   1      48.788  26.173  21.462  1.00  0.00    -0.237 OA
ATOM     82  O   UNL A   1      47.259  28.089  21.473  1.00  0.00    -0.744 OA
ENDBRANCH  76  79
ENDBRANCH  48  72
BRANCH  60  83
ATOM     83  C   UNL A   1      45.174  33.008  29.340  1.00  0.00     0.023 A 
ATOM     84  C   UNL A   1      46.008  33.057  30.473  1.00  0.00     0.012 A 
ATOM     85  C   UNL A   1      45.125  34.112  28.464  1.00  0.00     0.148 A 
ATOM     86  C   UNL A   1      46.770  34.194  30.739  1.00  0.00     0.002 A 
ATOM     87  C   UNL A   1      45.925  35.220  28.709  1.00  0.00     0.091 A 
ATOM     88  F   UNL A   1      44.311  34.047  27.400  1.00  0.00    -0.205 F 
ATOM     89  C   UNL A   1      46.740  35.267  29.851  1.00  0.00     0.022 A 
BRANCH  87  90
ATOM     90  S   UNL A   1      46.030  36.605  27.570  1.00  0.00     0.127 S 
ATOM     91  O   UNL A   1      47.009  37.463  28.235  1.00  0.00    -0.237 OA
ATOM     92  O   UNL A   1      46.511  35.962  26.347  1.00  0.00    -0.237 OA
ATOM     93  O   UNL A   1      44.685  37.157  27.478  1.00  0.00    -0.744 OA
ENDBRANCH  87  90
ENDBRANCH  60  83
ENDBRANCH  34  35
ENDBRANCH  26  29
ENDBRANCH  24  25
ENDBRANCH  23  24
ENDBRANCH   1  23
TORSDOF 17
ENDMDL
MODEL 3
REMARK VINA RESULT:     -11.9      5.299      8.001
REMARK SMILES Cc1cc(C(=O)NC[C@@H]2CC[C@H](C(=O)NCCCCNC(=O)c3ccc(-c4c5nc(c(-c6cccc(S(=O)(=O)[O-])c6F)c6ccc([nH]6)c(-c6cccc(S(=O)(=O)[O-])c6F)c6nc(c(-c7cccc(S(=O)(=O)[O-])c7F)c7ccc4[nH]7)C=C6)C=C5)cc3)O2)on1
REMARK SMILES IDX 17 1 16 2 15 3 13 4 14 5 12 7 9 8 10 9 86 10 11 11 8 12 7 13
REMARK SMILES IDX 5 14 6 15 4 17 1 18 2 19 3 20 88 21 87 22 18 23 19 24 20 25
REMARK SMILES IDX 21 26 22 28 23 29 24 30 85 31 25 32 84 33 26 34 27 35 28 36
REMARK SMILES IDX 78 37 29 38 83 39 77 40 79 41 30 42 82 43 76 44 75 45 31 47
REMARK SMILES IDX 63 48 43 49 62 50 44 51 47 52 61 53 80 54 45 55 46 56 60 58
REMARK SMILES IDX 81 59 48 60 32 61 33 62 41 63 34 64 36 65 42 66 35 67 37 68
REMARK SMILES IDX 38 69 39 70 40 71 64 72 65 73 73 74 66 75 68 76 74 77 67 78
REMARK SMILES IDX 69 79 70 80 71 81 72 82 49 83 50 84 58 85 51 86 53 87 59 88
REMARK SMILES IDX 52 89 54 90 55 91 56 92 57 93
REMARK H PARENT 15 6 7 16 20 27 79 46 47 57
REMARK Flexibility Score: inf
ROOT
ATOM      1  C   UNL A   1      33.694  28.661  23.293  1.00  0.00     0.023 C 
ENDROOT
BRANCH   1   2
ATOM      2  C   UNL A   1      33.173  27.974  22.035  1.00  0.00     0.116 C 
BRANCH   2   3
ATOM      3  N   UNL A   1      33.572  26.593  21.931  1.00  0.00    -0.354 N 
ATOM      4  C   UNL A   1      32.961  25.468  22.405  1.00  0.00     0.249 C 
ATOM      5  O   UNL A   1      33.474  24.380  22.123  1.00  0.00    -0.272 OA
ATOM      6  H   UNL A   1      34.415  26.437  21.445  1.00  0.00     0.163 HD
BRANCH   4   7
ATOM      7  C   UNL A   1      31.681  25.522  23.278  1.00  0.00     0.207 C 
ATOM      8  C   UNL A   1      31.253  24.749  25.461  1.00  0.00     0.138 C 
ATOM      9  C   UNL A   1      30.690  23.698  24.510  1.00  0.00     0.037 C 
ATOM     10  O   UNL A   1      31.924  25.739  24.666  1.00  0.00    -0.363 OA
ATOM     11  C   UNL A   1      30.759  24.324  23.136  1.00  0.00     0.045 C 
BRANCH   8  12
ATOM     12  C   UNL A   1      32.278  24.213  26.480  1.00  0.00     0.148 C 
BRANCH  12  13
ATOM     13  N   UNL A   1      33.627  24.206  25.953  1.00  0.00    -0.347 N 
ATOM     14  C   UNL A   1      34.332  23.274  25.234  1.00  0.00     0.289 C 
ATOM     15  O   UNL A   1      35.418  23.660  24.795  1.00  0.00    -0.266 OA
ATOM     16  H   UNL A   1      34.135  25.025  26.151  1.00  0.00     0.164 HD
BRANCH  14  17
ATOM     17  C   UNL A   1      33.836  21.933  25.016  1.00  0.00     0.224 A 
ATOM     18  C   UNL A   1      32.468  18.750  23.807  1.00  0.00     0.070 C 
ATOM     19  C   UNL A   1      33.035  19.929  24.499  1.00  0.00     0.081 A 
ATOM     20  C   UNL A   1      33.274  21.220  23.979  1.00  0.00     0.083 A 
ATOM     21  N   UNL A   1      33.380  19.857  25.786  1.00  0.00    -0.084 NA
ATOM     22  O   UNL A   1      33.878  21.104  26.108  1.00  0.00    -0.351 OA
ENDBRANCH  14  17
ENDBRANCH  12  13
ENDBRANCH   8  12
ENDBRANCH   4   7
ENDBRANCH   2   3
ENDBRANCH   1   2
BRANCH   1  23
ATOM     23  C   UNL A   1      32.597  29.116  24.249  1.00  0.00     0.023 C 
BRANCH  23  24
ATOM     24  C   UNL A   1      33.061  29.408  25.672  1.00  0.00     0.116 C 
BRANCH  24  25
ATOM     25  N   UNL A   1      32.527  30.647  26.227  1.00  0.00    -0.352 N 
ATOM     26  C   UNL A   1      33.138  31.486  27.136  1.00  0.00     0.251 C 
ATOM     27  H   UNL A   1      31.631  30.913  25.920  1.00  0.00     0.163 HD
ATOM     28  O   UNL A   1      32.544  32.455  27.593  1.00  0.00    -0.269 OA
BRANCH  26  29
ATOM     29  C   UNL A   1      34.508  31.155  27.575  1.00  0.00     0.039 A 
ATOM     30  C   UNL A   1      35.438  32.184  27.738  1.00  0.00     0.014 A 
ATOM     31  C   UNL A   1      34.815  29.846  27.955  1.00  0.00     0.014 A 
ATOM     32  C   UNL A   1      36.654  31.913  28.370  1.00  0.00     0.010 A 
ATOM     33  C   UNL A   1      35.988  29.600  28.656  1.00  0.00     0.010 A 
ATOM     34  C   UNL A   1      36.917  30.630  28.879  1.00  0.00    -0.014 A 
BRANCH  34  35
ATOM     35  C   UNL A   1      38.145  30.329  29.659  1.00  0.00     0.031 A 
ATOM     36  C   UNL A   1      39.155  29.362  29.105  1.00  0.00     0.074 A 
ATOM     37  C   UNL A   1      38.294  30.827  30.904  1.00  0.00     0.049 A 
ATOM     38  N   UNL A   1      40.212  28.852  29.680  1.00  0.00    -0.248 NA
ATOM     39  C   UNL A   1      38.927  28.876  27.733  1.00  0.00     0.031 C 
ATOM     40  C   UNL A   1      37.354  31.726  31.578  1.00  0.00     0.029 A 
ATOM     41  N   UNL A   1      39.279  30.619  31.840  1.00  0.00    -0.354 N 
ATOM     42  C   UNL A   1      40.753  27.963  28.759  1.00  0.00     0.074 A 
ATOM     43  C   UNL A   1      39.885  27.971  27.603  1.00  0.00     0.031 C 
ATOM     44  C   UNL A   1      37.808  31.993  32.815  1.00  0.00     0.029 A 
ATOM     45  C   UNL A   1      39.046  31.254  33.039  1.00  0.00     0.049 A 
ATOM     46  H   UNL A   1      40.076  30.067  31.668  1.00  0.00     0.167 HD
ATOM     47  C   UNL A   1      41.886  27.230  28.853  1.00  0.00     0.034 A 
ATOM     48  C   UNL A   1      39.743  31.230  34.192  1.00  0.00     0.034 A 
ATOM     49  C   UNL A   1      42.769  27.260  29.984  1.00  0.00     0.049 A 
ATOM     50  C   UNL A   1      41.009  30.416  34.264  1.00  0.00     0.074 A 
ATOM     51  C   UNL A   1      43.975  26.603  30.150  1.00  0.00     0.029 A 
ATOM     52  N   UNL A   1      42.544  27.986  31.144  1.00  0.00    -0.354 N 
ATOM     53  N   UNL A   1      41.570  29.681  33.335  1.00  0.00    -0.248 NA
ATOM     54  C   UNL A   1      41.756  30.451  35.530  1.00  0.00     0.031 C 
ATOM     55  C   UNL A   1      44.472  26.919  31.418  1.00  0.00     0.029 A 
ATOM     56  C   UNL A   1      43.589  27.796  32.029  1.00  0.00     0.049 A 
ATOM     57  H   UNL A   1      41.757  28.552  31.311  1.00  0.00     0.167 HD
ATOM     58  C   UNL A   1      42.758  29.212  33.884  1.00  0.00     0.074 A 
ATOM     59  C   UNL A   1      42.840  29.749  35.226  1.00  0.00     0.031 C 
ATOM     60  C   UNL A   1      43.693  28.403  33.330  1.00  0.00     0.034 A 
BRANCH  47  61
ATOM     61  C   UNL A   1      42.269  26.379  27.672  1.00  0.00     0.023 A 
ATOM     62  C   UNL A   1      43.088  26.923  26.661  1.00  0.00     0.012 A 
ATOM     63  C   UNL A   1      41.876  25.029  27.590  1.00  0.00     0.148 A 
ATOM     64  C   UNL A   1      43.482  26.151  25.571  1.00  0.00     0.002 A 
ATOM     65  C   UNL A   1      42.311  24.251  26.523  1.00  0.00     0.091 A 
ATOM     66  F   UNL A   1      41.082  24.535  28.550  1.00  0.00    -0.205 F 
ATOM     67  C   UNL A   1      43.102  24.813  25.507  1.00  0.00     0.022 A 
BRANCH  65  68
ATOM     68  S   UNL A   1      41.949  22.497  26.390  1.00  0.00     0.127 S 
ATOM     69  O   UNL A   1      40.488  22.502  26.333  1.00  0.00    -0.237 OA
ATOM     70  O   UNL A   1      42.607  22.141  25.133  1.00  0.00    -0.237 OA
ATOM     71  O   UNL A   1      42.524  21.876  27.575  1.00  0.00    -0.744 OA
ENDBRANCH  65  68
ENDBRANCH  47  61
BRANCH  48  72
ATOM     72  C   UNL A   1      39.302  32.049  35.359  1.00  0.00     0.023 A 
ATOM     73  C   UNL A   1      39.611  33.423  35.394  1.00  0.00     0.012 A 
ATOM     74  C   UNL A   1      38.581  31.484  36.429  1.00  0.00     0.148 A 
ATOM     75  C   UNL A   1      39.248  34.209  36.487  1.00  0.00     0.002 A 
ATOM     76  C   UNL A   1      38.173  32.285  37.490  1.00  0.00     0.091 A 
ATOM     77  F   UNL A   1      38.304  30.172  36.387  1.00  0.00    -0.205 F 
ATOM     78  C   UNL A   1      38.522  33.643  37.531  1.00  0.00     0.022 A 
BRANCH  76  79
ATOM     79  S   UNL A   1      37.124  31.669  38.812  1.00  0.00     0.127 S 
ATOM     80  O   UNL A   1      38.005  31.782  39.971  1.00  0.00    -0.237 OA
ATOM     81  O   UNL A   1      36.013  32.621  38.786  1.00  0.00    -0.237 OA
ATOM     82  O   UNL A   1      36.758  30.314  38.420  1.00  0.00    -0.744 OA
ENDBRANCH  76  79
ENDBRANCH  48  72
BRANCH  60  83
ATOM     83  C   UNL A   1      44.931  28.096  34.130  1.00  0.00     0.023 A 
ATOM     84  C   UNL A   1      46.030  28.974  34.097  1.00  0.00     0.012 A 
ATOM     85  C   UNL A   1      44.948  26.993  35.008  1.00  0.00     0.148 A 
ATOM     86  C   UNL A   1      47.137  28.749  34.914  1.00  0.00     0.002 A 
ATOM     87  C   UNL A   1      46.032  26.804  35.854  1.00  0.00     0.091 A 
ATOM     88  F   UNL A   1      43.895  26.162  35.009  1.00  0.00    -0.205 F 
ATOM     89  C   UNL A   1      47.132  27.675  35.801  1.00  0.00     0.022 A 
BRANCH  87  90
ATOM     90  S   UNL A   1      46.072  25.510  37.099  1.00  0.00     0.127 S 
ATOM     91  O   UNL A   1      46.049  24.303  36.276  1.00  0.00    -0.237 OA
ATOM     92  O   UNL A   1      47.346  25.769  37.771  1.00  0.00    -0.237 OA
ATOM     93  O   UNL A   1      44.894  25.715  37.933  1.00  0.00    -0.744 OA
ENDBRANCH  87  90
ENDBRANCH  60  83
ENDBRANCH  34  35
ENDBRANCH  26  29
ENDBRANCH  24  25
ENDBRANCH  23  24
ENDBRANCH   1  23
TORSDOF 17
ENDMDL
