MODEL 1
REMARK VINA RESULT:     -11.6      0.000      0.000
REMARK SMILES O=C(COc1cc(-c2ccncc2)nc(Nc2ccccc2Br)n1)NCCCCNC(=O)c1ccc(-c2c3nc(c(-c4cccc(S(=O)(=O)[O-])c4F)c4ccc([nH]4)c(-c4cccc(S(=O)(=O)[O-])c4F)c4nc(c(-c5cccc(S(=O)(=O)[O-])c5F)c5ccc2[nH]5)C=C4)C=C3)cc1
REMARK SMILES IDX 27 1 26 2 25 3 1 4 2 5 3 7 4 8 5 9 6 10 24 11 7 12 15 13
REMARK SMILES IDX 14 14 8 15 9 16 13 17 10 18 12 19 11 20 16 21 17 23 18 24
REMARK SMILES IDX 22 25 19 26 21 27 23 28 20 29 28 30 29 31 30 32 31 33 32 35
REMARK SMILES IDX 33 36 34 37 95 38 35 39 94 40 36 41 37 42 38 43 88 44 39 45
REMARK SMILES IDX 93 46 87 47 89 48 40 49 92 50 86 51 85 52 41 54 73 55 53 56
REMARK SMILES IDX 72 57 54 58 57 59 71 60 90 61 55 62 56 63 70 65 91 66 58 67
REMARK SMILES IDX 42 68 43 69 51 70 44 71 46 72 52 73 45 74 47 75 48 76 49 77
REMARK SMILES IDX 50 78 74 79 75 80 83 81 76 82 78 83 84 84 77 85 79 86 80 87
REMARK SMILES IDX 81 88 82 89 59 90 60 91 68 92 61 93 63 94 69 95 62 96 64 97
REMARK SMILES IDX 65 98 66 99 67 100
REMARK H PARENT 25 6 16 22 30 34 89 53 57 64
REMARK Flexibility Score: inf
ROOT
ATOM      1  C   UNL A   1      31.410  28.199  25.388  1.00  0.00     0.023 C 
ENDROOT
BRANCH   1   2
ATOM      2  C   UNL A   1      30.643  27.122  24.635  1.00  0.00     0.116 C 
BRANCH   2   3
ATOM      3  N   UNL A   1      31.294  25.826  24.664  1.00  0.00    -0.353 N 
ATOM      4  O   UNL A   1      30.151  24.997  26.482  1.00  0.00    -0.271 OA
ATOM      5  C   UNL A   1      30.912  24.823  25.536  1.00  0.00     0.258 C 
ATOM      6  H   UNL A   1      32.036  25.655  24.040  1.00  0.00     0.163 HD
BRANCH   5   7
ATOM      7  C   UNL A   1      31.459  23.440  25.164  1.00  0.00     0.331 C 
BRANCH   7   8
ATOM      8  O   UNL A   1      32.104  22.766  26.245  1.00  0.00    -0.467 OA
BRANCH   8   9
ATOM      9  C   UNL A   1      33.063  21.876  25.825  1.00  0.00     0.219 A 
ATOM     10  C   UNL A   1      32.764  20.557  25.623  1.00  0.00     0.097 A 
ATOM     11  N   UNL A   1      34.237  22.409  25.483  1.00  0.00    -0.177 NA
ATOM     12  C   UNL A   1      33.755  19.775  25.078  1.00  0.00     0.080 A 
ATOM     13  C   UNL A   1      35.157  21.589  24.949  1.00  0.00     0.231 A 
ATOM     14  N   UNL A   1      34.958  20.274  24.736  1.00  0.00    -0.212 NA
BRANCH  12  15
ATOM     15  C   UNL A   1      33.514  18.344  24.867  1.00  0.00     0.004 A 
ATOM     16  C   UNL A   1      32.709  17.611  25.752  1.00  0.00     0.030 A 
ATOM     17  C   UNL A   1      34.164  17.645  23.846  1.00  0.00     0.030 A 
ATOM     18  C   UNL A   1      32.619  16.238  25.603  1.00  0.00     0.111 A 
ATOM     19  C   UNL A   1      34.015  16.269  23.782  1.00  0.00     0.111 A 
ATOM     20  N   UNL A   1      33.264  15.549  24.641  1.00  0.00    -0.265 NA
ENDBRANCH  12  15
BRANCH  13  21
ATOM     21  N   UNL A   1      36.374  22.105  24.506  1.00  0.00    -0.323 N 
ATOM     22  H   UNL A   1      36.479  22.188  23.531  1.00  0.00     0.170 HD
BRANCH  21  23
ATOM     23  C   UNL A   1      37.466  22.520  25.280  1.00  0.00     0.055 A 
ATOM     24  C   UNL A   1      37.499  23.852  25.727  1.00  0.00     0.027 A 
ATOM     25  C   UNL A   1      38.489  21.655  25.711  1.00  0.00     0.041 A 
ATOM     26  C   UNL A   1      38.502  24.300  26.592  1.00  0.00     0.002 A 
ATOM     27  C   UNL A   1      39.496  22.106  26.573  1.00  0.00     0.018 A 
ATOM     28  Br  UNL A   1      38.650  19.870  25.064  1.00  0.00    -0.049 Br
ATOM     29  C   UNL A   1      39.496  23.426  27.020  1.00  0.00     0.001 A 
ENDBRANCH  21  23
ENDBRANCH  13  21
ENDBRANCH   8   9
ENDBRANCH   7   8
ENDBRANCH   5   7
ENDBRANCH   2   3
ENDBRANCH   1   2
BRANCH   1  30
ATOM     30  C   UNL A   1      32.780  27.765  25.915  1.00  0.00     0.023 C 
BRANCH  30  31
ATOM     31  C   UNL A   1      33.881  28.819  25.847  1.00  0.00     0.116 C 
BRANCH  31  32
ATOM     32  N   UNL A   1      33.424  30.146  26.236  1.00  0.00    -0.352 N 
ATOM     33  C   UNL A   1      33.924  30.993  27.197  1.00  0.00     0.251 C 
ATOM     34  H   UNL A   1      32.645  30.485  25.740  1.00  0.00     0.163 HD
ATOM     35  O   UNL A   1      33.310  32.021  27.480  1.00  0.00    -0.269 OA
BRANCH  33  36
ATOM     36  C   UNL A   1      35.179  30.664  27.911  1.00  0.00     0.039 A 
ATOM     37  C   UNL A   1      36.267  31.535  27.800  1.00  0.00     0.014 A 
ATOM     38  C   UNL A   1      35.289  29.507  28.687  1.00  0.00     0.014 A 
ATOM     39  C   UNL A   1      37.436  31.282  28.523  1.00  0.00     0.010 A 
ATOM     40  C   UNL A   1      36.427  29.298  29.465  1.00  0.00     0.010 A 
ATOM     41  C   UNL A   1      37.513  30.183  29.395  1.00  0.00    -0.014 A 
BRANCH  41  42
ATOM     42  C   UNL A   1      38.706  29.964  30.257  1.00  0.00     0.031 A 
ATOM     43  C   UNL A   1      39.773  28.981  29.857  1.00  0.00     0.074 A 
ATOM     44  C   UNL A   1      38.792  30.593  31.447  1.00  0.00     0.049 A 
ATOM     45  N   UNL A   1      40.844  28.614  30.513  1.00  0.00    -0.248 NA
ATOM     46  C   UNL A   1      39.606  28.301  28.560  1.00  0.00     0.031 C 
ATOM     47  C   UNL A   1      37.790  31.511  31.992  1.00  0.00     0.029 A 
ATOM     48  N   UNL A   1      39.752  30.532  32.429  1.00  0.00    -0.354 N 
ATOM     49  C   UNL A   1      41.461  27.645  29.731  1.00  0.00     0.074 A 
ATOM     50  C   UNL A   1      40.626  27.456  28.563  1.00  0.00     0.031 C 
ATOM     51  C   UNL A   1      38.185  31.927  33.205  1.00  0.00     0.029 A 
ATOM     52  C   UNL A   1      39.448  31.279  33.544  1.00  0.00     0.049 A 
ATOM     53  H   UNL A   1      40.579  30.006  32.342  1.00  0.00     0.167 HD
ATOM     54  C   UNL A   1      42.627  26.992  29.949  1.00  0.00     0.034 A 
ATOM     55  C   UNL A   1      40.099  31.417  34.716  1.00  0.00     0.034 A 
ATOM     56  C   UNL A   1      43.473  27.204  31.093  1.00  0.00     0.049 A 
ATOM     57  C   UNL A   1      41.409  30.707  34.918  1.00  0.00     0.074 A 
ATOM     58  C   UNL A   1      44.710  26.643  31.359  1.00  0.00     0.029 A 
ATOM     59  N   UNL A   1      43.171  28.032  32.162  1.00  0.00    -0.354 N 
ATOM     60  N   UNL A   1      42.042  29.897  34.104  1.00  0.00    -0.248 NA
ATOM     61  C   UNL A   1      42.116  30.957  36.184  1.00  0.00     0.031 C 
ATOM     62  C   UNL A   1      45.142  27.108  32.605  1.00  0.00     0.029 A 
ATOM     63  C   UNL A   1      44.194  27.991  33.094  1.00  0.00     0.049 A 
ATOM     64  H   UNL A   1      42.351  28.570  32.246  1.00  0.00     0.167 HD
ATOM     65  C   UNL A   1      43.232  29.567  34.743  1.00  0.00     0.074 A 
ATOM     66  C   UNL A   1      43.243  30.282  36.002  1.00  0.00     0.031 C 
ATOM     67  C   UNL A   1      44.220  28.738  34.325  1.00  0.00     0.034 A 
BRANCH  54  68
ATOM     68  C   UNL A   1      43.092  26.013  28.902  1.00  0.00     0.023 A 
ATOM     69  C   UNL A   1      42.536  24.718  28.863  1.00  0.00     0.012 A 
ATOM     70  C   UNL A   1      44.009  26.401  27.904  1.00  0.00     0.148 A 
ATOM     71  C   UNL A   1      42.903  23.816  27.866  1.00  0.00     0.002 A 
ATOM     72  C   UNL A   1      44.335  25.511  26.887  1.00  0.00     0.091 A 
ATOM     73  F   UNL A   1      44.538  27.631  27.967  1.00  0.00    -0.205 F 
ATOM     74  C   UNL A   1      43.792  24.215  26.873  1.00  0.00     0.022 A 
BRANCH  72  75
ATOM     75  S   UNL A   1      45.405  25.954  25.514  1.00  0.00     0.127 S 
ATOM     76  O   UNL A   1      44.731  27.138  24.985  1.00  0.00    -0.237 OA
ATOM     77  O   UNL A   1      46.674  26.226  26.191  1.00  0.00    -0.237 OA
ATOM     78  O   UNL A   1      45.422  24.801  24.624  1.00  0.00    -0.744 OA
ENDBRANCH  72  75
ENDBRANCH  54  68
BRANCH  55  79
ATOM     79  C   UNL A   1      39.536  32.301  35.775  1.00  0.00     0.023 A 
ATOM     80  C   UNL A   1      38.594  31.786  36.686  1.00  0.00     0.012 A 
ATOM     81  C   UNL A   1      39.962  33.637  35.906  1.00  0.00     0.148 A 
ATOM     82  C   UNL A   1      38.063  32.596  37.691  1.00  0.00     0.002 A 
ATOM     83  C   UNL A   1      39.474  34.420  36.944  1.00  0.00     0.091 A 
ATOM     84  F   UNL A   1      40.853  34.107  35.022  1.00  0.00    -0.205 F 
ATOM     85  C   UNL A   1      38.511  33.908  37.828  1.00  0.00     0.022 A 
BRANCH  83  86
ATOM     86  S   UNL A   1      40.094  36.071  37.281  1.00  0.00     0.127 S 
ATOM     87  O   UNL A   1      39.782  36.768  36.037  1.00  0.00    -0.237 OA
ATOM     88  O   UNL A   1      39.282  36.467  38.432  1.00  0.00    -0.237 OA
ATOM     89  O   UNL A   1      41.513  35.909  37.573  1.00  0.00    -0.744 OA
ENDBRANCH  83  86
ENDBRANCH  55  79
BRANCH  67  90
ATOM     90  C   UNL A   1      45.427  28.579  35.214  1.00  0.00     0.023 A 
ATOM     91  C   UNL A   1      46.474  29.518  35.157  1.00  0.00     0.012 A 
ATOM     92  C   UNL A   1      45.483  27.536  36.162  1.00  0.00     0.148 A 
ATOM     93  C   UNL A   1      47.575  29.405  36.007  1.00  0.00     0.002 A 
ATOM     94  C   UNL A   1      46.557  27.459  37.039  1.00  0.00     0.091 A 
ATOM     95  F   UNL A   1      44.484  26.642  36.188  1.00  0.00    -0.205 F 
ATOM     96  C   UNL A   1      47.610  28.384  36.954  1.00  0.00     0.022 A 
BRANCH  94  97
ATOM     97  S   UNL A   1      46.642  26.239  38.355  1.00  0.00     0.127 S 
ATOM     98  O   UNL A   1      47.400  25.165  37.715  1.00  0.00    -0.237 OA
ATOM     99  O   UNL A   1      47.371  26.961  39.399  1.00  0.00    -0.237 OA
ATOM    100  O   UNL A   1      45.264  25.914  38.693  1.00  0.00    -0.744 OA
ENDBRANCH  94  97
ENDBRANCH  67  90
ENDBRANCH  41  42
ENDBRANCH  33  36
ENDBRANCH  31  32
ENDBRANCH  30  31
ENDBRANCH   1  30
TORSDOF 19
ENDMDL
MODEL 2
REMARK VINA RESULT:     -11.5      3.050      8.333
REMARK SMILES O=C(COc1cc(-c2ccncc2)nc(Nc2ccccc2Br)n1)NCCCCNC(=O)c1ccc(-c2c3nc(c(-c4cccc(S(=O)(=O)[O-])c4F)c4ccc([nH]4)c(-c4cccc(S(=O)(=O)[O-])c4F)c4nc(c(-c5cccc(S(=O)(=O)[O-])c5F)c5ccc2[nH]5)C=C4)C=C3)cc1
REMARK SMILES IDX 27 1 26 2 25 3 1 4 2 5 3 7 4 8 5 9 6 10 24 11 7 12 15 13
REMARK SMILES IDX 14 14 8 15 9 16 13 17 10 18 12 19 11 20 16 21 17 23 18 24
REMARK SMILES IDX 22 25 19 26 21 27 23 28 20 29 28 30 29 31 30 32 31 33 32 35
REMARK SMILES IDX 33 36 34 37 95 38 35 39 94 40 36 41 37 42 38 43 88 44 39 45
REMARK SMILES IDX 93 46 87 47 89 48 40 49 92 50 86 51 85 52 41 54 73 55 53 56
REMARK SMILES IDX 72 57 54 58 57 59 71 60 90 61 55 62 56 63 70 65 91 66 58 67
REMARK SMILES IDX 42 68 43 69 51 70 44 71 46 72 52 73 45 74 47 75 48 76 49 77
REMARK SMILES IDX 50 78 74 79 75 80 83 81 76 82 78 83 84 84 77 85 79 86 80 87
REMARK SMILES IDX 81 88 82 89 59 90 60 91 68 92 61 93 63 94 69 95 62 96 64 97
REMARK SMILES IDX 65 98 66 99 67 100
REMARK H PARENT 25 6 16 22 30 34 89 53 57 64
REMARK Flexibility Score: inf
ROOT
ATOM      1  C   UNL A   1      33.610  26.412  25.739  1.00  0.00     0.023 C 
ENDROOT
BRANCH   1   2
ATOM      2  C   UNL A   1      34.240  25.829  24.483  1.00  0.00     0.116 C 
BRANCH   2   3
ATOM      3  N   UNL A   1      34.956  24.590  24.722  1.00  0.00    -0.353 N 
ATOM      4  O   UNL A   1      34.880  23.821  22.554  1.00  0.00    -0.271 OA
ATOM      5  C   UNL A   1      35.310  23.729  23.699  1.00  0.00     0.258 C 
ATOM      6  H   UNL A   1      35.200  24.355  25.646  1.00  0.00     0.163 HD
BRANCH   5   7
ATOM      7  C   UNL A   1      36.361  22.689  24.103  1.00  0.00     0.331 C 
BRANCH   7   8
ATOM      8  O   UNL A   1      36.058  22.006  25.320  1.00  0.00    -0.467 OA
BRANCH   8   9
ATOM      9  C   UNL A   1      34.862  21.332  25.271  1.00  0.00     0.219 A 
ATOM     10  C   UNL A   1      34.818  19.978  25.094  1.00  0.00     0.097 A 
ATOM     11  N   UNL A   1      33.779  22.056  25.562  1.00  0.00    -0.177 NA
ATOM     12  C   UNL A   1      33.584  19.381  25.190  1.00  0.00     0.080 A 
ATOM     13  C   UNL A   1      32.606  21.407  25.648  1.00  0.00     0.231 A 
ATOM     14  N   UNL A   1      32.467  20.079  25.466  1.00  0.00    -0.212 NA
BRANCH  12  15
ATOM     15  C   UNL A   1      33.461  17.934  24.976  1.00  0.00     0.004 A 
ATOM     16  C   UNL A   1      32.533  17.174  25.704  1.00  0.00     0.030 A 
ATOM     17  C   UNL A   1      34.336  17.255  24.124  1.00  0.00     0.030 A 
ATOM     18  C   UNL A   1      32.543  15.796  25.579  1.00  0.00     0.111 A 
ATOM     19  C   UNL A   1      34.271  15.871  24.070  1.00  0.00     0.111 A 
ATOM     20  N   UNL A   1      33.400  15.127  24.783  1.00  0.00    -0.265 NA
ENDBRANCH  12  15
BRANCH  13  21
ATOM     21  N   UNL A   1      31.454  22.099  26.021  1.00  0.00    -0.323 N 
ATOM     22  H   UNL A   1      30.931  21.703  26.754  1.00  0.00     0.170 HD
BRANCH  21  23
ATOM     23  C   UNL A   1      30.953  23.291  25.481  1.00  0.00     0.055 A 
ATOM     24  C   UNL A   1      30.448  24.262  26.361  1.00  0.00     0.027 A 
ATOM     25  C   UNL A   1      31.011  23.609  24.111  1.00  0.00     0.041 A 
ATOM     26  C   UNL A   1      30.034  25.515  25.897  1.00  0.00     0.002 A 
ATOM     27  C   UNL A   1      30.592  24.862  23.646  1.00  0.00     0.018 A 
ATOM     28  Br  UNL A   1      31.533  22.335  22.793  1.00  0.00    -0.049 Br
ATOM     29  C   UNL A   1      30.113  25.817  24.540  1.00  0.00     0.001 A 
ENDBRANCH  21  23
ENDBRANCH  13  21
ENDBRANCH   8   9
ENDBRANCH   7   8
ENDBRANCH   5   7
ENDBRANCH   2   3
ENDBRANCH   1   2
BRANCH   1  30
ATOM     30  C   UNL A   1      33.659  27.938  25.835  1.00  0.00     0.023 C 
BRANCH  30  31
ATOM     31  C   UNL A   1      33.698  28.512  27.249  1.00  0.00     0.116 C 
BRANCH  31  32
ATOM     32  N   UNL A   1      33.553  29.960  27.281  1.00  0.00    -0.352 N 
ATOM     33  C   UNL A   1      34.382  30.907  27.836  1.00  0.00     0.251 C 
ATOM     34  H   UNL A   1      32.746  30.312  26.842  1.00  0.00     0.163 HD
ATOM     35  O   UNL A   1      34.015  32.080  27.887  1.00  0.00    -0.269 OA
BRANCH  33  36
ATOM     36  C   UNL A   1      35.697  30.521  28.395  1.00  0.00     0.039 A 
ATOM     37  C   UNL A   1      35.735  29.770  29.574  1.00  0.00     0.014 A 
ATOM     38  C   UNL A   1      36.889  30.890  27.767  1.00  0.00     0.014 A 
ATOM     39  C   UNL A   1      36.962  29.332  30.081  1.00  0.00     0.010 A 
ATOM     40  C   UNL A   1      38.105  30.389  28.231  1.00  0.00     0.010 A 
ATOM     41  C   UNL A   1      38.156  29.602  29.392  1.00  0.00    -0.014 A 
BRANCH  41  42
ATOM     42  C   UNL A   1      39.457  29.047  29.855  1.00  0.00     0.031 A 
ATOM     43  C   UNL A   1      40.230  29.719  30.958  1.00  0.00     0.074 A 
ATOM     44  C   UNL A   1      39.987  27.978  29.226  1.00  0.00     0.049 A 
ATOM     45  N   UNL A   1      41.406  29.414  31.444  1.00  0.00    -0.248 NA
ATOM     46  C   UNL A   1      39.613  30.901  31.584  1.00  0.00     0.031 C 
ATOM     47  C   UNL A   1      39.379  27.280  28.091  1.00  0.00     0.029 A 
ATOM     48  N   UNL A   1      41.170  27.310  29.429  1.00  0.00    -0.354 N 
ATOM     49  C   UNL A   1      41.686  30.378  32.405  1.00  0.00     0.074 A 
ATOM     50  C   UNL A   1      40.568  31.298  32.413  1.00  0.00     0.031 C 
ATOM     51  C   UNL A   1      40.191  26.285  27.699  1.00  0.00     0.029 A 
ATOM     52  C   UNL A   1      41.392  26.295  28.527  1.00  0.00     0.049 A 
ATOM     53  H   UNL A   1      41.798  27.536  30.152  1.00  0.00     0.167 HD
ATOM     54  C   UNL A   1      42.759  30.475  33.226  1.00  0.00     0.034 A 
ATOM     55  C   UNL A   1      42.449  25.474  28.369  1.00  0.00     0.034 A 
ATOM     56  C   UNL A   1      43.853  29.541  33.241  1.00  0.00     0.049 A 
ATOM     57  C   UNL A   1      43.613  25.580  29.315  1.00  0.00     0.074 A 
ATOM     58  C   UNL A   1      44.946  29.517  34.090  1.00  0.00     0.029 A 
ATOM     59  N   UNL A   1      44.002  28.476  32.367  1.00  0.00    -0.354 N 
ATOM     60  N   UNL A   1      43.794  26.417  30.308  1.00  0.00    -0.248 NA
ATOM     61  C   UNL A   1      44.703  24.607  29.145  1.00  0.00     0.031 C 
ATOM     62  C   UNL A   1      45.773  28.455  33.709  1.00  0.00     0.029 A 
ATOM     63  C   UNL A   1      45.172  27.793  32.650  1.00  0.00     0.049 A 
ATOM     64  H   UNL A   1      43.369  28.241  31.651  1.00  0.00     0.167 HD
ATOM     65  C   UNL A   1      44.997  26.052  30.899  1.00  0.00     0.074 A 
ATOM     66  C   UNL A   1      45.492  24.905  30.168  1.00  0.00     0.031 C 
ATOM     67  C   UNL A   1      45.638  26.625  31.948  1.00  0.00     0.034 A 
BRANCH  54  68
ATOM     68  C   UNL A   1      42.786  31.607  34.220  1.00  0.00     0.023 A 
ATOM     69  C   UNL A   1      43.387  32.832  33.863  1.00  0.00     0.012 A 
ATOM     70  C   UNL A   1      42.140  31.492  35.467  1.00  0.00     0.148 A 
ATOM     71  C   UNL A   1      43.369  33.914  34.741  1.00  0.00     0.002 A 
ATOM     72  C   UNL A   1      42.086  32.589  36.318  1.00  0.00     0.091 A 
ATOM     73  F   UNL A   1      41.587  30.315  35.793  1.00  0.00    -0.205 F 
ATOM     74  C   UNL A   1      42.710  33.797  35.961  1.00  0.00     0.022 A 
BRANCH  72  75
ATOM     75  S   UNL A   1      41.192  32.570  37.875  1.00  0.00     0.127 S 
ATOM     76  O   UNL A   1      42.047  31.712  38.695  1.00  0.00    -0.237 OA
ATOM     77  O   UNL A   1      41.206  33.984  38.253  1.00  0.00    -0.237 OA
ATOM     78  O   UNL A   1      39.873  32.029  37.579  1.00  0.00    -0.744 OA
ENDBRANCH  72  75
ENDBRANCH  54  68
BRANCH  55  79
ATOM     79  C   UNL A   1      42.432  24.448  27.288  1.00  0.00     0.023 A 
ATOM     80  C   UNL A   1      43.249  24.614  26.153  1.00  0.00     0.012 A 
ATOM     81  C   UNL A   1      41.640  23.288  27.402  1.00  0.00     0.148 A 
ATOM     82  C   UNL A   1      43.254  23.658  25.136  1.00  0.00     0.002 A 
ATOM     83  C   UNL A   1      41.695  22.313  26.415  1.00  0.00     0.091 A 
ATOM     84  F   UNL A   1      40.865  23.155  28.487  1.00  0.00    -0.205 F 
ATOM     85  C   UNL A   1      42.487  22.504  25.271  1.00  0.00     0.022 A 
BRANCH  83  86
ATOM     86  S   UNL A   1      40.850  20.736  26.569  1.00  0.00     0.127 S 
ATOM     87  O   UNL A   1      40.993  20.458  27.995  1.00  0.00    -0.237 OA
ATOM     88  O   UNL A   1      39.495  21.078  26.138  1.00  0.00    -0.237 OA
ATOM     89  O   UNL A   1      41.552  19.823  25.676  1.00  0.00    -0.744 OA
ENDBRANCH  83  86
ENDBRANCH  55  79
BRANCH  67  90
ATOM     90  C   UNL A   1      46.933  26.004  32.406  1.00  0.00     0.023 A 
ATOM     91  C   UNL A   1      46.934  25.077  33.467  1.00  0.00     0.012 A 
ATOM     92  C   UNL A   1      48.138  26.283  31.730  1.00  0.00     0.148 A 
ATOM     93  C   UNL A   1      48.120  24.462  33.870  1.00  0.00     0.002 A 
ATOM     94  C   UNL A   1      49.305  25.630  32.104  1.00  0.00     0.091 A 
ATOM     95  F   UNL A   1      48.119  27.181  30.734  1.00  0.00    -0.205 F 
ATOM     96  C   UNL A   1      49.301  24.729  33.181  1.00  0.00     0.022 A 
BRANCH  94  97
ATOM     97  S   UNL A   1      50.852  25.835  31.214  1.00  0.00     0.127 S 
ATOM     98  O   UNL A   1      51.747  24.959  31.969  1.00  0.00    -0.237 OA
ATOM     99  O   UNL A   1      50.508  25.348  29.878  1.00  0.00    -0.237 OA
ATOM    100  O   UNL A   1      51.169  27.255  31.278  1.00  0.00    -0.744 OA
ENDBRANCH  94  97
ENDBRANCH  67  90
ENDBRANCH  41  42
ENDBRANCH  33  36
ENDBRANCH  31  32
ENDBRANCH  30  31
ENDBRANCH   1  30
TORSDOF 19
ENDMDL
MODEL 3
REMARK VINA RESULT:     -11.5      3.096      8.529
REMARK SMILES O=C(COc1cc(-c2ccncc2)nc(Nc2ccccc2Br)n1)NCCCCNC(=O)c1ccc(-c2c3nc(c(-c4cccc(S(=O)(=O)[O-])c4F)c4ccc([nH]4)c(-c4cccc(S(=O)(=O)[O-])c4F)c4nc(c(-c5cccc(S(=O)(=O)[O-])c5F)c5ccc2[nH]5)C=C4)C=C3)cc1
REMARK SMILES IDX 27 1 26 2 25 3 1 4 2 5 3 7 4 8 5 9 6 10 24 11 7 12 15 13
REMARK SMILES IDX 14 14 8 15 9 16 13 17 10 18 12 19 11 20 16 21 17 23 18 24
REMARK SMILES IDX 22 25 19 26 21 27 23 28 20 29 28 30 29 31 30 32 31 33 32 35
REMARK SMILES IDX 33 36 34 37 95 38 35 39 94 40 36 41 37 42 38 43 88 44 39 45
REMARK SMILES IDX 93 46 87 47 89 48 40 49 92 50 86 51 85 52 41 54 73 55 53 56
REMARK SMILES IDX 72 57 54 58 57 59 71 60 90 61 55 62 56 63 70 65 91 66 58 67
REMARK SMILES IDX 42 68 43 69 51 70 44 71 46 72 52 73 45 74 47 75 48 76 49 77
REMARK SMILES IDX 50 78 74 79 75 80 83 81 76 82 78 83 84 84 77 85 79 86 80 87
REMARK SMILES IDX 81 88 82 89 59 90 60 91 68 92 61 93 63 94 69 95 62 96 64 97
REMARK SMILES IDX 65 98 66 99 67 100
REMARK H PARENT 25 6 16 22 30 34 89 53 57 64
REMARK Flexibility Score: inf
ROOT
ATOM      1  C   UNL A   1      31.575  28.040  27.026  1.00  0.00     0.023 C 
ENDROOT
BRANCH   1   2
ATOM      2  C   UNL A   1      31.037  26.861  26.228  1.00  0.00     0.116 C 
BRANCH   2   3
ATOM      3  N   UNL A   1      31.929  26.430  25.169  1.00  0.00    -0.353 N 
ATOM      4  O   UNL A   1      30.569  27.038  23.415  1.00  0.00    -0.271 OA
ATOM      5  C   UNL A   1      31.657  26.654  23.832  1.00  0.00     0.258 C 
ATOM      6  H   UNL A   1      32.760  25.960  25.412  1.00  0.00     0.163 HD
BRANCH   5   7
ATOM      7  C   UNL A   1      32.869  26.462  22.913  1.00  0.00     0.331 C 
BRANCH   7   8
ATOM      8  O   UNL A   1      32.759  25.335  22.043  1.00  0.00    -0.467 OA
BRANCH   8   9
ATOM      9  C   UNL A   1      33.297  24.190  22.580  1.00  0.00     0.219 A 
ATOM     10  C   UNL A   1      34.492  24.213  23.244  1.00  0.00     0.097 A 
ATOM     11  N   UNL A   1      32.512  23.112  22.546  1.00  0.00    -0.177 NA
ATOM     12  C   UNL A   1      34.881  23.046  23.857  1.00  0.00     0.080 A 
ATOM     13  C   UNL A   1      32.952  22.007  23.172  1.00  0.00     0.231 A 
ATOM     14  N   UNL A   1      34.124  21.933  23.830  1.00  0.00    -0.212 NA
BRANCH  12  15
ATOM     15  C   UNL A   1      36.169  22.991  24.557  1.00  0.00     0.004 A 
ATOM     16  C   UNL A   1      36.989  21.855  24.470  1.00  0.00     0.030 A 
ATOM     17  C   UNL A   1      36.567  24.018  25.417  1.00  0.00     0.030 A 
ATOM     18  C   UNL A   1      38.126  21.782  25.254  1.00  0.00     0.111 A 
ATOM     19  C   UNL A   1      37.721  23.849  26.166  1.00  0.00     0.111 A 
ATOM     20  N   UNL A   1      38.505  22.752  26.109  1.00  0.00    -0.265 NA
ENDBRANCH  12  15
BRANCH  13  21
ATOM     21  N   UNL A   1      32.141  20.874  23.232  1.00  0.00    -0.323 N 
ATOM     22  H   UNL A   1      31.180  21.022  23.082  1.00  0.00     0.170 HD
BRANCH  21  23
ATOM     23  C   UNL A   1      32.530  19.551  23.480  1.00  0.00     0.055 A 
ATOM     24  C   UNL A   1      32.514  18.639  22.410  1.00  0.00     0.027 A 
ATOM     25  C   UNL A   1      33.022  19.102  24.720  1.00  0.00     0.041 A 
ATOM     26  C   UNL A   1      32.993  17.334  22.564  1.00  0.00     0.002 A 
ATOM     27  C   UNL A   1      33.496  17.793  24.874  1.00  0.00     0.018 A 
ATOM     28  Br  UNL A   1      32.961  20.184  26.288  1.00  0.00    -0.049 Br
ATOM     29  C   UNL A   1      33.490  16.914  23.794  1.00  0.00     0.001 A 
ENDBRANCH  21  23
ENDBRANCH  13  21
ENDBRANCH   8   9
ENDBRANCH   7   8
ENDBRANCH   5   7
ENDBRANCH   2   3
ENDBRANCH   1   2
BRANCH   1  30
ATOM     30  C   UNL A   1      33.100  28.106  27.128  1.00  0.00     0.023 C 
BRANCH  30  31
ATOM     31  C   UNL A   1      33.778  29.156  26.251  1.00  0.00     0.116 C 
BRANCH  31  32
ATOM     32  N   UNL A   1      33.735  30.492  26.826  1.00  0.00    -0.352 N 
ATOM     33  C   UNL A   1      34.580  31.076  27.741  1.00  0.00     0.251 C 
ATOM     34  H   UNL A   1      32.995  31.061  26.514  1.00  0.00     0.163 HD
ATOM     35  O   UNL A   1      34.295  32.174  28.217  1.00  0.00    -0.269 OA
BRANCH  33  36
ATOM     36  C   UNL A   1      35.813  30.380  28.176  1.00  0.00     0.039 A 
ATOM     37  C   UNL A   1      36.941  30.427  27.352  1.00  0.00     0.014 A 
ATOM     38  C   UNL A   1      35.864  29.686  29.388  1.00  0.00     0.014 A 
ATOM     39  C   UNL A   1      38.137  29.840  27.775  1.00  0.00     0.010 A 
ATOM     40  C   UNL A   1      37.076  29.169  29.842  1.00  0.00     0.010 A 
ATOM     41  C   UNL A   1      38.228  29.240  29.043  1.00  0.00    -0.014 A 
BRANCH  41  42
ATOM     42  C   UNL A   1      39.521  28.713  29.556  1.00  0.00     0.031 A 
ATOM     43  C   UNL A   1      40.261  29.429  30.655  1.00  0.00     0.074 A 
ATOM     44  C   UNL A   1      40.076  27.629  28.976  1.00  0.00     0.049 A 
ATOM     45  N   UNL A   1      41.427  29.152  31.179  1.00  0.00    -0.248 NA
ATOM     46  C   UNL A   1      39.619  30.625  31.226  1.00  0.00     0.031 C 
ATOM     47  C   UNL A   1      39.503  26.888  27.850  1.00  0.00     0.029 A 
ATOM     48  N   UNL A   1      41.260  26.980  29.230  1.00  0.00    -0.354 N 
ATOM     49  C   UNL A   1      41.675  30.150  32.113  1.00  0.00     0.074 A 
ATOM     50  C   UNL A   1      40.549  31.059  32.064  1.00  0.00     0.031 C 
ATOM     51  C   UNL A   1      40.333  25.889  27.512  1.00  0.00     0.029 A 
ATOM     52  C   UNL A   1      41.513  25.938  28.368  1.00  0.00     0.049 A 
ATOM     53  H   UNL A   1      41.868  27.236  29.961  1.00  0.00     0.167 HD
ATOM     54  C   UNL A   1      42.726  30.284  32.957  1.00  0.00     0.034 A 
ATOM     55  C   UNL A   1      42.582  25.122  28.263  1.00  0.00     0.034 A 
ATOM     56  C   UNL A   1      43.828  29.362  33.030  1.00  0.00     0.049 A 
ATOM     57  C   UNL A   1      43.720  25.271  29.233  1.00  0.00     0.074 A 
ATOM     58  C   UNL A   1      44.900  29.377  33.905  1.00  0.00     0.029 A 
ATOM     59  N   UNL A   1      44.008  28.271  32.196  1.00  0.00    -0.354 N 
ATOM     60  N   UNL A   1      43.869  26.143  30.202  1.00  0.00    -0.248 NA
ATOM     61  C   UNL A   1      44.823  24.304  29.123  1.00  0.00     0.031 C 
ATOM     62  C   UNL A   1      45.745  28.311  33.580  1.00  0.00     0.029 A 
ATOM     63  C   UNL A   1      45.177  27.608  32.530  1.00  0.00     0.049 A 
ATOM     64  H   UNL A   1      43.395  28.005  31.473  1.00  0.00     0.167 HD
ATOM     65  C   UNL A   1      45.061  25.809  30.834  1.00  0.00     0.074 A 
ATOM     66  C   UNL A   1      45.584  24.643  30.154  1.00  0.00     0.031 C 
ATOM     67  C   UNL A   1      45.670  26.423  31.879  1.00  0.00     0.034 A 
BRANCH  54  68
ATOM     68  C   UNL A   1      42.719  31.449  33.913  1.00  0.00     0.023 A 
ATOM     69  C   UNL A   1      43.272  32.682  33.511  1.00  0.00     0.012 A 
ATOM     70  C   UNL A   1      42.086  31.352  35.168  1.00  0.00     0.148 A 
ATOM     71  C   UNL A   1      43.221  33.792  34.354  1.00  0.00     0.002 A 
ATOM     72  C   UNL A   1      41.998  32.474  35.983  1.00  0.00     0.091 A 
ATOM     73  F   UNL A   1      41.579  30.167  35.537  1.00  0.00    -0.205 F 
ATOM     74  C   UNL A   1      42.574  33.692  35.581  1.00  0.00     0.022 A 
BRANCH  72  75
ATOM     75  S   UNL A   1      41.115  32.475  37.547  1.00  0.00     0.127 S 
ATOM     76  O   UNL A   1      41.068  33.903  37.858  1.00  0.00    -0.237 OA
ATOM     77  O   UNL A   1      39.827  31.889  37.172  1.00  0.00    -0.237 OA
ATOM     78  O   UNL A   1      41.911  31.668  38.462  1.00  0.00    -0.744 OA
ENDBRANCH  72  75
ENDBRANCH  54  68
BRANCH  55  79
ATOM     79  C   UNL A   1      42.600  24.061  27.217  1.00  0.00     0.023 A 
ATOM     80  C   UNL A   1      43.188  24.324  25.965  1.00  0.00     0.012 A 
ATOM     81  C   UNL A   1      42.074  22.780  27.475  1.00  0.00     0.148 A 
ATOM     82  C   UNL A   1      43.225  23.338  24.978  1.00  0.00     0.002 A 
ATOM     83  C   UNL A   1      42.166  21.787  26.509  1.00  0.00     0.091 A 
ATOM     84  F   UNL A   1      41.512  22.556  28.671  1.00  0.00    -0.205 F 
ATOM     85  C   UNL A   1      42.725  22.068  25.252  1.00  0.00     0.022 A 
BRANCH  83  86
ATOM     86  S   UNL A   1      41.676  20.087  26.823  1.00  0.00     0.127 S 
ATOM     87  O   UNL A   1      41.927  19.460  25.528  1.00  0.00    -0.237 OA
ATOM     88  O   UNL A   1      42.602  19.700  27.887  1.00  0.00    -0.237 OA
ATOM     89  O   UNL A   1      40.279  20.149  27.234  1.00  0.00    -0.744 OA
ENDBRANCH  83  86
ENDBRANCH  55  79
BRANCH  67  90
ATOM     90  C   UNL A   1      46.959  25.829  32.389  1.00  0.00     0.023 A 
ATOM     91  C   UNL A   1      46.944  24.957  33.494  1.00  0.00     0.012 A 
ATOM     92  C   UNL A   1      48.174  26.079  31.720  1.00  0.00     0.148 A 
ATOM     93  C   UNL A   1      48.125  24.367  33.947  1.00  0.00     0.002 A 
ATOM     94  C   UNL A   1      49.337  25.449  32.145  1.00  0.00     0.091 A 
ATOM     95  F   UNL A   1      48.170  26.926  30.680  1.00  0.00    -0.205 F 
ATOM     96  C   UNL A   1      49.317  24.603  33.266  1.00  0.00     0.022 A 
BRANCH  94  97
ATOM     97  S   UNL A   1      50.898  25.614  31.272  1.00  0.00     0.127 S 
ATOM     98  O   UNL A   1      51.203  27.030  31.475  1.00  0.00    -0.237 OA
ATOM     99  O   UNL A   1      51.763  24.693  32.009  1.00  0.00    -0.237 OA
ATOM    100  O   UNL A   1      50.633  25.225  29.894  1.00  0.00    -0.744 OA
ENDBRANCH  94  97
ENDBRANCH  67  90
ENDBRANCH  41  42
ENDBRANCH  33  36
ENDBRANCH  31  32
ENDBRANCH  30  31
ENDBRANCH   1  30
TORSDOF 19
ENDMDL
