MODEL 1
REMARK VINA RESULT:     -10.5      0.000      0.000
REMARK SMILES CCC(CC)[C@H](C(=O)NCCCCNC(=O)c1ccc(-c2c3nc(c(-c4cccc(S(=O)(=O)[O-])c4F)c4ccc([nH]4)c(-c4cccc(S(=O)(=O)[O-])c4F)c4nc(c(-c5cccc(S(=O)(=O)[O-])c5F)c5ccc2[nH]5)C=C4)C=C3)cc1)c1ccc(OC(F)F)cc1
REMARK SMILES IDX 11 1 10 2 9 3 7 4 8 5 6 7 3 8 2 9 1 10 4 11 5 12 80 13 81 14
REMARK SMILES IDX 89 15 82 16 88 17 83 18 84 19 85 20 86 21 87 22 12 23 13 24
REMARK SMILES IDX 14 25 15 26 16 28 17 29 18 30 79 31 19 32 78 33 20 34 21 35
REMARK SMILES IDX 22 36 72 37 23 38 77 39 71 40 73 41 24 42 76 43 70 44 69 45
REMARK SMILES IDX 25 47 57 48 37 49 56 50 38 51 41 52 55 53 74 54 39 55 40 56
REMARK SMILES IDX 54 58 75 59 42 60 26 61 27 62 35 63 28 64 30 65 36 66 29 67
REMARK SMILES IDX 31 68 32 69 33 70 34 71 58 72 59 73 67 74 60 75 62 76 68 77
REMARK SMILES IDX 61 78 63 79 64 80 65 81 66 82 43 83 44 84 52 85 45 86 47 87
REMARK SMILES IDX 53 88 46 89 48 90 49 91 50 92 51 93
REMARK H PARENT 9 6 14 27 73 46 41 57
REMARK Flexibility Score: inf
ROOT
ATOM      1  C   UNL A   1      37.074  21.663  24.432  1.00  0.00     0.023 C 
ENDROOT
BRANCH   1   2
ATOM      2  C   UNL A   1      36.831  22.708  25.518  1.00  0.00     0.116 C 
BRANCH   2   3
ATOM      3  N   UNL A   1      35.933  22.230  26.555  1.00  0.00    -0.356 N 
ATOM      4  C   UNL A   1      34.575  22.065  26.543  1.00  0.00     0.227 C 
ATOM      5  O   UNL A   1      34.053  21.572  27.544  1.00  0.00    -0.274 OA
ATOM      6  H   UNL A   1      36.372  21.987  27.402  1.00  0.00     0.163 HD
BRANCH   4   7
ATOM      7  C   UNL A   1      33.767  22.447  25.289  1.00  0.00     0.111 C 
BRANCH   7   8
ATOM      8  C   UNL A   1      32.399  21.677  25.314  1.00  0.00     0.005 C 
BRANCH   8   9
ATOM      9  C   UNL A   1      31.157  22.603  25.242  1.00  0.00     0.001 C 
ATOM     10  C   UNL A   1      30.399  22.816  26.540  1.00  0.00     0.004 C 
ENDBRANCH   8   9
BRANCH   8  11
ATOM     11  C   UNL A   1      32.392  20.358  24.500  1.00  0.00     0.001 C 
ATOM     12  C   UNL A   1      32.883  19.084  25.161  1.00  0.00     0.004 C 
ENDBRANCH   8  11
ENDBRANCH   7   8
BRANCH   7  13
ATOM     13  C   UNL A   1      33.798  23.963  25.048  1.00  0.00    -0.035 A 
ATOM     14  C   UNL A   1      33.730  24.431  23.723  1.00  0.00     0.008 A 
ATOM     15  C   UNL A   1      33.889  24.927  26.058  1.00  0.00     0.008 A 
ATOM     16  C   UNL A   1      33.700  25.801  23.439  1.00  0.00     0.047 A 
ATOM     17  C   UNL A   1      33.847  26.298  25.776  1.00  0.00     0.047 A 
ATOM     18  C   UNL A   1      33.731  26.745  24.466  1.00  0.00     0.126 A 
BRANCH  18  19
ATOM     19  O   UNL A   1      33.651  28.048  24.067  1.00  0.00    -0.435 OA
BRANCH  19  20
ATOM     20  C   UNL A   1      33.817  28.327  22.682  1.00  0.00     0.542 C 
ATOM     21  F   UNL A   1      32.806  29.109  22.231  1.00  0.00    -0.167 F 
ATOM     22  F   UNL A   1      34.986  28.976  22.469  1.00  0.00    -0.167 F 
ENDBRANCH  19  20
ENDBRANCH  18  19
ENDBRANCH   7  13
ENDBRANCH   4   7
ENDBRANCH   2   3
ENDBRANCH   1   2
BRANCH   1  23
ATOM     23  C   UNL A   1      37.782  20.389  24.900  1.00  0.00     0.023 C 
BRANCH  23  24
ATOM     24  C   UNL A   1      38.920  20.599  25.891  1.00  0.00     0.116 C 
BRANCH  24  25
ATOM     25  N   UNL A   1      39.886  19.508  25.884  1.00  0.00    -0.352 N 
ATOM     26  C   UNL A   1      41.249  19.567  26.067  1.00  0.00     0.251 C 
ATOM     27  H   UNL A   1      39.514  18.610  25.727  1.00  0.00     0.163 HD
ATOM     28  O   UNL A   1      41.940  18.571  25.895  1.00  0.00    -0.269 OA
BRANCH  26  29
ATOM     29  C   UNL A   1      41.874  20.854  26.447  1.00  0.00     0.039 A 
ATOM     30  C   UNL A   1      42.170  21.790  25.452  1.00  0.00     0.014 A 
ATOM     31  C   UNL A   1      42.136  21.142  27.789  1.00  0.00     0.014 A 
ATOM     32  C   UNL A   1      42.662  23.050  25.810  1.00  0.00     0.010 A 
ATOM     33  C   UNL A   1      42.565  22.416  28.146  1.00  0.00     0.010 A 
ATOM     34  C   UNL A   1      42.829  23.384  27.162  1.00  0.00    -0.014 A 
BRANCH  34  35
ATOM     35  C   UNL A   1      43.281  24.730  27.597  1.00  0.00     0.031 A 
ATOM     36  C   UNL A   1      42.279  25.701  28.160  1.00  0.00     0.074 A 
ATOM     37  C   UNL A   1      44.547  25.128  27.358  1.00  0.00     0.049 A 
ATOM     38  N   UNL A   1      42.414  26.976  28.414  1.00  0.00    -0.248 NA
ATOM     39  C   UNL A   1      40.935  25.171  28.443  1.00  0.00     0.031 C 
ATOM     40  C   UNL A   1      45.599  24.299  26.766  1.00  0.00     0.029 A 
ATOM     41  N   UNL A   1      45.152  26.347  27.544  1.00  0.00    -0.354 N 
ATOM     42  C   UNL A   1      41.162  27.413  28.829  1.00  0.00     0.074 A 
ATOM     43  C   UNL A   1      40.276  26.270  28.780  1.00  0.00     0.031 C 
ATOM     44  C   UNL A   1      46.712  25.037  26.622  1.00  0.00     0.029 A 
ATOM     45  C   UNL A   1      46.445  26.398  27.075  1.00  0.00     0.049 A 
ATOM     46  H   UNL A   1      44.703  27.112  27.971  1.00  0.00     0.167 HD
ATOM     47  C   UNL A   1      40.789  28.648  29.236  1.00  0.00     0.034 A 
ATOM     48  C   UNL A   1      47.310  27.430  27.000  1.00  0.00     0.034 A 
ATOM     49  C   UNL A   1      41.688  29.764  29.345  1.00  0.00     0.049 A 
ATOM     50  C   UNL A   1      46.884  28.782  27.508  1.00  0.00     0.074 A 
ATOM     51  C   UNL A   1      41.427  31.034  29.825  1.00  0.00     0.029 A 
ATOM     52  N   UNL A   1      43.024  29.741  28.977  1.00  0.00    -0.354 N 
ATOM     53  N   UNL A   1      45.734  29.144  28.021  1.00  0.00    -0.248 NA
ATOM     54  C   UNL A   1      47.884  29.861  27.458  1.00  0.00     0.031 C 
ATOM     55  C   UNL A   1      42.605  31.783  29.743  1.00  0.00     0.029 A 
ATOM     56  C   UNL A   1      43.603  30.972  29.224  1.00  0.00     0.049 A 
ATOM     57  H   UNL A   1      43.491  28.963  28.595  1.00  0.00     0.167 HD
ATOM     58  C   UNL A   1      45.886  30.474  28.397  1.00  0.00     0.074 A 
ATOM     59  C   UNL A   1      47.241  30.854  28.059  1.00  0.00     0.031 C 
ATOM     60  C   UNL A   1      44.977  31.308  28.960  1.00  0.00     0.034 A 
BRANCH  47  61
ATOM     61  C   UNL A   1      39.356  28.848  29.651  1.00  0.00     0.023 A 
ATOM     62  C   UNL A   1      38.974  28.562  30.977  1.00  0.00     0.012 A 
ATOM     63  C   UNL A   1      38.404  29.370  28.753  1.00  0.00     0.148 A 
ATOM     64  C   UNL A   1      37.660  28.763  31.396  1.00  0.00     0.002 A 
ATOM     65  C   UNL A   1      37.106  29.607  29.191  1.00  0.00     0.091 A 
ATOM     66  F   UNL A   1      38.780  29.612  27.490  1.00  0.00    -0.205 F 
ATOM     67  C   UNL A   1      36.729  29.295  30.508  1.00  0.00     0.022 A 
BRANCH  65  68
ATOM     68  S   UNL A   1      35.858  30.362  28.142  1.00  0.00     0.127 S 
ATOM     69  O   UNL A   1      36.612  31.452  27.524  1.00  0.00    -0.237 OA
ATOM     70  O   UNL A   1      35.513  29.268  27.233  1.00  0.00    -0.237 OA
ATOM     71  O   UNL A   1      34.781  30.769  29.033  1.00  0.00    -0.744 OA
ENDBRANCH  65  68
ENDBRANCH  47  61
BRANCH  48  72
ATOM     72  C   UNL A   1      48.691  27.208  26.484  1.00  0.00     0.023 A 
ATOM     73  C   UNL A   1      49.662  26.656  27.343  1.00  0.00     0.012 A 
ATOM     74  C   UNL A   1      49.043  27.505  25.153  1.00  0.00     0.148 A 
ATOM     75  C   UNL A   1      50.965  26.431  26.897  1.00  0.00     0.002 A 
ATOM     76  C   UNL A   1      50.329  27.231  24.699  1.00  0.00     0.091 A 
ATOM     77  F   UNL A   1      48.111  28.043  24.353  1.00  0.00    -0.205 F 
ATOM     78  C   UNL A   1      51.295  26.709  25.573  1.00  0.00     0.022 A 
BRANCH  76  79
ATOM     79  S   UNL A   1      50.805  27.435  22.979  1.00  0.00     0.127 S 
ATOM     80  O   UNL A   1      51.029  28.875  22.899  1.00  0.00    -0.237 OA
ATOM     81  O   UNL A   1      52.016  26.617  22.898  1.00  0.00    -0.237 OA
ATOM     82  O   UNL A   1      49.685  26.919  22.202  1.00  0.00    -0.744 OA
ENDBRANCH  76  79
ENDBRANCH  48  72
BRANCH  60  83
ATOM     83  C   UNL A   1      45.418  32.702  29.317  1.00  0.00     0.023 A 
ATOM     84  C   UNL A   1      46.062  32.940  30.546  1.00  0.00     0.012 A 
ATOM     85  C   UNL A   1      45.306  33.745  28.376  1.00  0.00     0.148 A 
ATOM     86  C   UNL A   1      46.581  34.201  30.838  1.00  0.00     0.002 A 
ATOM     87  C   UNL A   1      45.863  34.987  28.656  1.00  0.00     0.091 A 
ATOM     88  F   UNL A   1      44.673  33.498  27.220  1.00  0.00    -0.205 F 
ATOM     89  C   UNL A   1      46.495  35.218  29.889  1.00  0.00     0.022 A 
BRANCH  87  90
ATOM     90  S   UNL A   1      45.886  36.326  27.459  1.00  0.00     0.127 S 
ATOM     91  O   UNL A   1      44.461  36.614  27.306  1.00  0.00    -0.237 OA
ATOM     92  O   UNL A   1      46.646  37.359  28.165  1.00  0.00    -0.237 OA
ATOM     93  O   UNL A   1      46.545  35.795  26.273  1.00  0.00    -0.744 OA
ENDBRANCH  87  90
ENDBRANCH  60  83
ENDBRANCH  34  35
ENDBRANCH  26  29
ENDBRANCH  24  25
ENDBRANCH  23  24
ENDBRANCH   1  23
TORSDOF 20
ENDMDL
MODEL 2
REMARK VINA RESULT:     -10.5      6.722     10.079
REMARK SMILES CCC(CC)[C@H](C(=O)NCCCCNC(=O)c1ccc(-c2c3nc(c(-c4cccc(S(=O)(=O)[O-])c4F)c4ccc([nH]4)c(-c4cccc(S(=O)(=O)[O-])c4F)c4nc(c(-c5cccc(S(=O)(=O)[O-])c5F)c5ccc2[nH]5)C=C4)C=C3)cc1)c1ccc(OC(F)F)cc1
REMARK SMILES IDX 11 1 10 2 9 3 7 4 8 5 6 7 3 8 2 9 1 10 4 11 5 12 80 13 81 14
REMARK SMILES IDX 89 15 82 16 88 17 83 18 84 19 85 20 86 21 87 22 12 23 13 24
REMARK SMILES IDX 14 25 15 26 16 28 17 29 18 30 79 31 19 32 78 33 20 34 21 35
REMARK SMILES IDX 22 36 72 37 23 38 77 39 71 40 73 41 24 42 76 43 70 44 69 45
REMARK SMILES IDX 25 47 57 48 37 49 56 50 38 51 41 52 55 53 74 54 39 55 40 56
REMARK SMILES IDX 54 58 75 59 42 60 26 61 27 62 35 63 28 64 30 65 36 66 29 67
REMARK SMILES IDX 31 68 32 69 33 70 34 71 58 72 59 73 67 74 60 75 62 76 68 77
REMARK SMILES IDX 61 78 63 79 64 80 65 81 66 82 43 83 44 84 52 85 45 86 47 87
REMARK SMILES IDX 53 88 46 89 48 90 49 91 50 92 51 93
REMARK H PARENT 9 6 14 27 73 46 41 57
REMARK Flexibility Score: inf
ROOT
ATOM      1  C   UNL A   1      31.686  30.635  26.599  1.00  0.00     0.023 C 
ENDROOT
BRANCH   1   2
ATOM      2  C   UNL A   1      33.120  30.113  26.566  1.00  0.00     0.116 C 
BRANCH   2   3
ATOM      3  N   UNL A   1      33.594  29.884  25.211  1.00  0.00    -0.356 N 
ATOM      4  C   UNL A   1      33.469  28.789  24.402  1.00  0.00     0.227 C 
ATOM      5  O   UNL A   1      33.908  28.876  23.255  1.00  0.00    -0.274 OA
ATOM      6  H   UNL A   1      34.085  30.639  24.813  1.00  0.00     0.163 HD
BRANCH   4   7
ATOM      7  C   UNL A   1      32.756  27.528  24.925  1.00  0.00     0.111 C 
BRANCH   7   8
ATOM      8  C   UNL A   1      31.208  27.706  24.733  1.00  0.00     0.005 C 
BRANCH   8   9
ATOM      9  C   UNL A   1      30.825  28.766  23.668  1.00  0.00     0.001 C 
ATOM     10  C   UNL A   1      30.296  28.236  22.348  1.00  0.00     0.004 C 
ENDBRANCH   8   9
BRANCH   8  11
ATOM     11  C   UNL A   1      30.399  26.385  24.791  1.00  0.00     0.001 C 
ATOM     12  C   UNL A   1      30.364  25.601  26.089  1.00  0.00     0.004 C 
ENDBRANCH   8  11
ENDBRANCH   7   8
BRANCH   7  13
ATOM     13  C   UNL A   1      33.454  26.251  24.437  1.00  0.00    -0.035 A 
ATOM     14  C   UNL A   1      34.331  25.591  25.317  1.00  0.00     0.008 A 
ATOM     15  C   UNL A   1      33.281  25.685  23.169  1.00  0.00     0.008 A 
ATOM     16  C   UNL A   1      34.958  24.393  24.953  1.00  0.00     0.047 A 
ATOM     17  C   UNL A   1      33.899  24.481  22.808  1.00  0.00     0.047 A 
ATOM     18  C   UNL A   1      34.725  23.815  23.705  1.00  0.00     0.126 A 
BRANCH  18  19
ATOM     19  O   UNL A   1      35.357  22.626  23.482  1.00  0.00    -0.435 OA
BRANCH  19  20
ATOM     20  C   UNL A   1      36.080  22.049  24.563  1.00  0.00     0.542 C 
ATOM     21  F   UNL A   1      35.790  20.730  24.677  1.00  0.00    -0.167 F 
ATOM     22  F   UNL A   1      37.413  22.176  24.359  1.00  0.00    -0.167 F 
ENDBRANCH  19  20
ENDBRANCH  18  19
ENDBRANCH   7  13
ENDBRANCH   4   7
ENDBRANCH   2   3
ENDBRANCH   1   2
BRANCH   1  23
ATOM     23  C   UNL A   1      31.546  32.136  26.865  1.00  0.00     0.023 C 
BRANCH  23  24
ATOM     24  C   UNL A   1      32.802  32.831  27.377  1.00  0.00     0.116 C 
BRANCH  24  25
ATOM     25  N   UNL A   1      32.570  34.221  27.744  1.00  0.00    -0.352 N 
ATOM     26  C   UNL A   1      33.143  34.948  28.763  1.00  0.00     0.251 C 
ATOM     27  H   UNL A   1      31.916  34.706  27.190  1.00  0.00     0.163 HD
ATOM     28  O   UNL A   1      32.738  36.073  29.026  1.00  0.00    -0.269 OA
BRANCH  26  29
ATOM     29  C   UNL A   1      34.238  34.344  29.556  1.00  0.00     0.039 A 
ATOM     30  C   UNL A   1      33.934  33.701  30.760  1.00  0.00     0.014 A 
ATOM     31  C   UNL A   1      35.554  34.387  29.091  1.00  0.00     0.014 A 
ATOM     32  C   UNL A   1      34.944  33.036  31.464  1.00  0.00     0.010 A 
ATOM     33  C   UNL A   1      36.543  33.672  29.759  1.00  0.00     0.010 A 
ATOM     34  C   UNL A   1      36.248  32.987  30.950  1.00  0.00    -0.014 A 
BRANCH  34  35
ATOM     35  C   UNL A   1      37.339  32.234  31.622  1.00  0.00     0.031 A 
ATOM     36  C   UNL A   1      37.854  32.709  32.953  1.00  0.00     0.074 A 
ATOM     37  C   UNL A   1      37.956  31.223  30.979  1.00  0.00     0.049 A 
ATOM     38  N   UNL A   1      38.915  32.328  33.613  1.00  0.00    -0.248 NA
ATOM     39  C   UNL A   1      37.088  33.781  33.612  1.00  0.00     0.031 C 
ATOM     40  C   UNL A   1      37.588  30.705  29.661  1.00  0.00     0.029 A 
ATOM     41  N   UNL A   1      39.056  30.478  31.332  1.00  0.00    -0.354 N 
ATOM     42  C   UNL A   1      38.979  33.149  34.733  1.00  0.00     0.074 A 
ATOM     43  C   UNL A   1      37.857  34.059  34.655  1.00  0.00     0.031 C 
ATOM     44  C   UNL A   1      38.453  29.740  29.308  1.00  0.00     0.029 A 
ATOM     45  C   UNL A   1      39.459  29.595  30.356  1.00  0.00     0.049 A 
ATOM     46  H   UNL A   1      39.511  30.568  32.200  1.00  0.00     0.167 HD
ATOM     47  C   UNL A   1      39.877  33.133  35.744  1.00  0.00     0.034 A 
ATOM     48  C   UNL A   1      40.530  28.777  30.303  1.00  0.00     0.034 A 
ATOM     49  C   UNL A   1      40.951  32.185  35.850  1.00  0.00     0.049 A 
ATOM     50  C   UNL A   1      41.485  28.743  31.466  1.00  0.00     0.074 A 
ATOM     51  C   UNL A   1      41.865  32.031  36.877  1.00  0.00     0.029 A 
ATOM     52  N   UNL A   1      41.252  31.223  34.898  1.00  0.00    -0.354 N 
ATOM     53  N   UNL A   1      41.454  29.436  32.578  1.00  0.00    -0.248 NA
ATOM     54  C   UNL A   1      42.605  27.792  31.386  1.00  0.00     0.031 C 
ATOM     55  C   UNL A   1      42.723  30.978  36.544  1.00  0.00     0.029 A 
ATOM     56  C   UNL A   1      42.333  30.469  35.315  1.00  0.00     0.049 A 
ATOM     57  H   UNL A   1      40.768  31.096  34.050  1.00  0.00     0.167 HD
ATOM     58  C   UNL A   1      42.516  28.973  33.347  1.00  0.00     0.074 A 
ATOM     59  C   UNL A   1      43.170  27.937  32.577  1.00  0.00     0.031 C 
ATOM     60  C   UNL A   1      42.919  29.382  34.575  1.00  0.00     0.034 A 
BRANCH  47  61
ATOM     61  C   UNL A   1      39.704  34.135  36.854  1.00  0.00     0.023 A 
ATOM     62  C   UNL A   1      39.986  35.494  36.608  1.00  0.00     0.012 A 
ATOM     63  C   UNL A   1      39.209  33.747  38.114  1.00  0.00     0.148 A 
ATOM     64  C   UNL A   1      39.809  36.448  37.609  1.00  0.00     0.002 A 
ATOM     65  C   UNL A   1      38.995  34.711  39.094  1.00  0.00     0.091 A 
ATOM     66  F   UNL A   1      38.969  32.448  38.337  1.00  0.00    -0.205 F 
ATOM     67  C   UNL A   1      39.304  36.058  38.848  1.00  0.00     0.022 A 
BRANCH  65  68
ATOM     68  S   UNL A   1      38.275  34.317  40.692  1.00  0.00     0.127 S 
ATOM     69  O   UNL A   1      38.064  35.649  41.257  1.00  0.00    -0.237 OA
ATOM     70  O   UNL A   1      37.048  33.614  40.315  1.00  0.00    -0.237 OA
ATOM     71  O   UNL A   1      39.258  33.491  41.379  1.00  0.00    -0.744 OA
ENDBRANCH  65  68
ENDBRANCH  47  61
BRANCH  48  72
ATOM     72  C   UNL A   1      40.718  27.872  29.133  1.00  0.00     0.023 A 
ATOM     73  C   UNL A   1      40.002  26.661  29.083  1.00  0.00     0.012 A 
ATOM     74  C   UNL A   1      41.568  28.211  28.062  1.00  0.00     0.148 A 
ATOM     75  C   UNL A   1      40.150  25.788  28.004  1.00  0.00     0.002 A 
ATOM     76  C   UNL A   1      41.672  27.361  26.965  1.00  0.00     0.091 A 
ATOM     77  F   UNL A   1      42.254  29.361  28.132  1.00  0.00    -0.205 F 
ATOM     78  C   UNL A   1      40.976  26.142  26.942  1.00  0.00     0.022 A 
BRANCH  76  79
ATOM     79  S   UNL A   1      42.610  27.798  25.497  1.00  0.00     0.127 S 
ATOM     80  O   UNL A   1      42.470  26.593  24.683  1.00  0.00    -0.237 OA
ATOM     81  O   UNL A   1      41.876  28.964  25.002  1.00  0.00    -0.237 OA
ATOM     82  O   UNL A   1      43.955  28.097  25.969  1.00  0.00    -0.744 OA
ENDBRANCH  76  79
ENDBRANCH  48  72
BRANCH  60  83
ATOM     83  C   UNL A   1      44.085  28.674  35.212  1.00  0.00     0.023 A 
ATOM     84  C   UNL A   1      45.393  29.145  34.996  1.00  0.00     0.012 A 
ATOM     85  C   UNL A   1      43.864  27.623  36.124  1.00  0.00     0.148 A 
ATOM     86  C   UNL A   1      46.470  28.573  35.673  1.00  0.00     0.002 A 
ATOM     87  C   UNL A   1      44.936  27.086  36.826  1.00  0.00     0.091 A 
ATOM     88  F   UNL A   1      42.611  27.180  36.298  1.00  0.00    -0.205 F 
ATOM     89  C   UNL A   1      46.240  27.556  36.597  1.00  0.00     0.022 A 
BRANCH  87  90
ATOM     90  S   UNL A   1      44.725  25.842  38.106  1.00  0.00     0.127 S 
ATOM     91  O   UNL A   1      43.800  24.910  37.465  1.00  0.00    -0.237 OA
ATOM     92  O   UNL A   1      46.088  25.333  38.270  1.00  0.00    -0.237 OA
ATOM     93  O   UNL A   1      44.198  26.544  39.268  1.00  0.00    -0.744 OA
ENDBRANCH  87  90
ENDBRANCH  60  83
ENDBRANCH  34  35
ENDBRANCH  26  29
ENDBRANCH  24  25
ENDBRANCH  23  24
ENDBRANCH   1  23
TORSDOF 20
ENDMDL
MODEL 3
REMARK VINA RESULT:     -10.4      6.402     11.201
REMARK SMILES CCC(CC)[C@H](C(=O)NCCCCNC(=O)c1ccc(-c2c3nc(c(-c4cccc(S(=O)(=O)[O-])c4F)c4ccc([nH]4)c(-c4cccc(S(=O)(=O)[O-])c4F)c4nc(c(-c5cccc(S(=O)(=O)[O-])c5F)c5ccc2[nH]5)C=C4)C=C3)cc1)c1ccc(OC(F)F)cc1
REMARK SMILES IDX 11 1 10 2 9 3 7 4 8 5 6 7 3 8 2 9 1 10 4 11 5 12 80 13 81 14
REMARK SMILES IDX 89 15 82 16 88 17 83 18 84 19 85 20 86 21 87 22 12 23 13 24
REMARK SMILES IDX 14 25 15 26 16 28 17 29 18 30 79 31 19 32 78 33 20 34 21 35
REMARK SMILES IDX 22 36 72 37 23 38 77 39 71 40 73 41 24 42 76 43 70 44 69 45
REMARK SMILES IDX 25 47 57 48 37 49 56 50 38 51 41 52 55 53 74 54 39 55 40 56
REMARK SMILES IDX 54 58 75 59 42 60 26 61 27 62 35 63 28 64 30 65 36 66 29 67
REMARK SMILES IDX 31 68 32 69 33 70 34 71 58 72 59 73 67 74 60 75 62 76 68 77
REMARK SMILES IDX 61 78 63 79 64 80 65 81 66 82 43 83 44 84 52 85 45 86 47 87
REMARK SMILES IDX 53 88 46 89 48 90 49 91 50 92 51 93
REMARK H PARENT 9 6 14 27 73 46 41 57
REMARK Flexibility Score: inf
ROOT
ATOM      1  C   UNL A   1      31.919  30.151  26.723  1.00  0.00     0.023 C 
ENDROOT
BRANCH   1   2
ATOM      2  C   UNL A   1      33.313  29.547  26.567  1.00  0.00     0.116 C 
BRANCH   2   3
ATOM      3  N   UNL A   1      33.759  29.533  25.185  1.00  0.00    -0.356 N 
ATOM      4  C   UNL A   1      33.519  28.632  24.185  1.00  0.00     0.227 C 
ATOM      5  O   UNL A   1      33.964  28.890  23.066  1.00  0.00    -0.274 OA
ATOM      6  H   UNL A   1      34.326  30.295  24.926  1.00  0.00     0.163 HD
BRANCH   4   7
ATOM      7  C   UNL A   1      32.677  27.374  24.473  1.00  0.00     0.111 C 
BRANCH   7   8
ATOM      8  C   UNL A   1      31.378  27.422  23.593  1.00  0.00     0.005 C 
BRANCH   8   9
ATOM      9  C   UNL A   1      30.205  26.579  24.158  1.00  0.00     0.001 C 
ATOM     10  C   UNL A   1      30.033  25.188  23.576  1.00  0.00     0.004 C 
ENDBRANCH   8   9
BRANCH   8  11
ATOM     11  C   UNL A   1      31.067  28.813  22.984  1.00  0.00     0.001 C 
ATOM     12  C   UNL A   1      29.932  29.633  23.566  1.00  0.00     0.004 C 
ENDBRANCH   8  11
ENDBRANCH   7   8
BRANCH   7  13
ATOM     13  C   UNL A   1      33.550  26.113  24.496  1.00  0.00    -0.035 A 
ATOM     14  C   UNL A   1      33.713  25.390  23.300  1.00  0.00     0.008 A 
ATOM     15  C   UNL A   1      34.207  25.621  25.630  1.00  0.00     0.008 A 
ATOM     16  C   UNL A   1      34.539  24.261  23.242  1.00  0.00     0.047 A 
ATOM     17  C   UNL A   1      35.043  24.499  25.571  1.00  0.00     0.047 A 
ATOM     18  C   UNL A   1      35.232  23.824  24.371  1.00  0.00     0.126 A 
BRANCH  18  19
ATOM     19  O   UNL A   1      36.040  22.740  24.180  1.00  0.00    -0.435 OA
BRANCH  19  20
ATOM     20  C   UNL A   1      35.623  21.498  24.734  1.00  0.00     0.542 C 
ATOM     21  F   UNL A   1      36.041  21.389  26.019  1.00  0.00    -0.167 F 
ATOM     22  F   UNL A   1      34.273  21.403  24.716  1.00  0.00    -0.167 F 
ENDBRANCH  19  20
ENDBRANCH  18  19
ENDBRANCH   7  13
ENDBRANCH   4   7
ENDBRANCH   2   3
ENDBRANCH   1   2
BRANCH   1  23
ATOM     23  C   UNL A   1      31.851  31.674  26.592  1.00  0.00     0.023 C 
BRANCH  23  24
ATOM     24  C   UNL A   1      32.925  32.445  27.351  1.00  0.00     0.116 C 
BRANCH  24  25
ATOM     25  N   UNL A   1      32.541  33.821  27.633  1.00  0.00    -0.352 N 
ATOM     26  C   UNL A   1      33.058  34.682  28.576  1.00  0.00     0.251 C 
ATOM     27  H   UNL A   1      31.815  34.185  27.076  1.00  0.00     0.163 HD
ATOM     28  O   UNL A   1      32.531  35.767  28.779  1.00  0.00    -0.269 OA
BRANCH  26  29
ATOM     29  C   UNL A   1      34.244  34.268  29.360  1.00  0.00     0.039 A 
ATOM     30  C   UNL A   1      34.062  33.540  30.540  1.00  0.00     0.014 A 
ATOM     31  C   UNL A   1      35.530  34.575  28.910  1.00  0.00     0.014 A 
ATOM     32  C   UNL A   1      35.176  33.054  31.232  1.00  0.00     0.010 A 
ATOM     33  C   UNL A   1      36.633  34.037  29.565  1.00  0.00     0.010 A 
ATOM     34  C   UNL A   1      36.468  33.268  30.730  1.00  0.00    -0.014 A 
BRANCH  34  35
ATOM     35  C   UNL A   1      37.679  32.713  31.388  1.00  0.00     0.031 A 
ATOM     36  C   UNL A   1      38.404  31.559  30.751  1.00  0.00     0.074 A 
ATOM     37  C   UNL A   1      38.039  33.146  32.613  1.00  0.00     0.049 A 
ATOM     38  N   UNL A   1      39.349  30.803  31.244  1.00  0.00    -0.248 NA
ATOM     39  C   UNL A   1      37.984  31.187  29.390  1.00  0.00     0.031 C 
ATOM     40  C   UNL A   1      37.383  34.220  33.361  1.00  0.00     0.029 A 
ATOM     41  N   UNL A   1      39.022  32.702  33.465  1.00  0.00    -0.354 N 
ATOM     42  C   UNL A   1      39.596  29.832  30.281  1.00  0.00     0.074 A 
ATOM     43  C   UNL A   1      38.691  30.086  29.181  1.00  0.00     0.031 C 
ATOM     44  C   UNL A   1      37.969  34.341  34.563  1.00  0.00     0.029 A 
ATOM     45  C   UNL A   1      39.015  33.332  34.689  1.00  0.00     0.049 A 
ATOM     46  H   UNL A   1      39.668  32.001  33.223  1.00  0.00     0.167 HD
ATOM     47  C   UNL A   1      40.508  28.833  30.301  1.00  0.00     0.034 A 
ATOM     48  C   UNL A   1      39.755  33.107  35.794  1.00  0.00     0.034 A 
ATOM     49  C   UNL A   1      41.449  28.625  31.367  1.00  0.00     0.049 A 
ATOM     50  C   UNL A   1      40.798  32.021  35.769  1.00  0.00     0.074 A 
ATOM     51  C   UNL A   1      42.467  27.693  31.444  1.00  0.00     0.029 A 
ATOM     52  N   UNL A   1      41.491  29.365  32.538  1.00  0.00    -0.354 N 
ATOM     53  N   UNL A   1      41.107  31.197  34.798  1.00  0.00    -0.248 NA
ATOM     54  C   UNL A   1      41.619  31.854  36.979  1.00  0.00     0.031 C 
ATOM     55  C   UNL A   1      43.125  27.865  32.667  1.00  0.00     0.029 A 
ATOM     56  C   UNL A   1      42.522  28.915  33.343  1.00  0.00     0.049 A 
ATOM     57  H   UNL A   1      40.878  30.101  32.764  1.00  0.00     0.167 HD
ATOM     58  C   UNL A   1      42.184  30.449  35.260  1.00  0.00     0.074 A 
ATOM     59  C   UNL A   1      42.479  30.920  36.596  1.00  0.00     0.031 C 
ATOM     60  C   UNL A   1      42.857  29.452  34.635  1.00  0.00     0.034 A 
BRANCH  47  61
ATOM     61  C   UNL A   1      40.576  27.920  29.106  1.00  0.00     0.023 A 
ATOM     62  C   UNL A   1      39.661  26.853  28.998  1.00  0.00     0.012 A 
ATOM     63  C   UNL A   1      41.499  28.148  28.067  1.00  0.00     0.148 A 
ATOM     64  C   UNL A   1      39.684  26.008  27.890  1.00  0.00     0.002 A 
ATOM     65  C   UNL A   1      41.487  27.326  26.945  1.00  0.00     0.091 A 
ATOM     66  F   UNL A   1      42.377  29.152  28.198  1.00  0.00    -0.205 F 
ATOM     67  C   UNL A   1      40.589  26.250  26.860  1.00  0.00     0.022 A 
BRANCH  65  68
ATOM     68  S   UNL A   1      42.562  27.607  25.533  1.00  0.00     0.127 S 
ATOM     69  O   UNL A   1      42.275  26.435  24.706  1.00  0.00    -0.237 OA
ATOM     70  O   UNL A   1      42.049  28.869  25.000  1.00  0.00    -0.237 OA
ATOM     71  O   UNL A   1      43.914  27.682  26.070  1.00  0.00    -0.744 OA
ENDBRANCH  65  68
ENDBRANCH  47  61
BRANCH  48  72
ATOM     72  C   UNL A   1      39.582  33.973  36.995  1.00  0.00     0.023 A 
ATOM     73  C   UNL A   1      40.012  35.314  36.939  1.00  0.00     0.012 A 
ATOM     74  C   UNL A   1      38.972  33.497  38.171  1.00  0.00     0.148 A 
ATOM     75  C   UNL A   1      39.865  36.156  38.042  1.00  0.00     0.002 A 
ATOM     76  C   UNL A   1      38.781  34.356  39.249  1.00  0.00     0.091 A 
ATOM     77  F   UNL A   1      38.581  32.215  38.213  1.00  0.00    -0.205 F 
ATOM     78  C   UNL A   1      39.242  35.681  39.192  1.00  0.00     0.022 A 
BRANCH  76  79
ATOM     79  S   UNL A   1      37.873  33.868  40.719  1.00  0.00     0.127 S 
ATOM     80  O   UNL A   1      38.800  32.929  41.346  1.00  0.00    -0.237 OA
ATOM     81  O   UNL A   1      37.719  35.143  41.422  1.00  0.00    -0.237 OA
ATOM     82  O   UNL A   1      36.622  33.301  40.233  1.00  0.00    -0.744 OA
ENDBRANCH  76  79
ENDBRANCH  48  72
BRANCH  60  83
ATOM     83  C   UNL A   1      44.030  28.832  35.348  1.00  0.00     0.023 A 
ATOM     84  C   UNL A   1      43.837  27.695  36.155  1.00  0.00     0.012 A 
ATOM     85  C   UNL A   1      45.336  29.304  35.109  1.00  0.00     0.148 A 
ATOM     86  C   UNL A   1      44.929  27.041  36.725  1.00  0.00     0.002 A 
ATOM     87  C   UNL A   1      46.421  28.621  35.645  1.00  0.00     0.091 A 
ATOM     88  F   UNL A   1      45.492  30.398  34.351  1.00  0.00    -0.205 F 
ATOM     89  C   UNL A   1      46.219  27.494  36.458  1.00  0.00     0.022 A 
BRANCH  87  90
ATOM     90  S   UNL A   1      48.121  29.073  35.277  1.00  0.00     0.127 S 
ATOM     91  O   UNL A   1      48.270  30.315  36.033  1.00  0.00    -0.237 OA
ATOM     92  O   UNL A   1      48.868  27.936  35.818  1.00  0.00    -0.237 OA
ATOM     93  O   UNL A   1      48.197  29.212  33.829  1.00  0.00    -0.744 OA
ENDBRANCH  87  90
ENDBRANCH  60  83
ENDBRANCH  34  35
ENDBRANCH  26  29
ENDBRANCH  24  25
ENDBRANCH  23  24
ENDBRANCH   1  23
TORSDOF 20
ENDMDL
