MODEL 1
REMARK VINA RESULT:     -12.1      0.000      0.000
REMARK SMILES C[C@H](C(=O)NCCCCNC(=O)c1ccc(-c2c3nc(c(-c4cccc(S(=O)(=O)[O-])c4F)c4ccc([nH]4)c(-c4cccc(S(=O)(=O)[O-])c4F)c4nc(c(-c5cccc(S(=O)(=O)[O-])c5F)c5ccc2[nH]5)C=C4)C=C3)cc1)c1cccc(C(=O)c2ccccc2)c1
REMARK SMILES IDX 7 1 6 2 5 3 3 4 4 5 2 7 1 8 76 9 77 10 89 11 78 12 80 13
REMARK SMILES IDX 79 14 81 15 82 16 83 17 84 18 88 19 85 20 87 21 86 22 8 23
REMARK SMILES IDX 9 24 10 25 11 26 12 28 13 29 14 30 75 31 15 32 74 33 16 34
REMARK SMILES IDX 17 35 18 36 68 37 19 38 73 39 67 40 69 41 20 42 72 43 66 44
REMARK SMILES IDX 65 45 21 47 53 48 33 49 52 50 34 51 37 52 51 53 70 54 35 55
REMARK SMILES IDX 36 56 50 58 71 59 38 60 22 61 23 62 31 63 24 64 26 65 32 66
REMARK SMILES IDX 25 67 27 68 28 69 29 70 30 71 54 72 55 73 63 74 56 75 58 76
REMARK SMILES IDX 64 77 57 78 59 79 60 80 61 81 62 82 39 83 40 84 48 85 41 86
REMARK SMILES IDX 43 87 49 88 42 89 44 90 45 91 46 92 47 93
REMARK H PARENT 5 6 10 27 69 46 37 57
REMARK Flexibility Score: inf
ROOT
ATOM      1  C   UNL A   1      34.080  21.582  26.943  1.00  0.00     0.023 C 
ENDROOT
BRANCH   1   2
ATOM      2  C   UNL A   1      33.430  22.885  27.411  1.00  0.00     0.116 C 
BRANCH   2   3
ATOM      3  N   UNL A   1      31.999  22.723  27.569  1.00  0.00    -0.356 N 
ATOM      4  C   UNL A   1      30.944  23.381  27.021  1.00  0.00     0.227 C 
ATOM      5  O   UNL A   1      29.836  23.088  27.488  1.00  0.00    -0.274 OA
ATOM      6  H   UNL A   1      31.743  22.001  28.188  1.00  0.00     0.163 HD
BRANCH   4   7
ATOM      7  C   UNL A   1      31.043  24.315  25.800  1.00  0.00     0.105 C 
ATOM      8  C   UNL A   1      31.544  25.696  26.255  1.00  0.00     0.023 C 
BRANCH   7   9
ATOM      9  C   UNL A   1      31.850  23.855  24.598  1.00  0.00    -0.035 A 
ATOM     10  C   UNL A   1      32.843  24.649  24.011  1.00  0.00     0.004 A 
ATOM     11  C   UNL A   1      31.601  22.579  24.055  1.00  0.00     0.016 A 
ATOM     12  C   UNL A   1      33.620  24.152  22.961  1.00  0.00     0.001 A 
ATOM     13  C   UNL A   1      32.357  22.085  22.983  1.00  0.00     0.023 A 
ATOM     14  C   UNL A   1      33.387  22.871  22.457  1.00  0.00     0.012 A 
BRANCH  13  15
ATOM     15  C   UNL A   1      32.147  20.714  22.433  1.00  0.00     0.193 C 
ATOM     16  O   UNL A   1      31.764  20.569  21.276  1.00  0.00    -0.289 OA
BRANCH  15  17
ATOM     17  C   UNL A   1      32.420  19.504  23.245  1.00  0.00     0.022 A 
ATOM     18  C   UNL A   1      32.686  18.301  22.584  1.00  0.00     0.012 A 
ATOM     19  C   UNL A   1      32.404  19.548  24.644  1.00  0.00     0.012 A 
ATOM     20  C   UNL A   1      32.982  17.153  23.322  1.00  0.00     0.001 A 
ATOM     21  C   UNL A   1      32.705  18.398  25.377  1.00  0.00     0.001 A 
ATOM     22  C   UNL A   1      33.001  17.206  24.716  1.00  0.00     0.000 A 
ENDBRANCH  15  17
ENDBRANCH  13  15
ENDBRANCH   7   9
ENDBRANCH   4   7
ENDBRANCH   2   3
ENDBRANCH   1   2
BRANCH   1  23
ATOM     23  C   UNL A   1      34.945  21.714  25.689  1.00  0.00     0.023 C 
BRANCH  23  24
ATOM     24  C   UNL A   1      36.364  22.201  25.940  1.00  0.00     0.116 C 
BRANCH  24  25
ATOM     25  N   UNL A   1      37.365  21.151  25.831  1.00  0.00    -0.352 N 
ATOM     26  C   UNL A   1      38.721  21.245  26.030  1.00  0.00     0.251 C 
ATOM     27  H   UNL A   1      37.028  20.260  25.582  1.00  0.00     0.163 HD
ATOM     28  O   UNL A   1      39.449  20.285  25.794  1.00  0.00    -0.269 OA
BRANCH  26  29
ATOM     29  C   UNL A   1      39.297  22.523  26.496  1.00  0.00     0.039 A 
ATOM     30  C   UNL A   1      40.313  22.497  27.454  1.00  0.00     0.014 A 
ATOM     31  C   UNL A   1      38.857  23.740  25.968  1.00  0.00     0.014 A 
ATOM     32  C   UNL A   1      40.920  23.691  27.846  1.00  0.00     0.010 A 
ATOM     33  C   UNL A   1      39.524  24.915  26.291  1.00  0.00     0.010 A 
ATOM     34  C   UNL A   1      40.547  24.906  27.250  1.00  0.00    -0.014 A 
BRANCH  34  35
ATOM     35  C   UNL A   1      41.196  26.184  27.635  1.00  0.00     0.031 A 
ATOM     36  C   UNL A   1      42.612  26.466  27.208  1.00  0.00     0.074 A 
ATOM     37  C   UNL A   1      40.542  27.053  28.430  1.00  0.00     0.049 A 
ATOM     38  N   UNL A   1      43.354  27.513  27.456  1.00  0.00    -0.248 NA
ATOM     39  C   UNL A   1      43.297  25.420  26.429  1.00  0.00     0.031 C 
ATOM     40  C   UNL A   1      39.203  26.850  28.987  1.00  0.00     0.029 A 
ATOM     41  N   UNL A   1      40.924  28.274  28.924  1.00  0.00    -0.354 N 
ATOM     42  C   UNL A   1      44.600  27.233  26.906  1.00  0.00     0.074 A 
ATOM     43  C   UNL A   1      44.527  25.904  26.346  1.00  0.00     0.031 C 
ATOM     44  C   UNL A   1      38.867  27.919  29.727  1.00  0.00     0.029 A 
ATOM     45  C   UNL A   1      39.971  28.873  29.716  1.00  0.00     0.049 A 
ATOM     46  H   UNL A   1      41.798  28.684  28.730  1.00  0.00     0.167 HD
ATOM     47  C   UNL A   1      45.696  28.026  26.839  1.00  0.00     0.034 A 
ATOM     48  C   UNL A   1      39.984  30.062  30.348  1.00  0.00     0.034 A 
ATOM     49  C   UNL A   1      45.740  29.374  27.337  1.00  0.00     0.049 A 
ATOM     50  C   UNL A   1      41.186  30.955  30.192  1.00  0.00     0.074 A 
ATOM     51  C   UNL A   1      46.758  30.302  27.222  1.00  0.00     0.029 A 
ATOM     52  N   UNL A   1      44.718  29.984  28.049  1.00  0.00    -0.354 N 
ATOM     53  N   UNL A   1      42.289  30.746  29.513  1.00  0.00    -0.248 NA
ATOM     54  C   UNL A   1      41.128  32.267  30.853  1.00  0.00     0.031 C 
ATOM     55  C   UNL A   1      46.359  31.470  27.880  1.00  0.00     0.029 A 
ATOM     56  C   UNL A   1      45.083  31.276  28.386  1.00  0.00     0.049 A 
ATOM     57  H   UNL A   1      43.860  29.561  28.280  1.00  0.00     0.167 HD
ATOM     58  C   UNL A   1      43.035  31.914  29.628  1.00  0.00     0.074 A 
ATOM     59  C   UNL A   1      42.249  32.833  30.429  1.00  0.00     0.031 C 
ATOM     60  C   UNL A   1      44.264  32.197  29.130  1.00  0.00     0.034 A 
BRANCH  47  61
ATOM     61  C   UNL A   1      46.915  27.475  26.148  1.00  0.00     0.023 A 
ATOM     62  C   UNL A   1      47.093  27.691  24.766  1.00  0.00     0.012 A 
ATOM     63  C   UNL A   1      47.905  26.778  26.869  1.00  0.00     0.148 A 
ATOM     64  C   UNL A   1      48.213  27.188  24.104  1.00  0.00     0.002 A 
ATOM     65  C   UNL A   1      49.042  26.321  26.211  1.00  0.00     0.091 A 
ATOM     66  F   UNL A   1      47.710  26.560  28.177  1.00  0.00    -0.205 F 
ATOM     67  C   UNL A   1      49.191  26.513  24.828  1.00  0.00     0.022 A 
BRANCH  65  68
ATOM     68  S   UNL A   1      50.395  25.511  27.072  1.00  0.00     0.127 S 
ATOM     69  O   UNL A   1      51.350  25.298  25.986  1.00  0.00    -0.237 OA
ATOM     70  O   UNL A   1      50.796  26.530  28.044  1.00  0.00    -0.237 OA
ATOM     71  O   UNL A   1      49.830  24.305  27.658  1.00  0.00    -0.744 OA
ENDBRANCH  65  68
ENDBRANCH  47  61
BRANCH  48  72
ATOM     72  C   UNL A   1      38.781  30.523  31.097  1.00  0.00     0.023 A 
ATOM     73  C   UNL A   1      38.721  30.318  32.490  1.00  0.00     0.012 A 
ATOM     74  C   UNL A   1      37.715  31.180  30.454  1.00  0.00     0.148 A 
ATOM     75  C   UNL A   1      37.608  30.729  33.223  1.00  0.00     0.002 A 
ATOM     76  C   UNL A   1      36.631  31.633  31.199  1.00  0.00     0.091 A 
ATOM     77  F   UNL A   1      37.785  31.356  29.127  1.00  0.00    -0.205 F 
ATOM     78  C   UNL A   1      36.569  31.394  32.581  1.00  0.00     0.022 A 
BRANCH  76  79
ATOM     79  S   UNL A   1      35.307  32.608  30.477  1.00  0.00     0.127 S 
ATOM     80  O   UNL A   1      34.989  31.838  29.277  1.00  0.00    -0.237 OA
ATOM     81  O   UNL A   1      34.288  32.559  31.528  1.00  0.00    -0.237 OA
ATOM     82  O   UNL A   1      35.872  33.931  30.251  1.00  0.00    -0.744 OA
ENDBRANCH  76  79
ENDBRANCH  48  72
BRANCH  60  83
ATOM     83  C   UNL A   1      44.825  33.569  29.395  1.00  0.00     0.023 A 
ATOM     84  C   UNL A   1      45.501  33.830  30.602  1.00  0.00     0.012 A 
ATOM     85  C   UNL A   1      44.743  34.578  28.415  1.00  0.00     0.148 A 
ATOM     86  C   UNL A   1      46.056  35.086  30.846  1.00  0.00     0.002 A 
ATOM     87  C   UNL A   1      45.342  35.811  28.644  1.00  0.00     0.091 A 
ATOM     88  F   UNL A   1      44.078  34.318  27.280  1.00  0.00    -0.205 F 
ATOM     89  C   UNL A   1      45.987  36.072  29.864  1.00  0.00     0.022 A 
BRANCH  87  90
ATOM     90  S   UNL A   1      45.388  37.099  27.392  1.00  0.00     0.127 S 
ATOM     91  O   UNL A   1      43.970  37.418  27.240  1.00  0.00    -0.237 OA
ATOM     92  O   UNL A   1      46.181  38.141  28.044  1.00  0.00    -0.237 OA
ATOM     93  O   UNL A   1      46.027  36.498  26.228  1.00  0.00    -0.744 OA
ENDBRANCH  87  90
ENDBRANCH  60  83
ENDBRANCH  34  35
ENDBRANCH  26  29
ENDBRANCH  24  25
ENDBRANCH  23  24
ENDBRANCH   1  23
TORSDOF 17
ENDMDL
MODEL 2
REMARK VINA RESULT:     -12.1      5.215     10.074
REMARK SMILES C[C@H](C(=O)NCCCCNC(=O)c1ccc(-c2c3nc(c(-c4cccc(S(=O)(=O)[O-])c4F)c4ccc([nH]4)c(-c4cccc(S(=O)(=O)[O-])c4F)c4nc(c(-c5cccc(S(=O)(=O)[O-])c5F)c5ccc2[nH]5)C=C4)C=C3)cc1)c1cccc(C(=O)c2ccccc2)c1
REMARK SMILES IDX 7 1 6 2 5 3 3 4 4 5 2 7 1 8 76 9 77 10 89 11 78 12 80 13
REMARK SMILES IDX 79 14 81 15 82 16 83 17 84 18 88 19 85 20 87 21 86 22 8 23
REMARK SMILES IDX 9 24 10 25 11 26 12 28 13 29 14 30 75 31 15 32 74 33 16 34
REMARK SMILES IDX 17 35 18 36 68 37 19 38 73 39 67 40 69 41 20 42 72 43 66 44
REMARK SMILES IDX 65 45 21 47 53 48 33 49 52 50 34 51 37 52 51 53 70 54 35 55
REMARK SMILES IDX 36 56 50 58 71 59 38 60 22 61 23 62 31 63 24 64 26 65 32 66
REMARK SMILES IDX 25 67 27 68 28 69 29 70 30 71 54 72 55 73 63 74 56 75 58 76
REMARK SMILES IDX 64 77 57 78 59 79 60 80 61 81 62 82 39 83 40 84 48 85 41 86
REMARK SMILES IDX 43 87 49 88 42 89 44 90 45 91 46 92 47 93
REMARK H PARENT 5 6 10 27 69 46 37 57
REMARK Flexibility Score: inf
ROOT
ATOM      1  C   UNL A   1      32.136  27.405  27.186  1.00  0.00     0.023 C 
ENDROOT
BRANCH   1   2
ATOM      2  C   UNL A   1      31.441  26.566  26.113  1.00  0.00     0.116 C 
BRANCH   2   3
ATOM      3  N   UNL A   1      30.856  25.372  26.687  1.00  0.00    -0.356 N 
ATOM      4  C   UNL A   1      31.351  24.121  26.879  1.00  0.00     0.227 C 
ATOM      5  O   UNL A   1      30.528  23.280  27.266  1.00  0.00    -0.274 OA
ATOM      6  H   UNL A   1      29.928  25.488  26.996  1.00  0.00     0.163 HD
BRANCH   4   7
ATOM      7  C   UNL A   1      32.844  23.755  26.793  1.00  0.00     0.105 C 
ATOM      8  C   UNL A   1      33.110  22.497  27.637  1.00  0.00     0.023 C 
BRANCH   7   9
ATOM      9  C   UNL A   1      33.472  23.586  25.421  1.00  0.00    -0.035 A 
ATOM     10  C   UNL A   1      34.390  22.567  25.135  1.00  0.00     0.004 A 
ATOM     11  C   UNL A   1      33.115  24.477  24.390  1.00  0.00     0.016 A 
ATOM     12  C   UNL A   1      34.877  22.395  23.837  1.00  0.00     0.001 A 
ATOM     13  C   UNL A   1      33.622  24.329  23.092  1.00  0.00     0.023 A 
ATOM     14  C   UNL A   1      34.486  23.264  22.817  1.00  0.00     0.012 A 
BRANCH  13  15
ATOM     15  C   UNL A   1      33.209  25.227  21.975  1.00  0.00     0.193 C 
ATOM     16  O   UNL A   1      33.320  24.850  20.811  1.00  0.00    -0.289 OA
BRANCH  15  17
ATOM     17  C   UNL A   1      32.633  26.569  22.232  1.00  0.00     0.022 A 
ATOM     18  C   UNL A   1      31.244  26.720  22.186  1.00  0.00     0.012 A 
ATOM     19  C   UNL A   1      33.452  27.671  22.504  1.00  0.00     0.012 A 
ATOM     20  C   UNL A   1      30.671  27.963  22.460  1.00  0.00     0.001 A 
ATOM     21  C   UNL A   1      32.873  28.912  22.782  1.00  0.00     0.001 A 
ATOM     22  C   UNL A   1      31.486  29.054  22.766  1.00  0.00     0.000 A 
ENDBRANCH  15  17
ENDBRANCH  13  15
ENDBRANCH   7   9
ENDBRANCH   4   7
ENDBRANCH   2   3
ENDBRANCH   1   2
BRANCH   1  23
ATOM     23  C   UNL A   1      31.826  28.901  27.128  1.00  0.00     0.023 C 
BRANCH  23  24
ATOM     24  C   UNL A   1      32.905  29.753  26.477  1.00  0.00     0.116 C 
BRANCH  24  25
ATOM     25  N   UNL A   1      32.752  31.177  26.734  1.00  0.00    -0.352 N 
ATOM     26  C   UNL A   1      33.570  32.001  27.470  1.00  0.00     0.251 C 
ATOM     27  H   UNL A   1      31.963  31.605  26.329  1.00  0.00     0.163 HD
ATOM     28  O   UNL A   1      33.244  33.166  27.681  1.00  0.00    -0.269 OA
BRANCH  26  29
ATOM     29  C   UNL A   1      34.824  31.460  28.033  1.00  0.00     0.039 A 
ATOM     30  C   UNL A   1      35.955  32.279  28.072  1.00  0.00     0.014 A 
ATOM     31  C   UNL A   1      34.875  30.162  28.548  1.00  0.00     0.014 A 
ATOM     32  C   UNL A   1      37.124  31.809  28.671  1.00  0.00     0.010 A 
ATOM     33  C   UNL A   1      36.009  29.731  29.224  1.00  0.00     0.010 A 
ATOM     34  C   UNL A   1      37.153  30.541  29.274  1.00  0.00    -0.014 A 
BRANCH  34  35
ATOM     35  C   UNL A   1      38.379  30.032  29.937  1.00  0.00     0.031 A 
ATOM     36  C   UNL A   1      38.739  30.509  31.319  1.00  0.00     0.074 A 
ATOM     37  C   UNL A   1      39.204  29.202  29.271  1.00  0.00     0.049 A 
ATOM     38  N   UNL A   1      39.771  30.195  32.057  1.00  0.00    -0.248 NA
ATOM     39  C   UNL A   1      37.841  31.498  31.941  1.00  0.00     0.031 C 
ATOM     40  C   UNL A   1      39.012  28.741  27.894  1.00  0.00     0.029 A 
ATOM     41  N   UNL A   1      40.381  28.612  29.656  1.00  0.00    -0.354 N 
ATOM     42  C   UNL A   1      39.671  30.976  33.202  1.00  0.00     0.074 A 
ATOM     43  C   UNL A   1      38.501  31.809  33.046  1.00  0.00     0.031 C 
ATOM     44  C   UNL A   1      40.024  27.924  27.558  1.00  0.00     0.029 A 
ATOM     45  C   UNL A   1      40.946  27.818  28.684  1.00  0.00     0.049 A 
ATOM     46  H   UNL A   1      40.784  28.744  30.545  1.00  0.00     0.167 HD
ATOM     47  C   UNL A   1      40.460  30.974  34.303  1.00  0.00     0.034 A 
ATOM     48  C   UNL A   1      42.072  27.079  28.707  1.00  0.00     0.034 A 
ATOM     49  C   UNL A   1      41.583  30.094  34.480  1.00  0.00     0.049 A 
ATOM     50  C   UNL A   1      42.888  27.037  29.971  1.00  0.00     0.074 A 
ATOM     51  C   UNL A   1      42.380  29.930  35.598  1.00  0.00     0.029 A 
ATOM     52  N   UNL A   1      42.068  29.231  33.511  1.00  0.00    -0.354 N 
ATOM     53  N   UNL A   1      42.676  27.646  31.113  1.00  0.00    -0.248 NA
ATOM     54  C   UNL A   1      44.075  26.170  29.965  1.00  0.00     0.031 C 
ATOM     55  C   UNL A   1      43.361  28.978  35.298  1.00  0.00     0.029 A 
ATOM     56  C   UNL A   1      43.158  28.534  34.000  1.00  0.00     0.049 A 
ATOM     57  H   UNL A   1      41.692  29.127  32.607  1.00  0.00     0.167 HD
ATOM     58  C   UNL A   1      43.675  27.204  31.973  1.00  0.00     0.074 A 
ATOM     59  C   UNL A   1      44.482  26.261  31.224  1.00  0.00     0.031 C 
ATOM     60  C   UNL A   1      43.913  27.555  33.261  1.00  0.00     0.034 A 
BRANCH  47  61
ATOM     61  C   UNL A   1      40.096  31.912  35.424  1.00  0.00     0.023 A 
ATOM     62  C   UNL A   1      40.758  33.152  35.540  1.00  0.00     0.012 A 
ATOM     63  C   UNL A   1      39.075  31.588  36.338  1.00  0.00     0.148 A 
ATOM     64  C   UNL A   1      40.441  34.035  36.571  1.00  0.00     0.002 A 
ATOM     65  C   UNL A   1      38.731  32.495  37.335  1.00  0.00     0.091 A 
ATOM     66  F   UNL A   1      38.472  30.396  36.229  1.00  0.00    -0.205 F 
ATOM     67  C   UNL A   1      39.421  33.712  37.461  1.00  0.00     0.022 A 
BRANCH  65  68
ATOM     68  S   UNL A   1      37.377  32.204  38.480  1.00  0.00     0.127 S 
ATOM     69  O   UNL A   1      37.906  32.782  39.714  1.00  0.00    -0.237 OA
ATOM     70  O   UNL A   1      36.287  32.967  37.869  1.00  0.00    -0.237 OA
ATOM     71  O   UNL A   1      37.172  30.763  38.497  1.00  0.00    -0.744 OA
ENDBRANCH  65  68
ENDBRANCH  47  61
BRANCH  48  72
ATOM     72  C   UNL A   1      42.436  26.237  27.533  1.00  0.00     0.023 A 
ATOM     73  C   UNL A   1      43.213  26.799  26.500  1.00  0.00     0.012 A 
ATOM     74  C   UNL A   1      42.046  24.887  27.440  1.00  0.00     0.148 A 
ATOM     75  C   UNL A   1      43.566  26.044  25.382  1.00  0.00     0.002 A 
ATOM     76  C   UNL A   1      42.445  24.125  26.347  1.00  0.00     0.091 A 
ATOM     77  F   UNL A   1      41.299  24.373  28.427  1.00  0.00    -0.205 F 
ATOM     78  C   UNL A   1      43.192  24.706  25.310  1.00  0.00     0.022 A 
BRANCH  76  79
ATOM     79  S   UNL A   1      42.116  22.363  26.229  1.00  0.00     0.127 S 
ATOM     80  O   UNL A   1      42.670  21.871  27.488  1.00  0.00    -0.237 OA
ATOM     81  O   UNL A   1      40.655  22.333  26.145  1.00  0.00    -0.237 OA
ATOM     82  O   UNL A   1      42.796  21.917  25.020  1.00  0.00    -0.744 OA
ENDBRANCH  76  79
ENDBRANCH  48  72
BRANCH  60  83
ATOM     83  C   UNL A   1      45.066  26.889  33.964  1.00  0.00     0.023 A 
ATOM     84  C   UNL A   1      46.365  27.420  33.840  1.00  0.00     0.012 A 
ATOM     85  C   UNL A   1      44.849  25.779  34.805  1.00  0.00     0.148 A 
ATOM     86  C   UNL A   1      47.436  26.834  34.514  1.00  0.00     0.002 A 
ATOM     87  C   UNL A   1      45.913  25.232  35.512  1.00  0.00     0.091 A 
ATOM     88  F   UNL A   1      43.610  25.275  34.893  1.00  0.00    -0.205 F 
ATOM     89  C   UNL A   1      47.209  25.750  35.358  1.00  0.00     0.022 A 
BRANCH  87  90
ATOM     90  S   UNL A   1      45.689  23.901  36.696  1.00  0.00     0.127 S 
ATOM     91  O   UNL A   1      45.241  22.808  35.836  1.00  0.00    -0.237 OA
ATOM     92  O   UNL A   1      47.037  23.735  37.241  1.00  0.00    -0.237 OA
ATOM     93  O   UNL A   1      44.709  24.387  37.659  1.00  0.00    -0.744 OA
ENDBRANCH  87  90
ENDBRANCH  60  83
ENDBRANCH  34  35
ENDBRANCH  26  29
ENDBRANCH  24  25
ENDBRANCH  23  24
ENDBRANCH   1  23
TORSDOF 17
ENDMDL
MODEL 3
REMARK VINA RESULT:     -11.9      4.864      9.742
REMARK SMILES C[C@H](C(=O)NCCCCNC(=O)c1ccc(-c2c3nc(c(-c4cccc(S(=O)(=O)[O-])c4F)c4ccc([nH]4)c(-c4cccc(S(=O)(=O)[O-])c4F)c4nc(c(-c5cccc(S(=O)(=O)[O-])c5F)c5ccc2[nH]5)C=C4)C=C3)cc1)c1cccc(C(=O)c2ccccc2)c1
REMARK SMILES IDX 7 1 6 2 5 3 3 4 4 5 2 7 1 8 76 9 77 10 89 11 78 12 80 13
REMARK SMILES IDX 79 14 81 15 82 16 83 17 84 18 88 19 85 20 87 21 86 22 8 23
REMARK SMILES IDX 9 24 10 25 11 26 12 28 13 29 14 30 75 31 15 32 74 33 16 34
REMARK SMILES IDX 17 35 18 36 68 37 19 38 73 39 67 40 69 41 20 42 72 43 66 44
REMARK SMILES IDX 65 45 21 47 53 48 33 49 52 50 34 51 37 52 51 53 70 54 35 55
REMARK SMILES IDX 36 56 50 58 71 59 38 60 22 61 23 62 31 63 24 64 26 65 32 66
REMARK SMILES IDX 25 67 27 68 28 69 29 70 30 71 54 72 55 73 63 74 56 75 58 76
REMARK SMILES IDX 64 77 57 78 59 79 60 80 61 81 62 82 39 83 40 84 48 85 41 86
REMARK SMILES IDX 43 87 49 88 42 89 44 90 45 91 46 92 47 93
REMARK H PARENT 5 6 10 27 69 46 37 57
REMARK Flexibility Score: inf
ROOT
ATOM      1  C   UNL A   1      31.023  27.963  24.647  1.00  0.00     0.023 C 
ENDROOT
BRANCH   1   2
ATOM      2  C   UNL A   1      31.286  26.594  24.017  1.00  0.00     0.116 C 
BRANCH   2   3
ATOM      3  N   UNL A   1      32.142  26.715  22.854  1.00  0.00    -0.356 N 
ATOM      4  C   UNL A   1      32.921  25.812  22.203  1.00  0.00     0.227 C 
ATOM      5  O   UNL A   1      33.653  26.282  21.322  1.00  0.00    -0.274 OA
ATOM      6  H   UNL A   1      32.162  27.618  22.463  1.00  0.00     0.163 HD
BRANCH   4   7
ATOM      7  C   UNL A   1      32.828  24.287  22.394  1.00  0.00     0.105 C 
ATOM      8  C   UNL A   1      33.106  23.587  21.053  1.00  0.00     0.023 C 
BRANCH   7   9
ATOM      9  C   UNL A   1      33.664  23.639  23.485  1.00  0.00    -0.035 A 
ATOM     10  C   UNL A   1      34.757  24.284  24.077  1.00  0.00     0.004 A 
ATOM     11  C   UNL A   1      33.325  22.346  23.930  1.00  0.00     0.016 A 
ATOM     12  C   UNL A   1      35.444  23.686  25.137  1.00  0.00     0.001 A 
ATOM     13  C   UNL A   1      34.028  21.728  24.972  1.00  0.00     0.023 A 
ATOM     14  C   UNL A   1      35.074  22.419  25.591  1.00  0.00     0.012 A 
BRANCH  13  15
ATOM     15  C   UNL A   1      33.647  20.383  25.495  1.00  0.00     0.193 C 
ATOM     16  O   UNL A   1      33.285  20.259  26.662  1.00  0.00    -0.289 OA
BRANCH  15  17
ATOM     17  C   UNL A   1      33.664  19.182  24.627  1.00  0.00     0.022 A 
ATOM     18  C   UNL A   1      32.554  18.927  23.816  1.00  0.00     0.012 A 
ATOM     19  C   UNL A   1      34.755  18.305  24.619  1.00  0.00     0.012 A 
ATOM     20  C   UNL A   1      32.557  17.823  22.961  1.00  0.00     0.001 A 
ATOM     21  C   UNL A   1      34.755  17.205  23.759  1.00  0.00     0.001 A 
ATOM     22  C   UNL A   1      33.660  16.970  22.927  1.00  0.00     0.000 A 
ENDBRANCH  15  17
ENDBRANCH  13  15
ENDBRANCH   7   9
ENDBRANCH   4   7
ENDBRANCH   2   3
ENDBRANCH   1   2
BRANCH   1  23
ATOM     23  C   UNL A   1      31.919  28.301  25.838  1.00  0.00     0.023 C 
BRANCH  23  24
ATOM     24  C   UNL A   1      32.961  29.376  25.571  1.00  0.00     0.116 C 
BRANCH  24  25
ATOM     25  N   UNL A   1      32.556  30.700  26.018  1.00  0.00    -0.352 N 
ATOM     26  C   UNL A   1      33.149  31.494  26.970  1.00  0.00     0.251 C 
ATOM     27  H   UNL A   1      31.756  31.074  25.583  1.00  0.00     0.163 HD
ATOM     28  O   UNL A   1      32.620  32.549  27.311  1.00  0.00    -0.269 OA
BRANCH  26  29
ATOM     29  C   UNL A   1      34.407  31.049  27.603  1.00  0.00     0.039 A 
ATOM     30  C   UNL A   1      35.425  31.981  27.810  1.00  0.00     0.014 A 
ATOM     31  C   UNL A   1      34.568  29.724  28.018  1.00  0.00     0.014 A 
ATOM     32  C   UNL A   1      36.588  31.593  28.478  1.00  0.00     0.010 A 
ATOM     33  C   UNL A   1      35.685  29.364  28.761  1.00  0.00     0.010 A 
ATOM     34  C   UNL A   1      36.717  30.287  28.980  1.00  0.00    -0.014 A 
BRANCH  34  35
ATOM     35  C   UNL A   1      37.935  29.861  29.712  1.00  0.00     0.031 A 
ATOM     36  C   UNL A   1      38.194  30.376  31.103  1.00  0.00     0.074 A 
ATOM     37  C   UNL A   1      38.841  29.075  29.101  1.00  0.00     0.049 A 
ATOM     38  N   UNL A   1      39.203  30.133  31.897  1.00  0.00    -0.248 NA
ATOM     39  C   UNL A   1      37.208  31.317  31.663  1.00  0.00     0.031 C 
ATOM     40  C   UNL A   1      38.749  28.587  27.723  1.00  0.00     0.029 A 
ATOM     41  N   UNL A   1      40.030  28.561  29.555  1.00  0.00    -0.354 N 
ATOM     42  C   UNL A   1      38.997  30.920  33.024  1.00  0.00     0.074 A 
ATOM     43  C   UNL A   1      37.790  31.679  32.796  1.00  0.00     0.031 C 
ATOM     44  C   UNL A   1      39.823  27.828  27.452  1.00  0.00     0.029 A 
ATOM     45  C   UNL A   1      40.691  27.791  28.625  1.00  0.00     0.049 A 
ATOM     46  H   UNL A   1      40.378  28.728  30.461  1.00  0.00     0.167 HD
ATOM     47  C   UNL A   1      39.727  30.979  34.163  1.00  0.00     0.034 A 
ATOM     48  C   UNL A   1      41.856  27.122  28.716  1.00  0.00     0.034 A 
ATOM     49  C   UNL A   1      40.889  30.171  34.411  1.00  0.00     0.049 A 
ATOM     50  C   UNL A   1      42.606  27.144  30.021  1.00  0.00     0.074 A 
ATOM     51  C   UNL A   1      41.636  30.069  35.571  1.00  0.00     0.029 A 
ATOM     52  N   UNL A   1      41.474  29.326  33.481  1.00  0.00    -0.354 N 
ATOM     53  N   UNL A   1      42.299  27.753  31.141  1.00  0.00    -0.248 NA
ATOM     54  C   UNL A   1      43.842  26.350  30.089  1.00  0.00     0.031 C 
ATOM     55  C   UNL A   1      42.686  29.174  35.335  1.00  0.00     0.029 A 
ATOM     56  C   UNL A   1      42.578  28.702  34.036  1.00  0.00     0.049 A 
ATOM     57  H   UNL A   1      41.153  29.190  32.560  1.00  0.00     0.167 HD
ATOM     58  C   UNL A   1      43.277  27.382  32.058  1.00  0.00     0.074 A 
ATOM     59  C   UNL A   1      44.176  26.481  31.365  1.00  0.00     0.031 C 
ATOM     60  C   UNL A   1      43.426  27.762  33.350  1.00  0.00     0.034 A 
BRANCH  47  61
ATOM     61  C   UNL A   1      39.251  31.907  35.250  1.00  0.00     0.023 A 
ATOM     62  C   UNL A   1      38.243  31.481  36.140  1.00  0.00     0.012 A 
ATOM     63  C   UNL A   1      39.825  33.182  35.419  1.00  0.00     0.148 A 
ATOM     64  C   UNL A   1      37.784  32.323  37.153  1.00  0.00     0.002 A 
ATOM     65  C   UNL A   1      39.395  33.998  36.461  1.00  0.00     0.091 A 
ATOM     66  F   UNL A   1      40.764  33.582  34.550  1.00  0.00    -0.205 F 
ATOM     67  C   UNL A   1      38.367  33.576  37.319  1.00  0.00     0.022 A 
BRANCH  65  68
ATOM     68  S   UNL A   1      40.140  35.595  36.806  1.00  0.00     0.127 S 
ATOM     69  O   UNL A   1      39.651  35.864  38.157  1.00  0.00    -0.237 OA
ATOM     70  O   UNL A   1      41.570  35.293  36.725  1.00  0.00    -0.237 OA
ATOM     71  O   UNL A   1      39.652  36.495  35.771  1.00  0.00    -0.744 OA
ENDBRANCH  65  68
ENDBRANCH  47  61
BRANCH  48  72
ATOM     72  C   UNL A   1      42.329  26.289  27.575  1.00  0.00     0.023 A 
ATOM     73  C   UNL A   1      43.204  26.858  26.628  1.00  0.00     0.012 A 
ATOM     74  C   UNL A   1      41.947  24.942  27.432  1.00  0.00     0.148 A 
ATOM     75  C   UNL A   1      43.663  26.112  25.542  1.00  0.00     0.002 A 
ATOM     76  C   UNL A   1      42.448  24.188  26.376  1.00  0.00     0.091 A 
ATOM     77  F   UNL A   1      41.106  24.421  28.337  1.00  0.00    -0.205 F 
ATOM     78  C   UNL A   1      43.293  24.776  25.422  1.00  0.00     0.022 A 
BRANCH  76  79
ATOM     79  S   UNL A   1      42.127  22.429  26.210  1.00  0.00     0.127 S 
ATOM     80  O   UNL A   1      42.871  22.103  24.996  1.00  0.00    -0.237 OA
ATOM     81  O   UNL A   1      42.704  21.898  27.447  1.00  0.00    -0.237 OA
ATOM     82  O   UNL A   1      40.679  22.301  26.121  1.00  0.00    -0.744 OA
ENDBRANCH  76  79
ENDBRANCH  48  72
BRANCH  60  83
ATOM     83  C   UNL A   1      44.579  27.175  34.122  1.00  0.00     0.023 A 
ATOM     84  C   UNL A   1      45.841  27.800  34.082  1.00  0.00     0.012 A 
ATOM     85  C   UNL A   1      44.392  26.045  34.942  1.00  0.00     0.148 A 
ATOM     86  C   UNL A   1      46.908  27.288  34.818  1.00  0.00     0.002 A 
ATOM     87  C   UNL A   1      45.447  25.570  35.711  1.00  0.00     0.091 A 
ATOM     88  F   UNL A   1      43.190  25.451  34.950  1.00  0.00    -0.205 F 
ATOM     89  C   UNL A   1      46.709  26.182  35.641  1.00  0.00     0.022 A 
BRANCH  87  90
ATOM     90  S   UNL A   1      45.248  24.215  36.874  1.00  0.00     0.127 S 
ATOM     91  O   UNL A   1      46.585  24.122  37.457  1.00  0.00    -0.237 OA
ATOM     92  O   UNL A   1      44.221  24.729  37.781  1.00  0.00    -0.237 OA
ATOM     93  O   UNL A   1      44.826  23.069  36.079  1.00  0.00    -0.744 OA
ENDBRANCH  87  90
ENDBRANCH  60  83
ENDBRANCH  34  35
ENDBRANCH  26  29
ENDBRANCH  24  25
ENDBRANCH  23  24
ENDBRANCH   1  23
TORSDOF 17
ENDMDL
