MODEL 1
REMARK VINA RESULT:     -10.9      0.000      0.000
REMARK SMILES Cc1ccc(/C=C2/SC(=O)N(CC(=O)NCCCCNC(=O)c3ccc(-c4c5nc(c(-c6cccc(S(=O)(=O)[O-])c6F)c6ccc([nH]6)c(-c6cccc(S(=O)(=O)[O-])c6F)c6nc(c(-c7cccc(S(=O)(=O)[O-])c7F)c7ccc4[nH]7)C=C6)C=C5)cc3)C2=O)cc1
REMARK SMILES IDX 18 1 17 2 16 3 15 4 13 5 14 6 12 8 11 9 6 10 7 11 8 12 86 13
REMARK SMILES IDX 9 14 87 15 10 16 5 17 1 18 2 19 3 20 89 21 4 22 88 23 19 24
REMARK SMILES IDX 20 25 21 26 22 28 23 29 24 30 85 31 25 32 84 33 26 34 27 35
REMARK SMILES IDX 28 36 78 37 29 38 83 39 77 40 79 41 30 42 82 43 76 44 75 45
REMARK SMILES IDX 31 47 63 48 43 49 62 50 44 51 47 52 61 53 80 54 45 55 46 56
REMARK SMILES IDX 60 58 81 59 48 60 32 61 33 62 41 63 34 64 36 65 42 66 35 67
REMARK SMILES IDX 37 68 38 69 39 70 40 71 64 72 65 73 73 74 66 75 68 76 74 77
REMARK SMILES IDX 67 78 69 79 70 80 71 81 72 82 49 83 50 84 58 85 51 86 53 87
REMARK SMILES IDX 59 88 52 89 54 90 55 91 56 92 57 93
REMARK H PARENT 15 7 20 27 79 46 47 57
REMARK Flexibility Score: inf
ROOT
ATOM      1  C   UNL A   1      37.264  33.559  35.849  1.00  0.00     0.023 C 
ENDROOT
BRANCH   1   2
ATOM      2  C   UNL A   1      36.599  33.445  34.481  1.00  0.00     0.023 C 
BRANCH   2   3
ATOM      3  C   UNL A   1      35.127  33.870  34.416  1.00  0.00     0.116 C 
BRANCH   3   4
ATOM      4  N   UNL A   1      34.960  35.272  34.081  1.00  0.00    -0.355 N 
ATOM      5  C   UNL A   1      34.093  35.870  33.214  1.00  0.00     0.240 C 
ATOM      6  O   UNL A   1      33.982  37.098  33.269  1.00  0.00    -0.273 OA
ATOM      7  H   UNL A   1      35.568  35.888  34.552  1.00  0.00     0.163 HD
BRANCH   5   8
ATOM      8  C   UNL A   1      33.200  35.044  32.284  1.00  0.00     0.229 C 
BRANCH   8   9
ATOM      9  N   UNL A   1      33.652  35.091  30.905  1.00  0.00    -0.259 N 
ATOM     10  C   UNL A   1      35.507  33.560  28.186  1.00  0.00     0.029 C 
ATOM     11  C   UNL A   1      34.824  34.376  29.002  1.00  0.00     0.083 C 
ATOM     12  S   UNL A   1      33.996  35.791  28.459  1.00  0.00    -0.022 SA
ATOM     13  C   UNL A   1      34.622  34.218  30.473  1.00  0.00     0.268 C 
ATOM     14  C   UNL A   1      33.276  36.067  30.037  1.00  0.00     0.294 C 
ATOM     15  O   UNL A   1      35.238  33.450  31.192  1.00  0.00    -0.268 OA
ATOM     16  O   UNL A   1      32.553  37.033  30.266  1.00  0.00    -0.261 OA
BRANCH  10  17
ATOM     17  C   UNL A   1      36.217  32.369  28.653  1.00  0.00    -0.024 A 
ATOM     18  C   UNL A   1      38.428  28.752  29.393  1.00  0.00     0.044 C 
ATOM     19  C   UNL A   1      37.648  30.019  29.206  1.00  0.00    -0.051 A 
ATOM     20  C   UNL A   1      36.295  29.958  28.847  1.00  0.00     0.004 A 
ATOM     21  C   UNL A   1      38.263  31.268  29.340  1.00  0.00     0.004 A 
ATOM     22  C   UNL A   1      35.584  31.126  28.572  1.00  0.00     0.008 A 
ATOM     23  C   UNL A   1      37.550  32.439  29.075  1.00  0.00     0.008 A 
ENDBRANCH  10  17
ENDBRANCH   8   9
ENDBRANCH   5   8
ENDBRANCH   3   4
ENDBRANCH   2   3
ENDBRANCH   1   2
BRANCH   1  24
ATOM     24  C   UNL A   1      38.621  34.234  35.843  1.00  0.00     0.116 C 
BRANCH  24  25
ATOM     25  N   UNL A   1      39.753  33.333  35.759  1.00  0.00    -0.352 N 
ATOM     26  C   UNL A   1      40.558  33.045  34.666  1.00  0.00     0.251 C 
ATOM     27  H   UNL A   1      39.983  32.861  36.593  1.00  0.00     0.163 HD
ATOM     28  O   UNL A   1      41.280  32.055  34.720  1.00  0.00    -0.269 OA
BRANCH  26  29
ATOM     29  C   UNL A   1      40.674  34.021  33.544  1.00  0.00     0.039 A 
ATOM     30  C   UNL A   1      39.825  33.803  32.452  1.00  0.00     0.014 A 
ATOM     31  C   UNL A   1      41.817  34.790  33.378  1.00  0.00     0.014 A 
ATOM     32  C   UNL A   1      40.314  33.994  31.167  1.00  0.00     0.010 A 
ATOM     33  C   UNL A   1      42.360  34.860  32.121  1.00  0.00     0.010 A 
ATOM     34  C   UNL A   1      41.643  34.357  31.036  1.00  0.00    -0.014 A 
BRANCH  34  35
ATOM     35  C   UNL A   1      42.404  34.331  29.810  1.00  0.00     0.031 A 
ATOM     36  C   UNL A   1      43.026  33.059  29.425  1.00  0.00     0.074 A 
ATOM     37  C   UNL A   1      42.235  35.353  28.945  1.00  0.00     0.049 A 
ATOM     38  N   UNL A   1      43.767  32.906  28.390  1.00  0.00    -0.248 NA
ATOM     39  C   UNL A   1      42.858  31.841  30.211  1.00  0.00     0.031 C 
ATOM     40  C   UNL A   1      42.378  35.332  27.495  1.00  0.00     0.029 A 
ATOM     41  N   UNL A   1      41.922  36.677  29.184  1.00  0.00    -0.354 N 
ATOM     42  C   UNL A   1      43.900  31.550  28.189  1.00  0.00     0.074 A 
ATOM     43  C   UNL A   1      43.460  30.949  29.422  1.00  0.00     0.031 C 
ATOM     44  C   UNL A   1      42.415  36.598  27.037  1.00  0.00     0.029 A 
ATOM     45  C   UNL A   1      42.512  37.468  28.196  1.00  0.00     0.049 A 
ATOM     46  H   UNL A   1      41.374  37.008  29.931  1.00  0.00     0.167 HD
ATOM     47  C   UNL A   1      44.205  31.125  26.933  1.00  0.00     0.034 A 
ATOM     48  C   UNL A   1      43.601  38.259  28.475  1.00  0.00     0.034 A 
ATOM     49  C   UNL A   1      44.569  32.278  26.083  1.00  0.00     0.049 A 
ATOM     50  C   UNL A   1      44.900  37.759  27.832  1.00  0.00     0.074 A 
ATOM     51  C   UNL A   1      43.911  33.032  25.125  1.00  0.00     0.029 A 
ATOM     52  N   UNL A   1      45.684  33.018  26.438  1.00  0.00    -0.354 N 
ATOM     53  N   UNL A   1      44.991  36.726  27.038  1.00  0.00    -0.248 NA
ATOM     54  C   UNL A   1      46.211  38.352  28.104  1.00  0.00     0.031 C 
ATOM     55  C   UNL A   1      44.602  34.284  25.003  1.00  0.00     0.029 A 
ATOM     56  C   UNL A   1      45.699  34.271  25.850  1.00  0.00     0.049 A 
ATOM     57  H   UNL A   1      46.389  32.689  27.042  1.00  0.00     0.167 HD
ATOM     58  C   UNL A   1      46.308  36.389  26.866  1.00  0.00     0.074 A 
ATOM     59  C   UNL A   1      47.036  37.470  27.513  1.00  0.00     0.031 C 
ATOM     60  C   UNL A   1      46.725  35.230  26.267  1.00  0.00     0.034 A 
BRANCH  47  61
ATOM     61  C   UNL A   1      43.989  29.724  26.380  1.00  0.00     0.023 A 
ATOM     62  C   UNL A   1      42.646  29.303  26.251  1.00  0.00     0.012 A 
ATOM     63  C   UNL A   1      44.968  28.750  26.051  1.00  0.00     0.148 A 
ATOM     64  C   UNL A   1      42.293  28.004  25.870  1.00  0.00     0.002 A 
ATOM     65  C   UNL A   1      44.619  27.454  25.660  1.00  0.00     0.091 A 
ATOM     66  F   UNL A   1      46.264  29.041  26.120  1.00  0.00    -0.205 F 
ATOM     67  C   UNL A   1      43.279  27.075  25.580  1.00  0.00     0.022 A 
BRANCH  65  68
ATOM     68  S   UNL A   1      45.843  26.184  25.270  1.00  0.00     0.127 S 
ATOM     69  O   UNL A   1      46.624  26.829  24.214  1.00  0.00    -0.237 OA
ATOM     70  O   UNL A   1      46.550  26.034  26.542  1.00  0.00    -0.237 OA
ATOM     71  O   UNL A   1      45.102  25.005  24.840  1.00  0.00    -0.744 OA
ENDBRANCH  65  68
ENDBRANCH  47  61
BRANCH  48  72
ATOM     72  C   UNL A   1      43.497  38.872  29.842  1.00  0.00     0.023 A 
ATOM     73  C   UNL A   1      44.116  38.160  30.900  1.00  0.00     0.012 A 
ATOM     74  C   UNL A   1      43.263  40.248  30.000  1.00  0.00     0.148 A 
ATOM     75  C   UNL A   1      44.700  38.842  31.967  1.00  0.00     0.002 A 
ATOM     76  C   UNL A   1      43.824  40.918  31.084  1.00  0.00     0.091 A 
ATOM     77  F   UNL A   1      42.560  40.901  29.067  1.00  0.00    -0.205 F 
ATOM     78  C   UNL A   1      44.602  40.229  32.029  1.00  0.00     0.022 A 
BRANCH  76  79
ATOM     79  S   UNL A   1      43.663  42.700  31.244  1.00  0.00     0.127 S 
ATOM     80  O   UNL A   1      42.230  42.845  31.480  1.00  0.00    -0.237 OA
ATOM     81  O   UNL A   1      44.504  43.001  32.401  1.00  0.00    -0.237 OA
ATOM     82  O   UNL A   1      44.165  43.235  29.987  1.00  0.00    -0.744 OA
ENDBRANCH  76  79
ENDBRANCH  48  72
BRANCH  60  83
ATOM     83  C   UNL A   1      48.191  34.932  26.018  1.00  0.00     0.023 A 
ATOM     84  C   UNL A   1      48.889  35.640  25.019  1.00  0.00     0.012 A 
ATOM     85  C   UNL A   1      48.877  33.860  26.639  1.00  0.00     0.148 A 
ATOM     86  C   UNL A   1      50.217  35.345  24.696  1.00  0.00     0.002 A 
ATOM     87  C   UNL A   1      50.152  33.487  26.225  1.00  0.00     0.091 A 
ATOM     88  F   UNL A   1      48.326  33.223  27.678  1.00  0.00    -0.205 F 
ATOM     89  C   UNL A   1      50.841  34.251  25.281  1.00  0.00     0.022 A 
BRANCH  87  90
ATOM     90  S   UNL A   1      50.917  31.947  26.755  1.00  0.00     0.127 S 
ATOM     91  O   UNL A   1      52.104  31.896  25.899  1.00  0.00    -0.237 OA
ATOM     92  O   UNL A   1      51.193  32.217  28.164  1.00  0.00    -0.237 OA
ATOM     93  O   UNL A   1      49.939  30.903  26.486  1.00  0.00    -0.744 OA
ENDBRANCH  87  90
ENDBRANCH  60  83
ENDBRANCH  34  35
ENDBRANCH  26  29
ENDBRANCH  24  25
ENDBRANCH   1  24
TORSDOF 16
ENDMDL
MODEL 2
REMARK VINA RESULT:     -10.9      6.242      9.410
REMARK SMILES Cc1ccc(/C=C2/SC(=O)N(CC(=O)NCCCCNC(=O)c3ccc(-c4c5nc(c(-c6cccc(S(=O)(=O)[O-])c6F)c6ccc([nH]6)c(-c6cccc(S(=O)(=O)[O-])c6F)c6nc(c(-c7cccc(S(=O)(=O)[O-])c7F)c7ccc4[nH]7)C=C6)C=C5)cc3)C2=O)cc1
REMARK SMILES IDX 18 1 17 2 16 3 15 4 13 5 14 6 12 8 11 9 6 10 7 11 8 12 86 13
REMARK SMILES IDX 9 14 87 15 10 16 5 17 1 18 2 19 3 20 89 21 4 22 88 23 19 24
REMARK SMILES IDX 20 25 21 26 22 28 23 29 24 30 85 31 25 32 84 33 26 34 27 35
REMARK SMILES IDX 28 36 78 37 29 38 83 39 77 40 79 41 30 42 82 43 76 44 75 45
REMARK SMILES IDX 31 47 63 48 43 49 62 50 44 51 47 52 61 53 80 54 45 55 46 56
REMARK SMILES IDX 60 58 81 59 48 60 32 61 33 62 41 63 34 64 36 65 42 66 35 67
REMARK SMILES IDX 37 68 38 69 39 70 40 71 64 72 65 73 73 74 66 75 68 76 74 77
REMARK SMILES IDX 67 78 69 79 70 80 71 81 72 82 49 83 50 84 58 85 51 86 53 87
REMARK SMILES IDX 59 88 52 89 54 90 55 91 56 92 57 93
REMARK H PARENT 15 7 20 27 79 46 47 57
REMARK Flexibility Score: inf
ROOT
ATOM      1  C   UNL A   1      35.281  29.851  27.665  1.00  0.00     0.023 C 
ENDROOT
BRANCH   1   2
ATOM      2  C   UNL A   1      33.988  29.779  26.858  1.00  0.00     0.023 C 
BRANCH   2   3
ATOM      3  C   UNL A   1      33.981  28.783  25.693  1.00  0.00     0.116 C 
BRANCH   3   4
ATOM      4  N   UNL A   1      32.923  29.043  24.735  1.00  0.00    -0.355 N 
ATOM      5  C   UNL A   1      31.678  28.495  24.632  1.00  0.00     0.240 C 
ATOM      6  O   UNL A   1      30.872  29.042  23.875  1.00  0.00    -0.273 OA
ATOM      7  H   UNL A   1      33.137  29.721  24.053  1.00  0.00     0.163 HD
BRANCH   5   8
ATOM      8  C   UNL A   1      31.252  27.313  25.508  1.00  0.00     0.229 C 
BRANCH   8   9
ATOM      9  N   UNL A   1      31.280  26.055  24.783  1.00  0.00    -0.259 N 
ATOM     10  C   UNL A   1      33.048  23.007  23.912  1.00  0.00     0.029 C 
ATOM     11  C   UNL A   1      32.207  24.049  23.997  1.00  0.00     0.083 C 
ATOM     12  S   UNL A   1      30.609  24.038  23.345  1.00  0.00    -0.022 SA
ATOM     13  C   UNL A   1      32.458  25.358  24.671  1.00  0.00     0.268 C 
ATOM     14  C   UNL A   1      30.224  25.593  24.065  1.00  0.00     0.294 C 
ATOM     15  O   UNL A   1      33.546  25.762  25.044  1.00  0.00    -0.268 OA
ATOM     16  O   UNL A   1      29.137  26.141  23.896  1.00  0.00    -0.261 OA
BRANCH  10  17
ATOM     17  C   UNL A   1      34.406  23.025  24.456  1.00  0.00    -0.024 A 
ATOM     18  C   UNL A   1      38.334  23.729  26.066  1.00  0.00     0.044 C 
ATOM     19  C   UNL A   1      36.979  23.414  25.506  1.00  0.00    -0.051 A 
ATOM     20  C   UNL A   1      36.753  23.515  24.128  1.00  0.00     0.004 A 
ATOM     21  C   UNL A   1      35.919  23.060  26.348  1.00  0.00     0.004 A 
ATOM     22  C   UNL A   1      35.474  23.322  23.605  1.00  0.00     0.008 A 
ATOM     23  C   UNL A   1      34.640  22.857  25.826  1.00  0.00     0.008 A 
ENDBRANCH  10  17
ENDBRANCH   8   9
ENDBRANCH   5   8
ENDBRANCH   3   4
ENDBRANCH   2   3
ENDBRANCH   1   2
BRANCH   1  24
ATOM     24  C   UNL A   1      35.174  30.605  28.974  1.00  0.00     0.116 C 
BRANCH  24  25
ATOM     25  N   UNL A   1      34.432  31.849  28.906  1.00  0.00    -0.352 N 
ATOM     26  C   UNL A   1      34.626  33.018  29.627  1.00  0.00     0.251 C 
ATOM     27  H   UNL A   1      33.690  31.866  28.259  1.00  0.00     0.163 HD
ATOM     28  O   UNL A   1      33.728  33.855  29.631  1.00  0.00    -0.269 OA
BRANCH  26  29
ATOM     29  C   UNL A   1      35.961  33.320  30.220  1.00  0.00     0.039 A 
ATOM     30  C   UNL A   1      36.996  33.562  29.308  1.00  0.00     0.014 A 
ATOM     31  C   UNL A   1      36.270  32.946  31.520  1.00  0.00     0.014 A 
ATOM     32  C   UNL A   1      38.259  33.048  29.568  1.00  0.00     0.010 A 
ATOM     33  C   UNL A   1      37.470  32.321  31.735  1.00  0.00     0.010 A 
ATOM     34  C   UNL A   1      38.415  32.283  30.711  1.00  0.00    -0.014 A 
BRANCH  34  35
ATOM     35  C   UNL A   1      39.550  31.442  31.011  1.00  0.00     0.031 A 
ATOM     36  C   UNL A   1      39.602  30.121  30.375  1.00  0.00     0.074 A 
ATOM     37  C   UNL A   1      40.629  32.024  31.577  1.00  0.00     0.049 A 
ATOM     38  N   UNL A   1      40.524  29.257  30.590  1.00  0.00    -0.248 NA
ATOM     39  C   UNL A   1      38.581  29.668  29.437  1.00  0.00     0.031 C 
ATOM     40  C   UNL A   1      42.025  31.623  31.464  1.00  0.00     0.029 A 
ATOM     41  N   UNL A   1      40.708  33.109  32.428  1.00  0.00    -0.354 N 
ATOM     42  C   UNL A   1      40.412  28.299  29.607  1.00  0.00     0.074 A 
ATOM     43  C   UNL A   1      39.111  28.514  29.028  1.00  0.00     0.031 C 
ATOM     44  C   UNL A   1      42.747  32.269  32.400  1.00  0.00     0.029 A 
ATOM     45  C   UNL A   1      41.804  32.939  33.278  1.00  0.00     0.049 A 
ATOM     46  H   UNL A   1      40.093  33.877  32.434  1.00  0.00     0.167 HD
ATOM     47  C   UNL A   1      41.520  27.566  29.310  1.00  0.00     0.034 A 
ATOM     48  C   UNL A   1      41.631  32.625  34.605  1.00  0.00     0.034 A 
ATOM     49  C   UNL A   1      42.575  27.816  30.314  1.00  0.00     0.049 A 
ATOM     50  C   UNL A   1      42.056  31.194  34.954  1.00  0.00     0.074 A 
ATOM     51  C   UNL A   1      43.718  28.597  30.356  1.00  0.00     0.029 A 
ATOM     52  N   UNL A   1      42.315  27.464  31.628  1.00  0.00    -0.354 N 
ATOM     53  N   UNL A   1      42.595  30.349  34.116  1.00  0.00    -0.248 NA
ATOM     54  C   UNL A   1      41.831  30.586  36.267  1.00  0.00     0.031 C 
ATOM     55  C   UNL A   1      44.066  28.791  31.735  1.00  0.00     0.029 A 
ATOM     56  C   UNL A   1      43.162  28.095  32.523  1.00  0.00     0.049 A 
ATOM     57  H   UNL A   1      41.607  26.835  31.896  1.00  0.00     0.167 HD
ATOM     58  C   UNL A   1      42.598  29.093  34.662  1.00  0.00     0.074 A 
ATOM     59  C   UNL A   1      42.155  29.303  36.032  1.00  0.00     0.031 C 
ATOM     60  C   UNL A   1      42.897  27.957  33.957  1.00  0.00     0.034 A 
BRANCH  47  61
ATOM     61  C   UNL A   1      41.764  26.784  28.027  1.00  0.00     0.023 A 
ATOM     62  C   UNL A   1      41.539  27.481  26.819  1.00  0.00     0.012 A 
ATOM     63  C   UNL A   1      42.113  25.415  27.888  1.00  0.00     0.148 A 
ATOM     64  C   UNL A   1      41.607  26.863  25.565  1.00  0.00     0.002 A 
ATOM     65  C   UNL A   1      42.192  24.797  26.637  1.00  0.00     0.091 A 
ATOM     66  F   UNL A   1      42.363  24.667  28.958  1.00  0.00    -0.205 F 
ATOM     67  C   UNL A   1      41.928  25.519  25.472  1.00  0.00     0.022 A 
BRANCH  65  68
ATOM     68  S   UNL A   1      42.599  23.049  26.430  1.00  0.00     0.127 S 
ATOM     69  O   UNL A   1      43.898  22.959  27.097  1.00  0.00    -0.237 OA
ATOM     70  O   UNL A   1      41.504  22.390  27.142  1.00  0.00    -0.237 OA
ATOM     71  O   UNL A   1      42.636  22.794  24.996  1.00  0.00    -0.744 OA
ENDBRANCH  65  68
ENDBRANCH  47  61
BRANCH  48  72
ATOM     72  C   UNL A   1      40.443  33.335  35.186  1.00  0.00     0.023 A 
ATOM     73  C   UNL A   1      39.197  32.666  35.085  1.00  0.00     0.012 A 
ATOM     74  C   UNL A   1      40.603  34.318  36.178  1.00  0.00     0.148 A 
ATOM     75  C   UNL A   1      38.238  32.797  36.090  1.00  0.00     0.002 A 
ATOM     76  C   UNL A   1      39.628  34.464  37.161  1.00  0.00     0.091 A 
ATOM     77  F   UNL A   1      41.725  35.048  36.196  1.00  0.00    -0.205 F 
ATOM     78  C   UNL A   1      38.480  33.656  37.158  1.00  0.00     0.022 A 
BRANCH  76  79
ATOM     79  S   UNL A   1      39.864  35.612  38.522  1.00  0.00     0.127 S 
ATOM     80  O   UNL A   1      39.721  36.900  37.849  1.00  0.00    -0.237 OA
ATOM     81  O   UNL A   1      38.768  35.274  39.428  1.00  0.00    -0.237 OA
ATOM     82  O   UNL A   1      41.187  35.304  39.046  1.00  0.00    -0.744 OA
ENDBRANCH  76  79
ENDBRANCH  48  72
BRANCH  60  83
ATOM     83  C   UNL A   1      42.972  26.593  34.617  1.00  0.00     0.023 A 
ATOM     84  C   UNL A   1      41.820  26.036  35.207  1.00  0.00     0.012 A 
ATOM     85  C   UNL A   1      44.190  25.896  34.812  1.00  0.00     0.148 A 
ATOM     86  C   UNL A   1      41.858  24.821  35.898  1.00  0.00     0.002 A 
ATOM     87  C   UNL A   1      44.246  24.757  35.608  1.00  0.00     0.091 A 
ATOM     88  F   UNL A   1      45.299  26.297  34.181  1.00  0.00    -0.205 F 
ATOM     89  C   UNL A   1      43.076  24.195  36.121  1.00  0.00     0.022 A 
BRANCH  87  90
ATOM     90  S   UNL A   1      45.808  24.040  36.142  1.00  0.00     0.127 S 
ATOM     91  O   UNL A   1      45.356  23.016  37.086  1.00  0.00    -0.237 OA
ATOM     92  O   UNL A   1      46.344  23.519  34.887  1.00  0.00    -0.237 OA
ATOM     93  O   UNL A   1      46.558  25.128  36.753  1.00  0.00    -0.744 OA
ENDBRANCH  87  90
ENDBRANCH  60  83
ENDBRANCH  34  35
ENDBRANCH  26  29
ENDBRANCH  24  25
ENDBRANCH   1  24
TORSDOF 16
ENDMDL
MODEL 3
REMARK VINA RESULT:     -10.6      5.417     10.721
REMARK SMILES Cc1ccc(/C=C2/SC(=O)N(CC(=O)NCCCCNC(=O)c3ccc(-c4c5nc(c(-c6cccc(S(=O)(=O)[O-])c6F)c6ccc([nH]6)c(-c6cccc(S(=O)(=O)[O-])c6F)c6nc(c(-c7cccc(S(=O)(=O)[O-])c7F)c7ccc4[nH]7)C=C6)C=C5)cc3)C2=O)cc1
REMARK SMILES IDX 18 1 17 2 16 3 15 4 13 5 14 6 12 8 11 9 6 10 7 11 8 12 86 13
REMARK SMILES IDX 9 14 87 15 10 16 5 17 1 18 2 19 3 20 89 21 4 22 88 23 19 24
REMARK SMILES IDX 20 25 21 26 22 28 23 29 24 30 85 31 25 32 84 33 26 34 27 35
REMARK SMILES IDX 28 36 78 37 29 38 83 39 77 40 79 41 30 42 82 43 76 44 75 45
REMARK SMILES IDX 31 47 63 48 43 49 62 50 44 51 47 52 61 53 80 54 45 55 46 56
REMARK SMILES IDX 60 58 81 59 48 60 32 61 33 62 41 63 34 64 36 65 42 66 35 67
REMARK SMILES IDX 37 68 38 69 39 70 40 71 64 72 65 73 73 74 66 75 68 76 74 77
REMARK SMILES IDX 67 78 69 79 70 80 71 81 72 82 49 83 50 84 58 85 51 86 53 87
REMARK SMILES IDX 59 88 52 89 54 90 55 91 56 92 57 93
REMARK H PARENT 15 7 20 27 79 46 47 57
REMARK Flexibility Score: inf
ROOT
ATOM      1  C   UNL A   1      33.917  30.396  26.781  1.00  0.00     0.023 C 
ENDROOT
BRANCH   1   2
ATOM      2  C   UNL A   1      32.459  30.835  26.885  1.00  0.00     0.023 C 
BRANCH   2   3
ATOM      3  C   UNL A   1      31.519  30.292  25.802  1.00  0.00     0.116 C 
BRANCH   3   4
ATOM      4  N   UNL A   1      32.230  29.690  24.689  1.00  0.00    -0.355 N 
ATOM      5  C   UNL A   1      32.404  28.376  24.367  1.00  0.00     0.240 C 
ATOM      6  O   UNL A   1      32.850  28.114  23.247  1.00  0.00    -0.273 OA
ATOM      7  H   UNL A   1      32.652  30.329  24.070  1.00  0.00     0.163 HD
BRANCH   5   8
ATOM      8  C   UNL A   1      31.954  27.257  25.312  1.00  0.00     0.229 C 
BRANCH   8   9
ATOM      9  N   UNL A   1      31.756  25.998  24.616  1.00  0.00    -0.259 N 
ATOM     10  C   UNL A   1      33.002  22.708  23.724  1.00  0.00     0.029 C 
ATOM     11  C   UNL A   1      32.331  23.864  23.829  1.00  0.00     0.083 C 
ATOM     12  S   UNL A   1      30.715  24.082  23.261  1.00  0.00    -0.022 SA
ATOM     13  C   UNL A   1      32.810  25.131  24.458  1.00  0.00     0.268 C 
ATOM     14  C   UNL A   1      30.605  25.688  23.964  1.00  0.00     0.294 C 
ATOM     15  O   UNL A   1      33.964  25.374  24.765  1.00  0.00    -0.268 OA
ATOM     16  O   UNL A   1      29.604  26.389  23.839  1.00  0.00    -0.261 OA
BRANCH  10  17
ATOM     17  C   UNL A   1      34.376  22.531  24.196  1.00  0.00    -0.024 A 
ATOM     18  C   UNL A   1      38.357  21.396  25.371  1.00  0.00     0.044 C 
ATOM     19  C   UNL A   1      36.983  21.857  24.987  1.00  0.00    -0.051 A 
ATOM     20  C   UNL A   1      35.892  21.564  25.815  1.00  0.00     0.004 A 
ATOM     21  C   UNL A   1      36.764  22.542  23.786  1.00  0.00     0.004 A 
ATOM     22  C   UNL A   1      34.596  21.898  25.422  1.00  0.00     0.008 A 
ATOM     23  C   UNL A   1      35.468  22.886  23.396  1.00  0.00     0.008 A 
ENDBRANCH  10  17
ENDBRANCH   8   9
ENDBRANCH   5   8
ENDBRANCH   3   4
ENDBRANCH   2   3
ENDBRANCH   1   2
BRANCH   1  24
ATOM     24  C   UNL A   1      34.785  30.788  27.959  1.00  0.00     0.116 C 
BRANCH  24  25
ATOM     25  N   UNL A   1      34.434  32.047  28.587  1.00  0.00    -0.352 N 
ATOM     26  C   UNL A   1      35.180  32.818  29.467  1.00  0.00     0.251 C 
ATOM     27  H   UNL A   1      33.545  32.404  28.356  1.00  0.00     0.163 HD
ATOM     28  O   UNL A   1      34.604  33.697  30.102  1.00  0.00    -0.269 OA
BRANCH  26  29
ATOM     29  C   UNL A   1      36.666  32.699  29.494  1.00  0.00     0.039 A 
ATOM     30  C   UNL A   1      37.183  31.634  30.241  1.00  0.00     0.014 A 
ATOM     31  C   UNL A   1      37.477  33.787  29.203  1.00  0.00     0.014 A 
ATOM     32  C   UNL A   1      38.320  31.838  31.011  1.00  0.00     0.010 A 
ATOM     33  C   UNL A   1      38.520  34.049  30.053  1.00  0.00     0.010 A 
ATOM     34  C   UNL A   1      38.861  33.111  31.027  1.00  0.00    -0.014 A 
BRANCH  34  35
ATOM     35  C   UNL A   1      39.851  33.592  31.961  1.00  0.00     0.031 A 
ATOM     36  C   UNL A   1      39.370  34.254  33.179  1.00  0.00     0.074 A 
ATOM     37  C   UNL A   1      41.113  33.130  31.832  1.00  0.00     0.049 A 
ATOM     38  N   UNL A   1      40.136  34.770  34.067  1.00  0.00    -0.248 NA
ATOM     39  C   UNL A   1      37.948  34.394  33.478  1.00  0.00     0.031 C 
ATOM     40  C   UNL A   1      42.117  32.962  32.874  1.00  0.00     0.029 A 
ATOM     41  N   UNL A   1      41.800  32.731  30.702  1.00  0.00    -0.354 N 
ATOM     42  C   UNL A   1      39.358  35.006  35.179  1.00  0.00     0.074 A 
ATOM     43  C   UNL A   1      38.001  34.909  34.708  1.00  0.00     0.031 C 
ATOM     44  C   UNL A   1      43.319  32.760  32.301  1.00  0.00     0.029 A 
ATOM     45  C   UNL A   1      43.158  33.004  30.878  1.00  0.00     0.049 A 
ATOM     46  H   UNL A   1      41.398  32.320  29.904  1.00  0.00     0.167 HD
ATOM     47  C   UNL A   1      39.986  35.082  36.384  1.00  0.00     0.034 A 
ATOM     48  C   UNL A   1      43.769  34.033  30.201  1.00  0.00     0.034 A 
ATOM     49  C   UNL A   1      41.451  35.126  36.190  1.00  0.00     0.049 A 
ATOM     50  C   UNL A   1      44.155  35.213  31.101  1.00  0.00     0.074 A 
ATOM     51  C   UNL A   1      42.477  34.200  36.279  1.00  0.00     0.029 A 
ATOM     52  N   UNL A   1      41.980  36.203  35.498  1.00  0.00    -0.354 N 
ATOM     53  N   UNL A   1      43.996  35.247  32.398  1.00  0.00    -0.248 NA
ATOM     54  C   UNL A   1      44.683  36.478  30.586  1.00  0.00     0.031 C 
ATOM     55  C   UNL A   1      43.590  34.705  35.528  1.00  0.00     0.029 A 
ATOM     56  C   UNL A   1      43.256  35.953  35.023  1.00  0.00     0.049 A 
ATOM     57  H   UNL A   1      41.502  37.052  35.359  1.00  0.00     0.167 HD
ATOM     58  C   UNL A   1      44.180  36.525  32.853  1.00  0.00     0.074 A 
ATOM     59  C   UNL A   1      44.660  37.250  31.686  1.00  0.00     0.031 C 
ATOM     60  C   UNL A   1      43.875  36.931  34.126  1.00  0.00     0.034 A 
BRANCH  47  61
ATOM     61  C   UNL A   1      39.337  34.910  37.750  1.00  0.00     0.023 A 
ATOM     62  C   UNL A   1      39.653  35.889  38.719  1.00  0.00     0.012 A 
ATOM     63  C   UNL A   1      38.515  33.846  38.202  1.00  0.00     0.148 A 
ATOM     64  C   UNL A   1      39.228  35.802  40.049  1.00  0.00     0.002 A 
ATOM     65  C   UNL A   1      38.080  33.760  39.528  1.00  0.00     0.091 A 
ATOM     66  F   UNL A   1      38.142  32.877  37.371  1.00  0.00    -0.205 F 
ATOM     67  C   UNL A   1      38.446  34.734  40.458  1.00  0.00     0.022 A 
BRANCH  65  68
ATOM     68  S   UNL A   1      37.064  32.399  40.141  1.00  0.00     0.127 S 
ATOM     69  O   UNL A   1      38.023  31.294  40.175  1.00  0.00    -0.237 OA
ATOM     70  O   UNL A   1      36.653  32.887  41.458  1.00  0.00    -0.237 OA
ATOM     71  O   UNL A   1      35.975  32.225  39.187  1.00  0.00    -0.744 OA
ENDBRANCH  65  68
ENDBRANCH  47  61
BRANCH  48  72
ATOM     72  C   UNL A   1      43.243  34.156  28.800  1.00  0.00     0.023 A 
ATOM     73  C   UNL A   1      42.276  35.169  28.577  1.00  0.00     0.012 A 
ATOM     74  C   UNL A   1      43.982  33.675  27.706  1.00  0.00     0.148 A 
ATOM     75  C   UNL A   1      42.227  35.846  27.358  1.00  0.00     0.002 A 
ATOM     76  C   UNL A   1      43.906  34.338  26.484  1.00  0.00     0.091 A 
ATOM     77  F   UNL A   1      44.798  32.629  27.881  1.00  0.00    -0.205 F 
ATOM     78  C   UNL A   1      43.083  35.465  26.329  1.00  0.00     0.022 A 
BRANCH  76  79
ATOM     79  S   UNL A   1      44.940  33.836  25.104  1.00  0.00     0.127 S 
ATOM     80  O   UNL A   1      46.259  34.276  25.550  1.00  0.00    -0.237 OA
ATOM     81  O   UNL A   1      44.761  32.386  25.073  1.00  0.00    -0.237 OA
ATOM     82  O   UNL A   1      44.387  34.530  23.950  1.00  0.00    -0.744 OA
ENDBRANCH  76  79
ENDBRANCH  48  72
BRANCH  60  83
ATOM     83  C   UNL A   1      44.173  38.334  34.619  1.00  0.00     0.023 A 
ATOM     84  C   UNL A   1      44.834  38.518  35.850  1.00  0.00     0.012 A 
ATOM     85  C   UNL A   1      43.685  39.498  33.976  1.00  0.00     0.148 A 
ATOM     86  C   UNL A   1      45.057  39.790  36.385  1.00  0.00     0.002 A 
ATOM     87  C   UNL A   1      43.795  40.749  34.574  1.00  0.00     0.091 A 
ATOM     88  F   UNL A   1      43.158  39.415  32.750  1.00  0.00    -0.205 F 
ATOM     89  C   UNL A   1      44.514  40.905  35.760  1.00  0.00     0.022 A 
BRANCH  87  90
ATOM     90  S   UNL A   1      42.910  42.187  33.953  1.00  0.00     0.127 S 
ATOM     91  O   UNL A   1      41.570  41.637  33.731  1.00  0.00    -0.237 OA
ATOM     92  O   UNL A   1      43.010  43.112  35.079  1.00  0.00    -0.237 OA
ATOM     93  O   UNL A   1      43.602  42.586  32.736  1.00  0.00    -0.744 OA
ENDBRANCH  87  90
ENDBRANCH  60  83
ENDBRANCH  34  35
ENDBRANCH  26  29
ENDBRANCH  24  25
ENDBRANCH   1  24
TORSDOF 16
ENDMDL
