MODEL 1
REMARK VINA RESULT:     -11.4      0.000      0.000
REMARK SMILES O=C(NCCCCNC(=O)[C@@H]1CC[C@@H](CNC(=O)c2ccno2)O1)c1ccc(-c2c3nc(c(-c4cccc(S(=O)(=O)[O-])c4F)c4ccc([nH]4)c(-c4cccc(S(=O)(=O)[O-])c4F)c4nc(c(-c5cccc(S(=O)(=O)[O-])c5F)c5ccc2[nH]5)C=C4)C=C3)cc1
REMARK SMILES IDX 5 1 4 2 3 3 1 4 2 5 25 7 26 8 87 9 27 10 86 11 28 12 29 13
REMARK SMILES IDX 30 14 80 15 31 16 85 17 79 18 81 19 32 20 84 21 78 22 77 23
REMARK SMILES IDX 33 25 65 26 45 27 64 28 46 29 49 30 63 31 82 32 47 33 48 34
REMARK SMILES IDX 62 36 83 37 50 38 34 39 35 40 43 41 36 42 38 43 44 44 37 45
REMARK SMILES IDX 39 46 40 47 41 48 42 49 66 50 67 51 75 52 68 53 70 54 76 55
REMARK SMILES IDX 69 56 71 57 72 58 73 59 74 60 51 61 52 62 60 63 53 64 55 65
REMARK SMILES IDX 61 66 54 67 56 68 57 69 58 70 59 71 6 72 7 73 8 74 9 75
REMARK SMILES IDX 10 77 11 78 12 79 24 80 13 81 14 82 15 83 16 84 17 85 18 87
REMARK SMILES IDX 19 88 20 89 23 90 21 91 22 92
REMARK H PARENT 3 6 81 24 49 35 8 76 16 86
REMARK Flexibility Score: inf
ROOT
ATOM      1  C   UNL A   1      38.437  19.910  25.116  1.00  0.00     0.023 C 
ENDROOT
BRANCH   1   2
ATOM      2  C   UNL A   1      39.482  20.080  26.206  1.00  0.00     0.116 C 
BRANCH   2   3
ATOM      3  N   UNL A   1      40.604  19.164  26.065  1.00  0.00    -0.352 N 
ATOM      4  O   UNL A   1      42.766  18.590  25.767  1.00  0.00    -0.269 OA
ATOM      5  C   UNL A   1      41.948  19.460  26.043  1.00  0.00     0.251 C 
ATOM      6  H   UNL A   1      40.372  18.212  25.973  1.00  0.00     0.163 HD
BRANCH   5   7
ATOM      7  C   UNL A   1      42.373  20.847  26.323  1.00  0.00     0.039 A 
ATOM      8  C   UNL A   1      42.566  21.264  27.642  1.00  0.00     0.014 A 
ATOM      9  C   UNL A   1      42.520  21.748  25.267  1.00  0.00     0.014 A 
ATOM     10  C   UNL A   1      42.745  22.612  27.916  1.00  0.00     0.010 A 
ATOM     11  C   UNL A   1      42.806  23.088  25.542  1.00  0.00     0.010 A 
ATOM     12  C   UNL A   1      42.889  23.537  26.870  1.00  0.00    -0.014 A 
BRANCH  12  13
ATOM     13  C   UNL A   1      43.214  24.947  27.197  1.00  0.00     0.031 A 
ATOM     14  C   UNL A   1      42.207  25.863  27.836  1.00  0.00     0.074 A 
ATOM     15  C   UNL A   1      44.452  25.396  26.902  1.00  0.00     0.049 A 
ATOM     16  N   UNL A   1      42.347  27.115  28.185  1.00  0.00    -0.248 NA
ATOM     17  C   UNL A   1      40.871  25.311  28.114  1.00  0.00     0.031 C 
ATOM     18  C   UNL A   1      45.497  24.607  26.243  1.00  0.00     0.029 A 
ATOM     19  N   UNL A   1      45.041  26.614  27.111  1.00  0.00    -0.354 N 
ATOM     20  C   UNL A   1      41.114  27.517  28.684  1.00  0.00     0.074 A 
ATOM     21  C   UNL A   1      40.232  26.372  28.590  1.00  0.00     0.031 C 
ATOM     22  C   UNL A   1      46.603  25.351  26.123  1.00  0.00     0.029 A 
ATOM     23  C   UNL A   1      46.329  26.688  26.634  1.00  0.00     0.049 A 
ATOM     24  H   UNL A   1      44.587  27.365  27.558  1.00  0.00     0.167 HD
ATOM     25  C   UNL A   1      40.755  28.725  29.183  1.00  0.00     0.034 A 
ATOM     26  C   UNL A   1      47.189  27.721  26.585  1.00  0.00     0.034 A 
ATOM     27  C   UNL A   1      41.650  29.847  29.298  1.00  0.00     0.049 A 
ATOM     28  C   UNL A   1      46.763  29.042  27.156  1.00  0.00     0.074 A 
ATOM     29  C   UNL A   1      41.399  31.092  29.850  1.00  0.00     0.029 A 
ATOM     30  N   UNL A   1      42.961  29.870  28.846  1.00  0.00    -0.354 N 
ATOM     31  N   UNL A   1      45.633  29.361  27.738  1.00  0.00    -0.248 NA
ATOM     32  C   UNL A   1      47.740  30.136  27.092  1.00  0.00     0.031 C 
ATOM     33  C   UNL A   1      42.548  31.877  29.702  1.00  0.00     0.029 A 
ATOM     34  C   UNL A   1      43.527  31.110  29.092  1.00  0.00     0.049 A 
ATOM     35  H   UNL A   1      43.422  29.115  28.413  1.00  0.00     0.167 HD
ATOM     36  C   UNL A   1      45.773  30.684  28.136  1.00  0.00     0.074 A 
ATOM     37  C   UNL A   1      47.108  31.097  27.752  1.00  0.00     0.031 C 
ATOM     38  C   UNL A   1      44.873  31.490  28.749  1.00  0.00     0.034 A 
BRANCH  25  39
ATOM     39  C   UNL A   1      39.340  28.901  29.673  1.00  0.00     0.023 A 
ATOM     40  C   UNL A   1      38.994  28.484  30.974  1.00  0.00     0.012 A 
ATOM     41  C   UNL A   1      38.380  29.565  28.882  1.00  0.00     0.148 A 
ATOM     42  C   UNL A   1      37.710  28.704  31.472  1.00  0.00     0.002 A 
ATOM     43  C   UNL A   1      37.115  29.817  29.401  1.00  0.00     0.091 A 
ATOM     44  F   UNL A   1      38.723  29.940  27.642  1.00  0.00    -0.205 F 
ATOM     45  C   UNL A   1      36.775  29.380  30.691  1.00  0.00     0.022 A 
BRANCH  43  46
ATOM     46  S   UNL A   1      35.867  30.750  28.507  1.00  0.00     0.127 S 
ATOM     47  O   UNL A   1      36.678  31.777  27.854  1.00  0.00    -0.237 OA
ATOM     48  O   UNL A   1      35.318  29.741  27.602  1.00  0.00    -0.237 OA
ATOM     49  O   UNL A   1      34.933  31.240  29.512  1.00  0.00    -0.744 OA
ENDBRANCH  43  46
ENDBRANCH  25  39
BRANCH  26  50
ATOM     50  C   UNL A   1      48.541  27.534  25.993  1.00  0.00     0.023 A 
ATOM     51  C   UNL A   1      49.627  27.205  26.825  1.00  0.00     0.012 A 
ATOM     52  C   UNL A   1      48.748  27.644  24.604  1.00  0.00     0.148 A 
ATOM     53  C   UNL A   1      50.903  27.024  26.288  1.00  0.00     0.002 A 
ATOM     54  C   UNL A   1      50.006  27.401  24.070  1.00  0.00     0.091 A 
ATOM     55  F   UNL A   1      47.702  27.969  23.829  1.00  0.00    -0.205 F 
ATOM     56  C   UNL A   1      51.089  27.110  24.911  1.00  0.00     0.022 A 
BRANCH  54  57
ATOM     57  S   UNL A   1      50.300  27.349  22.298  1.00  0.00     0.127 S 
ATOM     58  O   UNL A   1      49.288  26.395  21.855  1.00  0.00    -0.237 OA
ATOM     59  O   UNL A   1      50.052  28.738  21.909  1.00  0.00    -0.237 OA
ATOM     60  O   UNL A   1      51.686  26.925  22.144  1.00  0.00    -0.744 OA
ENDBRANCH  54  57
ENDBRANCH  26  50
BRANCH  38  61
ATOM     61  C   UNL A   1      45.313  32.891  29.082  1.00  0.00     0.023 A 
ATOM     62  C   UNL A   1      46.005  33.144  30.284  1.00  0.00     0.012 A 
ATOM     63  C   UNL A   1      45.093  33.946  28.174  1.00  0.00     0.148 A 
ATOM     64  C   UNL A   1      46.436  34.433  30.594  1.00  0.00     0.002 A 
ATOM     65  C   UNL A   1      45.573  35.216  28.466  1.00  0.00     0.091 A 
ATOM     66  F   UNL A   1      44.416  33.687  27.046  1.00  0.00    -0.205 F 
ATOM     67  C   UNL A   1      46.231  35.465  29.681  1.00  0.00     0.022 A 
BRANCH  65  68
ATOM     68  S   UNL A   1      45.440  36.583  27.308  1.00  0.00     0.127 S 
ATOM     69  O   UNL A   1      44.021  36.541  26.959  1.00  0.00    -0.237 OA
ATOM     70  O   UNL A   1      45.832  37.726  28.133  1.00  0.00    -0.237 OA
ATOM     71  O   UNL A   1      46.360  36.279  26.220  1.00  0.00    -0.744 OA
ENDBRANCH  65  68
ENDBRANCH  38  61
ENDBRANCH  12  13
ENDBRANCH   5   7
ENDBRANCH   2   3
ENDBRANCH   1   2
BRANCH   1  72
ATOM     72  C   UNL A   1      37.280  20.902  25.188  1.00  0.00     0.023 C 
BRANCH  72  73
ATOM     73  C   UNL A   1      37.288  21.959  24.086  1.00  0.00     0.116 C 
BRANCH  73  74
ATOM     74  N   UNL A   1      36.583  23.161  24.487  1.00  0.00    -0.354 N 
ATOM     75  C   UNL A   1      35.231  23.382  24.540  1.00  0.00     0.249 C 
ATOM     76  H   UNL A   1      37.151  23.919  24.757  1.00  0.00     0.163 HD
ATOM     77  O   UNL A   1      34.826  24.488  24.897  1.00  0.00    -0.272 OA
BRANCH  75  78
ATOM     78  C   UNL A   1      34.294  22.225  24.162  1.00  0.00     0.207 C 
ATOM     79  C   UNL A   1      32.971  22.728  23.606  1.00  0.00     0.045 C 
ATOM     80  O   UNL A   1      33.929  21.343  25.230  1.00  0.00    -0.363 OA
ATOM     81  C   UNL A   1      32.122  21.490  23.692  1.00  0.00     0.037 C 
ATOM     82  C   UNL A   1      32.574  20.908  25.018  1.00  0.00     0.138 C 
BRANCH  82  83
ATOM     83  C   UNL A   1      32.468  19.381  25.085  1.00  0.00     0.148 C 
BRANCH  83  84
ATOM     84  N   UNL A   1      32.223  18.755  23.789  1.00  0.00    -0.347 N 
ATOM     85  C   UNL A   1      32.914  17.704  23.225  1.00  0.00     0.289 C 
ATOM     86  H   UNL A   1      31.481  19.124  23.259  1.00  0.00     0.164 HD
ATOM     87  O   UNL A   1      32.751  17.488  22.021  1.00  0.00    -0.266 OA
BRANCH  85  88
ATOM     88  C   UNL A   1      33.761  16.905  24.070  1.00  0.00     0.224 A 
ATOM     89  C   UNL A   1      35.039  17.078  24.559  1.00  0.00     0.079 A 
ATOM     90  O   UNL A   1      33.280  15.712  24.527  1.00  0.00    -0.351 OA
ATOM     91  C   UNL A   1      35.308  15.894  25.261  1.00  0.00     0.159 A 
ATOM     92  N   UNL A   1      34.267  15.062  25.256  1.00  0.00    -0.088 NA
ENDBRANCH  85  88
ENDBRANCH  83  84
ENDBRANCH  82  83
ENDBRANCH  75  78
ENDBRANCH  73  74
ENDBRANCH  72  73
ENDBRANCH   1  72
TORSDOF 17
ENDMDL
MODEL 2
REMARK VINA RESULT:     -11.3      5.676      8.681
REMARK SMILES O=C(NCCCCNC(=O)[C@@H]1CC[C@@H](CNC(=O)c2ccno2)O1)c1ccc(-c2c3nc(c(-c4cccc(S(=O)(=O)[O-])c4F)c4ccc([nH]4)c(-c4cccc(S(=O)(=O)[O-])c4F)c4nc(c(-c5cccc(S(=O)(=O)[O-])c5F)c5ccc2[nH]5)C=C4)C=C3)cc1
REMARK SMILES IDX 5 1 4 2 3 3 1 4 2 5 25 7 26 8 87 9 27 10 86 11 28 12 29 13
REMARK SMILES IDX 30 14 80 15 31 16 85 17 79 18 81 19 32 20 84 21 78 22 77 23
REMARK SMILES IDX 33 25 65 26 45 27 64 28 46 29 49 30 63 31 82 32 47 33 48 34
REMARK SMILES IDX 62 36 83 37 50 38 34 39 35 40 43 41 36 42 38 43 44 44 37 45
REMARK SMILES IDX 39 46 40 47 41 48 42 49 66 50 67 51 75 52 68 53 70 54 76 55
REMARK SMILES IDX 69 56 71 57 72 58 73 59 74 60 51 61 52 62 60 63 53 64 55 65
REMARK SMILES IDX 61 66 54 67 56 68 57 69 58 70 59 71 6 72 7 73 8 74 9 75
REMARK SMILES IDX 10 77 11 78 12 79 24 80 13 81 14 82 15 83 16 84 17 85 18 87
REMARK SMILES IDX 19 88 20 89 23 90 21 91 22 92
REMARK H PARENT 3 6 81 24 49 35 8 76 16 86
REMARK Flexibility Score: inf
ROOT
ATOM      1  C   UNL A   1      32.279  28.627  24.104  1.00  0.00     0.023 C 
ENDROOT
BRANCH   1   2
ATOM      2  C   UNL A   1      33.127  29.263  25.193  1.00  0.00     0.116 C 
BRANCH   2   3
ATOM      3  N   UNL A   1      32.533  30.472  25.742  1.00  0.00    -0.352 N 
ATOM      4  O   UNL A   1      32.249  32.119  27.259  1.00  0.00    -0.269 OA
ATOM      5  C   UNL A   1      32.945  31.205  26.832  1.00  0.00     0.251 C 
ATOM      6  H   UNL A   1      31.735  30.810  25.275  1.00  0.00     0.163 HD
BRANCH   5   7
ATOM      7  C   UNL A   1      34.218  30.843  27.489  1.00  0.00     0.039 A 
ATOM      8  C   UNL A   1      34.396  29.557  28.004  1.00  0.00     0.014 A 
ATOM      9  C   UNL A   1      35.212  31.811  27.643  1.00  0.00     0.014 A 
ATOM     10  C   UNL A   1      35.491  29.286  28.811  1.00  0.00     0.010 A 
ATOM     11  C   UNL A   1      36.366  31.502  28.369  1.00  0.00     0.010 A 
ATOM     12  C   UNL A   1      36.500  30.247  28.986  1.00  0.00    -0.014 A 
BRANCH  12  13
ATOM     13  C   UNL A   1      37.722  29.878  29.742  1.00  0.00     0.031 A 
ATOM     14  C   UNL A   1      37.985  30.409  31.124  1.00  0.00     0.074 A 
ATOM     15  C   UNL A   1      38.603  29.044  29.154  1.00  0.00     0.049 A 
ATOM     16  N   UNL A   1      39.003  30.172  31.911  1.00  0.00    -0.248 NA
ATOM     17  C   UNL A   1      36.988  31.328  31.698  1.00  0.00     0.031 C 
ATOM     18  C   UNL A   1      38.470  28.500  27.799  1.00  0.00     0.029 A 
ATOM     19  N   UNL A   1      39.780  28.512  29.609  1.00  0.00    -0.354 N 
ATOM     20  C   UNL A   1      38.796  30.938  33.051  1.00  0.00     0.074 A 
ATOM     21  C   UNL A   1      37.552  31.653  32.855  1.00  0.00     0.031 C 
ATOM     22  C   UNL A   1      39.508  27.695  27.542  1.00  0.00     0.029 A 
ATOM     23  C   UNL A   1      40.414  27.715  28.683  1.00  0.00     0.049 A 
ATOM     24  H   UNL A   1      40.139  28.682  30.510  1.00  0.00     0.167 HD
ATOM     25  C   UNL A   1      39.566  31.028  34.162  1.00  0.00     0.034 A 
ATOM     26  C   UNL A   1      41.604  27.092  28.731  1.00  0.00     0.034 A 
ATOM     27  C   UNL A   1      40.787  30.288  34.359  1.00  0.00     0.049 A 
ATOM     28  C   UNL A   1      42.428  27.202  29.980  1.00  0.00     0.074 A 
ATOM     29  C   UNL A   1      41.605  30.261  35.476  1.00  0.00     0.029 A 
ATOM     30  N   UNL A   1      41.374  29.457  33.417  1.00  0.00    -0.354 N 
ATOM     31  N   UNL A   1      42.150  27.832  31.096  1.00  0.00    -0.248 NA
ATOM     32  C   UNL A   1      43.714  26.494  29.991  1.00  0.00     0.031 C 
ATOM     33  C   UNL A   1      42.701  29.439  35.197  1.00  0.00     0.029 A 
ATOM     34  C   UNL A   1      42.549  28.924  33.920  1.00  0.00     0.049 A 
ATOM     35  H   UNL A   1      41.009  29.272  32.521  1.00  0.00     0.167 HD
ATOM     36  C   UNL A   1      43.212  27.572  31.952  1.00  0.00     0.074 A 
ATOM     37  C   UNL A   1      44.125  26.706  31.233  1.00  0.00     0.031 C 
ATOM     38  C   UNL A   1      43.422  28.023  33.212  1.00  0.00     0.034 A 
BRANCH  25  39
ATOM     39  C   UNL A   1      39.109  31.936  35.276  1.00  0.00     0.023 A 
ATOM     40  C   UNL A   1      39.233  33.332  35.134  1.00  0.00     0.012 A 
ATOM     41  C   UNL A   1      38.471  31.412  36.418  1.00  0.00     0.148 A 
ATOM     42  C   UNL A   1      38.750  34.192  36.120  1.00  0.00     0.002 A 
ATOM     43  C   UNL A   1      37.956  32.276  37.378  1.00  0.00     0.091 A 
ATOM     44  F   UNL A   1      38.376  30.080  36.543  1.00  0.00    -0.205 F 
ATOM     45  C   UNL A   1      38.102  33.665  37.235  1.00  0.00     0.022 A 
BRANCH  43  46
ATOM     46  S   UNL A   1      37.034  31.702  38.809  1.00  0.00     0.127 S 
ATOM     47  O   UNL A   1      36.752  30.314  38.440  1.00  0.00    -0.237 OA
ATOM     48  O   UNL A   1      38.010  31.859  39.886  1.00  0.00    -0.237 OA
ATOM     49  O   UNL A   1      35.868  32.568  38.912  1.00  0.00    -0.744 OA
ENDBRANCH  43  46
ENDBRANCH  25  39
BRANCH  26  50
ATOM     50  C   UNL A   1      42.070  26.292  27.566  1.00  0.00     0.023 A 
ATOM     51  C   UNL A   1      42.849  26.904  26.567  1.00  0.00     0.012 A 
ATOM     52  C   UNL A   1      41.774  24.918  27.462  1.00  0.00     0.148 A 
ATOM     53  C   UNL A   1      43.297  26.170  25.467  1.00  0.00     0.002 A 
ATOM     54  C   UNL A   1      42.276  24.180  26.398  1.00  0.00     0.091 A 
ATOM     55  F   UNL A   1      41.022  24.355  28.419  1.00  0.00    -0.205 F 
ATOM     56  C   UNL A   1      43.020  24.808  25.389  1.00  0.00     0.022 A 
BRANCH  54  57
ATOM     57  S   UNL A   1      42.088  22.397  26.298  1.00  0.00     0.127 S 
ATOM     58  O   UNL A   1      40.645  22.257  26.124  1.00  0.00    -0.237 OA
ATOM     59  O   UNL A   1      42.887  22.073  25.115  1.00  0.00    -0.237 OA
ATOM     60  O   UNL A   1      42.632  21.876  27.546  1.00  0.00    -0.744 OA
ENDBRANCH  54  57
ENDBRANCH  26  50
BRANCH  38  61
ATOM     61  C   UNL A   1      44.668  27.555  33.916  1.00  0.00     0.023 A 
ATOM     62  C   UNL A   1      45.851  28.315  33.833  1.00  0.00     0.012 A 
ATOM     63  C   UNL A   1      44.647  26.390  34.709  1.00  0.00     0.148 A 
ATOM     64  C   UNL A   1      47.005  27.903  34.497  1.00  0.00     0.002 A 
ATOM     65  C   UNL A   1      45.786  26.015  35.410  1.00  0.00     0.091 A 
ATOM     66  F   UNL A   1      43.517  25.671  34.758  1.00  0.00    -0.205 F 
ATOM     67  C   UNL A   1      46.969  26.762  35.294  1.00  0.00     0.022 A 
BRANCH  65  68
ATOM     68  S   UNL A   1      45.804  24.616  36.536  1.00  0.00     0.127 S 
ATOM     69  O   UNL A   1      44.713  24.955  37.450  1.00  0.00    -0.237 OA
ATOM     70  O   UNL A   1      45.521  23.494  35.640  1.00  0.00    -0.237 OA
ATOM     71  O   UNL A   1      47.133  24.594  37.130  1.00  0.00    -0.744 OA
ENDBRANCH  65  68
ENDBRANCH  38  61
ENDBRANCH  12  13
ENDBRANCH   5   7
ENDBRANCH   2   3
ENDBRANCH   1   2
BRANCH   1  72
ATOM     72  C   UNL A   1      31.193  27.686  24.616  1.00  0.00     0.023 C 
BRANCH  72  73
ATOM     73  C   UNL A   1      31.151  26.332  23.910  1.00  0.00     0.116 C 
BRANCH  73  74
ATOM     74  N   UNL A   1      31.952  26.329  22.701  1.00  0.00    -0.354 N 
ATOM     75  C   UNL A   1      33.110  25.642  22.443  1.00  0.00     0.249 C 
ATOM     76  H   UNL A   1      31.620  26.896  21.968  1.00  0.00     0.163 HD
ATOM     77  O   UNL A   1      33.653  25.786  21.348  1.00  0.00    -0.272 OA
BRANCH  75  78
ATOM     78  C   UNL A   1      33.660  24.715  23.539  1.00  0.00     0.207 C 
ATOM     79  C   UNL A   1      34.315  25.499  24.665  1.00  0.00     0.045 C 
ATOM     80  O   UNL A   1      34.657  23.776  23.119  1.00  0.00    -0.363 OA
ATOM     81  C   UNL A   1      35.091  24.418  25.366  1.00  0.00     0.037 C 
ATOM     82  C   UNL A   1      35.600  23.604  24.192  1.00  0.00     0.138 C 
BRANCH  82  83
ATOM     83  C   UNL A   1      35.800  22.121  24.517  1.00  0.00     0.148 C 
BRANCH  83  84
ATOM     84  N   UNL A   1      35.285  21.734  25.827  1.00  0.00    -0.347 N 
ATOM     85  C   UNL A   1      34.102  21.081  26.101  1.00  0.00     0.289 C 
ATOM     86  H   UNL A   1      35.846  21.964  26.602  1.00  0.00     0.164 HD
ATOM     87  O   UNL A   1      33.701  21.082  27.267  1.00  0.00    -0.266 OA
BRANCH  85  88
ATOM     88  C   UNL A   1      33.418  20.416  25.023  1.00  0.00     0.224 A 
ATOM     89  C   UNL A   1      33.346  19.099  24.624  1.00  0.00     0.079 A 
ATOM     90  O   UNL A   1      32.664  21.170  24.172  1.00  0.00    -0.351 OA
ATOM     91  C   UNL A   1      32.573  19.131  23.454  1.00  0.00     0.159 A 
ATOM     92  N   UNL A   1      32.153  20.362  23.165  1.00  0.00    -0.088 NA
ENDBRANCH  85  88
ENDBRANCH  83  84
ENDBRANCH  82  83
ENDBRANCH  75  78
ENDBRANCH  73  74
ENDBRANCH  72  73
ENDBRANCH   1  72
TORSDOF 17
ENDMDL
MODEL 3
REMARK VINA RESULT:     -11.3      1.628      7.838
REMARK SMILES O=C(NCCCCNC(=O)[C@@H]1CC[C@@H](CNC(=O)c2ccno2)O1)c1ccc(-c2c3nc(c(-c4cccc(S(=O)(=O)[O-])c4F)c4ccc([nH]4)c(-c4cccc(S(=O)(=O)[O-])c4F)c4nc(c(-c5cccc(S(=O)(=O)[O-])c5F)c5ccc2[nH]5)C=C4)C=C3)cc1
REMARK SMILES IDX 5 1 4 2 3 3 1 4 2 5 25 7 26 8 87 9 27 10 86 11 28 12 29 13
REMARK SMILES IDX 30 14 80 15 31 16 85 17 79 18 81 19 32 20 84 21 78 22 77 23
REMARK SMILES IDX 33 25 65 26 45 27 64 28 46 29 49 30 63 31 82 32 47 33 48 34
REMARK SMILES IDX 62 36 83 37 50 38 34 39 35 40 43 41 36 42 38 43 44 44 37 45
REMARK SMILES IDX 39 46 40 47 41 48 42 49 66 50 67 51 75 52 68 53 70 54 76 55
REMARK SMILES IDX 69 56 71 57 72 58 73 59 74 60 51 61 52 62 60 63 53 64 55 65
REMARK SMILES IDX 61 66 54 67 56 68 57 69 58 70 59 71 6 72 7 73 8 74 9 75
REMARK SMILES IDX 10 77 11 78 12 79 24 80 13 81 14 82 15 83 16 84 17 85 18 87
REMARK SMILES IDX 19 88 20 89 23 90 21 91 22 92
REMARK H PARENT 3 6 81 24 49 35 8 76 16 86
REMARK Flexibility Score: inf
ROOT
ATOM      1  C   UNL A   1      36.582  22.565  23.721  1.00  0.00     0.023 C 
ENDROOT
BRANCH   1   2
ATOM      2  C   UNL A   1      36.819  22.356  25.207  1.00  0.00     0.116 C 
BRANCH   2   3
ATOM      3  N   UNL A   1      37.676  21.216  25.491  1.00  0.00    -0.352 N 
ATOM      4  O   UNL A   1      39.597  20.178  26.064  1.00  0.00    -0.269 OA
ATOM      5  C   UNL A   1      38.946  21.216  26.023  1.00  0.00     0.251 C 
ATOM      6  H   UNL A   1      37.301  20.332  25.275  1.00  0.00     0.163 HD
BRANCH   5   7
ATOM      7  C   UNL A   1      39.512  22.492  26.507  1.00  0.00     0.039 A 
ATOM      8  C   UNL A   1      39.078  23.700  25.957  1.00  0.00     0.014 A 
ATOM      9  C   UNL A   1      40.521  22.474  27.471  1.00  0.00     0.014 A 
ATOM     10  C   UNL A   1      39.762  24.871  26.249  1.00  0.00     0.010 A 
ATOM     11  C   UNL A   1      41.139  23.672  27.842  1.00  0.00     0.010 A 
ATOM     12  C   UNL A   1      40.786  24.876  27.209  1.00  0.00    -0.014 A 
BRANCH  12  13
ATOM     13  C   UNL A   1      41.404  26.168  27.596  1.00  0.00     0.031 A 
ATOM     14  C   UNL A   1      42.815  26.516  27.210  1.00  0.00     0.074 A 
ATOM     15  C   UNL A   1      40.661  27.037  28.312  1.00  0.00     0.049 A 
ATOM     16  N   UNL A   1      43.488  27.606  27.469  1.00  0.00    -0.248 NA
ATOM     17  C   UNL A   1      43.573  25.513  26.443  1.00  0.00     0.031 C 
ATOM     18  C   UNL A   1      39.293  26.787  28.778  1.00  0.00     0.029 A 
ATOM     19  N   UNL A   1      40.943  28.293  28.776  1.00  0.00    -0.354 N 
ATOM     20  C   UNL A   1      44.758  27.411  26.938  1.00  0.00     0.074 A 
ATOM     21  C   UNL A   1      44.763  26.092  26.341  1.00  0.00     0.031 C 
ATOM     22  C   UNL A   1      38.848  27.863  29.438  1.00  0.00     0.029 A 
ATOM     23  C   UNL A   1      39.916  28.851  29.503  1.00  0.00     0.049 A 
ATOM     24  H   UNL A   1      41.797  28.754  28.607  1.00  0.00     0.167 HD
ATOM     25  C   UNL A   1      45.815  28.259  26.939  1.00  0.00     0.034 A 
ATOM     26  C   UNL A   1      39.848  30.016  30.172  1.00  0.00     0.034 A 
ATOM     27  C   UNL A   1      45.788  29.581  27.510  1.00  0.00     0.049 A 
ATOM     28  C   UNL A   1      41.033  30.936  30.144  1.00  0.00     0.074 A 
ATOM     29  C   UNL A   1      46.787  30.540  27.504  1.00  0.00     0.029 A 
ATOM     30  N   UNL A   1      44.716  30.129  28.198  1.00  0.00    -0.354 N 
ATOM     31  N   UNL A   1      42.179  30.783  29.527  1.00  0.00    -0.248 NA
ATOM     32  C   UNL A   1      40.906  32.201  30.878  1.00  0.00     0.031 C 
ATOM     33  C   UNL A   1      46.330  31.654  28.216  1.00  0.00     0.029 A 
ATOM     34  C   UNL A   1      45.033  31.405  28.634  1.00  0.00     0.049 A 
ATOM     35  H   UNL A   1      43.855  29.677  28.354  1.00  0.00     0.167 HD
ATOM     36  C   UNL A   1      42.899  31.945  29.773  1.00  0.00     0.074 A 
ATOM     37  C   UNL A   1      42.048  32.802  30.574  1.00  0.00     0.031 C 
ATOM     38  C   UNL A   1      44.158  32.266  29.387  1.00  0.00     0.034 A 
BRANCH  25  39
ATOM     39  C   UNL A   1      47.093  27.805  26.281  1.00  0.00     0.023 A 
ATOM     40  C   UNL A   1      48.065  27.121  27.038  1.00  0.00     0.012 A 
ATOM     41  C   UNL A   1      47.289  27.971  24.894  1.00  0.00     0.148 A 
ATOM     42  C   UNL A   1      49.221  26.629  26.432  1.00  0.00     0.002 A 
ATOM     43  C   UNL A   1      48.424  27.442  24.290  1.00  0.00     0.091 A 
ATOM     44  F   UNL A   1      46.361  28.638  24.194  1.00  0.00    -0.205 F 
ATOM     45  C   UNL A   1      49.395  26.779  25.058  1.00  0.00     0.022 A 
BRANCH  43  46
ATOM     46  S   UNL A   1      48.703  27.512  22.517  1.00  0.00     0.127 S 
ATOM     47  O   UNL A   1      50.019  28.149  22.451  1.00  0.00    -0.237 OA
ATOM     48  O   UNL A   1      48.694  26.097  22.148  1.00  0.00    -0.237 OA
ATOM     49  O   UNL A   1      47.605  28.293  21.966  1.00  0.00    -0.744 OA
ENDBRANCH  43  46
ENDBRANCH  25  39
BRANCH  26  50
ATOM     50  C   UNL A   1      38.603  30.379  30.902  1.00  0.00     0.023 A 
ATOM     51  C   UNL A   1      38.443  29.989  32.245  1.00  0.00     0.012 A 
ATOM     52  C   UNL A   1      37.592  31.141  30.283  1.00  0.00     0.148 A 
ATOM     53  C   UNL A   1      37.284  30.322  32.947  1.00  0.00     0.002 A 
ATOM     54  C   UNL A   1      36.471  31.522  31.006  1.00  0.00     0.091 A 
ATOM     55  F   UNL A   1      37.759  31.494  28.999  1.00  0.00    -0.205 F 
ATOM     56  C   UNL A   1      36.304  31.096  32.332  1.00  0.00     0.022 A 
BRANCH  54  57
ATOM     57  S   UNL A   1      35.233  32.638  30.336  1.00  0.00     0.127 S 
ATOM     58  O   UNL A   1      36.037  33.811  30.005  1.00  0.00    -0.237 OA
ATOM     59  O   UNL A   1      34.737  31.885  29.183  1.00  0.00    -0.237 OA
ATOM     60  O   UNL A   1      34.252  32.817  31.398  1.00  0.00    -0.744 OA
ENDBRANCH  54  57
ENDBRANCH  26  50
BRANCH  38  61
ATOM     61  C   UNL A   1      44.679  33.620  29.788  1.00  0.00     0.023 A 
ATOM     62  C   UNL A   1      45.423  33.765  30.975  1.00  0.00     0.012 A 
ATOM     63  C   UNL A   1      44.482  34.739  28.953  1.00  0.00     0.148 A 
ATOM     64  C   UNL A   1      45.929  35.009  31.346  1.00  0.00     0.002 A 
ATOM     65  C   UNL A   1      45.034  35.964  29.304  1.00  0.00     0.091 A 
ATOM     66  F   UNL A   1      43.754  34.583  27.838  1.00  0.00    -0.205 F 
ATOM     67  C   UNL A   1      45.746  36.104  30.505  1.00  0.00     0.022 A 
BRANCH  65  68
ATOM     68  S   UNL A   1      44.932  37.405  28.236  1.00  0.00     0.127 S 
ATOM     69  O   UNL A   1      43.496  37.685  28.252  1.00  0.00    -0.237 OA
ATOM     70  O   UNL A   1      45.751  38.381  28.954  1.00  0.00    -0.237 OA
ATOM     71  O   UNL A   1      45.473  36.991  26.949  1.00  0.00    -0.744 OA
ENDBRANCH  65  68
ENDBRANCH  38  61
ENDBRANCH  12  13
ENDBRANCH   5   7
ENDBRANCH   2   3
ENDBRANCH   1   2
BRANCH   1  72
ATOM     72  C   UNL A   1      35.326  23.363  23.386  1.00  0.00     0.023 C 
BRANCH  72  73
ATOM     73  C   UNL A   1      34.845  24.279  24.509  1.00  0.00     0.116 C 
BRANCH  73  74
ATOM     74  N   UNL A   1      33.504  24.776  24.262  1.00  0.00    -0.354 N 
ATOM     75  C   UNL A   1      32.305  24.219  24.625  1.00  0.00     0.249 C 
ATOM     76  H   UNL A   1      33.449  25.626  23.769  1.00  0.00     0.163 HD
ATOM     77  O   UNL A   1      31.266  24.794  24.305  1.00  0.00    -0.272 OA
BRANCH  75  78
ATOM     78  C   UNL A   1      32.330  22.908  25.426  1.00  0.00     0.207 C 
ATOM     79  C   UNL A   1      33.344  22.957  26.558  1.00  0.00     0.045 C 
ATOM     80  O   UNL A   1      32.669  21.730  24.684  1.00  0.00    -0.363 OA
ATOM     81  C   UNL A   1      33.465  21.501  26.912  1.00  0.00     0.037 C 
ATOM     82  C   UNL A   1      33.423  20.854  25.541  1.00  0.00     0.138 C 
BRANCH  82  83
ATOM     83  C   UNL A   1      32.828  19.443  25.548  1.00  0.00     0.148 C 
BRANCH  83  84
ATOM     84  N   UNL A   1      32.413  18.977  24.228  1.00  0.00    -0.347 N 
ATOM     85  C   UNL A   1      32.910  17.900  23.527  1.00  0.00     0.289 C 
ATOM     86  H   UNL A   1      31.696  19.489  23.790  1.00  0.00     0.164 HD
ATOM     87  O   UNL A   1      32.639  17.819  22.326  1.00  0.00    -0.266 OA
BRANCH  85  88
ATOM     88  C   UNL A   1      33.691  16.920  24.234  1.00  0.00     0.224 A 
ATOM     89  C   UNL A   1      35.019  16.860  24.603  1.00  0.00     0.079 A 
ATOM     90  O   UNL A   1      33.069  15.784  24.664  1.00  0.00    -0.351 OA
ATOM     91  C   UNL A   1      35.158  15.599  25.203  1.00  0.00     0.159 A 
ATOM     92  N   UNL A   1      34.002  14.939  25.252  1.00  0.00    -0.088 NA
ENDBRANCH  85  88
ENDBRANCH  83  84
ENDBRANCH  82  83
ENDBRANCH  75  78
ENDBRANCH  73  74
ENDBRANCH  72  73
ENDBRANCH   1  72
TORSDOF 17
ENDMDL
