MODEL 1
REMARK VINA RESULT:     -12.2      0.000      0.000
REMARK SMILES N#C/C(=C\c1ccc(Oc2ccccc2Cl)c([N+](=O)[O-])c1)C(=O)NCCCCNC(=O)c1ccc(-c2c3nc(c(-c4cccc(S(=O)(=O)[O-])c4F)c4ccc([nH]4)c(-c4cccc(S(=O)(=O)[O-])c4F)c4nc(c(-c5cccc(S(=O)(=O)[O-])c5F)c5ccc2[nH]5)C=C4)C=C3)cc1
REMARK SMILES IDX 26 1 25 2 24 3 22 4 23 5 3 7 4 8 2 9 1 10 5 11 6 12 21 13
REMARK SMILES IDX 7 14 17 15 8 16 18 17 19 18 20 19 9 20 10 21 11 22 15 23
REMARK SMILES IDX 12 24 14 25 16 26 13 27 27 28 28 29 29 30 30 31 31 33 32 34
REMARK SMILES IDX 33 35 94 36 34 37 93 38 35 39 36 40 37 41 87 42 38 43 92 44
REMARK SMILES IDX 86 45 88 46 39 47 91 48 85 49 84 50 40 52 72 53 52 54 71 55
REMARK SMILES IDX 53 56 56 57 70 58 89 59 54 60 55 61 69 63 90 64 57 65 41 66
REMARK SMILES IDX 42 67 50 68 43 69 45 70 51 71 44 72 46 73 47 74 48 75 49 76
REMARK SMILES IDX 73 77 74 78 82 79 75 80 77 81 83 82 76 83 78 84 79 85 80 86
REMARK SMILES IDX 81 87 58 88 59 89 67 90 60 91 62 92 68 93 61 94 63 95 64 96
REMARK SMILES IDX 65 97 66 98
REMARK H PARENT 24 6 29 32 88 51 56 62
REMARK Flexibility Score: inf
ROOT
ATOM      1  C   UNL A   1      32.217  30.078  26.563  1.00  0.00     0.023 C 
ENDROOT
BRANCH   1   2
ATOM      2  C   UNL A   1      31.860  29.537  25.175  1.00  0.00     0.116 C 
BRANCH   2   3
ATOM      3  N   UNL A   1      33.001  29.566  24.281  1.00  0.00    -0.351 N 
ATOM      4  C   UNL A   1      33.738  28.588  23.687  1.00  0.00     0.261 C 
ATOM      5  O   UNL A   1      34.627  28.945  22.913  1.00  0.00    -0.268 OA
ATOM      6  H   UNL A   1      33.305  30.477  24.058  1.00  0.00     0.163 HD
BRANCH   4   7
ATOM      7  C   UNL A   1      33.522  27.130  23.919  1.00  0.00     0.117 C 
ATOM      8  C   UNL A   1      33.493  26.473  25.106  1.00  0.00     0.033 C 
BRANCH   7   9
ATOM      9  C   UNL A   1      33.543  26.237  22.690  1.00  0.00     0.105 C 
ATOM     10  N   UNL A   1      33.560  25.495  21.670  1.00  0.00    -0.192 NA
ENDBRANCH   7   9
BRANCH   8  11
ATOM     11  C   UNL A   1      33.346  25.008  25.273  1.00  0.00    -0.017 A 
ATOM     12  C   UNL A   1      32.073  24.450  25.417  1.00  0.00     0.012 A 
ATOM     13  C   UNL A   1      34.447  24.147  25.258  1.00  0.00     0.098 A 
ATOM     14  C   UNL A   1      31.911  23.059  25.510  1.00  0.00     0.055 A 
ATOM     15  C   UNL A   1      34.266  22.753  25.260  1.00  0.00     0.312 A 
ATOM     16  C   UNL A   1      33.003  22.177  25.423  1.00  0.00     0.204 A 
BRANCH  15  17
ATOM     17  N   UNL A   1      35.461  21.995  24.955  1.00  0.00     0.066 N 
ATOM     18  O   UNL A   1      35.982  22.184  23.849  1.00  0.00    -0.258 OA
ATOM     19  O   UNL A   1      35.911  21.269  25.853  1.00  0.00    -0.258 OA
ENDBRANCH  15  17
BRANCH  16  20
ATOM     20  O   UNL A   1      32.614  20.858  25.526  1.00  0.00    -0.449 OA
BRANCH  20  21
ATOM     21  C   UNL A   1      32.473  20.080  24.408  1.00  0.00     0.146 A 
ATOM     22  C   UNL A   1      32.213  20.750  23.209  1.00  0.00     0.049 A 
ATOM     23  C   UNL A   1      32.530  18.681  24.432  1.00  0.00     0.083 A 
ATOM     24  C   UNL A   1      32.124  20.034  22.017  1.00  0.00     0.004 A 
ATOM     25  C   UNL A   1      32.461  17.970  23.232  1.00  0.00     0.024 A 
ATOM     26  Cl  UNL A   1      32.721  17.805  25.905  1.00  0.00    -0.080 Cl
ATOM     27  C   UNL A   1      32.273  18.648  22.024  1.00  0.00     0.002 A 
ENDBRANCH  20  21
ENDBRANCH  16  20
ENDBRANCH   8  11
ENDBRANCH   4   7
ENDBRANCH   2   3
ENDBRANCH   1   2
BRANCH   1  28
ATOM     28  C   UNL A   1      31.888  31.558  26.777  1.00  0.00     0.023 C 
BRANCH  28  29
ATOM     29  C   UNL A   1      33.021  32.389  27.368  1.00  0.00     0.116 C 
BRANCH  29  30
ATOM     30  N   UNL A   1      32.642  33.761  27.674  1.00  0.00    -0.352 N 
ATOM     31  C   UNL A   1      33.196  34.597  28.617  1.00  0.00     0.251 C 
ATOM     32  H   UNL A   1      31.901  34.136  27.143  1.00  0.00     0.163 HD
ATOM     33  O   UNL A   1      32.715  35.700  28.831  1.00  0.00    -0.269 OA
BRANCH  31  34
ATOM     34  C   UNL A   1      34.352  34.110  29.399  1.00  0.00     0.039 A 
ATOM     35  C   UNL A   1      34.118  33.331  30.535  1.00  0.00     0.014 A 
ATOM     36  C   UNL A   1      35.655  34.362  28.966  1.00  0.00     0.014 A 
ATOM     37  C   UNL A   1      35.196  32.744  31.197  1.00  0.00     0.010 A 
ATOM     38  C   UNL A   1      36.720  33.718  29.585  1.00  0.00     0.010 A 
ATOM     39  C   UNL A   1      36.502  32.902  30.704  1.00  0.00    -0.014 A 
BRANCH  39  40
ATOM     40  C   UNL A   1      37.654  32.208  31.332  1.00  0.00     0.031 A 
ATOM     41  C   UNL A   1      38.242  32.730  32.615  1.00  0.00     0.074 A 
ATOM     42  C   UNL A   1      38.235  31.172  30.694  1.00  0.00     0.049 A 
ATOM     43  N   UNL A   1      39.286  32.303  33.275  1.00  0.00    -0.248 NA
ATOM     44  C   UNL A   1      37.589  33.903  33.219  1.00  0.00     0.031 C 
ATOM     45  C   UNL A   1      37.814  30.631  29.399  1.00  0.00     0.029 A 
ATOM     46  N   UNL A   1      39.323  30.407  31.033  1.00  0.00    -0.354 N 
ATOM     47  C   UNL A   1      39.439  33.174  34.346  1.00  0.00     0.074 A 
ATOM     48  C   UNL A   1      38.401  34.175  34.230  1.00  0.00     0.031 C 
ATOM     49  C   UNL A   1      38.631  29.623  29.056  1.00  0.00     0.029 A 
ATOM     50  C   UNL A   1      39.648  29.460  30.090  1.00  0.00     0.049 A 
ATOM     51  H   UNL A   1      39.823  30.525  31.872  1.00  0.00     0.167 HD
ATOM     52  C   UNL A   1      40.341  33.128  35.355  1.00  0.00     0.034 A 
ATOM     53  C   UNL A   1      40.654  28.562  30.061  1.00  0.00     0.034 A 
ATOM     54  C   UNL A   1      41.335  32.100  35.498  1.00  0.00     0.049 A 
ATOM     55  C   UNL A   1      41.604  28.494  31.227  1.00  0.00     0.074 A 
ATOM     56  C   UNL A   1      42.232  31.909  36.535  1.00  0.00     0.029 A 
ATOM     57  N   UNL A   1      41.566  31.091  34.577  1.00  0.00    -0.354 N 
ATOM     58  N   UNL A   1      41.626  29.223  32.316  1.00  0.00    -0.248 NA
ATOM     59  C   UNL A   1      42.644  27.456  31.178  1.00  0.00     0.031 C 
ATOM     60  C   UNL A   1      43.014  30.789  36.233  1.00  0.00     0.029 A 
ATOM     61  C   UNL A   1      42.592  30.273  35.018  1.00  0.00     0.049 A 
ATOM     62  H   UNL A   1      41.073  30.972  33.734  1.00  0.00     0.167 HD
ATOM     63  C   UNL A   1      42.653  28.707  33.099  1.00  0.00     0.074 A 
ATOM     64  C   UNL A   1      43.217  27.592  32.366  1.00  0.00     0.031 C 
ATOM     65  C   UNL A   1      43.100  29.128  34.307  1.00  0.00     0.034 A 
BRANCH  52  66
ATOM     66  C   UNL A   1      40.251  34.185  36.423  1.00  0.00     0.023 A 
ATOM     67  C   UNL A   1      40.635  35.508  36.122  1.00  0.00     0.012 A 
ATOM     68  C   UNL A   1      39.732  33.889  37.699  1.00  0.00     0.148 A 
ATOM     69  C   UNL A   1      40.536  36.514  37.082  1.00  0.00     0.002 A 
ATOM     70  C   UNL A   1      39.595  34.907  38.637  1.00  0.00     0.091 A 
ATOM     71  F   UNL A   1      39.393  32.622  37.974  1.00  0.00    -0.205 F 
ATOM     72  C   UNL A   1      40.007  36.215  38.334  1.00  0.00     0.022 A 
BRANCH  70  73
ATOM     73  S   UNL A   1      38.855  34.642  40.252  1.00  0.00     0.127 S 
ATOM     74  O   UNL A   1      37.671  33.856  39.909  1.00  0.00    -0.237 OA
ATOM     75  O   UNL A   1      39.900  33.894  40.951  1.00  0.00    -0.237 OA
ATOM     76  O   UNL A   1      38.592  35.967  40.794  1.00  0.00    -0.744 OA
ENDBRANCH  70  73
ENDBRANCH  52  66
BRANCH  53  77
ATOM     77  C   UNL A   1      40.766  27.603  28.926  1.00  0.00     0.023 A 
ATOM     78  C   UNL A   1      39.888  26.503  28.865  1.00  0.00     0.012 A 
ATOM     79  C   UNL A   1      41.710  27.785  27.897  1.00  0.00     0.148 A 
ATOM     80  C   UNL A   1      39.972  25.582  27.820  1.00  0.00     0.002 A 
ATOM     81  C   UNL A   1      41.752  26.894  26.831  1.00  0.00     0.091 A 
ATOM     82  F   UNL A   1      42.545  28.830  27.979  1.00  0.00    -0.205 F 
ATOM     83  C   UNL A   1      40.896  25.782  26.799  1.00  0.00     0.022 A 
BRANCH  81  84
ATOM     84  S   UNL A   1      42.817  27.152  25.408  1.00  0.00     0.127 S 
ATOM     85  O   UNL A   1      42.218  28.335  24.795  1.00  0.00    -0.237 OA
ATOM     86  O   UNL A   1      44.118  27.376  26.039  1.00  0.00    -0.237 OA
ATOM     87  O   UNL A   1      42.735  25.921  24.632  1.00  0.00    -0.744 OA
ENDBRANCH  81  84
ENDBRANCH  53  77
BRANCH  65  88
ATOM     88  C   UNL A   1      44.230  28.364  34.942  1.00  0.00     0.023 A 
ATOM     89  C   UNL A   1      45.557  28.621  34.546  1.00  0.00     0.012 A 
ATOM     90  C   UNL A   1      43.983  27.454  35.988  1.00  0.00     0.148 A 
ATOM     91  C   UNL A   1      46.620  27.963  35.164  1.00  0.00     0.002 A 
ATOM     92  C   UNL A   1      45.049  26.838  36.631  1.00  0.00     0.091 A 
ATOM     93  F   UNL A   1      42.711  27.209  36.337  1.00  0.00    -0.205 F 
ATOM     94  C   UNL A   1      46.368  27.082  36.213  1.00  0.00     0.022 A 
BRANCH  92  95
ATOM     95  S   UNL A   1      44.822  25.765  38.054  1.00  0.00     0.127 S 
ATOM     96  O   UNL A   1      44.464  24.498  37.419  1.00  0.00    -0.237 OA
ATOM     97  O   UNL A   1      46.148  25.783  38.674  1.00  0.00    -0.237 OA
ATOM     98  O   UNL A   1      43.774  26.381  38.857  1.00  0.00    -0.744 OA
ENDBRANCH  92  95
ENDBRANCH  65  88
ENDBRANCH  39  40
ENDBRANCH  31  34
ENDBRANCH  29  30
ENDBRANCH  28  29
ENDBRANCH   1  28
TORSDOF 19
ENDMDL
MODEL 2
REMARK VINA RESULT:     -12.2      3.417      4.626
REMARK SMILES N#C/C(=C\c1ccc(Oc2ccccc2Cl)c([N+](=O)[O-])c1)C(=O)NCCCCNC(=O)c1ccc(-c2c3nc(c(-c4cccc(S(=O)(=O)[O-])c4F)c4ccc([nH]4)c(-c4cccc(S(=O)(=O)[O-])c4F)c4nc(c(-c5cccc(S(=O)(=O)[O-])c5F)c5ccc2[nH]5)C=C4)C=C3)cc1
REMARK SMILES IDX 26 1 25 2 24 3 22 4 23 5 3 7 4 8 2 9 1 10 5 11 6 12 21 13
REMARK SMILES IDX 7 14 17 15 8 16 18 17 19 18 20 19 9 20 10 21 11 22 15 23
REMARK SMILES IDX 12 24 14 25 16 26 13 27 27 28 28 29 29 30 30 31 31 33 32 34
REMARK SMILES IDX 33 35 94 36 34 37 93 38 35 39 36 40 37 41 87 42 38 43 92 44
REMARK SMILES IDX 86 45 88 46 39 47 91 48 85 49 84 50 40 52 72 53 52 54 71 55
REMARK SMILES IDX 53 56 56 57 70 58 89 59 54 60 55 61 69 63 90 64 57 65 41 66
REMARK SMILES IDX 42 67 50 68 43 69 45 70 51 71 44 72 46 73 47 74 48 75 49 76
REMARK SMILES IDX 73 77 74 78 82 79 75 80 77 81 83 82 76 83 78 84 79 85 80 86
REMARK SMILES IDX 81 87 58 88 59 89 67 90 60 91 62 92 68 93 61 94 63 95 64 96
REMARK SMILES IDX 65 97 66 98
REMARK H PARENT 24 6 29 32 88 51 56 62
REMARK Flexibility Score: inf
ROOT
ATOM      1  C   UNL A   1      31.652  29.746  25.351  1.00  0.00     0.023 C 
ENDROOT
BRANCH   1   2
ATOM      2  C   UNL A   1      31.202  29.180  24.000  1.00  0.00     0.116 C 
BRANCH   2   3
ATOM      3  N   UNL A   1      32.315  29.040  23.082  1.00  0.00    -0.351 N 
ATOM      4  C   UNL A   1      33.068  27.973  22.695  1.00  0.00     0.261 C 
ATOM      5  O   UNL A   1      33.921  28.173  21.829  1.00  0.00    -0.268 OA
ATOM      6  H   UNL A   1      32.581  29.885  22.653  1.00  0.00     0.163 HD
BRANCH   4   7
ATOM      7  C   UNL A   1      32.908  26.599  23.252  1.00  0.00     0.117 C 
ATOM      8  C   UNL A   1      31.930  25.699  22.980  1.00  0.00     0.033 C 
BRANCH   7   9
ATOM      9  C   UNL A   1      33.817  26.227  24.412  1.00  0.00     0.105 C 
ATOM     10  N   UNL A   1      34.572  25.919  25.374  1.00  0.00    -0.192 NA
ENDBRANCH   7   9
BRANCH   8  11
ATOM     11  C   UNL A   1      31.781  24.371  23.619  1.00  0.00    -0.017 A 
ATOM     12  C   UNL A   1      32.203  23.224  22.943  1.00  0.00     0.012 A 
ATOM     13  C   UNL A   1      31.258  24.225  24.907  1.00  0.00     0.098 A 
ATOM     14  C   UNL A   1      32.130  21.965  23.560  1.00  0.00     0.055 A 
ATOM     15  C   UNL A   1      31.275  22.973  25.548  1.00  0.00     0.312 A 
ATOM     16  C   UNL A   1      31.674  21.812  24.881  1.00  0.00     0.204 A 
BRANCH  15  17
ATOM     17  N   UNL A   1      30.972  23.023  26.963  1.00  0.00     0.066 N 
ATOM     18  O   UNL A   1      29.863  23.468  27.286  1.00  0.00    -0.258 OA
ATOM     19  O   UNL A   1      31.816  22.549  27.736  1.00  0.00    -0.258 OA
ENDBRANCH  15  17
BRANCH  16  20
ATOM     20  O   UNL A   1      31.699  20.495  25.289  1.00  0.00    -0.449 OA
BRANCH  20  21
ATOM     21  C   UNL A   1      32.746  19.677  24.954  1.00  0.00     0.146 A 
ATOM     22  C   UNL A   1      32.425  18.502  24.268  1.00  0.00     0.049 A 
ATOM     23  C   UNL A   1      34.074  19.945  25.306  1.00  0.00     0.083 A 
ATOM     24  C   UNL A   1      33.440  17.652  23.833  1.00  0.00     0.004 A 
ATOM     25  C   UNL A   1      35.089  19.101  24.850  1.00  0.00     0.024 A 
ATOM     26  Cl  UNL A   1      34.502  21.316  26.261  1.00  0.00    -0.080 Cl
ATOM     27  C   UNL A   1      34.772  17.964  24.101  1.00  0.00     0.002 A 
ENDBRANCH  20  21
ENDBRANCH  16  20
ENDBRANCH   8  11
ENDBRANCH   4   7
ENDBRANCH   2   3
ENDBRANCH   1   2
BRANCH   1  28
ATOM     28  C   UNL A   1      32.209  28.705  26.327  1.00  0.00     0.023 C 
BRANCH  28  29
ATOM     29  C   UNL A   1      33.476  29.128  27.063  1.00  0.00     0.116 C 
BRANCH  29  30
ATOM     30  N   UNL A   1      33.475  30.524  27.473  1.00  0.00    -0.352 N 
ATOM     31  C   UNL A   1      34.464  31.202  28.152  1.00  0.00     0.251 C 
ATOM     32  H   UNL A   1      32.673  31.046  27.239  1.00  0.00     0.163 HD
ATOM     33  O   UNL A   1      34.290  32.356  28.515  1.00  0.00    -0.269 OA
BRANCH  31  34
ATOM     34  C   UNL A   1      35.716  30.487  28.473  1.00  0.00     0.039 A 
ATOM     35  C   UNL A   1      36.817  30.641  27.627  1.00  0.00     0.014 A 
ATOM     36  C   UNL A   1      35.819  29.732  29.644  1.00  0.00     0.014 A 
ATOM     37  C   UNL A   1      38.046  30.092  27.995  1.00  0.00     0.010 A 
ATOM     38  C   UNL A   1      37.060  29.249  30.041  1.00  0.00     0.010 A 
ATOM     39  C   UNL A   1      38.186  29.425  29.223  1.00  0.00    -0.014 A 
BRANCH  39  40
ATOM     40  C   UNL A   1      39.504  28.919  29.682  1.00  0.00     0.031 A 
ATOM     41  C   UNL A   1      40.240  29.626  30.788  1.00  0.00     0.074 A 
ATOM     42  C   UNL A   1      40.083  27.888  29.035  1.00  0.00     0.049 A 
ATOM     43  N   UNL A   1      41.425  29.378  31.277  1.00  0.00    -0.248 NA
ATOM     44  C   UNL A   1      39.567  30.782  31.404  1.00  0.00     0.031 C 
ATOM     45  C   UNL A   1      39.510  27.178  27.889  1.00  0.00     0.029 A 
ATOM     46  N   UNL A   1      41.296  27.277  29.229  1.00  0.00    -0.354 N 
ATOM     47  C   UNL A   1      41.658  30.365  32.226  1.00  0.00     0.074 A 
ATOM     48  C   UNL A   1      40.505  31.237  32.222  1.00  0.00     0.031 C 
ATOM     49  C   UNL A   1      40.369  26.229  27.485  1.00  0.00     0.029 A 
ATOM     50  C   UNL A   1      41.562  26.277  28.323  1.00  0.00     0.049 A 
ATOM     51  H   UNL A   1      41.918  27.531  29.949  1.00  0.00     0.167 HD
ATOM     52  C   UNL A   1      42.721  30.514  33.052  1.00  0.00     0.034 A 
ATOM     53  C   UNL A   1      42.647  25.488  28.182  1.00  0.00     0.034 A 
ATOM     54  C   UNL A   1      43.840  29.612  33.092  1.00  0.00     0.049 A 
ATOM     55  C   UNL A   1      43.787  25.636  29.155  1.00  0.00     0.074 A 
ATOM     56  C   UNL A   1      44.920  29.620  33.958  1.00  0.00     0.029 A 
ATOM     57  N   UNL A   1      44.025  28.543  32.230  1.00  0.00    -0.354 N 
ATOM     58  N   UNL A   1      43.911  26.470  30.158  1.00  0.00    -0.248 NA
ATOM     59  C   UNL A   1      44.918  24.710  29.000  1.00  0.00     0.031 C 
ATOM     60  C   UNL A   1      45.765  28.561  33.610  1.00  0.00     0.029 A 
ATOM     61  C   UNL A   1      45.202  27.884  32.540  1.00  0.00     0.049 A 
ATOM     62  H   UNL A   1      43.410  28.289  31.505  1.00  0.00     0.167 HD
ATOM     63  C   UNL A   1      45.113  26.145  30.778  1.00  0.00     0.074 A 
ATOM     64  C   UNL A   1      45.669  25.024  30.047  1.00  0.00     0.031 C 
ATOM     65  C   UNL A   1      45.710  26.730  31.843  1.00  0.00     0.034 A 
BRANCH  52  66
ATOM     66  C   UNL A   1      42.694  31.660  34.028  1.00  0.00     0.023 A 
ATOM     67  C   UNL A   1      43.181  32.921  33.629  1.00  0.00     0.012 A 
ATOM     68  C   UNL A   1      42.135  31.509  35.312  1.00  0.00     0.148 A 
ATOM     69  C   UNL A   1      43.142  34.008  34.501  1.00  0.00     0.002 A 
ATOM     70  C   UNL A   1      42.060  32.608  36.161  1.00  0.00     0.091 A 
ATOM     71  F   UNL A   1      41.697  30.297  35.682  1.00  0.00    -0.205 F 
ATOM     72  C   UNL A   1      42.573  33.853  35.761  1.00  0.00     0.022 A 
BRANCH  70  73
ATOM     73  S   UNL A   1      41.277  32.533  37.776  1.00  0.00     0.127 S 
ATOM     74  O   UNL A   1      39.941  32.049  37.434  1.00  0.00    -0.237 OA
ATOM     75  O   UNL A   1      42.114  31.561  38.479  1.00  0.00    -0.237 OA
ATOM     76  O   UNL A   1      41.335  33.885  38.313  1.00  0.00    -0.744 OA
ENDBRANCH  70  73
ENDBRANCH  52  66
BRANCH  53  77
ATOM     77  C   UNL A   1      42.672  24.434  27.129  1.00  0.00     0.023 A 
ATOM     78  C   UNL A   1      43.357  24.683  25.924  1.00  0.00     0.012 A 
ATOM     79  C   UNL A   1      42.049  23.186  27.319  1.00  0.00     0.148 A 
ATOM     80  C   UNL A   1      43.392  23.721  24.913  1.00  0.00     0.002 A 
ATOM     81  C   UNL A   1      42.134  22.212  26.330  1.00  0.00     0.091 A 
ATOM     82  F   UNL A   1      41.390  22.973  28.467  1.00  0.00    -0.205 F 
ATOM     83  C   UNL A   1      42.790  22.483  25.120  1.00  0.00     0.022 A 
BRANCH  81  84
ATOM     84  S   UNL A   1      41.503  20.548  26.569  1.00  0.00     0.127 S 
ATOM     85  O   UNL A   1      40.068  20.741  26.382  1.00  0.00    -0.237 OA
ATOM     86  O   UNL A   1      42.172  19.812  25.496  1.00  0.00    -0.237 OA
ATOM     87  O   UNL A   1      41.925  20.161  27.910  1.00  0.00    -0.744 OA
ENDBRANCH  81  84
ENDBRANCH  53  77
BRANCH  65  88
ATOM     88  C   UNL A   1      47.016  26.153  32.320  1.00  0.00     0.023 A 
ATOM     89  C   UNL A   1      47.031  25.267  33.414  1.00  0.00     0.012 A 
ATOM     90  C   UNL A   1      48.215  26.424  31.631  1.00  0.00     0.148 A 
ATOM     91  C   UNL A   1      48.224  24.679  33.833  1.00  0.00     0.002 A 
ATOM     92  C   UNL A   1      49.391  25.799  32.024  1.00  0.00     0.091 A 
ATOM     93  F   UNL A   1      48.182  27.286  30.604  1.00  0.00    -0.205 F 
ATOM     94  C   UNL A   1      49.400  24.934  33.131  1.00  0.00     0.022 A 
BRANCH  92  95
ATOM     95  S   UNL A   1      50.931  25.994  31.119  1.00  0.00     0.127 S 
ATOM     96  O   UNL A   1      51.282  27.380  31.423  1.00  0.00    -0.237 OA
ATOM     97  O   UNL A   1      51.793  24.994  31.751  1.00  0.00    -0.237 OA
ATOM     98  O   UNL A   1      50.613  25.720  29.725  1.00  0.00    -0.744 OA
ENDBRANCH  92  95
ENDBRANCH  65  88
ENDBRANCH  39  40
ENDBRANCH  31  34
ENDBRANCH  29  30
ENDBRANCH  28  29
ENDBRANCH   1  28
TORSDOF 19
ENDMDL
MODEL 3
REMARK VINA RESULT:     -12.1      0.662      7.574
REMARK SMILES N#C/C(=C\c1ccc(Oc2ccccc2Cl)c([N+](=O)[O-])c1)C(=O)NCCCCNC(=O)c1ccc(-c2c3nc(c(-c4cccc(S(=O)(=O)[O-])c4F)c4ccc([nH]4)c(-c4cccc(S(=O)(=O)[O-])c4F)c4nc(c(-c5cccc(S(=O)(=O)[O-])c5F)c5ccc2[nH]5)C=C4)C=C3)cc1
REMARK SMILES IDX 26 1 25 2 24 3 22 4 23 5 3 7 4 8 2 9 1 10 5 11 6 12 21 13
REMARK SMILES IDX 7 14 17 15 8 16 18 17 19 18 20 19 9 20 10 21 11 22 15 23
REMARK SMILES IDX 12 24 14 25 16 26 13 27 27 28 28 29 29 30 30 31 31 33 32 34
REMARK SMILES IDX 33 35 94 36 34 37 93 38 35 39 36 40 37 41 87 42 38 43 92 44
REMARK SMILES IDX 86 45 88 46 39 47 91 48 85 49 84 50 40 52 72 53 52 54 71 55
REMARK SMILES IDX 53 56 56 57 70 58 89 59 54 60 55 61 69 63 90 64 57 65 41 66
REMARK SMILES IDX 42 67 50 68 43 69 45 70 51 71 44 72 46 73 47 74 48 75 49 76
REMARK SMILES IDX 73 77 74 78 82 79 75 80 77 81 83 82 76 83 78 84 79 85 80 86
REMARK SMILES IDX 81 87 58 88 59 89 67 90 60 91 62 92 68 93 61 94 63 95 64 96
REMARK SMILES IDX 65 97 66 98
REMARK H PARENT 24 6 29 32 88 51 56 62
REMARK Flexibility Score: inf
ROOT
ATOM      1  C   UNL A   1      32.200  30.214  26.679  1.00  0.00     0.023 C 
ENDROOT
BRANCH   1   2
ATOM      2  C   UNL A   1      31.782  29.590  25.344  1.00  0.00     0.116 C 
BRANCH   2   3
ATOM      3  N   UNL A   1      32.871  29.594  24.387  1.00  0.00    -0.351 N 
ATOM      4  C   UNL A   1      33.564  28.599  23.768  1.00  0.00     0.261 C 
ATOM      5  O   UNL A   1      34.411  28.936  22.940  1.00  0.00    -0.268 OA
ATOM      6  H   UNL A   1      33.170  30.497  24.134  1.00  0.00     0.163 HD
BRANCH   4   7
ATOM      7  C   UNL A   1      33.347  27.147  24.035  1.00  0.00     0.117 C 
ATOM      8  C   UNL A   1      33.582  26.469  25.186  1.00  0.00     0.033 C 
BRANCH   7   9
ATOM      9  C   UNL A   1      33.025  26.277  22.831  1.00  0.00     0.105 C 
ATOM     10  N   UNL A   1      32.758  25.555  21.833  1.00  0.00    -0.192 NA
ENDBRANCH   7   9
BRANCH   8  11
ATOM     11  C   UNL A   1      33.416  25.008  25.373  1.00  0.00    -0.017 A 
ATOM     12  C   UNL A   1      32.134  24.465  25.485  1.00  0.00     0.012 A 
ATOM     13  C   UNL A   1      34.509  24.138  25.407  1.00  0.00     0.098 A 
ATOM     14  C   UNL A   1      31.955  23.077  25.596  1.00  0.00     0.055 A 
ATOM     15  C   UNL A   1      34.314  22.746  25.426  1.00  0.00     0.312 A 
ATOM     16  C   UNL A   1      33.042  22.184  25.558  1.00  0.00     0.204 A 
BRANCH  15  17
ATOM     17  N   UNL A   1      35.511  21.972  25.172  1.00  0.00     0.066 N 
ATOM     18  O   UNL A   1      36.109  21.520  26.157  1.00  0.00    -0.258 OA
ATOM     19  O   UNL A   1      35.804  21.760  23.987  1.00  0.00    -0.258 OA
ENDBRANCH  15  17
BRANCH  16  20
ATOM     20  O   UNL A   1      32.637  20.870  25.670  1.00  0.00    -0.449 OA
BRANCH  20  21
ATOM     21  C   UNL A   1      32.500  20.082  24.558  1.00  0.00     0.146 A 
ATOM     22  C   UNL A   1      32.210  20.739  23.359  1.00  0.00     0.049 A 
ATOM     23  C   UNL A   1      32.590  18.685  24.590  1.00  0.00     0.083 A 
ATOM     24  C   UNL A   1      32.123  20.014  22.172  1.00  0.00     0.004 A 
ATOM     25  C   UNL A   1      32.523  17.965  23.395  1.00  0.00     0.024 A 
ATOM     26  Cl  UNL A   1      32.820  17.823  26.066  1.00  0.00    -0.080 Cl
ATOM     27  C   UNL A   1      32.305  18.631  22.186  1.00  0.00     0.002 A 
ENDBRANCH  20  21
ENDBRANCH  16  20
ENDBRANCH   8  11
ENDBRANCH   4   7
ENDBRANCH   2   3
ENDBRANCH   1   2
BRANCH   1  28
ATOM     28  C   UNL A   1      31.847  31.696  26.830  1.00  0.00     0.023 C 
BRANCH  28  29
ATOM     29  C   UNL A   1      32.928  32.552  27.482  1.00  0.00     0.116 C 
BRANCH  29  30
ATOM     30  N   UNL A   1      32.532  33.936  27.690  1.00  0.00    -0.352 N 
ATOM     31  C   UNL A   1      33.077  34.844  28.571  1.00  0.00     0.251 C 
ATOM     32  H   UNL A   1      31.785  34.263  27.137  1.00  0.00     0.163 HD
ATOM     33  O   UNL A   1      32.581  35.953  28.708  1.00  0.00    -0.269 OA
BRANCH  31  34
ATOM     34  C   UNL A   1      34.241  34.429  29.382  1.00  0.00     0.039 A 
ATOM     35  C   UNL A   1      34.019  33.836  30.627  1.00  0.00     0.014 A 
ATOM     36  C   UNL A   1      35.536  34.558  28.877  1.00  0.00     0.014 A 
ATOM     37  C   UNL A   1      35.097  33.307  31.337  1.00  0.00     0.010 A 
ATOM     38  C   UNL A   1      36.598  33.968  29.553  1.00  0.00     0.010 A 
ATOM     39  C   UNL A   1      36.390  33.335  30.787  1.00  0.00    -0.014 A 
BRANCH  39  40
ATOM     40  C   UNL A   1      37.536  32.692  31.476  1.00  0.00     0.031 A 
ATOM     41  C   UNL A   1      38.252  31.536  30.832  1.00  0.00     0.074 A 
ATOM     42  C   UNL A   1      37.865  33.081  32.725  1.00  0.00     0.049 A 
ATOM     43  N   UNL A   1      39.226  30.804  31.304  1.00  0.00    -0.248 NA
ATOM     44  C   UNL A   1      37.794  31.132  29.492  1.00  0.00     0.031 C 
ATOM     45  C   UNL A   1      37.187  34.128  33.492  1.00  0.00     0.029 A 
ATOM     46  N   UNL A   1      38.834  32.619  33.580  1.00  0.00    -0.354 N 
ATOM     47  C   UNL A   1      39.470  29.832  30.343  1.00  0.00     0.074 A 
ATOM     48  C   UNL A   1      38.521  30.045  29.274  1.00  0.00     0.031 C 
ATOM     49  C   UNL A   1      37.762  34.230  34.701  1.00  0.00     0.029 A 
ATOM     50  C   UNL A   1      38.830  33.242  34.807  1.00  0.00     0.049 A 
ATOM     51  H   UNL A   1      39.472  31.909  33.338  1.00  0.00     0.167 HD
ATOM     52  C   UNL A   1      40.421  28.867  30.335  1.00  0.00     0.034 A 
ATOM     53  C   UNL A   1      39.600  33.038  35.895  1.00  0.00     0.034 A 
ATOM     54  C   UNL A   1      41.400  28.695  31.374  1.00  0.00     0.049 A 
ATOM     55  C   UNL A   1      40.690  32.001  35.833  1.00  0.00     0.074 A 
ATOM     56  C   UNL A   1      42.464  27.811  31.414  1.00  0.00     0.029 A 
ATOM     57  N   UNL A   1      41.433  29.417  32.556  1.00  0.00    -0.354 N 
ATOM     58  N   UNL A   1      41.014  31.204  34.844  1.00  0.00    -0.248 NA
ATOM     59  C   UNL A   1      41.544  31.862  37.021  1.00  0.00     0.031 C 
ATOM     60  C   UNL A   1      43.135  27.992  32.628  1.00  0.00     0.029 A 
ATOM     61  C   UNL A   1      42.498  29.000  33.335  1.00  0.00     0.049 A 
ATOM     62  H   UNL A   1      40.794  30.123  32.805  1.00  0.00     0.167 HD
ATOM     63  C   UNL A   1      42.132  30.497  35.275  1.00  0.00     0.074 A 
ATOM     64  C   UNL A   1      42.440  30.976  36.607  1.00  0.00     0.031 C 
ATOM     65  C   UNL A   1      42.829  29.530  34.633  1.00  0.00     0.034 A 
BRANCH  52  66
ATOM     66  C   UNL A   1      40.493  27.966  29.132  1.00  0.00     0.023 A 
ATOM     67  C   UNL A   1      39.590  26.888  29.019  1.00  0.00     0.012 A 
ATOM     68  C   UNL A   1      41.404  28.216  28.087  1.00  0.00     0.148 A 
ATOM     69  C   UNL A   1      39.614  26.054  27.903  1.00  0.00     0.002 A 
ATOM     70  C   UNL A   1      41.392  27.405  26.957  1.00  0.00     0.091 A 
ATOM     71  F   UNL A   1      42.269  29.231  28.222  1.00  0.00    -0.205 F 
ATOM     72  C   UNL A   1      40.507  26.319  26.869  1.00  0.00     0.022 A 
BRANCH  70  73
ATOM     73  S   UNL A   1      42.450  27.707  25.538  1.00  0.00     0.127 S 
ATOM     74  O   UNL A   1      41.907  28.965  25.028  1.00  0.00    -0.237 OA
ATOM     75  O   UNL A   1      43.771  27.821  26.156  1.00  0.00    -0.237 OA
ATOM     76  O   UNL A   1      42.287  26.555  24.663  1.00  0.00    -0.744 OA
ENDBRANCH  70  73
ENDBRANCH  52  66
BRANCH  53  77
ATOM     77  C   UNL A   1      39.420  33.887  37.106  1.00  0.00     0.023 A 
ATOM     78  C   UNL A   1      39.877  35.219  37.086  1.00  0.00     0.012 A 
ATOM     79  C   UNL A   1      38.780  33.399  38.261  1.00  0.00     0.148 A 
ATOM     80  C   UNL A   1      39.732  36.039  38.206  1.00  0.00     0.002 A 
ATOM     81  C   UNL A   1      38.590  34.237  39.354  1.00  0.00     0.091 A 
ATOM     82  F   UNL A   1      38.364  32.124  38.266  1.00  0.00    -0.205 F 
ATOM     83  C   UNL A   1      39.080  35.551  39.336  1.00  0.00     0.022 A 
BRANCH  81  84
ATOM     84  S   UNL A   1      37.643  33.732  40.794  1.00  0.00     0.127 S 
ATOM     85  O   UNL A   1      37.486  34.997  41.508  1.00  0.00    -0.237 OA
ATOM     86  O   UNL A   1      36.419  33.210  40.186  1.00  0.00    -0.237 OA
ATOM     87  O   UNL A   1      38.456  32.722  41.459  1.00  0.00    -0.744 OA
ENDBRANCH  81  84
ENDBRANCH  53  77
BRANCH  65  88
ATOM     88  C   UNL A   1      44.023  28.942  35.337  1.00  0.00     0.023 A 
ATOM     89  C   UNL A   1      45.294  29.525  35.164  1.00  0.00     0.012 A 
ATOM     90  C   UNL A   1      43.871  27.866  36.233  1.00  0.00     0.148 A 
ATOM     91  C   UNL A   1      46.400  29.029  35.853  1.00  0.00     0.002 A 
ATOM     92  C   UNL A   1      44.968  27.407  36.951  1.00  0.00     0.091 A 
ATOM     93  F   UNL A   1      42.656  27.313  36.368  1.00  0.00    -0.205 F 
ATOM     94  C   UNL A   1      46.235  27.980  36.755  1.00  0.00     0.022 A 
BRANCH  92  95
ATOM     95  S   UNL A   1      44.828  26.127  38.203  1.00  0.00     0.127 S 
ATOM     96  O   UNL A   1      43.572  26.486  38.859  1.00  0.00    -0.237 OA
ATOM     97  O   UNL A   1      44.768  24.907  37.397  1.00  0.00    -0.237 OA
ATOM     98  O   UNL A   1      46.022  26.243  39.030  1.00  0.00    -0.744 OA
ENDBRANCH  92  95
ENDBRANCH  65  88
ENDBRANCH  39  40
ENDBRANCH  31  34
ENDBRANCH  29  30
ENDBRANCH  28  29
ENDBRANCH   1  28
TORSDOF 19
ENDMDL
