MODEL 1
REMARK VINA RESULT:     -11.4      0.000      0.000
REMARK SMILES C[C@H]1CC=C(C2=NN=C(C(=O)NCCCCNC(=O)c3ccc(-c4c5nc(c(-c6cccc(S(=O)(=O)[O-])c6F)c6ccc([nH]6)c(-c6cccc(S(=O)(=O)[O-])c6F)c6nc(c(-c7cccc(S(=O)(=O)[O-])c7F)c7ccc4[nH]7)C=C6)C=C5)cc3)C2)O1
REMARK SMILES IDX 15 1 14 2 13 3 12 4 10 5 11 6 9 8 6 9 7 10 83 11 8 12 5 13
REMARK SMILES IDX 1 14 2 15 3 16 84 17 4 18 16 19 17 20 18 21 19 23 20 24
REMARK SMILES IDX 21 25 82 26 22 27 81 28 23 29 24 30 25 31 75 32 26 33 80 34
REMARK SMILES IDX 74 35 76 36 27 37 79 38 73 39 72 40 28 42 60 43 40 44 59 45
REMARK SMILES IDX 41 46 44 47 58 48 77 49 42 50 43 51 57 53 78 54 45 55 29 56
REMARK SMILES IDX 30 57 38 58 31 59 33 60 39 61 32 62 34 63 35 64 36 65 37 66
REMARK SMILES IDX 61 67 62 68 70 69 63 70 65 71 71 72 64 73 66 74 67 75 68 76
REMARK SMILES IDX 69 77 46 78 47 79 55 80 48 81 50 82 56 83 49 84 51 85 52 86
REMARK SMILES IDX 53 87 54 88
REMARK H PARENT 12 7 17 22 76 41 44 52
REMARK Flexibility Score: inf
ROOT
ATOM      1  C   UNL A   1      34.527  35.008  27.960  1.00  0.00     0.023 C 
ENDROOT
BRANCH   1   2
ATOM      2  C   UNL A   1      33.280  35.456  28.738  1.00  0.00     0.023 C 
BRANCH   2   3
ATOM      3  C   UNL A   1      33.432  36.753  29.542  1.00  0.00     0.116 C 
BRANCH   3   4
ATOM      4  N   UNL A   1      32.499  36.809  30.653  1.00  0.00    -0.351 N 
ATOM      5  C   UNL A   1      32.594  36.301  31.923  1.00  0.00     0.267 C 
ATOM      6  O   UNL A   1      31.636  36.351  32.688  1.00  0.00    -0.268 OA
ATOM      7  H   UNL A   1      31.661  37.291  30.462  1.00  0.00     0.163 HD
BRANCH   5   8
ATOM      8  C   UNL A   1      33.852  35.668  32.448  1.00  0.00     0.134 C 
ATOM      9  C   UNL A   1      35.419  34.142  32.888  1.00  0.00     0.111 C 
ATOM     10  N   UNL A   1      35.742  35.238  33.503  1.00  0.00    -0.151 NA
ATOM     11  C   UNL A   1      34.164  34.257  32.091  1.00  0.00     0.126 C 
ATOM     12  N   UNL A   1      34.751  36.222  33.204  1.00  0.00    -0.149 NA
BRANCH   9  13
ATOM     13  C   UNL A   1      36.160  32.876  32.940  1.00  0.00     0.139 C 
ATOM     14  C   UNL A   1      38.427  30.737  34.465  1.00  0.00     0.053 C 
ATOM     15  C   UNL A   1      37.863  31.486  33.268  1.00  0.00     0.174 C 
ATOM     16  C   UNL A   1      36.750  30.708  32.551  1.00  0.00     0.076 C 
ATOM     17  O   UNL A   1      37.318  32.755  33.697  1.00  0.00    -0.489 OA
ATOM     18  C   UNL A   1      35.788  31.793  32.264  1.00  0.00     0.025 C 
ENDBRANCH   9  13
ENDBRANCH   5   8
ENDBRANCH   3   4
ENDBRANCH   2   3
ENDBRANCH   1   2
BRANCH   1  19
ATOM     19  C   UNL A   1      35.245  33.798  28.546  1.00  0.00     0.116 C 
BRANCH  19  20
ATOM     20  N   UNL A   1      34.400  32.603  28.613  1.00  0.00    -0.352 N 
ATOM     21  C   UNL A   1      34.757  31.309  28.285  1.00  0.00     0.251 C 
ATOM     22  H   UNL A   1      33.476  32.737  28.927  1.00  0.00     0.163 HD
ATOM     23  O   UNL A   1      33.906  30.467  27.997  1.00  0.00    -0.269 OA
BRANCH  21  24
ATOM     24  C   UNL A   1      36.184  30.955  28.304  1.00  0.00     0.039 A 
ATOM     25  C   UNL A   1      37.127  31.712  29.005  1.00  0.00     0.014 A 
ATOM     26  C   UNL A   1      36.553  29.789  27.640  1.00  0.00     0.014 A 
ATOM     27  C   UNL A   1      38.429  31.227  29.104  1.00  0.00     0.010 A 
ATOM     28  C   UNL A   1      37.783  29.235  27.874  1.00  0.00     0.010 A 
ATOM     29  C   UNL A   1      38.743  29.972  28.556  1.00  0.00    -0.014 A 
BRANCH  29  30
ATOM     30  C   UNL A   1      40.042  29.355  28.788  1.00  0.00     0.031 A 
ATOM     31  C   UNL A   1      40.378  29.154  30.223  1.00  0.00     0.074 A 
ATOM     32  C   UNL A   1      40.796  28.825  27.799  1.00  0.00     0.049 A 
ATOM     33  N   UNL A   1      41.238  29.819  30.921  1.00  0.00    -0.248 NA
ATOM     34  C   UNL A   1      39.558  28.229  31.019  1.00  0.00     0.031 C 
ATOM     35  C   UNL A   1      40.450  28.654  26.382  1.00  0.00     0.029 A 
ATOM     36  N   UNL A   1      41.996  28.194  27.886  1.00  0.00    -0.354 N 
ATOM     37  C   UNL A   1      41.253  29.216  32.176  1.00  0.00     0.074 A 
ATOM     38  C   UNL A   1      40.063  28.410  32.242  1.00  0.00     0.031 C 
ATOM     39  C   UNL A   1      41.282  27.750  25.819  1.00  0.00     0.029 A 
ATOM     40  C   UNL A   1      42.324  27.426  26.773  1.00  0.00     0.049 A 
ATOM     41  H   UNL A   1      42.585  28.274  28.671  1.00  0.00     0.167 HD
ATOM     42  C   UNL A   1      42.379  29.227  32.944  1.00  0.00     0.034 A 
ATOM     43  C   UNL A   1      43.359  26.558  26.664  1.00  0.00     0.034 A 
ATOM     44  C   UNL A   1      43.350  30.160  32.423  1.00  0.00     0.049 A 
ATOM     45  C   UNL A   1      44.353  26.942  27.691  1.00  0.00     0.074 A 
ATOM     46  C   UNL A   1      43.365  31.516  32.158  1.00  0.00     0.029 A 
ATOM     47  N   UNL A   1      44.391  29.623  31.705  1.00  0.00    -0.354 N 
ATOM     48  N   UNL A   1      45.004  28.071  27.667  1.00  0.00    -0.248 NA
ATOM     49  C   UNL A   1      44.286  26.282  28.983  1.00  0.00     0.031 C 
ATOM     50  C   UNL A   1      44.084  31.636  30.932  1.00  0.00     0.029 A 
ATOM     51  C   UNL A   1      44.537  30.367  30.565  1.00  0.00     0.049 A 
ATOM     52  H   UNL A   1      44.935  28.844  31.964  1.00  0.00     0.167 HD
ATOM     53  C   UNL A   1      45.002  28.493  28.990  1.00  0.00     0.074 A 
ATOM     54  C   UNL A   1      44.649  27.304  29.765  1.00  0.00     0.031 C 
ATOM     55  C   UNL A   1      44.992  29.822  29.305  1.00  0.00     0.034 A 
BRANCH  42  56
ATOM     56  C   UNL A   1      42.797  28.149  33.920  1.00  0.00     0.023 A 
ATOM     57  C   UNL A   1      42.910  28.525  35.280  1.00  0.00     0.012 A 
ATOM     58  C   UNL A   1      43.350  26.901  33.557  1.00  0.00     0.148 A 
ATOM     59  C   UNL A   1      43.602  27.740  36.208  1.00  0.00     0.002 A 
ATOM     60  C   UNL A   1      43.972  26.088  34.500  1.00  0.00     0.091 A 
ATOM     61  F   UNL A   1      43.402  26.537  32.274  1.00  0.00    -0.205 F 
ATOM     62  C   UNL A   1      44.132  26.518  35.818  1.00  0.00     0.022 A 
BRANCH  60  63
ATOM     63  S   UNL A   1      44.641  24.476  34.066  1.00  0.00     0.127 S 
ATOM     64  O   UNL A   1      45.610  24.831  33.033  1.00  0.00    -0.237 OA
ATOM     65  O   UNL A   1      45.220  24.045  35.338  1.00  0.00    -0.237 OA
ATOM     66  O   UNL A   1      43.502  23.682  33.626  1.00  0.00    -0.744 OA
ENDBRANCH  60  63
ENDBRANCH  42  56
BRANCH  43  67
ATOM     67  C   UNL A   1      43.446  25.271  25.935  1.00  0.00     0.023 A 
ATOM     68  C   UNL A   1      44.523  25.036  25.057  1.00  0.00     0.012 A 
ATOM     69  C   UNL A   1      42.653  24.169  26.327  1.00  0.00     0.148 A 
ATOM     70  C   UNL A   1      44.827  23.742  24.616  1.00  0.00     0.002 A 
ATOM     71  C   UNL A   1      42.958  22.884  25.886  1.00  0.00     0.091 A 
ATOM     72  F   UNL A   1      41.662  24.369  27.206  1.00  0.00    -0.205 F 
ATOM     73  C   UNL A   1      44.053  22.665  25.040  1.00  0.00     0.022 A 
BRANCH  71  74
ATOM     74  S   UNL A   1      42.028  21.440  26.419  1.00  0.00     0.127 S 
ATOM     75  O   UNL A   1      42.352  21.380  27.844  1.00  0.00    -0.237 OA
ATOM     76  O   UNL A   1      40.655  21.839  26.120  1.00  0.00    -0.237 OA
ATOM     77  O   UNL A   1      42.545  20.322  25.640  1.00  0.00    -0.744 OA
ENDBRANCH  71  74
ENDBRANCH  43  67
BRANCH  55  78
ATOM     78  C   UNL A   1      45.245  30.820  28.202  1.00  0.00     0.023 A 
ATOM     79  C   UNL A   1      44.204  31.466  27.501  1.00  0.00     0.012 A 
ATOM     80  C   UNL A   1      46.567  31.241  27.992  1.00  0.00     0.148 A 
ATOM     81  C   UNL A   1      44.481  32.496  26.596  1.00  0.00     0.002 A 
ATOM     82  C   UNL A   1      46.835  32.296  27.129  1.00  0.00     0.091 A 
ATOM     83  F   UNL A   1      47.544  30.618  28.667  1.00  0.00    -0.205 F 
ATOM     84  C   UNL A   1      45.797  32.921  26.421  1.00  0.00     0.022 A 
BRANCH  82  85
ATOM     85  S   UNL A   1      48.490  32.966  26.959  1.00  0.00     0.127 S 
ATOM     86  O   UNL A   1      49.246  31.799  26.512  1.00  0.00    -0.237 OA
ATOM     87  O   UNL A   1      48.307  34.004  25.942  1.00  0.00    -0.237 OA
ATOM     88  O   UNL A   1      48.851  33.481  28.274  1.00  0.00    -0.744 OA
ENDBRANCH  82  85
ENDBRANCH  55  78
ENDBRANCH  29  30
ENDBRANCH  21  24
ENDBRANCH  19  20
ENDBRANCH   1  19
TORSDOF 15
ENDMDL
MODEL 2
REMARK VINA RESULT:     -11.4      4.325      9.739
REMARK SMILES C[C@H]1CC=C(C2=NN=C(C(=O)NCCCCNC(=O)c3ccc(-c4c5nc(c(-c6cccc(S(=O)(=O)[O-])c6F)c6ccc([nH]6)c(-c6cccc(S(=O)(=O)[O-])c6F)c6nc(c(-c7cccc(S(=O)(=O)[O-])c7F)c7ccc4[nH]7)C=C6)C=C5)cc3)C2)O1
REMARK SMILES IDX 15 1 14 2 13 3 12 4 10 5 11 6 9 8 6 9 7 10 83 11 8 12 5 13
REMARK SMILES IDX 1 14 2 15 3 16 84 17 4 18 16 19 17 20 18 21 19 23 20 24
REMARK SMILES IDX 21 25 82 26 22 27 81 28 23 29 24 30 25 31 75 32 26 33 80 34
REMARK SMILES IDX 74 35 76 36 27 37 79 38 73 39 72 40 28 42 60 43 40 44 59 45
REMARK SMILES IDX 41 46 44 47 58 48 77 49 42 50 43 51 57 53 78 54 45 55 29 56
REMARK SMILES IDX 30 57 38 58 31 59 33 60 39 61 32 62 34 63 35 64 36 65 37 66
REMARK SMILES IDX 61 67 62 68 70 69 63 70 65 71 71 72 64 73 66 74 67 75 68 76
REMARK SMILES IDX 69 77 46 78 47 79 55 80 48 81 50 82 56 83 49 84 51 85 52 86
REMARK SMILES IDX 53 87 54 88
REMARK H PARENT 12 7 17 22 76 41 44 52
REMARK Flexibility Score: inf
ROOT
ATOM      1  C   UNL A   1      39.347  20.847  25.505  1.00  0.00     0.023 C 
ENDROOT
BRANCH   1   2
ATOM      2  C   UNL A   1      39.031  22.184  26.192  1.00  0.00     0.023 C 
BRANCH   2   3
ATOM      3  C   UNL A   1      37.690  22.823  25.812  1.00  0.00     0.116 C 
BRANCH   3   4
ATOM      4  N   UNL A   1      37.545  22.954  24.374  1.00  0.00    -0.351 N 
ATOM      5  C   UNL A   1      36.419  23.010  23.593  1.00  0.00     0.267 C 
ATOM      6  O   UNL A   1      36.508  23.001  22.369  1.00  0.00    -0.268 OA
ATOM      7  H   UNL A   1      38.395  23.011  23.878  1.00  0.00     0.163 HD
BRANCH   5   8
ATOM      8  C   UNL A   1      35.036  23.090  24.175  1.00  0.00     0.134 C 
ATOM      9  C   UNL A   1      33.054  23.907  24.796  1.00  0.00     0.111 C 
ATOM     10  N   UNL A   1      33.144  22.690  25.238  1.00  0.00    -0.151 NA
ATOM     11  C   UNL A   1      34.249  24.345  24.020  1.00  0.00     0.126 C 
ATOM     12  N   UNL A   1      34.403  22.159  24.822  1.00  0.00    -0.149 NA
BRANCH   9  13
ATOM     13  C   UNL A   1      31.926  24.820  25.014  1.00  0.00     0.139 C 
ATOM     14  C   UNL A   1      29.106  26.498  23.886  1.00  0.00     0.053 C 
ATOM     15  C   UNL A   1      30.452  26.429  24.590  1.00  0.00     0.174 C 
ATOM     16  C   UNL A   1      30.329  26.056  26.074  1.00  0.00     0.076 C 
ATOM     17  O   UNL A   1      31.290  25.440  23.947  1.00  0.00    -0.489 OA
ATOM     18  C   UNL A   1      31.463  25.121  26.225  1.00  0.00     0.025 C 
ENDBRANCH   9  13
ENDBRANCH   5   8
ENDBRANCH   3   4
ENDBRANCH   2   3
ENDBRANCH   1   2
BRANCH   1  19
ATOM     19  C   UNL A   1      39.885  19.763  26.433  1.00  0.00     0.116 C 
BRANCH  19  20
ATOM     20  N   UNL A   1      41.109  19.133  25.934  1.00  0.00    -0.352 N 
ATOM     21  C   UNL A   1      42.315  19.750  25.661  1.00  0.00     0.251 C 
ATOM     22  H   UNL A   1      41.069  18.161  25.777  1.00  0.00     0.163 HD
ATOM     23  O   UNL A   1      43.132  19.240  24.895  1.00  0.00    -0.269 OA
BRANCH  21  24
ATOM     24  C   UNL A   1      42.605  21.030  26.322  1.00  0.00     0.039 A 
ATOM     25  C   UNL A   1      42.884  22.193  25.599  1.00  0.00     0.014 A 
ATOM     26  C   UNL A   1      42.531  21.052  27.713  1.00  0.00     0.014 A 
ATOM     27  C   UNL A   1      42.995  23.397  26.292  1.00  0.00     0.010 A 
ATOM     28  C   UNL A   1      42.477  22.252  28.370  1.00  0.00     0.010 A 
ATOM     29  C   UNL A   1      42.764  23.421  27.678  1.00  0.00    -0.014 A 
BRANCH  29  30
ATOM     30  C   UNL A   1      42.700  24.682  28.406  1.00  0.00     0.031 A 
ATOM     31  C   UNL A   1      41.446  25.452  28.190  1.00  0.00     0.074 A 
ATOM     32  C   UNL A   1      43.600  25.035  29.351  1.00  0.00     0.049 A 
ATOM     33  N   UNL A   1      41.308  26.534  27.499  1.00  0.00    -0.248 NA
ATOM     34  C   UNL A   1      40.174  24.876  28.649  1.00  0.00     0.031 C 
ATOM     35  C   UNL A   1      44.700  24.236  29.906  1.00  0.00     0.029 A 
ATOM     36  N   UNL A   1      43.632  26.154  30.122  1.00  0.00    -0.354 N 
ATOM     37  C   UNL A   1      39.979  26.917  27.658  1.00  0.00     0.074 A 
ATOM     38  C   UNL A   1      39.294  25.763  28.175  1.00  0.00     0.031 C 
ATOM     39  C   UNL A   1      45.108  24.778  31.075  1.00  0.00     0.029 A 
ATOM     40  C   UNL A   1      44.436  26.049  31.253  1.00  0.00     0.049 A 
ATOM     41  H   UNL A   1      43.129  26.970  29.899  1.00  0.00     0.167 HD
ATOM     42  C   UNL A   1      39.617  28.229  27.598  1.00  0.00     0.034 A 
ATOM     43  C   UNL A   1      44.509  26.933  32.279  1.00  0.00     0.034 A 
ATOM     44  C   UNL A   1      40.690  29.038  27.071  1.00  0.00     0.049 A 
ATOM     45  C   UNL A   1      44.015  28.230  31.766  1.00  0.00     0.074 A 
ATOM     46  C   UNL A   1      41.421  29.056  25.898  1.00  0.00     0.029 A 
ATOM     47  N   UNL A   1      41.428  29.751  27.985  1.00  0.00    -0.354 N 
ATOM     48  N   UNL A   1      44.629  28.911  30.839  1.00  0.00    -0.248 NA
ATOM     49  C   UNL A   1      42.609  28.543  31.951  1.00  0.00     0.031 C 
ATOM     50  C   UNL A   1      42.756  29.343  26.308  1.00  0.00     0.029 A 
ATOM     51  C   UNL A   1      42.750  29.567  27.687  1.00  0.00     0.049 A 
ATOM     52  H   UNL A   1      41.069  30.296  28.723  1.00  0.00     0.167 HD
ATOM     53  C   UNL A   1      43.604  29.368  30.020  1.00  0.00     0.074 A 
ATOM     54  C   UNL A   1      42.386  29.208  30.814  1.00  0.00     0.031 C 
ATOM     55  C   UNL A   1      43.802  29.549  28.681  1.00  0.00     0.034 A 
BRANCH  42  56
ATOM     56  C   UNL A   1      38.477  28.870  28.361  1.00  0.00     0.023 A 
ATOM     57  C   UNL A   1      37.575  29.666  27.615  1.00  0.00     0.012 A 
ATOM     58  C   UNL A   1      38.403  28.974  29.768  1.00  0.00     0.148 A 
ATOM     59  C   UNL A   1      36.704  30.570  28.231  1.00  0.00     0.002 A 
ATOM     60  C   UNL A   1      37.483  29.820  30.380  1.00  0.00     0.091 A 
ATOM     61  F   UNL A   1      39.306  28.360  30.534  1.00  0.00    -0.205 F 
ATOM     62  C   UNL A   1      36.656  30.646  29.616  1.00  0.00     0.022 A 
BRANCH  60  63
ATOM     63  S   UNL A   1      37.343  29.931  32.169  1.00  0.00     0.127 S 
ATOM     64  O   UNL A   1      37.155  28.530  32.534  1.00  0.00    -0.237 OA
ATOM     65  O   UNL A   1      38.643  30.498  32.532  1.00  0.00    -0.237 OA
ATOM     66  O   UNL A   1      36.213  30.815  32.421  1.00  0.00    -0.744 OA
ENDBRANCH  60  63
ENDBRANCH  42  56
BRANCH  43  67
ATOM     67  C   UNL A   1      44.717  26.692  33.726  1.00  0.00     0.023 A 
ATOM     68  C   UNL A   1      45.924  27.088  34.335  1.00  0.00     0.012 A 
ATOM     69  C   UNL A   1      43.628  26.358  34.561  1.00  0.00     0.148 A 
ATOM     70  C   UNL A   1      46.032  27.190  35.727  1.00  0.00     0.002 A 
ATOM     71  C   UNL A   1      43.739  26.459  35.945  1.00  0.00     0.091 A 
ATOM     72  F   UNL A   1      42.457  26.034  33.995  1.00  0.00    -0.205 F 
ATOM     73  C   UNL A   1      44.936  26.888  36.532  1.00  0.00     0.022 A 
BRANCH  71  74
ATOM     74  S   UNL A   1      42.358  26.121  37.047  1.00  0.00     0.127 S 
ATOM     75  O   UNL A   1      41.380  27.123  36.622  1.00  0.00    -0.237 OA
ATOM     76  O   UNL A   1      42.018  24.746  36.691  1.00  0.00    -0.237 OA
ATOM     77  O   UNL A   1      42.867  26.318  38.398  1.00  0.00    -0.744 OA
ENDBRANCH  71  74
ENDBRANCH  43  67
BRANCH  55  78
ATOM     78  C   UNL A   1      45.214  29.495  28.153  1.00  0.00     0.023 A 
ATOM     79  C   UNL A   1      46.104  30.587  28.234  1.00  0.00     0.012 A 
ATOM     80  C   UNL A   1      45.705  28.252  27.723  1.00  0.00     0.148 A 
ATOM     81  C   UNL A   1      47.449  30.444  27.875  1.00  0.00     0.002 A 
ATOM     82  C   UNL A   1      47.050  28.101  27.413  1.00  0.00     0.091 A 
ATOM     83  F   UNL A   1      44.846  27.223  27.654  1.00  0.00    -0.205 F 
ATOM     84  C   UNL A   1      47.925  29.196  27.478  1.00  0.00     0.022 A 
BRANCH  82  85
ATOM     85  S   UNL A   1      47.742  26.495  27.017  1.00  0.00     0.127 S 
ATOM     86  O   UNL A   1      49.154  26.812  26.817  1.00  0.00    -0.237 OA
ATOM     87  O   UNL A   1      47.454  25.721  28.226  1.00  0.00    -0.237 OA
ATOM     88  O   UNL A   1      47.030  26.031  25.833  1.00  0.00    -0.744 OA
ENDBRANCH  82  85
ENDBRANCH  55  78
ENDBRANCH  29  30
ENDBRANCH  21  24
ENDBRANCH  19  20
ENDBRANCH   1  19
TORSDOF 15
ENDMDL
MODEL 3
REMARK VINA RESULT:     -11.4      4.533      9.605
REMARK SMILES C[C@H]1CC=C(C2=NN=C(C(=O)NCCCCNC(=O)c3ccc(-c4c5nc(c(-c6cccc(S(=O)(=O)[O-])c6F)c6ccc([nH]6)c(-c6cccc(S(=O)(=O)[O-])c6F)c6nc(c(-c7cccc(S(=O)(=O)[O-])c7F)c7ccc4[nH]7)C=C6)C=C5)cc3)C2)O1
REMARK SMILES IDX 15 1 14 2 13 3 12 4 10 5 11 6 9 8 6 9 7 10 83 11 8 12 5 13
REMARK SMILES IDX 1 14 2 15 3 16 84 17 4 18 16 19 17 20 18 21 19 23 20 24
REMARK SMILES IDX 21 25 82 26 22 27 81 28 23 29 24 30 25 31 75 32 26 33 80 34
REMARK SMILES IDX 74 35 76 36 27 37 79 38 73 39 72 40 28 42 60 43 40 44 59 45
REMARK SMILES IDX 41 46 44 47 58 48 77 49 42 50 43 51 57 53 78 54 45 55 29 56
REMARK SMILES IDX 30 57 38 58 31 59 33 60 39 61 32 62 34 63 35 64 36 65 37 66
REMARK SMILES IDX 61 67 62 68 70 69 63 70 65 71 71 72 64 73 66 74 67 75 68 76
REMARK SMILES IDX 69 77 46 78 47 79 55 80 48 81 50 82 56 83 49 84 51 85 52 86
REMARK SMILES IDX 53 87 54 88
REMARK H PARENT 12 7 17 22 76 41 44 52
REMARK Flexibility Score: inf
ROOT
ATOM      1  C   UNL A   1      37.016  20.811  24.821  1.00  0.00     0.023 C 
ENDROOT
BRANCH   1   2
ATOM      2  C   UNL A   1      35.936  21.856  25.140  1.00  0.00     0.023 C 
BRANCH   2   3
ATOM      3  C   UNL A   1      34.955  21.475  26.256  1.00  0.00     0.116 C 
BRANCH   3   4
ATOM      4  N   UNL A   1      33.717  20.939  25.723  1.00  0.00    -0.351 N 
ATOM      5  C   UNL A   1      32.458  21.482  25.676  1.00  0.00     0.267 C 
ATOM      6  O   UNL A   1      31.505  20.814  25.287  1.00  0.00    -0.268 OA
ATOM      7  H   UNL A   1      33.793  20.038  25.332  1.00  0.00     0.163 HD
BRANCH   5   8
ATOM      8  C   UNL A   1      32.174  22.900  26.083  1.00  0.00     0.134 C 
ATOM      9  C   UNL A   1      32.170  25.132  26.086  1.00  0.00     0.111 C 
ATOM     10  N   UNL A   1      31.550  24.727  27.152  1.00  0.00    -0.151 NA
ATOM     11  C   UNL A   1      32.645  24.017  25.218  1.00  0.00     0.126 C 
ATOM     12  N   UNL A   1      31.533  23.299  27.140  1.00  0.00    -0.149 NA
BRANCH   9  13
ATOM     13  C   UNL A   1      32.425  26.529  25.718  1.00  0.00     0.139 C 
ATOM     14  C   UNL A   1      31.643  29.907  25.863  1.00  0.00     0.053 C 
ATOM     15  C   UNL A   1      31.991  28.626  25.121  1.00  0.00     0.174 C 
ATOM     16  C   UNL A   1      33.505  28.404  24.998  1.00  0.00     0.076 C 
ATOM     17  O   UNL A   1      31.427  27.490  25.816  1.00  0.00    -0.489 OA
ATOM     18  C   UNL A   1      33.600  26.952  25.259  1.00  0.00     0.025 C 
ENDBRANCH   9  13
ENDBRANCH   5   8
ENDBRANCH   3   4
ENDBRANCH   2   3
ENDBRANCH   1   2
BRANCH   1  19
ATOM     19  C   UNL A   1      38.380  21.093  25.439  1.00  0.00     0.116 C 
BRANCH  19  20
ATOM     20  N   UNL A   1      39.196  19.888  25.607  1.00  0.00    -0.352 N 
ATOM     21  C   UNL A   1      40.547  19.828  25.895  1.00  0.00     0.251 C 
ATOM     22  H   UNL A   1      38.731  19.025  25.506  1.00  0.00     0.163 HD
ATOM     23  O   UNL A   1      41.209  18.825  25.630  1.00  0.00    -0.269 OA
BRANCH  21  24
ATOM     24  C   UNL A   1      41.172  20.990  26.541  1.00  0.00     0.039 A 
ATOM     25  C   UNL A   1      41.835  21.980  25.809  1.00  0.00     0.014 A 
ATOM     26  C   UNL A   1      41.024  21.099  27.922  1.00  0.00     0.014 A 
ATOM     27  C   UNL A   1      42.264  23.125  26.475  1.00  0.00     0.010 A 
ATOM     28  C   UNL A   1      41.298  22.289  28.541  1.00  0.00     0.010 A 
ATOM     29  C   UNL A   1      41.968  23.284  27.840  1.00  0.00    -0.014 A 
BRANCH  29  30
ATOM     30  C   UNL A   1      42.246  24.538  28.528  1.00  0.00     0.031 A 
ATOM     31  C   UNL A   1      41.209  25.586  28.334  1.00  0.00     0.074 A 
ATOM     32  C   UNL A   1      43.247  24.681  29.426  1.00  0.00     0.049 A 
ATOM     33  N   UNL A   1      41.309  26.653  27.614  1.00  0.00    -0.248 NA
ATOM     34  C   UNL A   1      39.857  25.351  28.860  1.00  0.00     0.031 C 
ATOM     35  C   UNL A   1      44.143  23.650  29.964  1.00  0.00     0.029 A 
ATOM     36  N   UNL A   1      43.585  25.776  30.157  1.00  0.00    -0.354 N 
ATOM     37  C   UNL A   1      40.121  27.354  27.810  1.00  0.00     0.074 A 
ATOM     38  C   UNL A   1      39.199  26.415  28.392  1.00  0.00     0.031 C 
ATOM     39  C   UNL A   1      44.723  24.102  31.098  1.00  0.00     0.029 A 
ATOM     40  C   UNL A   1      44.390  25.504  31.260  1.00  0.00     0.049 A 
ATOM     41  H   UNL A   1      43.287  26.685  29.926  1.00  0.00     0.167 HD
ATOM     42  C   UNL A   1      40.088  28.713  27.721  1.00  0.00     0.034 A 
ATOM     43  C   UNL A   1      44.723  26.365  32.251  1.00  0.00     0.034 A 
ATOM     44  C   UNL A   1      41.301  29.221  27.126  1.00  0.00     0.049 A 
ATOM     45  C   UNL A   1      44.537  27.731  31.714  1.00  0.00     0.074 A 
ATOM     46  C   UNL A   1      41.960  29.033  25.926  1.00  0.00     0.029 A 
ATOM     47  N   UNL A   1      42.230  29.753  27.987  1.00  0.00    -0.354 N 
ATOM     48  N   UNL A   1      45.256  28.221  30.743  1.00  0.00    -0.248 NA
ATOM     49  C   UNL A   1      43.260  28.384  31.943  1.00  0.00     0.031 C 
ATOM     50  C   UNL A   1      43.342  28.994  26.275  1.00  0.00     0.029 A 
ATOM     51  C   UNL A   1      43.453  29.244  27.645  1.00  0.00     0.049 A 
ATOM     52  H   UNL A   1      42.049  30.387  28.720  1.00  0.00     0.167 HD
ATOM     53  C   UNL A   1      44.338  28.895  29.949  1.00  0.00     0.074 A 
ATOM     54  C   UNL A   1      43.154  29.057  30.793  1.00  0.00     0.031 C 
ATOM     55  C   UNL A   1      44.512  28.992  28.598  1.00  0.00     0.034 A 
BRANCH  42  56
ATOM     56  C   UNL A   1      39.174  29.631  28.505  1.00  0.00     0.023 A 
ATOM     57  C   UNL A   1      39.404  29.725  29.898  1.00  0.00     0.012 A 
ATOM     58  C   UNL A   1      37.959  30.166  28.023  1.00  0.00     0.148 A 
ATOM     59  C   UNL A   1      38.445  30.251  30.771  1.00  0.00     0.002 A 
ATOM     60  C   UNL A   1      37.040  30.757  28.885  1.00  0.00     0.091 A 
ATOM     61  F   UNL A   1      37.611  29.997  26.745  1.00  0.00    -0.205 F 
ATOM     62  C   UNL A   1      37.262  30.770  30.263  1.00  0.00     0.022 A 
BRANCH  60  63
ATOM     63  S   UNL A   1      35.509  31.484  28.284  1.00  0.00     0.127 S 
ATOM     64  O   UNL A   1      34.835  31.817  29.535  1.00  0.00    -0.237 OA
ATOM     65  O   UNL A   1      36.006  32.630  27.523  1.00  0.00    -0.237 OA
ATOM     66  O   UNL A   1      34.877  30.454  27.471  1.00  0.00    -0.744 OA
ENDBRANCH  60  63
ENDBRANCH  42  56
BRANCH  43  67
ATOM     67  C   UNL A   1      44.930  26.114  33.697  1.00  0.00     0.023 A 
ATOM     68  C   UNL A   1      46.230  26.179  34.238  1.00  0.00     0.012 A 
ATOM     69  C   UNL A   1      43.836  26.115  34.590  1.00  0.00     0.148 A 
ATOM     70  C   UNL A   1      46.433  26.283  35.620  1.00  0.00     0.002 A 
ATOM     71  C   UNL A   1      44.042  26.217  35.963  1.00  0.00     0.091 A 
ATOM     72  F   UNL A   1      42.594  26.111  34.086  1.00  0.00    -0.205 F 
ATOM     73  C   UNL A   1      45.339  26.315  36.481  1.00  0.00     0.022 A 
BRANCH  71  74
ATOM     74  S   UNL A   1      42.679  26.301  37.134  1.00  0.00     0.127 S 
ATOM     75  O   UNL A   1      41.992  25.032  36.890  1.00  0.00    -0.237 OA
ATOM     76  O   UNL A   1      43.383  26.380  38.411  1.00  0.00    -0.237 OA
ATOM     77  O   UNL A   1      41.907  27.480  36.764  1.00  0.00    -0.744 OA
ENDBRANCH  71  74
ENDBRANCH  43  67
BRANCH  55  78
ATOM     78  C   UNL A   1      45.844  28.581  28.018  1.00  0.00     0.023 A 
ATOM     79  C   UNL A   1      46.976  29.424  28.028  1.00  0.00     0.012 A 
ATOM     80  C   UNL A   1      45.997  27.246  27.613  1.00  0.00     0.148 A 
ATOM     81  C   UNL A   1      48.227  28.948  27.623  1.00  0.00     0.002 A 
ATOM     82  C   UNL A   1      47.249  26.763  27.257  1.00  0.00     0.091 A 
ATOM     83  F   UNL A   1      44.911  26.457  27.611  1.00  0.00    -0.205 F 
ATOM     84  C   UNL A   1      48.366  27.612  27.251  1.00  0.00     0.022 A 
BRANCH  82  85
ATOM     85  S   UNL A   1      47.511  25.027  26.889  1.00  0.00     0.127 S 
ATOM     86  O   UNL A   1      46.847  24.886  25.596  1.00  0.00    -0.237 OA
ATOM     87  O   UNL A   1      48.971  24.932  26.842  1.00  0.00    -0.237 OA
ATOM     88  O   UNL A   1      46.904  24.288  27.989  1.00  0.00    -0.744 OA
ENDBRANCH  82  85
ENDBRANCH  55  78
ENDBRANCH  29  30
ENDBRANCH  21  24
ENDBRANCH  19  20
ENDBRANCH   1  19
TORSDOF 15
ENDMDL
