MODEL 1
REMARK VINA RESULT:     -12.0      0.000      0.000
REMARK SMILES Cc1cccc(Cn2c(=O)c3sccc3n(CC(=O)NCCCCNC(=O)c3ccc(-c4c5nc(c(-c6cccc(S(=O)(=O)[O-])c6F)c6ccc([nH]6)c(-c6cccc(S(=O)(=O)[O-])c6F)c6nc(c(-c7cccc(S(=O)(=O)[O-])c7F)c7ccc4[nH]7)C=C6)C=C5)cc3)c2=O)c1
REMARK SMILES IDX 22 1 21 2 20 3 18 4 19 5 17 7 16 8 8 9 9 10 91 11 10 12
REMARK SMILES IDX 11 13 92 14 12 15 15 16 13 17 14 18 7 19 6 20 1 21 2 22 3 23
REMARK SMILES IDX 93 24 4 25 5 26 23 27 24 28 25 29 26 30 27 32 28 33 29 34
REMARK SMILES IDX 90 35 30 36 89 37 31 38 32 39 33 40 83 41 34 42 88 43 82 44
REMARK SMILES IDX 84 45 35 46 87 47 81 48 80 49 36 51 68 52 48 53 67 54 49 55
REMARK SMILES IDX 52 56 66 57 85 58 50 59 51 60 65 62 86 63 53 64 37 65 38 66
REMARK SMILES IDX 46 67 39 68 41 69 47 70 40 71 42 72 43 73 44 74 45 75 69 76
REMARK SMILES IDX 70 77 78 78 71 79 73 80 79 81 72 82 74 83 75 84 76 85 77 86
REMARK SMILES IDX 54 87 55 88 63 89 56 90 58 91 64 92 57 93 59 94 60 95 61 96
REMARK SMILES IDX 62 97
REMARK H PARENT 20 6 25 31 84 50 52 61
REMARK Flexibility Score: inf
ROOT
ATOM      1  C   UNL A   1      39.663  23.436  26.869  1.00  0.00     0.023 C 
ENDROOT
BRANCH   1   2
ATOM      2  C   UNL A   1      38.302  24.033  26.499  1.00  0.00     0.116 C 
BRANCH   2   3
ATOM      3  N   UNL A   1      37.863  23.682  25.163  1.00  0.00    -0.355 N 
ATOM      4  C   UNL A   1      37.037  22.689  24.734  1.00  0.00     0.240 C 
ATOM      5  O   UNL A   1      36.742  22.668  23.534  1.00  0.00    -0.273 OA
ATOM      6  H   UNL A   1      38.221  24.258  24.449  1.00  0.00     0.163 HD
BRANCH   4   7
ATOM      7  C   UNL A   1      36.404  21.678  25.692  1.00  0.00     0.227 C 
BRANCH   7   8
ATOM      8  N   UNL A   1      34.939  21.621  25.660  1.00  0.00    -0.283 N 
ATOM      9  N   UNL A   1      32.836  22.633  26.212  1.00  0.00    -0.254 N 
ATOM     10  C   UNL A   1      32.092  21.568  25.706  1.00  0.00     0.274 A 
ATOM     11  C   UNL A   1      34.234  22.678  26.236  1.00  0.00     0.332 A 
ATOM     12  O   UNL A   1      30.849  21.534  25.749  1.00  0.00    -0.268 OA
ATOM     13  C   UNL A   1      32.888  20.502  25.164  1.00  0.00     0.116 A 
ATOM     14  O   UNL A   1      34.846  23.590  26.790  1.00  0.00    -0.247 OA
ATOM     15  S   UNL A   1      32.246  19.054  24.547  1.00  0.00    -0.136 S 
ATOM     16  C   UNL A   1      34.259  20.529  25.129  1.00  0.00     0.070 A 
ATOM     17  C   UNL A   1      33.812  18.442  24.211  1.00  0.00     0.068 A 
ATOM     18  C   UNL A   1      34.799  19.342  24.554  1.00  0.00     0.039 A 
BRANCH   9  19
ATOM     19  C   UNL A   1      32.122  23.708  26.909  1.00  0.00     0.166 C 
BRANCH  19  20
ATOM     20  C   UNL A   1      31.803  24.917  26.044  1.00  0.00    -0.028 A 
ATOM     21  C   UNL A   1      28.936  26.364  23.979  1.00  0.00     0.044 C 
ATOM     22  C   UNL A   1      30.283  26.170  24.608  1.00  0.00    -0.051 A 
ATOM     23  C   UNL A   1      31.267  27.148  24.418  1.00  0.00     0.003 A 
ATOM     24  C   UNL A   1      30.568  25.040  25.392  1.00  0.00     0.009 A 
ATOM     25  C   UNL A   1      32.488  27.045  25.069  1.00  0.00     0.001 A 
ATOM     26  C   UNL A   1      32.733  25.959  25.904  1.00  0.00     0.005 A 
ENDBRANCH  19  20
ENDBRANCH   9  19
ENDBRANCH   7   8
ENDBRANCH   4   7
ENDBRANCH   2   3
ENDBRANCH   1   2
BRANCH   1  27
ATOM     27  C   UNL A   1      39.986  22.039  26.317  1.00  0.00     0.023 C 
BRANCH  27  28
ATOM     28  C   UNL A   1      40.621  21.065  27.296  1.00  0.00     0.116 C 
BRANCH  28  29
ATOM     29  N   UNL A   1      41.894  20.554  26.796  1.00  0.00    -0.352 N 
ATOM     30  C   UNL A   1      42.946  21.271  26.260  1.00  0.00     0.251 C 
ATOM     31  H   UNL A   1      42.018  19.579  26.847  1.00  0.00     0.163 HD
ATOM     32  O   UNL A   1      43.491  20.825  25.250  1.00  0.00    -0.269 OA
BRANCH  30  33
ATOM     33  C   UNL A   1      43.443  22.479  26.949  1.00  0.00     0.039 A 
ATOM     34  C   UNL A   1      43.567  22.559  28.341  1.00  0.00     0.014 A 
ATOM     35  C   UNL A   1      43.620  23.625  26.191  1.00  0.00     0.014 A 
ATOM     36  C   UNL A   1      43.723  23.811  28.941  1.00  0.00     0.010 A 
ATOM     37  C   UNL A   1      44.036  24.787  26.742  1.00  0.00     0.010 A 
ATOM     38  C   UNL A   1      43.884  24.917  28.112  1.00  0.00    -0.014 A 
BRANCH  38  39
ATOM     39  C   UNL A   1      43.810  26.313  28.478  1.00  0.00     0.031 A 
ATOM     40  C   UNL A   1      42.495  26.951  28.544  1.00  0.00     0.074 A 
ATOM     41  C   UNL A   1      44.917  26.792  29.104  1.00  0.00     0.049 A 
ATOM     42  N   UNL A   1      42.319  28.217  28.649  1.00  0.00    -0.248 NA
ATOM     43  C   UNL A   1      41.253  26.185  28.515  1.00  0.00     0.031 C 
ATOM     44  C   UNL A   1      45.015  27.883  30.061  1.00  0.00     0.029 A 
ATOM     45  N   UNL A   1      46.244  26.340  29.027  1.00  0.00    -0.354 N 
ATOM     46  C   UNL A   1      41.003  28.408  29.017  1.00  0.00     0.074 A 
ATOM     47  C   UNL A   1      40.356  27.137  28.792  1.00  0.00     0.031 C 
ATOM     48  C   UNL A   1      46.314  28.205  30.213  1.00  0.00     0.029 A 
ATOM     49  C   UNL A   1      47.056  27.462  29.207  1.00  0.00     0.049 A 
ATOM     50  H   UNL A   1      46.544  25.413  28.877  1.00  0.00     0.167 HD
ATOM     51  C   UNL A   1      40.673  29.566  29.654  1.00  0.00     0.034 A 
ATOM     52  C   UNL A   1      47.767  28.020  28.175  1.00  0.00     0.034 A 
ATOM     53  C   UNL A   1      41.877  30.403  29.824  1.00  0.00     0.049 A 
ATOM     54  C   UNL A   1      47.252  29.412  27.823  1.00  0.00     0.074 A 
ATOM     55  C   UNL A   1      42.758  30.564  30.882  1.00  0.00     0.029 A 
ATOM     56  N   UNL A   1      42.525  30.911  28.702  1.00  0.00    -0.354 N 
ATOM     57  N   UNL A   1      46.149  29.921  28.303  1.00  0.00    -0.248 NA
ATOM     58  C   UNL A   1      47.927  30.345  26.925  1.00  0.00     0.031 C 
ATOM     59  C   UNL A   1      43.978  31.085  30.364  1.00  0.00     0.029 A 
ATOM     60  C   UNL A   1      43.833  31.272  28.999  1.00  0.00     0.049 A 
ATOM     61  H   UNL A   1      42.110  31.002  27.813  1.00  0.00     0.167 HD
ATOM     62  C   UNL A   1      45.892  31.140  27.744  1.00  0.00     0.074 A 
ATOM     63  C   UNL A   1      47.080  31.393  26.942  1.00  0.00     0.031 C 
ATOM     64  C   UNL A   1      44.709  31.803  27.953  1.00  0.00     0.034 A 
BRANCH  51  65
ATOM     65  C   UNL A   1      39.379  29.806  30.415  1.00  0.00     0.023 A 
ATOM     66  C   UNL A   1      39.009  28.834  31.372  1.00  0.00     0.012 A 
ATOM     67  C   UNL A   1      38.481  30.889  30.258  1.00  0.00     0.148 A 
ATOM     68  C   UNL A   1      37.794  28.879  32.065  1.00  0.00     0.002 A 
ATOM     69  C   UNL A   1      37.239  30.906  30.906  1.00  0.00     0.091 A 
ATOM     70  F   UNL A   1      38.849  31.960  29.548  1.00  0.00    -0.205 F 
ATOM     71  C   UNL A   1      36.893  29.899  31.810  1.00  0.00     0.022 A 
BRANCH  69  72
ATOM     72  S   UNL A   1      35.989  32.168  30.590  1.00  0.00     0.127 S 
ATOM     73  O   UNL A   1      36.750  33.407  30.766  1.00  0.00    -0.237 OA
ATOM     74  O   UNL A   1      35.599  31.887  29.211  1.00  0.00    -0.237 OA
ATOM     75  O   UNL A   1      34.948  31.966  31.591  1.00  0.00    -0.744 OA
ENDBRANCH  69  72
ENDBRANCH  51  65
BRANCH  52  76
ATOM     76  C   UNL A   1      48.285  26.996  27.210  1.00  0.00     0.023 A 
ATOM     77  C   UNL A   1      47.493  26.777  26.054  1.00  0.00     0.012 A 
ATOM     78  C   UNL A   1      49.648  26.655  27.166  1.00  0.00     0.148 A 
ATOM     79  C   UNL A   1      48.087  26.451  24.832  1.00  0.00     0.002 A 
ATOM     80  C   UNL A   1      50.231  26.316  25.944  1.00  0.00     0.091 A 
ATOM     81  F   UNL A   1      50.367  26.733  28.293  1.00  0.00    -0.205 F 
ATOM     82  C   UNL A   1      49.463  26.276  24.767  1.00  0.00     0.022 A 
BRANCH  80  83
ATOM     83  S   UNL A   1      52.003  26.040  25.803  1.00  0.00     0.127 S 
ATOM     84  O   UNL A   1      52.177  25.994  24.353  1.00  0.00    -0.237 OA
ATOM     85  O   UNL A   1      52.567  27.226  26.444  1.00  0.00    -0.237 OA
ATOM     86  O   UNL A   1      52.245  24.799  26.524  1.00  0.00    -0.744 OA
ENDBRANCH  80  83
ENDBRANCH  52  76
BRANCH  64  87
ATOM     87  C   UNL A   1      44.250  33.030  27.185  1.00  0.00     0.023 A 
ATOM     88  C   UNL A   1      44.072  33.024  25.790  1.00  0.00     0.012 A 
ATOM     89  C   UNL A   1      43.832  34.202  27.872  1.00  0.00     0.148 A 
ATOM     90  C   UNL A   1      43.582  34.139  25.102  1.00  0.00     0.002 A 
ATOM     91  C   UNL A   1      43.214  35.248  27.200  1.00  0.00     0.091 A 
ATOM     92  F   UNL A   1      44.053  34.325  29.190  1.00  0.00    -0.205 F 
ATOM     93  C   UNL A   1      43.126  35.241  25.808  1.00  0.00     0.022 A 
BRANCH  91  94
ATOM     94  S   UNL A   1      42.354  36.549  28.096  1.00  0.00     0.127 S 
ATOM     95  O   UNL A   1      41.877  37.402  27.010  1.00  0.00    -0.237 OA
ATOM     96  O   UNL A   1      41.303  35.803  28.792  1.00  0.00    -0.237 OA
ATOM     97  O   UNL A   1      43.355  37.131  28.979  1.00  0.00    -0.744 OA
ENDBRANCH  91  94
ENDBRANCH  64  87
ENDBRANCH  38  39
ENDBRANCH  30  33
ENDBRANCH  28  29
ENDBRANCH  27  28
ENDBRANCH   1  27
TORSDOF 17
ENDMDL
MODEL 2
REMARK VINA RESULT:     -12.0      4.007      9.694
REMARK SMILES Cc1cccc(Cn2c(=O)c3sccc3n(CC(=O)NCCCCNC(=O)c3ccc(-c4c5nc(c(-c6cccc(S(=O)(=O)[O-])c6F)c6ccc([nH]6)c(-c6cccc(S(=O)(=O)[O-])c6F)c6nc(c(-c7cccc(S(=O)(=O)[O-])c7F)c7ccc4[nH]7)C=C6)C=C5)cc3)c2=O)c1
REMARK SMILES IDX 22 1 21 2 20 3 18 4 19 5 17 7 16 8 8 9 9 10 91 11 10 12
REMARK SMILES IDX 11 13 92 14 12 15 15 16 13 17 14 18 7 19 6 20 1 21 2 22 3 23
REMARK SMILES IDX 93 24 4 25 5 26 23 27 24 28 25 29 26 30 27 32 28 33 29 34
REMARK SMILES IDX 90 35 30 36 89 37 31 38 32 39 33 40 83 41 34 42 88 43 82 44
REMARK SMILES IDX 84 45 35 46 87 47 81 48 80 49 36 51 68 52 48 53 67 54 49 55
REMARK SMILES IDX 52 56 66 57 85 58 50 59 51 60 65 62 86 63 53 64 37 65 38 66
REMARK SMILES IDX 46 67 39 68 41 69 47 70 40 71 42 72 43 73 44 74 45 75 69 76
REMARK SMILES IDX 70 77 78 78 71 79 73 80 79 81 72 82 74 83 75 84 76 85 77 86
REMARK SMILES IDX 54 87 55 88 63 89 56 90 58 91 64 92 57 93 59 94 60 95 61 96
REMARK SMILES IDX 62 97
REMARK H PARENT 20 6 25 31 84 50 52 61
REMARK Flexibility Score: inf
ROOT
ATOM      1  C   UNL A   1      31.906  30.457  25.645  1.00  0.00     0.023 C 
ENDROOT
BRANCH   1   2
ATOM      2  C   UNL A   1      31.887  29.416  24.522  1.00  0.00     0.116 C 
BRANCH   2   3
ATOM      3  N   UNL A   1      33.146  29.308  23.814  1.00  0.00    -0.355 N 
ATOM      4  C   UNL A   1      33.635  28.315  23.023  1.00  0.00     0.240 C 
ATOM      5  O   UNL A   1      34.712  28.517  22.449  1.00  0.00    -0.273 OA
ATOM      6  H   UNL A   1      33.746  30.082  23.923  1.00  0.00     0.163 HD
BRANCH   4   7
ATOM      7  C   UNL A   1      32.861  27.023  22.755  1.00  0.00     0.227 C 
BRANCH   7   8
ATOM      8  N   UNL A   1      32.438  26.289  23.951  1.00  0.00    -0.283 N 
ATOM      9  N   UNL A   1      33.028  24.922  25.832  1.00  0.00    -0.254 N 
ATOM     10  C   UNL A   1      31.706  24.781  26.254  1.00  0.00     0.274 A 
ATOM     11  C   UNL A   1      33.420  25.627  24.688  1.00  0.00     0.332 A 
ATOM     12  O   UNL A   1      31.385  24.101  27.245  1.00  0.00    -0.268 OA
ATOM     13  C   UNL A   1      30.750  25.460  25.424  1.00  0.00     0.116 A 
ATOM     14  O   UNL A   1      34.586  25.633  24.297  1.00  0.00    -0.247 OA
ATOM     15  S   UNL A   1      29.068  25.398  25.663  1.00  0.00    -0.136 S 
ATOM     16  C   UNL A   1      31.100  26.197  24.321  1.00  0.00     0.070 A 
ATOM     17  C   UNL A   1      28.784  26.377  24.285  1.00  0.00     0.068 A 
ATOM     18  C   UNL A   1      29.960  26.752  23.670  1.00  0.00     0.039 A 
BRANCH   9  19
ATOM     19  C   UNL A   1      34.064  24.156  26.532  1.00  0.00     0.166 C 
BRANCH  19  20
ATOM     20  C   UNL A   1      34.361  22.795  25.924  1.00  0.00    -0.028 A 
ATOM     21  C   UNL A   1      37.338  20.636  24.893  1.00  0.00     0.044 C 
ATOM     22  C   UNL A   1      35.935  21.123  25.104  1.00  0.00    -0.051 A 
ATOM     23  C   UNL A   1      34.868  20.285  24.760  1.00  0.00     0.003 A 
ATOM     24  C   UNL A   1      35.676  22.390  25.653  1.00  0.00     0.009 A 
ATOM     25  C   UNL A   1      33.563  20.668  25.036  1.00  0.00     0.001 A 
ATOM     26  C   UNL A   1      33.320  21.893  25.649  1.00  0.00     0.005 A 
ENDBRANCH  19  20
ENDBRANCH   9  19
ENDBRANCH   7   8
ENDBRANCH   4   7
ENDBRANCH   2   3
ENDBRANCH   1   2
BRANCH   1  27
ATOM     27  C   UNL A   1      32.139  29.939  27.073  1.00  0.00     0.023 C 
BRANCH  27  28
ATOM     28  C   UNL A   1      33.572  29.570  27.424  1.00  0.00     0.116 C 
BRANCH  28  29
ATOM     29  N   UNL A   1      34.487  30.683  27.184  1.00  0.00    -0.352 N 
ATOM     30  C   UNL A   1      35.613  31.028  27.905  1.00  0.00     0.251 C 
ATOM     31  H   UNL A   1      34.274  31.257  26.413  1.00  0.00     0.163 HD
ATOM     32  O   UNL A   1      35.790  32.220  28.160  1.00  0.00    -0.269 OA
BRANCH  30  33
ATOM     33  C   UNL A   1      36.605  29.995  28.264  1.00  0.00     0.039 A 
ATOM     34  C   UNL A   1      36.748  29.505  29.568  1.00  0.00     0.014 A 
ATOM     35  C   UNL A   1      37.540  29.639  27.305  1.00  0.00     0.014 A 
ATOM     36  C   UNL A   1      37.899  28.788  29.904  1.00  0.00     0.010 A 
ATOM     37  C   UNL A   1      38.508  28.730  27.557  1.00  0.00     0.010 A 
ATOM     38  C   UNL A   1      38.797  28.478  28.887  1.00  0.00    -0.014 A 
BRANCH  38  39
ATOM     39  C   UNL A   1      40.147  27.981  29.021  1.00  0.00     0.031 A 
ATOM     40  C   UNL A   1      40.387  26.548  28.844  1.00  0.00     0.074 A 
ATOM     41  C   UNL A   1      41.111  28.931  28.906  1.00  0.00     0.049 A 
ATOM     42  N   UNL A   1      41.490  25.965  29.142  1.00  0.00    -0.248 NA
ATOM     43  C   UNL A   1      39.380  25.651  28.286  1.00  0.00     0.031 C 
ATOM     44  C   UNL A   1      42.482  28.777  28.445  1.00  0.00     0.029 A 
ATOM     45  N   UNL A   1      41.033  30.310  29.160  1.00  0.00    -0.354 N 
ATOM     46  C   UNL A   1      41.462  24.726  28.538  1.00  0.00     0.074 A 
ATOM     47  C   UNL A   1      40.090  24.528  28.135  1.00  0.00     0.031 C 
ATOM     48  C   UNL A   1      43.167  29.896  28.752  1.00  0.00     0.029 A 
ATOM     49  C   UNL A   1      42.300  30.705  29.594  1.00  0.00     0.049 A 
ATOM     50  H   UNL A   1      40.241  30.885  29.051  1.00  0.00     0.167 HD
ATOM     51  C   UNL A   1      42.648  24.108  28.279  1.00  0.00     0.034 A 
ATOM     52  C   UNL A   1      42.552  31.038  30.901  1.00  0.00     0.034 A 
ATOM     53  C   UNL A   1      43.765  24.965  28.724  1.00  0.00     0.049 A 
ATOM     54  C   UNL A   1      43.489  30.036  31.568  1.00  0.00     0.074 A 
ATOM     55  C   UNL A   1      44.570  25.871  28.051  1.00  0.00     0.029 A 
ATOM     56  N   UNL A   1      43.919  25.244  30.079  1.00  0.00    -0.354 N 
ATOM     57  N   UNL A   1      43.841  28.900  31.027  1.00  0.00    -0.248 NA
ATOM     58  C   UNL A   1      44.114  30.225  32.874  1.00  0.00     0.031 C 
ATOM     59  C   UNL A   1      45.133  26.758  29.012  1.00  0.00     0.029 A 
ATOM     60  C   UNL A   1      44.700  26.377  30.271  1.00  0.00     0.049 A 
ATOM     61  H   UNL A   1      43.527  24.708  30.805  1.00  0.00     0.167 HD
ATOM     62  C   UNL A   1      44.609  28.170  31.887  1.00  0.00     0.074 A 
ATOM     63  C   UNL A   1      44.814  29.081  33.004  1.00  0.00     0.031 C 
ATOM     64  C   UNL A   1      44.964  26.871  31.624  1.00  0.00     0.034 A 
BRANCH  51  65
ATOM     65  C   UNL A   1      42.830  22.925  27.343  1.00  0.00     0.023 A 
ATOM     66  C   UNL A   1      42.083  21.760  27.630  1.00  0.00     0.012 A 
ATOM     67  C   UNL A   1      43.687  22.845  26.218  1.00  0.00     0.148 A 
ATOM     68  C   UNL A   1      42.235  20.568  26.913  1.00  0.00     0.002 A 
ATOM     69  C   UNL A   1      43.884  21.639  25.536  1.00  0.00     0.091 A 
ATOM     70  F   UNL A   1      44.258  23.954  25.738  1.00  0.00    -0.205 F 
ATOM     71  C   UNL A   1      43.159  20.497  25.883  1.00  0.00     0.022 A 
BRANCH  69  72
ATOM     72  S   UNL A   1      45.104  21.446  24.221  1.00  0.00     0.127 S 
ATOM     73  O   UNL A   1      44.580  22.334  23.181  1.00  0.00    -0.237 OA
ATOM     74  O   UNL A   1      46.331  21.919  24.857  1.00  0.00    -0.237 OA
ATOM     75  O   UNL A   1      45.089  20.034  23.856  1.00  0.00    -0.744 OA
ENDBRANCH  69  72
ENDBRANCH  51  65
BRANCH  52  76
ATOM     76  C   UNL A   1      41.398  31.740  31.551  1.00  0.00     0.023 A 
ATOM     77  C   UNL A   1      40.924  32.901  30.888  1.00  0.00     0.012 A 
ATOM     78  C   UNL A   1      40.531  31.066  32.429  1.00  0.00     0.148 A 
ATOM     79  C   UNL A   1      39.568  33.238  30.917  1.00  0.00     0.002 A 
ATOM     80  C   UNL A   1      39.181  31.419  32.464  1.00  0.00     0.091 A 
ATOM     81  F   UNL A   1      41.014  30.053  33.158  1.00  0.00    -0.205 F 
ATOM     82  C   UNL A   1      38.688  32.463  31.661  1.00  0.00     0.022 A 
BRANCH  80  83
ATOM     83  S   UNL A   1      37.997  30.477  33.438  1.00  0.00     0.127 S 
ATOM     84  O   UNL A   1      38.191  31.050  34.767  1.00  0.00    -0.237 OA
ATOM     85  O   UNL A   1      36.721  30.816  32.811  1.00  0.00    -0.237 OA
ATOM     86  O   UNL A   1      38.396  29.088  33.266  1.00  0.00    -0.744 OA
ENDBRANCH  80  83
ENDBRANCH  52  76
BRANCH  64  87
ATOM     87  C   UNL A   1      45.602  25.922  32.623  1.00  0.00     0.023 A 
ATOM     88  C   UNL A   1      46.996  25.801  32.766  1.00  0.00     0.012 A 
ATOM     89  C   UNL A   1      44.806  25.221  33.569  1.00  0.00     0.148 A 
ATOM     90  C   UNL A   1      47.572  24.976  33.737  1.00  0.00     0.002 A 
ATOM     91  C   UNL A   1      45.385  24.519  34.619  1.00  0.00     0.091 A 
ATOM     92  F   UNL A   1      43.470  25.208  33.447  1.00  0.00    -0.205 F 
ATOM     93  C   UNL A   1      46.769  24.356  34.682  1.00  0.00     0.022 A 
BRANCH  91  94
ATOM     94  S   UNL A   1      44.401  23.955  36.014  1.00  0.00     0.127 S 
ATOM     95  O   UNL A   1      43.433  23.074  35.364  1.00  0.00    -0.237 OA
ATOM     96  O   UNL A   1      45.397  23.264  36.837  1.00  0.00    -0.237 OA
ATOM     97  O   UNL A   1      43.864  25.165  36.620  1.00  0.00    -0.744 OA
ENDBRANCH  91  94
ENDBRANCH  64  87
ENDBRANCH  38  39
ENDBRANCH  30  33
ENDBRANCH  28  29
ENDBRANCH  27  28
ENDBRANCH   1  27
TORSDOF 17
ENDMDL
MODEL 3
REMARK VINA RESULT:     -12.0      4.798     10.453
REMARK SMILES Cc1cccc(Cn2c(=O)c3sccc3n(CC(=O)NCCCCNC(=O)c3ccc(-c4c5nc(c(-c6cccc(S(=O)(=O)[O-])c6F)c6ccc([nH]6)c(-c6cccc(S(=O)(=O)[O-])c6F)c6nc(c(-c7cccc(S(=O)(=O)[O-])c7F)c7ccc4[nH]7)C=C6)C=C5)cc3)c2=O)c1
REMARK SMILES IDX 22 1 21 2 20 3 18 4 19 5 17 7 16 8 8 9 9 10 91 11 10 12
REMARK SMILES IDX 11 13 92 14 12 15 15 16 13 17 14 18 7 19 6 20 1 21 2 22 3 23
REMARK SMILES IDX 93 24 4 25 5 26 23 27 24 28 25 29 26 30 27 32 28 33 29 34
REMARK SMILES IDX 90 35 30 36 89 37 31 38 32 39 33 40 83 41 34 42 88 43 82 44
REMARK SMILES IDX 84 45 35 46 87 47 81 48 80 49 36 51 68 52 48 53 67 54 49 55
REMARK SMILES IDX 52 56 66 57 85 58 50 59 51 60 65 62 86 63 53 64 37 65 38 66
REMARK SMILES IDX 46 67 39 68 41 69 47 70 40 71 42 72 43 73 44 74 45 75 69 76
REMARK SMILES IDX 70 77 78 78 71 79 73 80 79 81 72 82 74 83 75 84 76 85 77 86
REMARK SMILES IDX 54 87 55 88 63 89 56 90 58 91 64 92 57 93 59 94 60 95 61 96
REMARK SMILES IDX 62 97
REMARK H PARENT 20 6 25 31 84 50 52 61
REMARK Flexibility Score: inf
ROOT
ATOM      1  C   UNL A   1      35.056  29.373  27.231  1.00  0.00     0.023 C 
ENDROOT
BRANCH   1   2
ATOM      2  C   UNL A   1      34.092  29.066  26.081  1.00  0.00     0.116 C 
BRANCH   2   3
ATOM      3  N   UNL A   1      32.862  28.436  26.513  1.00  0.00    -0.355 N 
ATOM      4  C   UNL A   1      32.538  27.121  26.644  1.00  0.00     0.240 C 
ATOM      5  O   UNL A   1      31.437  26.847  27.135  1.00  0.00    -0.273 OA
ATOM      6  H   UNL A   1      32.141  29.063  26.753  1.00  0.00     0.163 HD
BRANCH   4   7
ATOM      7  C   UNL A   1      33.517  25.997  26.296  1.00  0.00     0.227 C 
BRANCH   7   8
ATOM      8  N   UNL A   1      33.045  25.051  25.280  1.00  0.00    -0.283 N 
ATOM      9  N   UNL A   1      32.187  22.875  24.747  1.00  0.00    -0.254 N 
ATOM     10  C   UNL A   1      32.175  23.122  23.375  1.00  0.00     0.274 A 
ATOM     11  C   UNL A   1      32.638  23.787  25.708  1.00  0.00     0.332 A 
ATOM     12  O   UNL A   1      31.819  22.269  22.542  1.00  0.00    -0.268 OA
ATOM     13  C   UNL A   1      32.642  24.430  23.010  1.00  0.00     0.116 A 
ATOM     14  O   UNL A   1      32.730  23.485  26.897  1.00  0.00    -0.247 OA
ATOM     15  S   UNL A   1      32.802  24.970  21.406  1.00  0.00    -0.136 S 
ATOM     16  C   UNL A   1      33.051  25.366  23.925  1.00  0.00     0.070 A 
ATOM     17  C   UNL A   1      33.415  26.485  21.922  1.00  0.00     0.068 A 
ATOM     18  C   UNL A   1      33.479  26.572  23.297  1.00  0.00     0.039 A 
BRANCH   9  19
ATOM     19  C   UNL A   1      31.858  21.524  25.212  1.00  0.00     0.166 C 
BRANCH  19  20
ATOM     20  C   UNL A   1      32.930  20.483  24.936  1.00  0.00    -0.028 A 
ATOM     21  C   UNL A   1      33.290  16.955  23.519  1.00  0.00     0.044 C 
ATOM     22  C   UNL A   1      33.609  18.275  24.156  1.00  0.00    -0.051 A 
ATOM     23  C   UNL A   1      34.939  18.569  24.477  1.00  0.00     0.003 A 
ATOM     24  C   UNL A   1      32.604  19.221  24.420  1.00  0.00     0.009 A 
ATOM     25  C   UNL A   1      35.277  19.819  24.974  1.00  0.00     0.001 A 
ATOM     26  C   UNL A   1      34.285  20.777  25.161  1.00  0.00     0.005 A 
ENDBRANCH  19  20
ENDBRANCH   9  19
ENDBRANCH   7   8
ENDBRANCH   4   7
ENDBRANCH   2   3
ENDBRANCH   1   2
BRANCH   1  27
ATOM     27  C   UNL A   1      35.236  30.850  27.614  1.00  0.00     0.023 C 
BRANCH  27  28
ATOM     28  C   UNL A   1      34.087  31.486  28.379  1.00  0.00     0.116 C 
BRANCH  28  29
ATOM     29  N   UNL A   1      34.195  32.943  28.397  1.00  0.00    -0.352 N 
ATOM     30  C   UNL A   1      34.814  33.737  29.342  1.00  0.00     0.251 C 
ATOM     31  H   UNL A   1      33.775  33.416  27.643  1.00  0.00     0.163 HD
ATOM     32  O   UNL A   1      34.228  34.756  29.710  1.00  0.00    -0.269 OA
BRANCH  30  33
ATOM     33  C   UNL A   1      36.175  33.406  29.810  1.00  0.00     0.039 A 
ATOM     34  C   UNL A   1      37.329  33.866  29.166  1.00  0.00     0.014 A 
ATOM     35  C   UNL A   1      36.297  32.459  30.815  1.00  0.00     0.014 A 
ATOM     36  C   UNL A   1      38.556  33.261  29.451  1.00  0.00     0.010 A 
ATOM     37  C   UNL A   1      37.504  32.066  31.280  1.00  0.00     0.010 A 
ATOM     38  C   UNL A   1      38.597  32.311  30.466  1.00  0.00    -0.014 A 
BRANCH  38  39
ATOM     39  C   UNL A   1      39.664  31.386  30.768  1.00  0.00     0.031 A 
ATOM     40  C   UNL A   1      39.704  30.107  30.057  1.00  0.00     0.074 A 
ATOM     41  C   UNL A   1      40.739  31.945  31.383  1.00  0.00     0.049 A 
ATOM     42  N   UNL A   1      40.468  29.130  30.385  1.00  0.00    -0.248 NA
ATOM     43  C   UNL A   1      38.878  29.839  28.885  1.00  0.00     0.031 C 
ATOM     44  C   UNL A   1      42.129  31.519  31.341  1.00  0.00     0.029 A 
ATOM     45  N   UNL A   1      40.802  33.097  32.183  1.00  0.00    -0.354 N 
ATOM     46  C   UNL A   1      40.477  28.256  29.319  1.00  0.00     0.074 A 
ATOM     47  C   UNL A   1      39.381  28.670  28.476  1.00  0.00     0.031 C 
ATOM     48  C   UNL A   1      42.808  32.174  32.302  1.00  0.00     0.029 A 
ATOM     49  C   UNL A   1      41.826  32.880  33.109  1.00  0.00     0.049 A 
ATOM     50  H   UNL A   1      40.237  33.900  32.107  1.00  0.00     0.167 HD
ATOM     51  C   UNL A   1      41.539  27.413  29.186  1.00  0.00     0.034 A 
ATOM     52  C   UNL A   1      41.571  32.642  34.435  1.00  0.00     0.034 A 
ATOM     53  C   UNL A   1      42.503  27.648  30.279  1.00  0.00     0.049 A 
ATOM     54  C   UNL A   1      41.962  31.224  34.838  1.00  0.00     0.074 A 
ATOM     55  C   UNL A   1      43.657  28.413  30.355  1.00  0.00     0.029 A 
ATOM     56  N   UNL A   1      42.132  27.377  31.592  1.00  0.00    -0.354 N 
ATOM     57  N   UNL A   1      42.304  30.295  33.987  1.00  0.00    -0.248 NA
ATOM     58  C   UNL A   1      42.017  30.737  36.214  1.00  0.00     0.031 C 
ATOM     59  C   UNL A   1      43.919  28.679  31.729  1.00  0.00     0.029 A 
ATOM     60  C   UNL A   1      42.947  28.053  32.492  1.00  0.00     0.049 A 
ATOM     61  H   UNL A   1      41.389  26.785  31.850  1.00  0.00     0.167 HD
ATOM     62  C   UNL A   1      42.511  29.104  34.622  1.00  0.00     0.074 A 
ATOM     63  C   UNL A   1      42.392  29.456  36.030  1.00  0.00     0.031 C 
ATOM     64  C   UNL A   1      42.713  27.936  33.933  1.00  0.00     0.034 A 
BRANCH  51  65
ATOM     65  C   UNL A   1      41.883  26.633  27.927  1.00  0.00     0.023 A 
ATOM     66  C   UNL A   1      42.134  27.384  26.757  1.00  0.00     0.012 A 
ATOM     67  C   UNL A   1      41.958  25.226  27.785  1.00  0.00     0.148 A 
ATOM     68  C   UNL A   1      42.357  26.789  25.510  1.00  0.00     0.002 A 
ATOM     69  C   UNL A   1      42.123  24.628  26.529  1.00  0.00     0.091 A 
ATOM     70  F   UNL A   1      41.958  24.447  28.870  1.00  0.00    -0.205 F 
ATOM     71  C   UNL A   1      42.322  25.410  25.388  1.00  0.00     0.022 A 
BRANCH  69  72
ATOM     72  S   UNL A   1      42.037  22.844  26.275  1.00  0.00     0.127 S 
ATOM     73  O   UNL A   1      42.854  22.336  27.379  1.00  0.00    -0.237 OA
ATOM     74  O   UNL A   1      40.607  22.576  26.408  1.00  0.00    -0.237 OA
ATOM     75  O   UNL A   1      42.603  22.594  24.955  1.00  0.00    -0.744 OA
ENDBRANCH  69  72
ENDBRANCH  51  65
BRANCH  52  76
ATOM     76  C   UNL A   1      40.392  33.415  34.945  1.00  0.00     0.023 A 
ATOM     77  C   UNL A   1      39.121  32.820  34.736  1.00  0.00     0.012 A 
ATOM     78  C   UNL A   1      40.529  34.366  35.972  1.00  0.00     0.148 A 
ATOM     79  C   UNL A   1      38.091  32.990  35.664  1.00  0.00     0.002 A 
ATOM     80  C   UNL A   1      39.488  34.541  36.886  1.00  0.00     0.091 A 
ATOM     81  F   UNL A   1      41.686  35.028  36.086  1.00  0.00    -0.205 F 
ATOM     82  C   UNL A   1      38.295  33.807  36.768  1.00  0.00     0.022 A 
BRANCH  80  83
ATOM     83  S   UNL A   1      39.677  35.615  38.317  1.00  0.00     0.127 S 
ATOM     84  O   UNL A   1      38.506  35.254  39.111  1.00  0.00    -0.237 OA
ATOM     85  O   UNL A   1      40.952  35.177  38.883  1.00  0.00    -0.237 OA
ATOM     86  O   UNL A   1      39.699  36.963  37.770  1.00  0.00    -0.744 OA
ENDBRANCH  80  83
ENDBRANCH  52  76
BRANCH  64  87
ATOM     87  C   UNL A   1      42.709  26.548  34.550  1.00  0.00     0.023 A 
ATOM     88  C   UNL A   1      41.575  26.006  35.182  1.00  0.00     0.012 A 
ATOM     89  C   UNL A   1      43.816  25.673  34.377  1.00  0.00     0.148 A 
ATOM     90  C   UNL A   1      41.560  24.702  35.685  1.00  0.00     0.002 A 
ATOM     91  C   UNL A   1      43.742  24.337  34.750  1.00  0.00     0.091 A 
ATOM     92  F   UNL A   1      44.967  26.136  33.869  1.00  0.00    -0.205 F 
ATOM     93  C   UNL A   1      42.633  23.857  35.445  1.00  0.00     0.022 A 
BRANCH  91  94
ATOM     94  S   UNL A   1      44.977  23.151  34.201  1.00  0.00     0.127 S 
ATOM     95  O   UNL A   1      46.123  23.497  35.039  1.00  0.00    -0.237 OA
ATOM     96  O   UNL A   1      44.346  21.871  34.531  1.00  0.00    -0.237 OA
ATOM     97  O   UNL A   1      45.129  23.388  32.773  1.00  0.00    -0.744 OA
ENDBRANCH  91  94
ENDBRANCH  64  87
ENDBRANCH  38  39
ENDBRANCH  30  33
ENDBRANCH  28  29
ENDBRANCH  27  28
ENDBRANCH   1  27
TORSDOF 17
ENDMDL
