MODEL 1
REMARK VINA RESULT:     -11.0      0.000      0.000
REMARK SMILES C[C@@H]([N@@H+](C)[C@@H]1COC[C@@H]1C(=O)NCCCCNC(=O)c1ccc(-c2c3nc(c(-c4cccc(S(=O)(=O)[O-])c4F)c4ccc([nH]4)c(-c4cccc(S(=O)(=O)[O-])c4F)c4nc(c(-c5cccc(S(=O)(=O)[O-])c5F)c5ccc2[nH]5)C=C4)C=C3)cc1)C1(C)CC1
REMARK SMILES IDX 14 1 13 2 12 3 10 4 11 5 9 7 5 8 6 9 7 10 8 11 3 12 4 13
REMARK SMILES IDX 2 15 1 16 83 17 84 18 85 19 86 20 15 21 16 22 17 23 18 24
REMARK SMILES IDX 19 26 20 27 21 28 82 29 22 30 81 31 23 32 24 33 25 34 75 35
REMARK SMILES IDX 26 36 80 37 74 38 76 39 27 40 79 41 73 42 72 43 28 45 60 46
REMARK SMILES IDX 40 47 59 48 41 49 44 50 58 51 77 52 42 53 43 54 57 56 78 57
REMARK SMILES IDX 45 58 29 59 30 60 38 61 31 62 33 63 39 64 32 65 34 66 35 67
REMARK SMILES IDX 36 68 37 69 61 70 62 71 70 72 63 73 65 74 71 75 64 76 66 77
REMARK SMILES IDX 67 78 68 79 69 80 46 81 47 82 55 83 48 84 50 85 56 86 49 87
REMARK SMILES IDX 51 88 52 89 53 90 54 91
REMARK H PARENT 12 6 3 14 17 25 76 44 44 55
REMARK Flexibility Score: inf
ROOT
ATOM      1  C   UNL A   1      31.596  28.004  25.784  1.00  0.00     0.023 C 
ENDROOT
BRANCH   1   2
ATOM      2  C   UNL A   1      32.641  27.210  25.011  1.00  0.00     0.116 C 
BRANCH   2   3
ATOM      3  N   UNL A   1      32.005  26.211  24.173  1.00  0.00    -0.356 N 
ATOM      4  C   UNL A   1      31.938  24.852  24.323  1.00  0.00     0.231 C 
ATOM      5  O   UNL A   1      31.498  24.206  23.371  1.00  0.00    -0.274 OA
ATOM      6  H   UNL A   1      31.552  26.564  23.374  1.00  0.00     0.163 HD
BRANCH   4   7
ATOM      7  C   UNL A   1      32.274  24.212  25.671  1.00  0.00     0.164 C 
ATOM      8  C   UNL A   1      32.386  22.678  25.697  1.00  0.00     0.225 C 
ATOM      9  C   UNL A   1      30.893  22.301  25.705  1.00  0.00     0.226 C 
ATOM     10  O   UNL A   1      30.256  23.251  26.574  1.00  0.00    -0.374 OA
ATOM     11  C   UNL A   1      31.062  24.442  26.580  1.00  0.00     0.180 C 
BRANCH   8  12
ATOM     12  N   UNL A   1      33.265  22.014  24.716  1.00  0.00    -0.330 N 
ATOM     13  C   UNL A   1      32.691  20.744  24.237  1.00  0.00     0.333 C 
ATOM     14  H   UNL A   1      33.297  22.727  23.987  1.00  0.00     0.348 HD
BRANCH  12  15
ATOM     15  C   UNL A   1      34.694  21.787  25.066  1.00  0.00     0.186 C 
ATOM     16  C   UNL A   1      35.025  21.445  26.530  1.00  0.00     0.076 C 
BRANCH  15  17
ATOM     17  C   UNL A   1      35.566  22.953  24.482  1.00  0.00     0.019 C 
ATOM     18  C   UNL A   1      35.961  24.075  25.434  1.00  0.00     0.018 C 
ATOM     19  C   UNL A   1      36.503  22.731  23.295  1.00  0.00     0.013 C 
ATOM     20  C   UNL A   1      35.194  23.415  23.079  1.00  0.00     0.013 C 
ENDBRANCH  15  17
ENDBRANCH  12  15
ENDBRANCH   8  12
ENDBRANCH   4   7
ENDBRANCH   2   3
ENDBRANCH   1   2
BRANCH   1  21
ATOM     21  C   UNL A   1      32.168  29.056  26.731  1.00  0.00     0.023 C 
BRANCH  21  22
ATOM     22  C   UNL A   1      32.900  30.166  26.006  1.00  0.00     0.116 C 
BRANCH  22  23
ATOM     23  N   UNL A   1      32.629  31.490  26.562  1.00  0.00    -0.352 N 
ATOM     24  C   UNL A   1      33.404  32.222  27.438  1.00  0.00     0.251 C 
ATOM     25  H   UNL A   1      31.788  31.913  26.275  1.00  0.00     0.163 HD
ATOM     26  O   UNL A   1      33.004  33.291  27.878  1.00  0.00    -0.269 OA
BRANCH  24  27
ATOM     27  C   UNL A   1      34.700  31.659  27.879  1.00  0.00     0.039 A 
ATOM     28  C   UNL A   1      35.752  32.526  28.185  1.00  0.00     0.014 A 
ATOM     29  C   UNL A   1      34.832  30.288  28.092  1.00  0.00     0.014 A 
ATOM     30  C   UNL A   1      36.901  32.020  28.799  1.00  0.00     0.010 A 
ATOM     31  C   UNL A   1      35.918  29.809  28.807  1.00  0.00     0.010 A 
ATOM     32  C   UNL A   1      36.970  30.666  29.164  1.00  0.00    -0.014 A 
BRANCH  32  33
ATOM     33  C   UNL A   1      38.121  30.098  29.911  1.00  0.00     0.031 A 
ATOM     34  C   UNL A   1      38.404  30.582  31.309  1.00  0.00     0.074 A 
ATOM     35  C   UNL A   1      38.986  29.270  29.292  1.00  0.00     0.049 A 
ATOM     36  N   UNL A   1      39.444  30.358  32.068  1.00  0.00    -0.248 NA
ATOM     37  C   UNL A   1      37.409  31.487  31.914  1.00  0.00     0.031 C 
ATOM     38  C   UNL A   1      38.882  28.810  27.905  1.00  0.00     0.029 A 
ATOM     39  N   UNL A   1      40.148  28.694  29.742  1.00  0.00    -0.354 N 
ATOM     40  C   UNL A   1      39.265  31.146  33.198  1.00  0.00     0.074 A 
ATOM     41  C   UNL A   1      38.035  31.883  33.011  1.00  0.00     0.031 C 
ATOM     42  C   UNL A   1      39.927  28.015  27.622  1.00  0.00     0.029 A 
ATOM     43  C   UNL A   1      40.792  27.931  28.794  1.00  0.00     0.049 A 
ATOM     44  H   UNL A   1      40.491  28.815  30.657  1.00  0.00     0.167 HD
ATOM     45  C   UNL A   1      40.030  31.220  34.311  1.00  0.00     0.034 A 
ATOM     46  C   UNL A   1      41.948  27.242  28.865  1.00  0.00     0.034 A 
ATOM     47  C   UNL A   1      41.190  30.404  34.535  1.00  0.00     0.049 A 
ATOM     48  C   UNL A   1      42.713  27.240  30.161  1.00  0.00     0.074 A 
ATOM     49  C   UNL A   1      41.970  30.309  35.673  1.00  0.00     0.029 A 
ATOM     50  N   UNL A   1      41.722  29.522  33.607  1.00  0.00    -0.354 N 
ATOM     51  N   UNL A   1      42.444  27.874  31.277  1.00  0.00    -0.248 NA
ATOM     52  C   UNL A   1      43.917  26.399  30.223  1.00  0.00     0.031 C 
ATOM     53  C   UNL A   1      42.972  29.362  35.434  1.00  0.00     0.029 A 
ATOM     54  C   UNL A   1      42.811  28.867  34.149  1.00  0.00     0.049 A 
ATOM     55  H   UNL A   1      41.375  29.384  32.696  1.00  0.00     0.167 HD
ATOM     56  C   UNL A   1      43.420  27.481  32.185  1.00  0.00     0.074 A 
ATOM     57  C   UNL A   1      44.277  26.539  31.493  1.00  0.00     0.031 C 
ATOM     58  C   UNL A   1      43.604  27.877  33.467  1.00  0.00     0.034 A 
BRANCH  45  59
ATOM     59  C   UNL A   1      39.584  32.157  35.404  1.00  0.00     0.023 A 
ATOM     60  C   UNL A   1      38.722  31.679  36.414  1.00  0.00     0.012 A 
ATOM     61  C   UNL A   1      40.036  33.489  35.455  1.00  0.00     0.148 A 
ATOM     62  C   UNL A   1      38.284  32.524  37.432  1.00  0.00     0.002 A 
ATOM     63  C   UNL A   1      39.630  34.313  36.500  1.00  0.00     0.091 A 
ATOM     64  F   UNL A   1      40.835  33.933  34.474  1.00  0.00    -0.205 F 
ATOM     65  C   UNL A   1      38.745  33.835  37.480  1.00  0.00     0.022 A 
BRANCH  63  66
ATOM     66  S   UNL A   1      40.230  35.994  36.692  1.00  0.00     0.127 S 
ATOM     67  O   UNL A   1      41.672  35.782  36.805  1.00  0.00    -0.237 OA
ATOM     68  O   UNL A   1      39.803  36.621  35.440  1.00  0.00    -0.237 OA
ATOM     69  O   UNL A   1      39.575  36.518  37.881  1.00  0.00    -0.744 OA
ENDBRANCH  63  66
ENDBRANCH  45  59
BRANCH  46  70
ATOM     70  C   UNL A   1      42.393  26.413  27.708  1.00  0.00     0.023 A 
ATOM     71  C   UNL A   1      43.220  26.999  26.728  1.00  0.00     0.012 A 
ATOM     72  C   UNL A   1      42.043  25.055  27.586  1.00  0.00     0.148 A 
ATOM     73  C   UNL A   1      43.666  26.257  25.635  1.00  0.00     0.002 A 
ATOM     74  C   UNL A   1      42.531  24.308  26.519  1.00  0.00     0.091 A 
ATOM     75  F   UNL A   1      41.245  24.517  28.520  1.00  0.00    -0.205 F 
ATOM     76  C   UNL A   1      43.330  24.910  25.534  1.00  0.00     0.022 A 
BRANCH  74  77
ATOM     77  S   UNL A   1      42.256  22.538  26.381  1.00  0.00     0.127 S 
ATOM     78  O   UNL A   1      42.854  22.044  27.618  1.00  0.00    -0.237 OA
ATOM     79  O   UNL A   1      40.795  22.458  26.329  1.00  0.00    -0.237 OA
ATOM     80  O   UNL A   1      42.919  22.139  25.147  1.00  0.00    -0.744 OA
ENDBRANCH  74  77
ENDBRANCH  46  70
BRANCH  58  81
ATOM     81  C   UNL A   1      44.746  27.268  34.232  1.00  0.00     0.023 A 
ATOM     82  C   UNL A   1      46.007  27.896  34.216  1.00  0.00     0.012 A 
ATOM     83  C   UNL A   1      44.544  26.135  35.045  1.00  0.00     0.148 A 
ATOM     84  C   UNL A   1      47.057  27.393  34.982  1.00  0.00     0.002 A 
ATOM     85  C   UNL A   1      45.582  25.665  35.839  1.00  0.00     0.091 A 
ATOM     86  F   UNL A   1      43.342  25.541  35.027  1.00  0.00    -0.205 F 
ATOM     87  C   UNL A   1      46.841  26.288  35.803  1.00  0.00     0.022 A 
BRANCH  85  88
ATOM     88  S   UNL A   1      45.361  24.308  36.994  1.00  0.00     0.127 S 
ATOM     89  O   UNL A   1      45.006  23.208  36.099  1.00  0.00    -0.237 OA
ATOM     90  O   UNL A   1      46.688  24.194  37.602  1.00  0.00    -0.237 OA
ATOM     91  O   UNL A   1      44.315  24.736  37.913  1.00  0.00    -0.744 OA
ENDBRANCH  85  88
ENDBRANCH  58  81
ENDBRANCH  32  33
ENDBRANCH  24  27
ENDBRANCH  22  23
ENDBRANCH  21  22
ENDBRANCH   1  21
TORSDOF 17
ENDMDL
MODEL 2
REMARK VINA RESULT:     -11.0      2.705      8.281
REMARK SMILES C[C@@H]([N@@H+](C)[C@@H]1COC[C@@H]1C(=O)NCCCCNC(=O)c1ccc(-c2c3nc(c(-c4cccc(S(=O)(=O)[O-])c4F)c4ccc([nH]4)c(-c4cccc(S(=O)(=O)[O-])c4F)c4nc(c(-c5cccc(S(=O)(=O)[O-])c5F)c5ccc2[nH]5)C=C4)C=C3)cc1)C1(C)CC1
REMARK SMILES IDX 14 1 13 2 12 3 10 4 11 5 9 7 5 8 6 9 7 10 8 11 3 12 4 13
REMARK SMILES IDX 2 15 1 16 83 17 84 18 85 19 86 20 15 21 16 22 17 23 18 24
REMARK SMILES IDX 19 26 20 27 21 28 82 29 22 30 81 31 23 32 24 33 25 34 75 35
REMARK SMILES IDX 26 36 80 37 74 38 76 39 27 40 79 41 73 42 72 43 28 45 60 46
REMARK SMILES IDX 40 47 59 48 41 49 44 50 58 51 77 52 42 53 43 54 57 56 78 57
REMARK SMILES IDX 45 58 29 59 30 60 38 61 31 62 33 63 39 64 32 65 34 66 35 67
REMARK SMILES IDX 36 68 37 69 61 70 62 71 70 72 63 73 65 74 71 75 64 76 66 77
REMARK SMILES IDX 67 78 68 79 69 80 46 81 47 82 55 83 48 84 50 85 56 86 49 87
REMARK SMILES IDX 51 88 52 89 53 90 54 91
REMARK H PARENT 12 6 3 14 17 25 76 44 44 55
REMARK Flexibility Score: inf
ROOT
ATOM      1  C   UNL A   1      32.303  30.066  27.142  1.00  0.00     0.023 C 
ENDROOT
BRANCH   1   2
ATOM      2  C   UNL A   1      33.463  29.271  26.558  1.00  0.00     0.116 C 
BRANCH   2   3
ATOM      3  N   UNL A   1      33.572  29.502  25.129  1.00  0.00    -0.356 N 
ATOM      4  C   UNL A   1      32.930  28.886  24.088  1.00  0.00     0.231 C 
ATOM      5  O   UNL A   1      33.338  29.139  22.954  1.00  0.00    -0.274 OA
ATOM      6  H   UNL A   1      34.203  30.211  24.868  1.00  0.00     0.163 HD
BRANCH   4   7
ATOM      7  C   UNL A   1      31.685  28.038  24.349  1.00  0.00     0.164 C 
ATOM      8  C   UNL A   1      31.497  26.798  23.459  1.00  0.00     0.225 C 
ATOM      9  C   UNL A   1      30.973  27.467  22.175  1.00  0.00     0.226 C 
ATOM     10  O   UNL A   1      30.079  28.503  22.612  1.00  0.00    -0.374 OA
ATOM     11  C   UNL A   1      30.480  28.891  23.938  1.00  0.00     0.180 C 
BRANCH   8  12
ATOM     12  N   UNL A   1      32.609  25.837  23.337  1.00  0.00    -0.330 N 
ATOM     13  C   UNL A   1      33.035  25.665  21.937  1.00  0.00     0.333 C 
ATOM     14  H   UNL A   1      33.316  26.302  23.907  1.00  0.00     0.348 HD
BRANCH  12  15
ATOM     15  C   UNL A   1      32.470  24.491  23.958  1.00  0.00     0.186 C 
ATOM     16  C   UNL A   1      31.045  23.956  24.192  1.00  0.00     0.076 C 
BRANCH  15  17
ATOM     17  C   UNL A   1      33.387  24.405  25.228  1.00  0.00     0.019 C 
ATOM     18  C   UNL A   1      32.781  23.801  26.490  1.00  0.00     0.018 C 
ATOM     19  C   UNL A   1      34.908  24.298  25.108  1.00  0.00     0.013 C 
ATOM     20  C   UNL A   1      34.290  25.607  25.472  1.00  0.00     0.013 C 
ENDBRANCH  15  17
ENDBRANCH  12  15
ENDBRANCH   8  12
ENDBRANCH   4   7
ENDBRANCH   2   3
ENDBRANCH   1   2
BRANCH   1  21
ATOM     21  C   UNL A   1      32.282  31.541  26.750  1.00  0.00     0.023 C 
BRANCH  21  22
ATOM     22  C   UNL A   1      33.205  32.390  27.600  1.00  0.00     0.116 C 
BRANCH  22  23
ATOM     23  N   UNL A   1      32.752  33.772  27.734  1.00  0.00    -0.352 N 
ATOM     24  C   UNL A   1      33.231  34.749  28.582  1.00  0.00     0.251 C 
ATOM     25  H   UNL A   1      32.011  34.042  27.144  1.00  0.00     0.163 HD
ATOM     26  O   UNL A   1      32.693  35.847  28.636  1.00  0.00    -0.269 OA
BRANCH  24  27
ATOM     27  C   UNL A   1      34.371  34.421  29.469  1.00  0.00     0.039 A 
ATOM     28  C   UNL A   1      34.128  33.769  30.680  1.00  0.00     0.014 A 
ATOM     29  C   UNL A   1      35.678  34.661  29.046  1.00  0.00     0.014 A 
ATOM     30  C   UNL A   1      35.204  33.272  31.419  1.00  0.00     0.010 A 
ATOM     31  C   UNL A   1      36.732  34.063  29.718  1.00  0.00     0.010 A 
ATOM     32  C   UNL A   1      36.511  33.367  30.916  1.00  0.00    -0.014 A 
BRANCH  32  33
ATOM     33  C   UNL A   1      37.679  32.763  31.607  1.00  0.00     0.031 A 
ATOM     34  C   UNL A   1      38.420  31.628  30.950  1.00  0.00     0.074 A 
ATOM     35  C   UNL A   1      37.979  33.128  32.871  1.00  0.00     0.049 A 
ATOM     36  N   UNL A   1      39.342  30.846  31.445  1.00  0.00    -0.248 NA
ATOM     37  C   UNL A   1      38.030  31.291  29.569  1.00  0.00     0.031 C 
ATOM     38  C   UNL A   1      37.269  34.140  33.657  1.00  0.00     0.029 A 
ATOM     39  N   UNL A   1      38.942  32.660  33.730  1.00  0.00    -0.354 N 
ATOM     40  C   UNL A   1      39.587  29.887  30.470  1.00  0.00     0.074 A 
ATOM     41  C   UNL A   1      38.690  30.161  29.369  1.00  0.00     0.031 C 
ATOM     42  C   UNL A   1      37.828  34.226  34.875  1.00  0.00     0.029 A 
ATOM     43  C   UNL A   1      38.914  33.256  34.971  1.00  0.00     0.049 A 
ATOM     44  H   UNL A   1      39.591  31.963  33.484  1.00  0.00     0.167 HD
ATOM     45  C   UNL A   1      40.504  28.891  30.470  1.00  0.00     0.034 A 
ATOM     46  C   UNL A   1      39.679  33.044  36.059  1.00  0.00     0.034 A 
ATOM     47  C   UNL A   1      41.464  28.693  31.519  1.00  0.00     0.049 A 
ATOM     48  C   UNL A   1      40.777  32.017  35.985  1.00  0.00     0.074 A 
ATOM     49  C   UNL A   1      42.514  27.795  31.568  1.00  0.00     0.029 A 
ATOM     50  N   UNL A   1      41.505  29.425  32.696  1.00  0.00    -0.354 N 
ATOM     51  N   UNL A   1      41.094  31.220  34.993  1.00  0.00    -0.248 NA
ATOM     52  C   UNL A   1      41.648  31.885  37.162  1.00  0.00     0.031 C 
ATOM     53  C   UNL A   1      43.195  27.989  32.774  1.00  0.00     0.029 A 
ATOM     54  C   UNL A   1      42.569  29.011  33.473  1.00  0.00     0.049 A 
ATOM     55  H   UNL A   1      40.868  30.135  32.942  1.00  0.00     0.167 HD
ATOM     56  C   UNL A   1      42.221  30.522  35.409  1.00  0.00     0.074 A 
ATOM     57  C   UNL A   1      42.542  31.002  36.737  1.00  0.00     0.031 C 
ATOM     58  C   UNL A   1      42.916  29.556  34.760  1.00  0.00     0.034 A 
BRANCH  45  59
ATOM     59  C   UNL A   1      40.564  27.998  29.258  1.00  0.00     0.023 A 
ATOM     60  C   UNL A   1      39.719  26.871  29.187  1.00  0.00     0.012 A 
ATOM     61  C   UNL A   1      41.423  28.285  28.180  1.00  0.00     0.148 A 
ATOM     62  C   UNL A   1      39.758  26.021  28.084  1.00  0.00     0.002 A 
ATOM     63  C   UNL A   1      41.424  27.457  27.062  1.00  0.00     0.091 A 
ATOM     64  F   UNL A   1      42.237  29.346  28.274  1.00  0.00    -0.205 F 
ATOM     65  C   UNL A   1      40.602  26.319  27.019  1.00  0.00     0.022 A 
BRANCH  63  66
ATOM     66  S   UNL A   1      42.420  27.800  25.608  1.00  0.00     0.127 S 
ATOM     67  O   UNL A   1      41.864  29.077  25.164  1.00  0.00    -0.237 OA
ATOM     68  O   UNL A   1      43.769  27.886  26.169  1.00  0.00    -0.237 OA
ATOM     69  O   UNL A   1      42.212  26.675  24.708  1.00  0.00    -0.744 OA
ENDBRANCH  63  66
ENDBRANCH  45  59
BRANCH  46  70
ATOM     70  C   UNL A   1      39.502  33.894  37.272  1.00  0.00     0.023 A 
ATOM     71  C   UNL A   1      39.956  35.228  37.240  1.00  0.00     0.012 A 
ATOM     72  C   UNL A   1      38.859  33.415  38.429  1.00  0.00     0.148 A 
ATOM     73  C   UNL A   1      39.802  36.060  38.349  1.00  0.00     0.002 A 
ATOM     74  C   UNL A   1      38.664  34.266  39.513  1.00  0.00     0.091 A 
ATOM     75  F   UNL A   1      38.444  32.141  38.446  1.00  0.00    -0.205 F 
ATOM     76  C   UNL A   1      39.148  35.583  39.482  1.00  0.00     0.022 A 
BRANCH  74  77
ATOM     77  S   UNL A   1      37.720  33.775  40.960  1.00  0.00     0.127 S 
ATOM     78  O   UNL A   1      36.552  33.141  40.355  1.00  0.00    -0.237 OA
ATOM     79  O   UNL A   1      38.641  32.856  41.631  1.00  0.00    -0.237 OA
ATOM     80  O   UNL A   1      37.468  35.008  41.694  1.00  0.00    -0.744 OA
ENDBRANCH  74  77
ENDBRANCH  46  70
BRANCH  58  81
ATOM     81  C   UNL A   1      44.121  28.977  35.448  1.00  0.00     0.023 A 
ATOM     82  C   UNL A   1      45.379  29.586  35.274  1.00  0.00     0.012 A 
ATOM     83  C   UNL A   1      43.988  27.897  36.342  1.00  0.00     0.148 A 
ATOM     84  C   UNL A   1      46.493  29.115  35.966  1.00  0.00     0.002 A 
ATOM     85  C   UNL A   1      45.094  27.460  37.061  1.00  0.00     0.091 A 
ATOM     86  F   UNL A   1      42.786  27.320  36.475  1.00  0.00    -0.205 F 
ATOM     87  C   UNL A   1      46.349  28.063  36.868  1.00  0.00     0.022 A 
BRANCH  85  88
ATOM     88  S   UNL A   1      44.975  26.177  38.311  1.00  0.00     0.127 S 
ATOM     89  O   UNL A   1      44.176  25.163  37.623  1.00  0.00    -0.237 OA
ATOM     90  O   UNL A   1      46.376  25.809  38.519  1.00  0.00    -0.237 OA
ATOM     91  O   UNL A   1      44.341  26.803  39.463  1.00  0.00    -0.744 OA
ENDBRANCH  85  88
ENDBRANCH  58  81
ENDBRANCH  32  33
ENDBRANCH  24  27
ENDBRANCH  22  23
ENDBRANCH  21  22
ENDBRANCH   1  21
TORSDOF 17
ENDMDL
MODEL 3
REMARK VINA RESULT:     -10.9      4.757     10.084
REMARK SMILES C[C@@H]([N@@H+](C)[C@@H]1COC[C@@H]1C(=O)NCCCCNC(=O)c1ccc(-c2c3nc(c(-c4cccc(S(=O)(=O)[O-])c4F)c4ccc([nH]4)c(-c4cccc(S(=O)(=O)[O-])c4F)c4nc(c(-c5cccc(S(=O)(=O)[O-])c5F)c5ccc2[nH]5)C=C4)C=C3)cc1)C1(C)CC1
REMARK SMILES IDX 14 1 13 2 12 3 10 4 11 5 9 7 5 8 6 9 7 10 8 11 3 12 4 13
REMARK SMILES IDX 2 15 1 16 83 17 84 18 85 19 86 20 15 21 16 22 17 23 18 24
REMARK SMILES IDX 19 26 20 27 21 28 82 29 22 30 81 31 23 32 24 33 25 34 75 35
REMARK SMILES IDX 26 36 80 37 74 38 76 39 27 40 79 41 73 42 72 43 28 45 60 46
REMARK SMILES IDX 40 47 59 48 41 49 44 50 58 51 77 52 42 53 43 54 57 56 78 57
REMARK SMILES IDX 45 58 29 59 30 60 38 61 31 62 33 63 39 64 32 65 34 66 35 67
REMARK SMILES IDX 36 68 37 69 61 70 62 71 70 72 63 73 65 74 71 75 64 76 66 77
REMARK SMILES IDX 67 78 68 79 69 80 46 81 47 82 55 83 48 84 50 85 56 86 49 87
REMARK SMILES IDX 51 88 52 89 53 90 54 91
REMARK H PARENT 12 6 3 14 17 25 76 44 44 55
REMARK Flexibility Score: inf
ROOT
ATOM      1  C   UNL A   1      36.469  23.022  23.538  1.00  0.00     0.023 C 
ENDROOT
BRANCH   1   2
ATOM      2  C   UNL A   1      34.961  23.181  23.676  1.00  0.00     0.116 C 
BRANCH   2   3
ATOM      3  N   UNL A   1      34.592  23.350  25.069  1.00  0.00    -0.356 N 
ATOM      4  C   UNL A   1      33.395  23.718  25.623  1.00  0.00     0.231 C 
ATOM      5  O   UNL A   1      33.392  23.972  26.828  1.00  0.00    -0.274 OA
ATOM      6  H   UNL A   1      35.312  23.172  25.716  1.00  0.00     0.163 HD
BRANCH   4   7
ATOM      7  C   UNL A   1      32.117  23.675  24.784  1.00  0.00     0.164 C 
ATOM      8  C   UNL A   1      31.050  24.737  25.098  1.00  0.00     0.225 C 
ATOM      9  C   UNL A   1      30.431  24.127  26.370  1.00  0.00     0.226 C 
ATOM     10  O   UNL A   1      30.364  22.712  26.131  1.00  0.00    -0.374 OA
ATOM     11  C   UNL A   1      31.383  22.386  25.169  1.00  0.00     0.180 C 
BRANCH   8  12
ATOM     12  N   UNL A   1      31.450  26.157  25.133  1.00  0.00    -0.330 N 
ATOM     13  C   UNL A   1      31.015  26.819  26.375  1.00  0.00     0.333 C 
ATOM     14  H   UNL A   1      32.464  26.062  25.075  1.00  0.00     0.348 HD
BRANCH  12  15
ATOM     15  C   UNL A   1      31.100  27.033  23.981  1.00  0.00     0.186 C 
ATOM     16  C   UNL A   1      29.665  26.948  23.429  1.00  0.00     0.076 C 
BRANCH  15  17
ATOM     17  C   UNL A   1      32.205  26.906  22.875  1.00  0.00     0.019 C 
ATOM     18  C   UNL A   1      31.900  26.008  21.681  1.00  0.00     0.018 C 
ATOM     19  C   UNL A   1      33.210  28.029  22.619  1.00  0.00     0.013 C 
ATOM     20  C   UNL A   1      33.639  26.819  23.382  1.00  0.00     0.013 C 
ENDBRANCH  15  17
ENDBRANCH  12  15
ENDBRANCH   8  12
ENDBRANCH   4   7
ENDBRANCH   2   3
ENDBRANCH   1   2
BRANCH   1  21
ATOM     21  C   UNL A   1      36.998  21.635  23.894  1.00  0.00     0.023 C 
BRANCH  21  22
ATOM     22  C   UNL A   1      37.362  21.500  25.358  1.00  0.00     0.116 C 
BRANCH  22  23
ATOM     23  N   UNL A   1      38.420  20.523  25.599  1.00  0.00    -0.352 N 
ATOM     24  C   UNL A   1      39.639  20.719  26.214  1.00  0.00     0.251 C 
ATOM     25  H   UNL A   1      38.241  19.608  25.282  1.00  0.00     0.163 HD
ATOM     26  O   UNL A   1      40.460  19.814  26.273  1.00  0.00    -0.269 OA
BRANCH  24  27
ATOM     27  C   UNL A   1      39.956  22.063  26.747  1.00  0.00     0.039 A 
ATOM     28  C   UNL A   1      40.949  22.195  27.721  1.00  0.00     0.014 A 
ATOM     29  C   UNL A   1      39.347  23.194  26.203  1.00  0.00     0.014 A 
ATOM     30  C   UNL A   1      41.398  23.471  28.075  1.00  0.00     0.010 A 
ATOM     31  C   UNL A   1      39.876  24.447  26.467  1.00  0.00     0.010 A 
ATOM     32  C   UNL A   1      40.903  24.604  27.410  1.00  0.00    -0.014 A 
BRANCH  32  33
ATOM     33  C   UNL A   1      41.420  25.971  27.671  1.00  0.00     0.031 A 
ATOM     34  C   UNL A   1      42.828  26.317  27.265  1.00  0.00     0.074 A 
ATOM     35  C   UNL A   1      40.688  26.844  28.393  1.00  0.00     0.049 A 
ATOM     36  N   UNL A   1      43.535  27.379  27.552  1.00  0.00    -0.248 NA
ATOM     37  C   UNL A   1      43.561  25.308  26.479  1.00  0.00     0.031 C 
ATOM     38  C   UNL A   1      39.351  26.591  28.936  1.00  0.00     0.029 A 
ATOM     39  N   UNL A   1      40.983  28.113  28.826  1.00  0.00    -0.354 N 
ATOM     40  C   UNL A   1      44.806  27.134  27.049  1.00  0.00     0.074 A 
ATOM     41  C   UNL A   1      44.787  25.808  26.472  1.00  0.00     0.031 C 
ATOM     42  C   UNL A   1      38.938  27.672  29.617  1.00  0.00     0.029 A 
ATOM     43  C   UNL A   1      39.988  28.684  29.587  1.00  0.00     0.049 A 
ATOM     44  H   UNL A   1      41.827  28.572  28.614  1.00  0.00     0.167 HD
ATOM     45  C   UNL A   1      45.884  27.952  27.030  1.00  0.00     0.034 A 
ATOM     46  C   UNL A   1      39.932  29.888  30.190  1.00  0.00     0.034 A 
ATOM     47  C   UNL A   1      45.864  29.306  27.507  1.00  0.00     0.049 A 
ATOM     48  C   UNL A   1      41.097  30.829  30.042  1.00  0.00     0.074 A 
ATOM     49  C   UNL A   1      46.859  30.262  27.428  1.00  0.00     0.029 A 
ATOM     50  N   UNL A   1      44.779  29.903  28.132  1.00  0.00    -0.354 N 
ATOM     51  N   UNL A   1      42.240  30.635  29.427  1.00  0.00    -0.248 NA
ATOM     52  C   UNL A   1      40.954  32.167  30.635  1.00  0.00     0.031 C 
ATOM     53  C   UNL A   1      46.373  31.442  28.000  1.00  0.00     0.029 A 
ATOM     54  C   UNL A   1      45.074  31.219  28.431  1.00  0.00     0.049 A 
ATOM     55  H   UNL A   1      43.926  29.455  28.333  1.00  0.00     0.167 HD
ATOM     56  C   UNL A   1      42.934  31.834  29.525  1.00  0.00     0.074 A 
ATOM     57  C   UNL A   1      42.077  32.755  30.243  1.00  0.00     0.031 C 
ATOM     58  C   UNL A   1      44.177  32.141  29.080  1.00  0.00     0.034 A 
BRANCH  45  59
ATOM     59  C   UNL A   1      47.147  27.428  26.396  1.00  0.00     0.023 A 
ATOM     60  C   UNL A   1      47.423  27.737  25.047  1.00  0.00     0.012 A 
ATOM     61  C   UNL A   1      48.073  26.665  27.133  1.00  0.00     0.148 A 
ATOM     62  C   UNL A   1      48.577  27.259  24.430  1.00  0.00     0.002 A 
ATOM     63  C   UNL A   1      49.244  26.230  26.522  1.00  0.00     0.091 A 
ATOM     64  F   UNL A   1      47.784  26.360  28.406  1.00  0.00    -0.205 F 
ATOM     65  C   UNL A   1      49.491  26.515  25.169  1.00  0.00     0.022 A 
BRANCH  63  66
ATOM     66  S   UNL A   1      50.519  25.331  27.412  1.00  0.00     0.127 S 
ATOM     67  O   UNL A   1      50.939  26.318  28.405  1.00  0.00    -0.237 OA
ATOM     68  O   UNL A   1      49.774  24.196  27.959  1.00  0.00    -0.237 OA
ATOM     69  O   UNL A   1      51.520  24.971  26.419  1.00  0.00    -0.744 OA
ENDBRANCH  63  66
ENDBRANCH  45  59
BRANCH  46  70
ATOM     70  C   UNL A   1      38.687  30.310  30.894  1.00  0.00     0.023 A 
ATOM     71  C   UNL A   1      38.546  30.012  32.265  1.00  0.00     0.012 A 
ATOM     72  C   UNL A   1      37.669  31.030  30.241  1.00  0.00     0.148 A 
ATOM     73  C   UNL A   1      37.403  30.396  32.965  1.00  0.00     0.002 A 
ATOM     74  C   UNL A   1      36.553  31.453  30.957  1.00  0.00     0.091 A 
ATOM     75  F   UNL A   1      37.813  31.294  28.935  1.00  0.00    -0.205 F 
ATOM     76  C   UNL A   1      36.410  31.125  32.314  1.00  0.00     0.022 A 
BRANCH  74  77
ATOM     77  S   UNL A   1      35.291  32.505  30.232  1.00  0.00     0.127 S 
ATOM     78  O   UNL A   1      34.372  32.687  31.352  1.00  0.00    -0.237 OA
ATOM     79  O   UNL A   1      36.057  33.697  29.865  1.00  0.00    -0.237 OA
ATOM     80  O   UNL A   1      34.771  31.758  29.094  1.00  0.00    -0.744 OA
ENDBRANCH  74  77
ENDBRANCH  46  70
BRANCH  58  81
ATOM     81  C   UNL A   1      44.679  33.539  29.310  1.00  0.00     0.023 A 
ATOM     82  C   UNL A   1      45.339  33.851  30.514  1.00  0.00     0.012 A 
ATOM     83  C   UNL A   1      44.586  34.512  28.295  1.00  0.00     0.148 A 
ATOM     84  C   UNL A   1      45.883  35.118  30.714  1.00  0.00     0.002 A 
ATOM     85  C   UNL A   1      45.169  35.759  28.484  1.00  0.00     0.091 A 
ATOM     86  F   UNL A   1      43.934  34.200  27.166  1.00  0.00    -0.205 F 
ATOM     87  C   UNL A   1      45.810  36.067  29.696  1.00  0.00     0.022 A 
BRANCH  85  88
ATOM     88  S   UNL A   1      45.203  37.003  27.190  1.00  0.00     0.127 S 
ATOM     89  O   UNL A   1      43.778  37.222  26.947  1.00  0.00    -0.237 OA
ATOM     90  O   UNL A   1      45.887  38.119  27.844  1.00  0.00    -0.237 OA
ATOM     91  O   UNL A   1      45.945  36.407  26.087  1.00  0.00    -0.744 OA
ENDBRANCH  85  88
ENDBRANCH  58  81
ENDBRANCH  32  33
ENDBRANCH  24  27
ENDBRANCH  22  23
ENDBRANCH  21  22
ENDBRANCH   1  21
TORSDOF 17
ENDMDL
