MODEL 1
REMARK VINA RESULT:     -12.6      0.000      0.000
REMARK SMILES NS(=O)(=O)c1ccc(-n2ccnc2-c2ccc(O)c(C(=O)NCCCCNC(=O)c3ccc(-c4c5nc(c(-c6cccc(S(=O)(=O)[O-])c6F)c6ccc([nH]6)c(-c6cccc(S(=O)(=O)[O-])c6F)c6nc(c(-c7cccc(S(=O)(=O)[O-])c7F)c7ccc4[nH]7)C=C6)C=C5)cc3)c2)cc1
REMARK SMILES IDX 24 1 23 2 22 3 20 4 21 5 19 7 14 8 15 9 93 10 16 11 17 12
REMARK SMILES IDX 13 13 9 14 10 15 11 16 12 17 8 18 5 19 6 20 95 21 7 22 94 23
REMARK SMILES IDX 2 24 3 25 4 26 1 27 18 30 25 32 26 33 27 34 28 35 29 37
REMARK SMILES IDX 30 38 31 39 92 40 32 41 91 42 33 43 34 44 35 45 85 46 36 47
REMARK SMILES IDX 90 48 84 49 86 50 37 51 89 52 83 53 82 54 38 56 70 57 50 58
REMARK SMILES IDX 69 59 51 60 54 61 68 62 87 63 52 64 53 65 67 67 88 68 55 69
REMARK SMILES IDX 39 70 40 71 48 72 41 73 43 74 49 75 42 76 44 77 45 78 46 79
REMARK SMILES IDX 47 80 71 81 72 82 80 83 73 84 75 85 81 86 74 87 76 88 77 89
REMARK SMILES IDX 78 90 79 91 56 92 57 93 65 94 58 95 60 96 66 97 59 98 61 99
REMARK SMILES IDX 62 100 63 101 64 102
REMARK H PARENT 22 6 1 28 1 29 18 31 27 36 86 55 54 66
REMARK Flexibility Score: inf
ROOT
ATOM      1  C   UNL A   1      37.192  20.830  24.568  1.00  0.00     0.023 C 
ENDROOT
BRANCH   1   2
ATOM      2  C   UNL A   1      37.380  22.203  25.214  1.00  0.00     0.116 C 
BRANCH   2   3
ATOM      3  N   UNL A   1      36.423  22.533  26.265  1.00  0.00    -0.352 N 
ATOM      4  C   UNL A   1      35.046  22.626  26.318  1.00  0.00     0.255 C 
ATOM      5  O   UNL A   1      34.531  23.003  27.373  1.00  0.00    -0.269 OA
ATOM      6  H   UNL A   1      36.855  22.734  27.127  1.00  0.00     0.163 HD
BRANCH   4   7
ATOM      7  C   UNL A   1      34.132  22.385  25.165  1.00  0.00     0.082 A 
ATOM      8  C   UNL A   1      33.193  23.099  23.023  1.00  0.00     0.019 A 
ATOM      9  C   UNL A   1      32.162  22.168  23.164  1.00  0.00     0.016 A 
ATOM     10  C   UNL A   1      34.213  23.121  23.989  1.00  0.00     0.029 A 
ATOM     11  C   UNL A   1      32.162  21.285  24.247  1.00  0.00     0.048 A 
ATOM     12  C   UNL A   1      33.130  21.407  25.247  1.00  0.00     0.128 A 
BRANCH   8  13
ATOM     13  C   UNL A   1      33.127  24.163  22.004  1.00  0.00     0.144 A 
ATOM     14  N   UNL A   1      32.652  25.462  22.207  1.00  0.00    -0.300 N 
ATOM     15  C   UNL A   1      32.251  25.923  20.972  1.00  0.00     0.113 A 
ATOM     16  C   UNL A   1      32.685  24.988  20.068  1.00  0.00     0.132 A 
ATOM     17  N   UNL A   1      33.259  23.926  20.706  1.00  0.00    -0.236 NA
BRANCH  14  18
ATOM     18  C   UNL A   1      32.547  26.170  23.431  1.00  0.00     0.047 A 
ATOM     19  C   UNL A   1      32.273  27.659  25.766  1.00  0.00     0.082 A 
ATOM     20  C   UNL A   1      31.207  26.875  25.324  1.00  0.00     0.024 A 
ATOM     21  C   UNL A   1      33.476  27.703  25.052  1.00  0.00     0.024 A 
ATOM     22  C   UNL A   1      31.343  26.132  24.151  1.00  0.00     0.028 A 
ATOM     23  C   UNL A   1      33.625  26.939  23.893  1.00  0.00     0.028 A 
BRANCH  19  24
ATOM     24  S   UNL A   1      32.111  28.649  27.227  1.00  0.00     0.238 S 
ATOM     25  O   UNL A   1      31.381  27.858  28.202  1.00  0.00    -0.207 OA
ATOM     26  O   UNL A   1      31.699  29.959  26.816  1.00  0.00    -0.207 OA
BRANCH  24  27
ATOM     27  N   UNL A   1      33.676  28.781  27.805  1.00  0.00    -0.225 NA
ATOM     28  H   UNL A   1      33.693  29.422  28.598  1.00  0.00     0.137 HD
ATOM     29  H   UNL A   1      34.283  29.138  27.066  1.00  0.00     0.137 HD
ENDBRANCH  24  27
ENDBRANCH  19  24
ENDBRANCH  14  18
ENDBRANCH   8  13
BRANCH  12  30
ATOM     30  O   UNL A   1      33.028  20.526  26.292  1.00  0.00    -0.507 OA
ATOM     31  H   UNL A   1      33.281  19.631  26.177  1.00  0.00     0.293 HD
ENDBRANCH  12  30
ENDBRANCH   4   7
ENDBRANCH   2   3
ENDBRANCH   1   2
BRANCH   1  32
ATOM     32  C   UNL A   1      38.081  19.688  25.059  1.00  0.00     0.023 C 
BRANCH  32  33
ATOM     33  C   UNL A   1      39.298  20.108  25.874  1.00  0.00     0.116 C 
BRANCH  33  34
ATOM     34  N   UNL A   1      40.434  19.189  25.762  1.00  0.00    -0.352 N 
ATOM     35  C   UNL A   1      41.778  19.511  25.847  1.00  0.00     0.251 C 
ATOM     36  H   UNL A   1      40.218  18.240  25.611  1.00  0.00     0.163 HD
ATOM     37  O   UNL A   1      42.640  18.760  25.407  1.00  0.00    -0.269 OA
BRANCH  35  38
ATOM     38  C   UNL A   1      42.146  20.787  26.485  1.00  0.00     0.039 A 
ATOM     39  C   UNL A   1      42.340  21.949  25.735  1.00  0.00     0.014 A 
ATOM     40  C   UNL A   1      42.199  20.815  27.877  1.00  0.00     0.014 A 
ATOM     41  C   UNL A   1      42.480  23.162  26.406  1.00  0.00     0.010 A 
ATOM     42  C   UNL A   1      42.196  22.023  28.531  1.00  0.00     0.010 A 
ATOM     43  C   UNL A   1      42.372  23.198  27.807  1.00  0.00    -0.014 A 
BRANCH  43  44
ATOM     44  C   UNL A   1      42.351  24.476  28.512  1.00  0.00     0.031 A 
ATOM     45  C   UNL A   1      41.136  25.309  28.302  1.00  0.00     0.074 A 
ATOM     46  C   UNL A   1      43.262  24.834  29.442  1.00  0.00     0.049 A 
ATOM     47  N   UNL A   1      41.037  26.384  27.590  1.00  0.00    -0.248 NA
ATOM     48  C   UNL A   1      39.855  24.833  28.841  1.00  0.00     0.031 C 
ATOM     49  C   UNL A   1      44.334  24.021  30.026  1.00  0.00     0.029 A 
ATOM     50  N   UNL A   1      43.338  25.989  30.159  1.00  0.00    -0.354 N 
ATOM     51  C   UNL A   1      39.741  26.856  27.792  1.00  0.00     0.074 A 
ATOM     52  C   UNL A   1      39.012  25.770  28.394  1.00  0.00     0.031 C 
ATOM     53  C   UNL A   1      44.776  24.602  31.161  1.00  0.00     0.029 A 
ATOM     54  C   UNL A   1      44.167  25.912  31.269  1.00  0.00     0.049 A 
ATOM     55  H   UNL A   1      42.848  26.807  29.911  1.00  0.00     0.167 HD
ATOM     56  C   UNL A   1      39.445  28.182  27.673  1.00  0.00     0.034 A 
ATOM     57  C   UNL A   1      44.328  26.855  32.224  1.00  0.00     0.034 A 
ATOM     58  C   UNL A   1      40.530  28.907  27.059  1.00  0.00     0.049 A 
ATOM     59  C   UNL A   1      43.926  28.145  31.627  1.00  0.00     0.074 A 
ATOM     60  C   UNL A   1      41.205  28.850  25.857  1.00  0.00     0.029 A 
ATOM     61  N   UNL A   1      41.325  29.642  27.904  1.00  0.00    -0.354 N 
ATOM     62  N   UNL A   1      44.567  28.717  30.646  1.00  0.00    -0.248 NA
ATOM     63  C   UNL A   1      42.572  28.621  31.852  1.00  0.00     0.031 C 
ATOM     64  C   UNL A   1      42.563  29.144  26.185  1.00  0.00     0.029 A 
ATOM     65  C   UNL A   1      42.628  29.420  27.553  1.00  0.00     0.049 A 
ATOM     66  H   UNL A   1      41.013  30.223  28.634  1.00  0.00     0.167 HD
ATOM     67  C   UNL A   1      43.568  29.269  29.857  1.00  0.00     0.074 A 
ATOM     68  C   UNL A   1      42.388  29.300  30.716  1.00  0.00     0.031 C 
ATOM     69  C   UNL A   1      43.719  29.378  28.503  1.00  0.00     0.034 A 
BRANCH  56  70
ATOM     70  C   UNL A   1      38.368  28.927  28.437  1.00  0.00     0.023 A 
ATOM     71  C   UNL A   1      37.520  29.779  27.687  1.00  0.00     0.012 A 
ATOM     72  C   UNL A   1      38.321  29.065  29.842  1.00  0.00     0.148 A 
ATOM     73  C   UNL A   1      36.728  30.760  28.295  1.00  0.00     0.002 A 
ATOM     74  C   UNL A   1      37.472  29.987  30.447  1.00  0.00     0.091 A 
ATOM     75  F   UNL A   1      39.190  28.404  30.610  1.00  0.00    -0.205 F 
ATOM     76  C   UNL A   1      36.700  30.861  29.679  1.00  0.00     0.022 A 
BRANCH  74  77
ATOM     77  S   UNL A   1      37.353  30.127  32.236  1.00  0.00     0.127 S 
ATOM     78  O   UNL A   1      36.264  31.089  32.380  1.00  0.00    -0.237 OA
ATOM     79  O   UNL A   1      37.024  28.754  32.622  1.00  0.00    -0.237 OA
ATOM     80  O   UNL A   1      38.668  30.573  32.678  1.00  0.00    -0.744 OA
ENDBRANCH  74  77
ENDBRANCH  56  70
BRANCH  57  81
ATOM     81  C   UNL A   1      44.579  26.695  33.672  1.00  0.00     0.023 A 
ATOM     82  C   UNL A   1      45.811  27.108  34.214  1.00  0.00     0.012 A 
ATOM     83  C   UNL A   1      43.514  26.419  34.558  1.00  0.00     0.148 A 
ATOM     84  C   UNL A   1      45.963  27.291  35.593  1.00  0.00     0.002 A 
ATOM     85  C   UNL A   1      43.672  26.598  35.928  1.00  0.00     0.091 A 
ATOM     86  F   UNL A   1      42.324  26.070  34.049  1.00  0.00    -0.205 F 
ATOM     87  C   UNL A   1      44.891  27.050  36.449  1.00  0.00     0.022 A 
BRANCH  85  88
ATOM     88  S   UNL A   1      42.331  26.310  37.089  1.00  0.00     0.127 S 
ATOM     89  O   UNL A   1      43.020  26.408  38.376  1.00  0.00    -0.237 OA
ATOM     90  O   UNL A   1      41.428  27.418  36.788  1.00  0.00    -0.237 OA
ATOM     91  O   UNL A   1      41.829  24.975  36.785  1.00  0.00    -0.744 OA
ENDBRANCH  85  88
ENDBRANCH  57  81
BRANCH  69  92
ATOM     92  C   UNL A   1      45.099  29.181  27.922  1.00  0.00     0.023 A 
ATOM     93  C   UNL A   1      46.087  30.187  27.952  1.00  0.00     0.012 A 
ATOM     94  C   UNL A   1      45.456  27.893  27.487  1.00  0.00     0.148 A 
ATOM     95  C   UNL A   1      47.394  29.918  27.536  1.00  0.00     0.002 A 
ATOM     96  C   UNL A   1      46.767  27.618  27.119  1.00  0.00     0.091 A 
ATOM     97  F   UNL A   1      44.506  26.945  27.468  1.00  0.00    -0.205 F 
ATOM     98  C   UNL A   1      47.738  28.630  27.133  1.00  0.00     0.022 A 
BRANCH  96  99
ATOM     99  S   UNL A   1      47.296  25.952  26.714  1.00  0.00     0.127 S 
ATOM    100  O   UNL A   1      46.581  25.699  25.464  1.00  0.00    -0.237 OA
ATOM    101  O   UNL A   1      48.744  26.105  26.571  1.00  0.00    -0.237 OA
ATOM    102  O   UNL A   1      46.897  25.120  27.844  1.00  0.00    -0.744 OA
ENDBRANCH  96  99
ENDBRANCH  69  92
ENDBRANCH  43  44
ENDBRANCH  35  38
ENDBRANCH  33  34
ENDBRANCH  32  33
ENDBRANCH   1  32
TORSDOF 19
ENDMDL
MODEL 2
REMARK VINA RESULT:     -11.6      3.211      7.165
REMARK SMILES NS(=O)(=O)c1ccc(-n2ccnc2-c2ccc(O)c(C(=O)NCCCCNC(=O)c3ccc(-c4c5nc(c(-c6cccc(S(=O)(=O)[O-])c6F)c6ccc([nH]6)c(-c6cccc(S(=O)(=O)[O-])c6F)c6nc(c(-c7cccc(S(=O)(=O)[O-])c7F)c7ccc4[nH]7)C=C6)C=C5)cc3)c2)cc1
REMARK SMILES IDX 24 1 23 2 22 3 20 4 21 5 19 7 14 8 15 9 93 10 16 11 17 12
REMARK SMILES IDX 13 13 9 14 10 15 11 16 12 17 8 18 5 19 6 20 95 21 7 22 94 23
REMARK SMILES IDX 2 24 3 25 4 26 1 27 18 30 25 32 26 33 27 34 28 35 29 37
REMARK SMILES IDX 30 38 31 39 92 40 32 41 91 42 33 43 34 44 35 45 85 46 36 47
REMARK SMILES IDX 90 48 84 49 86 50 37 51 89 52 83 53 82 54 38 56 70 57 50 58
REMARK SMILES IDX 69 59 51 60 54 61 68 62 87 63 52 64 53 65 67 67 88 68 55 69
REMARK SMILES IDX 39 70 40 71 48 72 41 73 43 74 49 75 42 76 44 77 45 78 46 79
REMARK SMILES IDX 47 80 71 81 72 82 80 83 73 84 75 85 81 86 74 87 76 88 77 89
REMARK SMILES IDX 78 90 79 91 56 92 57 93 65 94 58 95 60 96 66 97 59 98 61 99
REMARK SMILES IDX 62 100 63 101 64 102
REMARK H PARENT 22 6 1 28 1 29 18 31 27 36 86 55 54 66
REMARK Flexibility Score: inf
ROOT
ATOM      1  C   UNL A   1      35.302  21.763  24.294  1.00  0.00     0.023 C 
ENDROOT
BRANCH   1   2
ATOM      2  C   UNL A   1      34.076  22.080  25.150  1.00  0.00     0.116 C 
BRANCH   2   3
ATOM      3  N   UNL A   1      32.829  22.252  24.413  1.00  0.00    -0.352 N 
ATOM      4  C   UNL A   1      32.271  23.293  23.697  1.00  0.00     0.255 C 
ATOM      5  O   UNL A   1      31.138  23.137  23.234  1.00  0.00    -0.269 OA
ATOM      6  H   UNL A   1      32.260  21.448  24.429  1.00  0.00     0.163 HD
BRANCH   4   7
ATOM      7  C   UNL A   1      32.901  24.631  23.509  1.00  0.00     0.082 A 
ATOM      8  C   UNL A   1      33.503  26.829  24.394  1.00  0.00     0.019 A 
ATOM      9  C   UNL A   1      33.734  27.289  23.096  1.00  0.00     0.016 A 
ATOM     10  C   UNL A   1      33.180  25.475  24.578  1.00  0.00     0.029 A 
ATOM     11  C   UNL A   1      33.643  26.408  22.017  1.00  0.00     0.048 A 
ATOM     12  C   UNL A   1      33.212  25.094  22.222  1.00  0.00     0.128 A 
BRANCH   8  13
ATOM     13  C   UNL A   1      33.407  27.765  25.529  1.00  0.00     0.144 A 
ATOM     14  N   UNL A   1      32.618  28.919  25.575  1.00  0.00    -0.300 N 
ATOM     15  C   UNL A   1      33.206  29.752  26.502  1.00  0.00     0.113 A 
ATOM     16  C   UNL A   1      34.176  29.000  27.114  1.00  0.00     0.132 A 
ATOM     17  N   UNL A   1      34.267  27.764  26.538  1.00  0.00    -0.236 NA
BRANCH  14  18
ATOM     18  C   UNL A   1      31.469  29.220  24.800  1.00  0.00     0.047 A 
ATOM     19  C   UNL A   1      29.138  29.802  23.397  1.00  0.00     0.082 A 
ATOM     20  C   UNL A   1      29.782  30.815  24.106  1.00  0.00     0.024 A 
ATOM     21  C   UNL A   1      29.651  28.499  23.381  1.00  0.00     0.024 A 
ATOM     22  C   UNL A   1      30.948  30.522  24.813  1.00  0.00     0.028 A 
ATOM     23  C   UNL A   1      30.833  28.210  24.066  1.00  0.00     0.028 A 
BRANCH  19  24
ATOM     24  S   UNL A   1      27.630  30.134  22.527  1.00  0.00     0.238 S 
ATOM     25  O   UNL A   1      27.927  30.056  21.108  1.00  0.00    -0.207 OA
ATOM     26  O   UNL A   1      27.026  31.283  23.137  1.00  0.00    -0.207 OA
BRANCH  24  27
ATOM     27  N   UNL A   1      26.657  28.819  22.878  1.00  0.00    -0.225 NA
ATOM     28  H   UNL A   1      26.871  28.478  23.815  1.00  0.00     0.137 HD
ATOM     29  H   UNL A   1      26.828  28.078  22.198  1.00  0.00     0.137 HD
ENDBRANCH  24  27
ENDBRANCH  19  24
ENDBRANCH  14  18
ENDBRANCH   8  13
BRANCH  12  30
ATOM     30  O   UNL A   1      33.112  24.312  21.101  1.00  0.00    -0.507 OA
ATOM     31  H   UNL A   1      33.789  23.696  20.897  1.00  0.00     0.293 HD
ENDBRANCH  12  30
ENDBRANCH   4   7
ENDBRANCH   2   3
ENDBRANCH   1   2
BRANCH   1  32
ATOM     32  C   UNL A   1      36.324  22.878  24.079  1.00  0.00     0.023 C 
BRANCH  32  33
ATOM     33  C   UNL A   1      37.279  23.127  25.239  1.00  0.00     0.116 C 
BRANCH  33  34
ATOM     34  N   UNL A   1      38.129  21.979  25.565  1.00  0.00    -0.352 N 
ATOM     35  C   UNL A   1      39.349  22.006  26.221  1.00  0.00     0.251 C 
ATOM     36  H   UNL A   1      37.797  21.094  25.289  1.00  0.00     0.163 HD
ATOM     37  O   UNL A   1      40.132  21.066  26.143  1.00  0.00    -0.269 OA
BRANCH  35  38
ATOM     38  C   UNL A   1      39.682  23.198  27.018  1.00  0.00     0.039 A 
ATOM     39  C   UNL A   1      40.827  23.247  27.815  1.00  0.00     0.014 A 
ATOM     40  C   UNL A   1      38.861  24.314  26.874  1.00  0.00     0.014 A 
ATOM     41  C   UNL A   1      41.197  24.466  28.379  1.00  0.00     0.010 A 
ATOM     42  C   UNL A   1      39.301  25.540  27.311  1.00  0.00     0.010 A 
ATOM     43  C   UNL A   1      40.448  25.621  28.094  1.00  0.00    -0.014 A 
BRANCH  43  44
ATOM     44  C   UNL A   1      40.914  26.931  28.539  1.00  0.00     0.031 A 
ATOM     45  C   UNL A   1      42.205  27.388  27.958  1.00  0.00     0.074 A 
ATOM     46  C   UNL A   1      40.169  27.779  29.280  1.00  0.00     0.049 A 
ATOM     47  N   UNL A   1      43.353  27.447  28.550  1.00  0.00    -0.248 NA
ATOM     48  C   UNL A   1      42.258  27.702  26.524  1.00  0.00     0.031 C 
ATOM     49  C   UNL A   1      38.760  27.651  29.667  1.00  0.00     0.029 A 
ATOM     50  N   UNL A   1      40.496  29.015  29.745  1.00  0.00    -0.354 N 
ATOM     51  C   UNL A   1      44.222  28.038  27.635  1.00  0.00     0.074 A 
ATOM     52  C   UNL A   1      43.555  27.985  26.361  1.00  0.00     0.031 C 
ATOM     53  C   UNL A   1      38.292  28.850  30.074  1.00  0.00     0.029 A 
ATOM     54  C   UNL A   1      39.409  29.768  30.167  1.00  0.00     0.049 A 
ATOM     55  H   UNL A   1      41.423  29.346  29.780  1.00  0.00     0.167 HD
ATOM     56  C   UNL A   1      45.313  28.744  28.051  1.00  0.00     0.034 A 
ATOM     57  C   UNL A   1      39.423  31.064  30.549  1.00  0.00     0.034 A 
ATOM     58  C   UNL A   1      45.565  28.536  29.456  1.00  0.00     0.049 A 
ATOM     59  C   UNL A   1      40.807  31.375  30.963  1.00  0.00     0.074 A 
ATOM     60  C   UNL A   1      45.837  27.451  30.264  1.00  0.00     0.029 A 
ATOM     61  N   UNL A   1      45.174  29.548  30.299  1.00  0.00    -0.354 N 
ATOM     62  N   UNL A   1      41.388  30.836  31.998  1.00  0.00    -0.248 NA
ATOM     63  C   UNL A   1      41.696  31.995  29.997  1.00  0.00     0.031 C 
ATOM     64  C   UNL A   1      45.149  27.723  31.485  1.00  0.00     0.029 A 
ATOM     65  C   UNL A   1      44.547  28.979  31.373  1.00  0.00     0.049 A 
ATOM     66  H   UNL A   1      45.319  30.511  30.155  1.00  0.00     0.167 HD
ATOM     67  C   UNL A   1      42.700  30.639  31.591  1.00  0.00     0.074 A 
ATOM     68  C   UNL A   1      42.860  31.492  30.418  1.00  0.00     0.031 C 
ATOM     69  C   UNL A   1      43.435  29.590  32.070  1.00  0.00     0.034 A 
BRANCH  56  70
ATOM     70  C   UNL A   1      45.941  29.921  27.330  1.00  0.00     0.023 A 
ATOM     71  C   UNL A   1      47.350  30.047  27.413  1.00  0.00     0.012 A 
ATOM     72  C   UNL A   1      45.233  31.038  26.836  1.00  0.00     0.148 A 
ATOM     73  C   UNL A   1      48.007  31.241  27.093  1.00  0.00     0.002 A 
ATOM     74  C   UNL A   1      45.899  32.196  26.443  1.00  0.00     0.091 A 
ATOM     75  F   UNL A   1      43.899  31.053  26.864  1.00  0.00    -0.205 F 
ATOM     76  C   UNL A   1      47.281  32.316  26.602  1.00  0.00     0.022 A 
BRANCH  74  77
ATOM     77  S   UNL A   1      45.017  33.601  25.750  1.00  0.00     0.127 S 
ATOM     78  O   UNL A   1      46.120  34.487  25.390  1.00  0.00    -0.237 OA
ATOM     79  O   UNL A   1      44.319  32.988  24.620  1.00  0.00    -0.237 OA
ATOM     80  O   UNL A   1      44.137  34.069  26.812  1.00  0.00    -0.744 OA
ENDBRANCH  74  77
ENDBRANCH  56  70
BRANCH  57  81
ATOM     81  C   UNL A   1      38.395  32.110  30.367  1.00  0.00     0.023 A 
ATOM     82  C   UNL A   1      37.889  32.372  29.079  1.00  0.00     0.012 A 
ATOM     83  C   UNL A   1      37.705  32.639  31.480  1.00  0.00     0.148 A 
ATOM     84  C   UNL A   1      36.702  33.093  28.907  1.00  0.00     0.002 A 
ATOM     85  C   UNL A   1      36.528  33.359  31.303  1.00  0.00     0.091 A 
ATOM     86  F   UNL A   1      38.153  32.357  32.711  1.00  0.00    -0.205 F 
ATOM     87  C   UNL A   1      36.014  33.574  30.018  1.00  0.00     0.022 A 
BRANCH  85  88
ATOM     88  S   UNL A   1      35.587  34.004  32.691  1.00  0.00     0.127 S 
ATOM     89  O   UNL A   1      35.422  32.812  33.523  1.00  0.00    -0.237 OA
ATOM     90  O   UNL A   1      36.496  35.011  33.231  1.00  0.00    -0.237 OA
ATOM     91  O   UNL A   1      34.342  34.506  32.121  1.00  0.00    -0.744 OA
ENDBRANCH  85  88
ENDBRANCH  57  81
BRANCH  69  92
ATOM     92  C   UNL A   1      42.911  28.842  33.271  1.00  0.00     0.023 A 
ATOM     93  C   UNL A   1      41.879  27.884  33.179  1.00  0.00     0.012 A 
ATOM     94  C   UNL A   1      43.591  28.990  34.491  1.00  0.00     0.148 A 
ATOM     95  C   UNL A   1      41.522  27.109  34.286  1.00  0.00     0.002 A 
ATOM     96  C   UNL A   1      43.265  28.185  35.576  1.00  0.00     0.091 A 
ATOM     97  F   UNL A   1      44.573  29.902  34.562  1.00  0.00    -0.205 F 
ATOM     98  C   UNL A   1      42.224  27.249  35.481  1.00  0.00     0.022 A 
BRANCH  96  99
ATOM     99  S   UNL A   1      44.216  28.232  37.097  1.00  0.00     0.127 S 
ATOM    100  O   UNL A   1      43.906  29.565  37.610  1.00  0.00    -0.237 OA
ATOM    101  O   UNL A   1      43.638  27.130  37.866  1.00  0.00    -0.237 OA
ATOM    102  O   UNL A   1      45.605  28.017  36.706  1.00  0.00    -0.744 OA
ENDBRANCH  96  99
ENDBRANCH  69  92
ENDBRANCH  43  44
ENDBRANCH  35  38
ENDBRANCH  33  34
ENDBRANCH  32  33
ENDBRANCH   1  32
TORSDOF 19
ENDMDL
MODEL 3
REMARK VINA RESULT:     -11.5      3.169      7.064
REMARK SMILES NS(=O)(=O)c1ccc(-n2ccnc2-c2ccc(O)c(C(=O)NCCCCNC(=O)c3ccc(-c4c5nc(c(-c6cccc(S(=O)(=O)[O-])c6F)c6ccc([nH]6)c(-c6cccc(S(=O)(=O)[O-])c6F)c6nc(c(-c7cccc(S(=O)(=O)[O-])c7F)c7ccc4[nH]7)C=C6)C=C5)cc3)c2)cc1
REMARK SMILES IDX 24 1 23 2 22 3 20 4 21 5 19 7 14 8 15 9 93 10 16 11 17 12
REMARK SMILES IDX 13 13 9 14 10 15 11 16 12 17 8 18 5 19 6 20 95 21 7 22 94 23
REMARK SMILES IDX 2 24 3 25 4 26 1 27 18 30 25 32 26 33 27 34 28 35 29 37
REMARK SMILES IDX 30 38 31 39 92 40 32 41 91 42 33 43 34 44 35 45 85 46 36 47
REMARK SMILES IDX 90 48 84 49 86 50 37 51 89 52 83 53 82 54 38 56 70 57 50 58
REMARK SMILES IDX 69 59 51 60 54 61 68 62 87 63 52 64 53 65 67 67 88 68 55 69
REMARK SMILES IDX 39 70 40 71 48 72 41 73 43 74 49 75 42 76 44 77 45 78 46 79
REMARK SMILES IDX 47 80 71 81 72 82 80 83 73 84 75 85 81 86 74 87 76 88 77 89
REMARK SMILES IDX 78 90 79 91 56 92 57 93 65 94 58 95 60 96 66 97 59 98 61 99
REMARK SMILES IDX 62 100 63 101 64 102
REMARK H PARENT 22 6 1 28 1 29 18 31 27 36 86 55 54 66
REMARK Flexibility Score: inf
ROOT
ATOM      1  C   UNL A   1      36.888  22.852  24.895  1.00  0.00     0.023 C 
ENDROOT
BRANCH   1   2
ATOM      2  C   UNL A   1      36.133  21.992  25.909  1.00  0.00     0.116 C 
BRANCH   2   3
ATOM      3  N   UNL A   1      35.643  20.715  25.401  1.00  0.00    -0.352 N 
ATOM      4  C   UNL A   1      34.502  20.320  24.731  1.00  0.00     0.255 C 
ATOM      5  O   UNL A   1      34.355  19.118  24.493  1.00  0.00    -0.269 OA
ATOM      6  H   UNL A   1      36.264  19.970  25.573  1.00  0.00     0.163 HD
BRANCH   4   7
ATOM      7  C   UNL A   1      33.386  21.229  24.343  1.00  0.00     0.082 A 
ATOM      8  C   UNL A   1      32.544  23.098  23.010  1.00  0.00     0.019 A 
ATOM      9  C   UNL A   1      31.436  23.201  23.852  1.00  0.00     0.016 A 
ATOM     10  C   UNL A   1      33.452  22.047  23.222  1.00  0.00     0.029 A 
ATOM     11  C   UNL A   1      31.248  22.269  24.876  1.00  0.00     0.048 A 
ATOM     12  C   UNL A   1      32.226  21.303  25.128  1.00  0.00     0.128 A 
BRANCH   8  13
ATOM     13  C   UNL A   1      32.872  24.164  22.045  1.00  0.00     0.144 A 
ATOM     14  N   UNL A   1      32.650  25.532  22.230  1.00  0.00    -0.300 N 
ATOM     15  C   UNL A   1      32.565  26.084  20.970  1.00  0.00     0.113 A 
ATOM     16  C   UNL A   1      32.940  25.089  20.104  1.00  0.00     0.132 A 
ATOM     17  N   UNL A   1      33.166  23.921  20.776  1.00  0.00    -0.236 NA
BRANCH  14  18
ATOM     18  C   UNL A   1      32.491  26.231  23.454  1.00  0.00     0.047 A 
ATOM     19  C   UNL A   1      32.191  27.722  25.785  1.00  0.00     0.082 A 
ATOM     20  C   UNL A   1      31.093  27.533  24.945  1.00  0.00     0.024 A 
ATOM     21  C   UNL A   1      33.438  27.168  25.470  1.00  0.00     0.024 A 
ATOM     22  C   UNL A   1      31.245  26.790  23.775  1.00  0.00     0.028 A 
ATOM     23  C   UNL A   1      33.586  26.401  24.313  1.00  0.00     0.028 A 
BRANCH  19  24
ATOM     24  S   UNL A   1      32.038  28.700  27.255  1.00  0.00     0.238 S 
ATOM     25  O   UNL A   1      31.344  27.889  28.239  1.00  0.00    -0.207 OA
ATOM     26  O   UNL A   1      31.590  30.003  26.860  1.00  0.00    -0.207 OA
BRANCH  24  27
ATOM     27  N   UNL A   1      33.611  28.862  27.802  1.00  0.00    -0.225 NA
ATOM     28  H   UNL A   1      34.258  28.696  27.032  1.00  0.00     0.137 HD
ATOM     29  H   UNL A   1      33.784  28.185  28.545  1.00  0.00     0.137 HD
ENDBRANCH  24  27
ENDBRANCH  19  24
ENDBRANCH  14  18
ENDBRANCH   8  13
BRANCH  12  30
ATOM     30  O   UNL A   1      31.979  20.458  26.179  1.00  0.00    -0.507 OA
ATOM     31  H   UNL A   1      32.075  19.532  26.068  1.00  0.00     0.293 HD
ENDBRANCH  12  30
ENDBRANCH   4   7
ENDBRANCH   2   3
ENDBRANCH   1   2
BRANCH   1  32
ATOM     32  C   UNL A   1      38.150  23.568  25.374  1.00  0.00     0.023 C 
BRANCH  32  33
ATOM     33  C   UNL A   1      38.860  22.925  26.559  1.00  0.00     0.116 C 
BRANCH  33  34
ATOM     34  N   UNL A   1      40.114  22.253  26.209  1.00  0.00    -0.352 N 
ATOM     35  C   UNL A   1      41.348  22.847  26.004  1.00  0.00     0.251 C 
ATOM     36  H   UNL A   1      40.074  21.275  26.108  1.00  0.00     0.163 HD
ATOM     37  O   UNL A   1      42.237  22.267  25.390  1.00  0.00    -0.269 OA
BRANCH  35  38
ATOM     38  C   UNL A   1      41.566  24.199  26.546  1.00  0.00     0.039 A 
ATOM     39  C   UNL A   1      41.211  25.341  25.825  1.00  0.00     0.014 A 
ATOM     40  C   UNL A   1      42.052  24.296  27.848  1.00  0.00     0.014 A 
ATOM     41  C   UNL A   1      41.247  26.576  26.468  1.00  0.00     0.010 A 
ATOM     42  C   UNL A   1      41.953  25.490  28.520  1.00  0.00     0.010 A 
ATOM     43  C   UNL A   1      41.587  26.641  27.831  1.00  0.00    -0.014 A 
BRANCH  43  44
ATOM     44  C   UNL A   1      41.469  27.899  28.561  1.00  0.00     0.031 A 
ATOM     45  C   UNL A   1      42.460  28.949  28.200  1.00  0.00     0.074 A 
ATOM     46  C   UNL A   1      40.438  28.197  29.380  1.00  0.00     0.049 A 
ATOM     47  N   UNL A   1      43.479  29.336  28.896  1.00  0.00    -0.248 NA
ATOM     48  C   UNL A   1      42.386  29.557  26.865  1.00  0.00     0.031 C 
ATOM     49  C   UNL A   1      39.205  27.434  29.604  1.00  0.00     0.029 A 
ATOM     50  N   UNL A   1      40.224  29.330  30.103  1.00  0.00    -0.354 N 
ATOM     51  C   UNL A   1      44.031  30.408  28.197  1.00  0.00     0.074 A 
ATOM     52  C   UNL A   1      43.451  30.364  26.880  1.00  0.00     0.031 C 
ATOM     53  C   UNL A   1      38.283  28.227  30.190  1.00  0.00     0.029 A 
ATOM     54  C   UNL A   1      38.922  29.473  30.561  1.00  0.00     0.049 A 
ATOM     55  H   UNL A   1      40.933  29.989  30.286  1.00  0.00     0.167 HD
ATOM     56  C   UNL A   1      44.733  31.386  28.840  1.00  0.00     0.034 A 
ATOM     57  C   UNL A   1      38.399  30.551  31.186  1.00  0.00     0.034 A 
ATOM     58  C   UNL A   1      45.042  31.001  30.195  1.00  0.00     0.049 A 
ATOM     59  C   UNL A   1      39.530  31.295  31.778  1.00  0.00     0.074 A 
ATOM     60  C   UNL A   1      45.733  29.972  30.800  1.00  0.00     0.029 A 
ATOM     61  N   UNL A   1      44.265  31.564  31.178  1.00  0.00    -0.354 N 
ATOM     62  N   UNL A   1      40.277  30.828  32.738  1.00  0.00    -0.248 NA
ATOM     63  C   UNL A   1      40.089  32.411  31.035  1.00  0.00     0.031 C 
ATOM     64  C   UNL A   1      44.989  29.676  31.982  1.00  0.00     0.029 A 
ATOM     65  C   UNL A   1      43.924  30.576  32.060  1.00  0.00     0.049 A 
ATOM     66  H   UNL A   1      44.001  32.511  31.237  1.00  0.00     0.167 HD
ATOM     67  C   UNL A   1      41.556  31.265  32.423  1.00  0.00     0.074 A 
ATOM     68  C   UNL A   1      41.354  32.341  31.456  1.00  0.00     0.031 C 
ATOM     69  C   UNL A   1      42.656  30.525  32.756  1.00  0.00     0.034 A 
BRANCH  56  70
ATOM     70  C   UNL A   1      44.823  32.840  28.421  1.00  0.00     0.023 A 
ATOM     71  C   UNL A   1      43.636  33.608  28.508  1.00  0.00     0.012 A 
ATOM     72  C   UNL A   1      45.894  33.408  27.695  1.00  0.00     0.148 A 
ATOM     73  C   UNL A   1      43.497  34.835  27.849  1.00  0.00     0.002 A 
ATOM     74  C   UNL A   1      45.779  34.665  27.109  1.00  0.00     0.091 A 
ATOM     75  F   UNL A   1      46.990  32.689  27.445  1.00  0.00    -0.205 F 
ATOM     76  C   UNL A   1      44.573  35.367  27.152  1.00  0.00     0.022 A 
BRANCH  74  77
ATOM     77  S   UNL A   1      47.155  35.429  26.240  1.00  0.00     0.127 S 
ATOM     78  O   UNL A   1      46.624  36.763  25.972  1.00  0.00    -0.237 OA
ATOM     79  O   UNL A   1      48.213  35.373  27.248  1.00  0.00    -0.237 OA
ATOM     80  O   UNL A   1      47.394  34.586  25.076  1.00  0.00    -0.744 OA
ENDBRANCH  74  77
ENDBRANCH  56  70
BRANCH  57  81
ATOM     81  C   UNL A   1      37.032  31.109  31.115  1.00  0.00     0.023 A 
ATOM     82  C   UNL A   1      36.381  31.506  32.299  1.00  0.00     0.012 A 
ATOM     83  C   UNL A   1      36.490  31.524  29.879  1.00  0.00     0.148 A 
ATOM     84  C   UNL A   1      35.254  32.334  32.255  1.00  0.00     0.002 A 
ATOM     85  C   UNL A   1      35.367  32.343  29.841  1.00  0.00     0.091 A 
ATOM     86  F   UNL A   1      37.128  31.189  28.749  1.00  0.00    -0.205 F 
ATOM     87  C   UNL A   1      34.756  32.765  31.028  1.00  0.00     0.022 A 
BRANCH  85  88
ATOM     88  S   UNL A   1      34.674  32.940  28.294  1.00  0.00     0.127 S 
ATOM     89  O   UNL A   1      34.191  31.701  27.683  1.00  0.00    -0.237 OA
ATOM     90  O   UNL A   1      33.627  33.845  28.760  1.00  0.00    -0.237 OA
ATOM     91  O   UNL A   1      35.784  33.559  27.580  1.00  0.00    -0.744 OA
ENDBRANCH  85  88
ENDBRANCH  57  81
BRANCH  69  92
ATOM     92  C   UNL A   1      42.481  29.391  33.736  1.00  0.00     0.023 A 
ATOM     93  C   UNL A   1      41.736  28.232  33.433  1.00  0.00     0.012 A 
ATOM     94  C   UNL A   1      43.226  29.426  34.927  1.00  0.00     0.148 A 
ATOM     95  C   UNL A   1      41.718  27.144  34.310  1.00  0.00     0.002 A 
ATOM     96  C   UNL A   1      43.243  28.324  35.774  1.00  0.00     0.091 A 
ATOM     97  F   UNL A   1      43.932  30.533  35.200  1.00  0.00    -0.205 F 
ATOM     98  C   UNL A   1      42.483  27.183  35.474  1.00  0.00     0.022 A 
BRANCH  96  99
ATOM     99  S   UNL A   1      44.307  28.269  37.218  1.00  0.00     0.127 S 
ATOM    100  O   UNL A   1      43.872  27.037  37.872  1.00  0.00    -0.237 OA
ATOM    101  O   UNL A   1      45.643  28.209  36.625  1.00  0.00    -0.237 OA
ATOM    102  O   UNL A   1      44.041  29.499  37.956  1.00  0.00    -0.744 OA
ENDBRANCH  96  99
ENDBRANCH  69  92
ENDBRANCH  43  44
ENDBRANCH  35  38
ENDBRANCH  33  34
ENDBRANCH  32  33
ENDBRANCH   1  32
TORSDOF 19
ENDMDL
