MODEL 1
REMARK VINA RESULT:     -13.2      0.000      0.000
REMARK SMILES CS(=O)(=O)c1ccc(-c2cc(Cl)cc3c2O[C@H](C(F)(F)F)C(C(=O)NCCCCNC(=O)c2ccc(-c4c5nc(c(-c6cccc(S(=O)(=O)[O-])c6F)c6ccc([nH]6)c(-c6cccc(S(=O)(=O)[O-])c6F)c6nc(c(-c7cccc(S(=O)(=O)[O-])c7F)c7ccc4[nH]7)C=C6)C=C5)cc2)=C3)cc1
REMARK SMILES IDX 28 1 27 2 26 3 25 4 23 5 24 6 22 8 9 9 10 10 15 11 11 12
REMARK SMILES IDX 14 13 16 14 12 15 13 16 96 17 17 18 8 19 5 20 6 21 98 22
REMARK SMILES IDX 7 23 97 24 2 25 1 26 3 27 4 28 18 29 19 30 20 31 21 32 29 33
REMARK SMILES IDX 30 34 31 35 32 37 33 38 34 39 95 40 35 41 94 42 36 43 37 44
REMARK SMILES IDX 38 45 88 46 39 47 93 48 87 49 89 50 40 51 92 52 86 53 85 54
REMARK SMILES IDX 41 56 73 57 53 58 72 59 54 60 57 61 71 62 90 63 55 64 56 65
REMARK SMILES IDX 70 67 91 68 58 69 42 70 43 71 51 72 44 73 46 74 52 75 45 76
REMARK SMILES IDX 47 77 48 78 49 79 50 80 74 81 75 82 83 83 76 84 78 85 84 86
REMARK SMILES IDX 77 87 79 88 80 89 81 90 82 91 59 92 60 93 68 94 61 95 63 96
REMARK SMILES IDX 69 97 62 98 64 99 65 100 66 101 67 102
REMARK H PARENT 25 7 30 36 89 55 57 66
REMARK Flexibility Score: inf
ROOT
ATOM      1  C   UNL A   1      32.017  29.151  25.306  1.00  0.00     0.023 C 
ENDROOT
BRANCH   1   2
ATOM      2  C   UNL A   1      33.369  29.090  24.579  1.00  0.00     0.023 C 
BRANCH   2   3
ATOM      3  C   UNL A   1      34.111  27.750  24.684  1.00  0.00     0.116 C 
BRANCH   3   4
ATOM      4  N   UNL A   1      33.460  26.765  23.845  1.00  0.00    -0.352 N 
ATOM      5  C   UNL A   1      33.922  25.579  23.387  1.00  0.00     0.251 C 
ATOM      6  O   UNL A   1      33.506  25.163  22.310  1.00  0.00    -0.270 OA
ATOM      7  H   UNL A   1      32.544  26.994  23.565  1.00  0.00     0.163 HD
BRANCH   5   8
ATOM      8  C   UNL A   1      34.839  24.778  24.255  1.00  0.00     0.067 C 
ATOM      9  C   UNL A   1      32.274  21.724  25.128  1.00  0.00     0.026 A 
ATOM     10  C   UNL A   1      31.046  22.316  25.529  1.00  0.00     0.033 A 
ATOM     11  C   UNL A   1      33.388  22.586  25.066  1.00  0.00     0.135 A 
ATOM     12  C   UNL A   1      30.953  23.630  25.983  1.00  0.00     0.042 A 
ATOM     13  C   UNL A   1      33.294  23.881  25.644  1.00  0.00     0.019 A 
ATOM     14  O   UNL A   1      34.571  22.260  24.415  1.00  0.00    -0.475 OA
ATOM     15  Cl  UNL A   1      29.418  24.275  26.406  1.00  0.00    -0.084 Cl
ATOM     16  C   UNL A   1      32.090  24.398  26.112  1.00  0.00     0.032 A 
ATOM     17  C   UNL A   1      34.469  24.775  25.551  1.00  0.00     0.025 C 
ATOM     18  C   UNL A   1      35.211  23.410  23.696  1.00  0.00     0.314 C 
BRANCH   9  19
ATOM     19  C   UNL A   1      32.227  20.238  25.009  1.00  0.00    -0.015 A 
ATOM     20  C   UNL A   1      33.171  17.580  24.643  1.00  0.00     0.067 A 
ATOM     21  C   UNL A   1      33.064  18.106  25.929  1.00  0.00     0.021 A 
ATOM     22  C   UNL A   1      32.721  18.329  23.551  1.00  0.00     0.021 A 
ATOM     23  C   UNL A   1      32.582  19.415  26.105  1.00  0.00     0.010 A 
ATOM     24  C   UNL A   1      32.243  19.640  23.736  1.00  0.00     0.010 A 
BRANCH  20  25
ATOM     25  S   UNL A   1      33.882  15.966  24.375  1.00  0.00     0.175 S 
ATOM     26  C   UNL A   1      35.372  15.881  25.338  1.00  0.00     0.163 C 
ATOM     27  O   UNL A   1      34.287  15.893  22.984  1.00  0.00    -0.224 OA
ATOM     28  O   UNL A   1      32.943  15.004  24.925  1.00  0.00    -0.224 OA
ENDBRANCH  20  25
ENDBRANCH   9  19
BRANCH  18  29
ATOM     29  C   UNL A   1      36.753  23.299  23.692  1.00  0.00     0.429 C 
ATOM     30  F   UNL A   1      37.185  22.030  23.870  1.00  0.00    -0.167 F 
ATOM     31  F   UNL A   1      37.278  23.750  22.528  1.00  0.00    -0.167 F 
ATOM     32  F   UNL A   1      37.331  24.040  24.676  1.00  0.00    -0.167 F 
ENDBRANCH  18  29
ENDBRANCH   5   8
ENDBRANCH   3   4
ENDBRANCH   2   3
ENDBRANCH   1   2
BRANCH   1  33
ATOM     33  C   UNL A   1      32.067  29.729  26.715  1.00  0.00     0.116 C 
BRANCH  33  34
ATOM     34  N   UNL A   1      32.086  31.183  26.707  1.00  0.00    -0.352 N 
ATOM     35  C   UNL A   1      32.993  32.043  27.277  1.00  0.00     0.251 C 
ATOM     36  H   UNL A   1      31.343  31.612  26.223  1.00  0.00     0.163 HD
ATOM     37  O   UNL A   1      32.742  33.244  27.335  1.00  0.00    -0.269 OA
BRANCH  35  38
ATOM     38  C   UNL A   1      34.258  31.519  27.840  1.00  0.00     0.039 A 
ATOM     39  C   UNL A   1      35.307  32.408  28.087  1.00  0.00     0.014 A 
ATOM     40  C   UNL A   1      34.406  30.160  28.130  1.00  0.00     0.014 A 
ATOM     41  C   UNL A   1      36.480  31.943  28.687  1.00  0.00     0.010 A 
ATOM     42  C   UNL A   1      35.544  29.715  28.797  1.00  0.00     0.010 A 
ATOM     43  C   UNL A   1      36.594  30.600  29.083  1.00  0.00    -0.014 A 
BRANCH  43  44
ATOM     44  C   UNL A   1      37.789  30.115  29.825  1.00  0.00     0.031 A 
ATOM     45  C   UNL A   1      38.074  30.600  31.220  1.00  0.00     0.074 A 
ATOM     46  C   UNL A   1      38.669  29.304  29.204  1.00  0.00     0.049 A 
ATOM     47  N   UNL A   1      39.089  30.321  31.998  1.00  0.00    -0.248 NA
ATOM     48  C   UNL A   1      37.109  31.542  31.811  1.00  0.00     0.031 C 
ATOM     49  C   UNL A   1      38.553  28.830  27.823  1.00  0.00     0.029 A 
ATOM     50  N   UNL A   1      39.850  28.757  29.643  1.00  0.00    -0.354 N 
ATOM     51  C   UNL A   1      38.905  31.077  33.149  1.00  0.00     0.074 A 
ATOM     52  C   UNL A   1      37.699  31.853  32.955  1.00  0.00     0.031 C 
ATOM     53  C   UNL A   1      39.614  28.062  27.530  1.00  0.00     0.029 A 
ATOM     54  C   UNL A   1      40.503  28.014  28.687  1.00  0.00     0.049 A 
ATOM     55  H   UNL A   1      40.197  28.885  30.556  1.00  0.00     0.167 HD
ATOM     56  C   UNL A   1      39.657  31.106  34.277  1.00  0.00     0.034 A 
ATOM     57  C   UNL A   1      41.689  27.376  28.730  1.00  0.00     0.034 A 
ATOM     58  C   UNL A   1      40.837  30.309  34.480  1.00  0.00     0.049 A 
ATOM     59  C   UNL A   1      42.487  27.395  30.004  1.00  0.00     0.074 A 
ATOM     60  C   UNL A   1      41.610  30.193  35.622  1.00  0.00     0.029 A 
ATOM     61  N   UNL A   1      41.426  29.506  33.516  1.00  0.00    -0.354 N 
ATOM     62  N   UNL A   1      42.208  27.981  31.142  1.00  0.00    -0.248 NA
ATOM     63  C   UNL A   1      43.746  26.636  30.012  1.00  0.00     0.031 C 
ATOM     64  C   UNL A   1      42.688  29.348  35.336  1.00  0.00     0.029 A 
ATOM     65  C   UNL A   1      42.564  28.906  34.030  1.00  0.00     0.049 A 
ATOM     66  H   UNL A   1      41.087  29.380  32.601  1.00  0.00     0.167 HD
ATOM     67  C   UNL A   1      43.237  27.636  32.012  1.00  0.00     0.074 A 
ATOM     68  C   UNL A   1      44.134  26.770  31.274  1.00  0.00     0.031 C 
ATOM     69  C   UNL A   1      43.429  28.013  33.300  1.00  0.00     0.034 A 
BRANCH  56  70
ATOM     70  C   UNL A   1      39.200  32.003  35.399  1.00  0.00     0.023 A 
ATOM     71  C   UNL A   1      38.278  31.520  36.351  1.00  0.00     0.012 A 
ATOM     72  C   UNL A   1      39.721  33.304  35.545  1.00  0.00     0.148 A 
ATOM     73  C   UNL A   1      37.850  32.328  37.403  1.00  0.00     0.002 A 
ATOM     74  C   UNL A   1      39.327  34.087  36.624  1.00  0.00     0.091 A 
ATOM     75  F   UNL A   1      40.582  33.756  34.622  1.00  0.00    -0.205 F 
ATOM     76  C   UNL A   1      38.382  33.607  37.545  1.00  0.00     0.022 A 
BRANCH  74  77
ATOM     77  S   UNL A   1      40.015  35.716  36.942  1.00  0.00     0.127 S 
ATOM     78  O   UNL A   1      41.445  35.420  37.021  1.00  0.00    -0.237 OA
ATOM     79  O   UNL A   1      39.611  36.459  35.749  1.00  0.00    -0.237 OA
ATOM     80  O   UNL A   1      39.403  36.176  38.181  1.00  0.00    -0.744 OA
ENDBRANCH  74  77
ENDBRANCH  56  70
BRANCH  57  81
ATOM     81  C   UNL A   1      42.165  26.617  27.537  1.00  0.00     0.023 A 
ATOM     82  C   UNL A   1      42.919  27.280  26.549  1.00  0.00     0.012 A 
ATOM     83  C   UNL A   1      41.906  25.240  27.397  1.00  0.00     0.148 A 
ATOM     84  C   UNL A   1      43.381  26.591  25.428  1.00  0.00     0.002 A 
ATOM     85  C   UNL A   1      42.419  24.548  26.306  1.00  0.00     0.091 A 
ATOM     86  F   UNL A   1      41.180  24.631  28.345  1.00  0.00    -0.205 F 
ATOM     87  C   UNL A   1      43.141  25.224  25.311  1.00  0.00     0.022 A 
BRANCH  85  88
ATOM     88  S   UNL A   1      42.275  22.765  26.141  1.00  0.00     0.127 S 
ATOM     89  O   UNL A   1      42.972  22.297  27.335  1.00  0.00    -0.237 OA
ATOM     90  O   UNL A   1      40.825  22.579  26.161  1.00  0.00    -0.237 OA
ATOM     91  O   UNL A   1      42.907  22.434  24.870  1.00  0.00    -0.744 OA
ENDBRANCH  85  88
ENDBRANCH  57  81
BRANCH  69  92
ATOM     92  C   UNL A   1      44.639  27.469  34.016  1.00  0.00     0.023 A 
ATOM     93  C   UNL A   1      45.851  28.187  33.993  1.00  0.00     0.012 A 
ATOM     94  C   UNL A   1      44.554  26.281  34.769  1.00  0.00     0.148 A 
ATOM     95  C   UNL A   1      46.969  27.713  34.680  1.00  0.00     0.002 A 
ATOM     96  C   UNL A   1      45.655  25.843  35.493  1.00  0.00     0.091 A 
ATOM     97  F   UNL A   1      43.397  25.603  34.764  1.00  0.00    -0.205 F 
ATOM     98  C   UNL A   1      46.868  26.550  35.439  1.00  0.00     0.022 A 
BRANCH  96  99
ATOM     99  S   UNL A   1      45.590  24.411  36.575  1.00  0.00     0.127 S 
ATOM    100  O   UNL A   1      45.263  23.340  35.634  1.00  0.00    -0.237 OA
ATOM    101  O   UNL A   1      46.953  24.360  37.105  1.00  0.00    -0.237 OA
ATOM    102  O   UNL A   1      44.566  24.702  37.568  1.00  0.00    -0.744 OA
ENDBRANCH  96  99
ENDBRANCH  69  92
ENDBRANCH  43  44
ENDBRANCH  35  38
ENDBRANCH  33  34
ENDBRANCH   1  33
TORSDOF 17
ENDMDL
MODEL 2
REMARK VINA RESULT:     -12.7      1.845      2.517
REMARK SMILES CS(=O)(=O)c1ccc(-c2cc(Cl)cc3c2O[C@H](C(F)(F)F)C(C(=O)NCCCCNC(=O)c2ccc(-c4c5nc(c(-c6cccc(S(=O)(=O)[O-])c6F)c6ccc([nH]6)c(-c6cccc(S(=O)(=O)[O-])c6F)c6nc(c(-c7cccc(S(=O)(=O)[O-])c7F)c7ccc4[nH]7)C=C6)C=C5)cc2)=C3)cc1
REMARK SMILES IDX 28 1 27 2 26 3 25 4 23 5 24 6 22 8 9 9 10 10 15 11 11 12
REMARK SMILES IDX 14 13 16 14 12 15 13 16 96 17 17 18 8 19 5 20 6 21 98 22
REMARK SMILES IDX 7 23 97 24 2 25 1 26 3 27 4 28 18 29 19 30 20 31 21 32 29 33
REMARK SMILES IDX 30 34 31 35 32 37 33 38 34 39 95 40 35 41 94 42 36 43 37 44
REMARK SMILES IDX 38 45 88 46 39 47 93 48 87 49 89 50 40 51 92 52 86 53 85 54
REMARK SMILES IDX 41 56 73 57 53 58 72 59 54 60 57 61 71 62 90 63 55 64 56 65
REMARK SMILES IDX 70 67 91 68 58 69 42 70 43 71 51 72 44 73 46 74 52 75 45 76
REMARK SMILES IDX 47 77 48 78 49 79 50 80 74 81 75 82 83 83 76 84 78 85 84 86
REMARK SMILES IDX 77 87 79 88 80 89 81 90 82 91 59 92 60 93 68 94 61 95 63 96
REMARK SMILES IDX 69 97 62 98 64 99 65 100 66 101 67 102
REMARK H PARENT 25 7 30 36 89 55 57 66
REMARK Flexibility Score: inf
ROOT
ATOM      1  C   UNL A   1      33.746  28.225  26.623  1.00  0.00     0.023 C 
ENDROOT
BRANCH   1   2
ATOM      2  C   UNL A   1      33.478  28.596  25.157  1.00  0.00     0.023 C 
BRANCH   2   3
ATOM      3  C   UNL A   1      34.310  27.824  24.122  1.00  0.00     0.116 C 
BRANCH   3   4
ATOM      4  N   UNL A   1      33.494  26.797  23.507  1.00  0.00    -0.352 N 
ATOM      5  C   UNL A   1      33.810  25.524  23.177  1.00  0.00     0.251 C 
ATOM      6  O   UNL A   1      33.240  25.007  22.221  1.00  0.00    -0.270 OA
ATOM      7  H   UNL A   1      32.570  27.067  23.297  1.00  0.00     0.163 HD
BRANCH   5   8
ATOM      8  C   UNL A   1      34.762  24.769  24.048  1.00  0.00     0.067 C 
ATOM      9  C   UNL A   1      32.265  21.717  25.105  1.00  0.00     0.026 A 
ATOM     10  C   UNL A   1      31.040  22.307  25.519  1.00  0.00     0.033 A 
ATOM     11  C   UNL A   1      33.365  22.590  24.980  1.00  0.00     0.135 A 
ATOM     12  C   UNL A   1      30.942  23.636  25.927  1.00  0.00     0.042 A 
ATOM     13  C   UNL A   1      33.269  23.904  25.512  1.00  0.00     0.019 A 
ATOM     14  O   UNL A   1      34.533  22.255  24.308  1.00  0.00    -0.475 OA
ATOM     15  Cl  UNL A   1      29.411  24.277  26.369  1.00  0.00    -0.084 Cl
ATOM     16  C   UNL A   1      32.071  24.423  25.995  1.00  0.00     0.032 A 
ATOM     17  C   UNL A   1      34.428  24.809  25.353  1.00  0.00     0.025 C 
ATOM     18  C   UNL A   1      35.136  23.385  23.529  1.00  0.00     0.314 C 
BRANCH   9  19
ATOM     19  C   UNL A   1      32.235  20.226  25.043  1.00  0.00    -0.015 A 
ATOM     20  C   UNL A   1      33.188  17.572  24.674  1.00  0.00     0.067 A 
ATOM     21  C   UNL A   1      33.203  18.142  25.945  1.00  0.00     0.021 A 
ATOM     22  C   UNL A   1      32.615  18.275  23.608  1.00  0.00     0.021 A 
ATOM     23  C   UNL A   1      32.716  19.450  26.124  1.00  0.00     0.010 A 
ATOM     24  C   UNL A   1      32.133  19.584  23.796  1.00  0.00     0.010 A 
BRANCH  20  25
ATOM     25  S   UNL A   1      33.900  15.961  24.389  1.00  0.00     0.175 S 
ATOM     26  C   UNL A   1      35.396  15.871  25.342  1.00  0.00     0.163 C 
ATOM     27  O   UNL A   1      34.296  15.899  22.995  1.00  0.00    -0.224 OA
ATOM     28  O   UNL A   1      32.966  14.994  24.939  1.00  0.00    -0.224 OA
ENDBRANCH  20  25
ENDBRANCH   9  19
BRANCH  18  29
ATOM     29  C   UNL A   1      36.679  23.294  23.486  1.00  0.00     0.429 C 
ATOM     30  F   UNL A   1      37.201  23.805  22.347  1.00  0.00    -0.167 F 
ATOM     31  F   UNL A   1      37.243  23.953  24.526  1.00  0.00    -0.167 F 
ATOM     32  F   UNL A   1      37.128  22.012  23.568  1.00  0.00    -0.167 F 
ENDBRANCH  18  29
ENDBRANCH   5   8
ENDBRANCH   3   4
ENDBRANCH   2   3
ENDBRANCH   1   2
BRANCH   1  33
ATOM     33  C   UNL A   1      33.100  29.148  27.651  1.00  0.00     0.116 C 
BRANCH  33  34
ATOM     34  N   UNL A   1      33.445  30.542  27.422  1.00  0.00    -0.352 N 
ATOM     35  C   UNL A   1      34.592  31.219  27.758  1.00  0.00     0.251 C 
ATOM     36  H   UNL A   1      32.758  31.076  26.961  1.00  0.00     0.163 HD
ATOM     37  O   UNL A   1      34.628  32.442  27.661  1.00  0.00    -0.269 OA
BRANCH  35  38
ATOM     38  C   UNL A   1      35.771  30.476  28.256  1.00  0.00     0.039 A 
ATOM     39  C   UNL A   1      36.831  30.225  27.381  1.00  0.00     0.014 A 
ATOM     40  C   UNL A   1      35.835  30.036  29.581  1.00  0.00     0.014 A 
ATOM     41  C   UNL A   1      37.984  29.592  27.854  1.00  0.00     0.010 A 
ATOM     42  C   UNL A   1      37.014  29.475  30.068  1.00  0.00     0.010 A 
ATOM     43  C   UNL A   1      38.100  29.246  29.211  1.00  0.00    -0.014 A 
BRANCH  43  44
ATOM     44  C   UNL A   1      39.362  28.676  29.754  1.00  0.00     0.031 A 
ATOM     45  C   UNL A   1      40.033  29.298  30.948  1.00  0.00     0.074 A 
ATOM     46  C   UNL A   1      39.954  27.648  29.113  1.00  0.00     0.049 A 
ATOM     47  N   UNL A   1      41.158  28.965  31.528  1.00  0.00    -0.248 NA
ATOM     48  C   UNL A   1      39.371  30.464  31.555  1.00  0.00     0.031 C 
ATOM     49  C   UNL A   1      39.450  27.010  27.895  1.00  0.00     0.029 A 
ATOM     50  N   UNL A   1      41.122  26.977  29.379  1.00  0.00    -0.354 N 
ATOM     51  C   UNL A   1      41.356  29.897  32.539  1.00  0.00     0.074 A 
ATOM     52  C   UNL A   1      40.253  30.830  32.474  1.00  0.00     0.031 C 
ATOM     53  C   UNL A   1      40.299  26.039  27.522  1.00  0.00     0.029 A 
ATOM     54  C   UNL A   1      41.424  26.006  28.452  1.00  0.00     0.049 A 
ATOM     55  H   UNL A   1      41.690  27.172  30.159  1.00  0.00     0.167 HD
ATOM     56  C   UNL A   1      42.352  29.956  33.457  1.00  0.00     0.034 A 
ATOM     57  C   UNL A   1      42.490  25.188  28.352  1.00  0.00     0.034 A 
ATOM     58  C   UNL A   1      43.430  29.008  33.541  1.00  0.00     0.049 A 
ATOM     59  C   UNL A   1      43.565  25.253  29.403  1.00  0.00     0.074 A 
ATOM     60  C   UNL A   1      44.431  28.927  34.493  1.00  0.00     0.029 A 
ATOM     61  N   UNL A   1      43.661  27.989  32.631  1.00  0.00    -0.354 N 
ATOM     62  N   UNL A   1      43.645  26.032  30.452  1.00  0.00    -0.248 NA
ATOM     63  C   UNL A   1      44.677  24.300  29.275  1.00  0.00     0.031 C 
ATOM     64  C   UNL A   1      45.288  27.879  34.138  1.00  0.00     0.029 A 
ATOM     65  C   UNL A   1      44.799  27.283  32.987  1.00  0.00     0.049 A 
ATOM     66  H   UNL A   1      43.100  27.794  31.846  1.00  0.00     0.167 HD
ATOM     67  C   UNL A   1      44.797  25.645  31.128  1.00  0.00     0.074 A 
ATOM     68  C   UNL A   1      45.369  24.544  30.381  1.00  0.00     0.031 C 
ATOM     69  C   UNL A   1      45.338  26.163  32.259  1.00  0.00     0.034 A 
BRANCH  56  70
ATOM     70  C   UNL A   1      42.299  31.068  34.474  1.00  0.00     0.023 A 
ATOM     71  C   UNL A   1      41.636  30.863  35.702  1.00  0.00     0.012 A 
ATOM     72  C   UNL A   1      42.950  32.296  34.241  1.00  0.00     0.148 A 
ATOM     73  C   UNL A   1      41.585  31.873  36.662  1.00  0.00     0.002 A 
ATOM     74  C   UNL A   1      42.934  33.282  35.222  1.00  0.00     0.091 A 
ATOM     75  F   UNL A   1      43.558  32.484  33.061  1.00  0.00    -0.205 F 
ATOM     76  C   UNL A   1      42.242  33.077  36.426  1.00  0.00     0.022 A 
BRANCH  74  77
ATOM     77  S   UNL A   1      43.820  34.835  35.049  1.00  0.00     0.127 S 
ATOM     78  O   UNL A   1      45.209  34.396  35.169  1.00  0.00    -0.237 OA
ATOM     79  O   UNL A   1      43.430  35.263  33.705  1.00  0.00    -0.237 OA
ATOM     80  O   UNL A   1      43.339  35.693  36.123  1.00  0.00    -0.744 OA
ENDBRANCH  74  77
ENDBRANCH  56  70
BRANCH  57  81
ATOM     81  C   UNL A   1      42.564  24.199  27.239  1.00  0.00     0.023 A 
ATOM     82  C   UNL A   1      43.205  24.554  26.036  1.00  0.00     0.012 A 
ATOM     83  C   UNL A   1      42.035  22.902  27.379  1.00  0.00     0.148 A 
ATOM     84  C   UNL A   1      43.293  23.644  24.982  1.00  0.00     0.002 A 
ATOM     85  C   UNL A   1      42.176  21.982  26.347  1.00  0.00     0.091 A 
ATOM     86  F   UNL A   1      41.421  22.587  28.529  1.00  0.00    -0.205 F 
ATOM     87  C   UNL A   1      42.788  22.356  25.141  1.00  0.00     0.022 A 
BRANCH  85  88
ATOM     88  S   UNL A   1      41.679  20.263  26.511  1.00  0.00     0.127 S 
ATOM     89  O   UNL A   1      40.225  20.364  26.436  1.00  0.00    -0.237 OA
ATOM     90  O   UNL A   1      42.316  19.655  25.343  1.00  0.00    -0.237 OA
ATOM     91  O   UNL A   1      42.217  19.817  27.790  1.00  0.00    -0.744 OA
ENDBRANCH  85  88
ENDBRANCH  57  81
BRANCH  69  92
ATOM     92  C   UNL A   1      46.601  25.529  32.784  1.00  0.00     0.023 A 
ATOM     93  C   UNL A   1      47.857  26.028  32.385  1.00  0.00     0.012 A 
ATOM     94  C   UNL A   1      46.541  24.483  33.727  1.00  0.00     0.148 A 
ATOM     95  C   UNL A   1      49.033  25.473  32.891  1.00  0.00     0.002 A 
ATOM     96  C   UNL A   1      47.715  23.971  34.265  1.00  0.00     0.091 A 
ATOM     97  F   UNL A   1      45.337  24.011  34.081  1.00  0.00    -0.205 F 
ATOM     98  C   UNL A   1      48.962  24.455  33.838  1.00  0.00     0.022 A 
BRANCH  96  99
ATOM     99  S   UNL A   1      47.719  22.728  35.562  1.00  0.00     0.127 S 
ATOM    100  O   UNL A   1      46.920  23.377  36.600  1.00  0.00    -0.237 OA
ATOM    101  O   UNL A   1      47.063  21.596  34.907  1.00  0.00    -0.237 OA
ATOM    102  O   UNL A   1      49.116  22.503  35.901  1.00  0.00    -0.744 OA
ENDBRANCH  96  99
ENDBRANCH  69  92
ENDBRANCH  43  44
ENDBRANCH  35  38
ENDBRANCH  33  34
ENDBRANCH   1  33
TORSDOF 17
ENDMDL
MODEL 3
REMARK VINA RESULT:     -12.0      5.919     10.826
REMARK SMILES CS(=O)(=O)c1ccc(-c2cc(Cl)cc3c2O[C@H](C(F)(F)F)C(C(=O)NCCCCNC(=O)c2ccc(-c4c5nc(c(-c6cccc(S(=O)(=O)[O-])c6F)c6ccc([nH]6)c(-c6cccc(S(=O)(=O)[O-])c6F)c6nc(c(-c7cccc(S(=O)(=O)[O-])c7F)c7ccc4[nH]7)C=C6)C=C5)cc2)=C3)cc1
REMARK SMILES IDX 28 1 27 2 26 3 25 4 23 5 24 6 22 8 9 9 10 10 15 11 11 12
REMARK SMILES IDX 14 13 16 14 12 15 13 16 96 17 17 18 8 19 5 20 6 21 98 22
REMARK SMILES IDX 7 23 97 24 2 25 1 26 3 27 4 28 18 29 19 30 20 31 21 32 29 33
REMARK SMILES IDX 30 34 31 35 32 37 33 38 34 39 95 40 35 41 94 42 36 43 37 44
REMARK SMILES IDX 38 45 88 46 39 47 93 48 87 49 89 50 40 51 92 52 86 53 85 54
REMARK SMILES IDX 41 56 73 57 53 58 72 59 54 60 57 61 71 62 90 63 55 64 56 65
REMARK SMILES IDX 70 67 91 68 58 69 42 70 43 71 51 72 44 73 46 74 52 75 45 76
REMARK SMILES IDX 47 77 48 78 49 79 50 80 74 81 75 82 83 83 76 84 78 85 84 86
REMARK SMILES IDX 77 87 79 88 80 89 81 90 82 91 59 92 60 93 68 94 61 95 63 96
REMARK SMILES IDX 69 97 62 98 64 99 65 100 66 101 67 102
REMARK H PARENT 25 7 30 36 89 55 57 66
REMARK Flexibility Score: inf
ROOT
ATOM      1  C   UNL A   1      38.225  20.106  25.213  1.00  0.00     0.023 C 
ENDROOT
BRANCH   1   2
ATOM      2  C   UNL A   1      36.897  20.731  25.666  1.00  0.00     0.023 C 
BRANCH   2   3
ATOM      3  C   UNL A   1      35.941  21.132  24.534  1.00  0.00     0.116 C 
BRANCH   3   4
ATOM      4  N   UNL A   1      35.952  22.571  24.372  1.00  0.00    -0.352 N 
ATOM      5  C   UNL A   1      34.998  23.393  23.878  1.00  0.00     0.251 C 
ATOM      6  O   UNL A   1      35.347  24.428  23.318  1.00  0.00    -0.270 OA
ATOM      7  H   UNL A   1      36.779  23.018  24.665  1.00  0.00     0.163 HD
BRANCH   5   8
ATOM      8  C   UNL A   1      33.561  23.059  24.122  1.00  0.00     0.067 C 
ATOM      9  C   UNL A   1      32.053  26.847  23.902  1.00  0.00     0.026 A 
ATOM     10  C   UNL A   1      32.873  27.668  24.722  1.00  0.00     0.033 A 
ATOM     11  C   UNL A   1      32.210  25.455  24.063  1.00  0.00     0.135 A 
ATOM     12  C   UNL A   1      33.680  27.157  25.736  1.00  0.00     0.042 A 
ATOM     13  C   UNL A   1      32.945  24.965  25.176  1.00  0.00     0.019 A 
ATOM     14  O   UNL A   1      31.729  24.522  23.153  1.00  0.00    -0.475 OA
ATOM     15  Cl  UNL A   1      34.673  28.221  26.650  1.00  0.00    -0.084 Cl
ATOM     16  C   UNL A   1      33.666  25.807  26.017  1.00  0.00     0.032 A 
ATOM     17  C   UNL A   1      33.112  23.501  25.314  1.00  0.00     0.025 C 
ATOM     18  C   UNL A   1      32.634  23.345  22.947  1.00  0.00     0.314 C 
BRANCH   9  19
ATOM     19  C   UNL A   1      31.021  27.594  23.126  1.00  0.00    -0.015 A 
ATOM     20  C   UNL A   1      29.146  29.639  22.498  1.00  0.00     0.067 A 
ATOM     21  C   UNL A   1      30.461  29.743  22.048  1.00  0.00     0.021 A 
ATOM     22  C   UNL A   1      28.736  28.483  23.171  1.00  0.00     0.021 A 
ATOM     23  C   UNL A   1      31.380  28.722  22.349  1.00  0.00     0.010 A 
ATOM     24  C   UNL A   1      29.664  27.467  23.471  1.00  0.00     0.010 A 
BRANCH  20  25
ATOM     25  S   UNL A   1      27.984  30.966  22.233  1.00  0.00     0.175 S 
ATOM     26  C   UNL A   1      28.849  32.489  22.523  1.00  0.00     0.163 C 
ATOM     27  O   UNL A   1      26.967  30.868  23.262  1.00  0.00    -0.224 OA
ATOM     28  O   UNL A   1      27.623  30.923  20.826  1.00  0.00    -0.224 OA
ENDBRANCH  20  25
ENDBRANCH   9  19
BRANCH  18  29
ATOM     29  C   UNL A   1      31.838  22.055  22.643  1.00  0.00     0.429 C 
ATOM     30  F   UNL A   1      32.125  21.538  21.427  1.00  0.00    -0.167 F 
ATOM     31  F   UNL A   1      32.085  21.093  23.565  1.00  0.00    -0.167 F 
ATOM     32  F   UNL A   1      30.492  22.256  22.663  1.00  0.00    -0.167 F 
ENDBRANCH  18  29
ENDBRANCH   5   8
ENDBRANCH   3   4
ENDBRANCH   2   3
ENDBRANCH   1   2
BRANCH   1  33
ATOM     33  C   UNL A   1      39.463  20.622  25.938  1.00  0.00     0.116 C 
BRANCH  33  34
ATOM     34  N   UNL A   1      40.498  19.605  26.039  1.00  0.00    -0.352 N 
ATOM     35  C   UNL A   1      41.854  19.760  26.191  1.00  0.00     0.251 C 
ATOM     36  H   UNL A   1      40.180  18.674  25.994  1.00  0.00     0.163 HD
ATOM     37  O   UNL A   1      42.596  18.790  26.062  1.00  0.00    -0.269 OA
BRANCH  35  38
ATOM     38  C   UNL A   1      42.419  21.095  26.488  1.00  0.00     0.039 A 
ATOM     39  C   UNL A   1      42.740  21.944  25.426  1.00  0.00     0.014 A 
ATOM     40  C   UNL A   1      42.625  21.511  27.805  1.00  0.00     0.014 A 
ATOM     41  C   UNL A   1      43.204  23.236  25.688  1.00  0.00     0.010 A 
ATOM     42  C   UNL A   1      43.013  22.823  28.065  1.00  0.00     0.010 A 
ATOM     43  C   UNL A   1      43.307  23.700  27.010  1.00  0.00    -0.014 A 
BRANCH  43  44
ATOM     44  C   UNL A   1      43.690  25.107  27.304  1.00  0.00     0.031 A 
ATOM     45  C   UNL A   1      45.130  25.538  27.245  1.00  0.00     0.074 A 
ATOM     46  C   UNL A   1      42.747  25.978  27.714  1.00  0.00     0.049 A 
ATOM     47  N   UNL A   1      45.652  26.708  27.513  1.00  0.00    -0.248 NA
ATOM     48  C   UNL A   1      46.119  24.517  26.861  1.00  0.00     0.031 C 
ATOM     49  C   UNL A   1      41.328  25.663  27.895  1.00  0.00     0.029 A 
ATOM     50  N   UNL A   1      42.841  27.298  28.080  1.00  0.00    -0.354 N 
ATOM     51  C   UNL A   1      47.025  26.555  27.368  1.00  0.00     0.074 A 
ATOM     52  C   UNL A   1      47.260  25.170  27.019  1.00  0.00     0.031 C 
ATOM     53  C   UNL A   1      40.685  26.758  28.333  1.00  0.00     0.029 A 
ATOM     54  C   UNL A   1      41.648  27.843  28.496  1.00  0.00     0.049 A 
ATOM     55  H   UNL A   1      43.683  27.807  28.048  1.00  0.00     0.167 HD
ATOM     56  C   UNL A   1      48.002  27.487  27.487  1.00  0.00     0.034 A 
ATOM     57  C   UNL A   1      41.361  29.072  28.967  1.00  0.00     0.034 A 
ATOM     58  C   UNL A   1      47.764  28.871  27.800  1.00  0.00     0.049 A 
ATOM     59  C   UNL A   1      42.457  30.098  29.057  1.00  0.00     0.074 A 
ATOM     60  C   UNL A   1      48.674  29.911  27.847  1.00  0.00     0.029 A 
ATOM     61  N   UNL A   1      46.530  29.405  28.139  1.00  0.00    -0.354 N 
ATOM     62  N   UNL A   1      43.725  29.978  28.749  1.00  0.00    -0.248 NA
ATOM     63  C   UNL A   1      42.076  31.438  29.525  1.00  0.00     0.031 C 
ATOM     64  C   UNL A   1      47.997  31.068  28.249  1.00  0.00     0.029 A 
ATOM     65  C   UNL A   1      46.657  30.756  28.414  1.00  0.00     0.049 A 
ATOM     66  H   UNL A   1      45.687  28.899  28.178  1.00  0.00     0.167 HD
ATOM     67  C   UNL A   1      44.287  31.233  28.955  1.00  0.00     0.074 A 
ATOM     68  C   UNL A   1      43.215  32.104  29.391  1.00  0.00     0.031 C 
ATOM     69  C   UNL A   1      45.577  31.625  28.808  1.00  0.00     0.034 A 
BRANCH  56  70
ATOM     70  C   UNL A   1      49.422  27.047  27.237  1.00  0.00     0.023 A 
ATOM     71  C   UNL A   1      50.107  26.301  28.219  1.00  0.00     0.012 A 
ATOM     72  C   UNL A   1      50.062  27.323  26.012  1.00  0.00     0.148 A 
ATOM     73  C   UNL A   1      51.417  25.874  28.004  1.00  0.00     0.002 A 
ATOM     74  C   UNL A   1      51.351  26.852  25.787  1.00  0.00     0.091 A 
ATOM     75  F   UNL A   1      49.405  28.049  25.096  1.00  0.00    -0.205 F 
ATOM     76  C   UNL A   1      52.034  26.141  26.786  1.00  0.00     0.022 A 
BRANCH  74  77
ATOM     77  S   UNL A   1      52.202  27.072  24.220  1.00  0.00     0.127 S 
ATOM     78  O   UNL A   1      52.624  28.469  24.308  1.00  0.00    -0.237 OA
ATOM     79  O   UNL A   1      53.290  26.099  24.322  1.00  0.00    -0.237 OA
ATOM     80  O   UNL A   1      51.221  26.779  23.185  1.00  0.00    -0.744 OA
ENDBRANCH  74  77
ENDBRANCH  56  70
BRANCH  57  81
ATOM     81  C   UNL A   1      39.957  29.414  29.338  1.00  0.00     0.023 A 
ATOM     82  C   UNL A   1      39.022  29.701  28.324  1.00  0.00     0.012 A 
ATOM     83  C   UNL A   1      39.538  29.420  30.682  1.00  0.00     0.148 A 
ATOM     84  C   UNL A   1      37.702  30.017  28.645  1.00  0.00     0.002 A 
ATOM     85  C   UNL A   1      38.208  29.680  30.991  1.00  0.00     0.091 A 
ATOM     86  F   UNL A   1      40.446  29.152  31.632  1.00  0.00    -0.205 F 
ATOM     87  C   UNL A   1      37.292  29.996  29.976  1.00  0.00     0.022 A 
BRANCH  85  88
ATOM     88  S   UNL A   1      37.560  29.542  32.660  1.00  0.00     0.127 S 
ATOM     89  O   UNL A   1      38.490  30.380  33.412  1.00  0.00    -0.237 OA
ATOM     90  O   UNL A   1      36.216  30.099  32.506  1.00  0.00    -0.237 OA
ATOM     91  O   UNL A   1      37.590  28.121  32.980  1.00  0.00    -0.744 OA
ENDBRANCH  85  88
ENDBRANCH  57  81
BRANCH  69  92
ATOM     92  C   UNL A   1      45.907  33.068  29.090  1.00  0.00     0.023 A 
ATOM     93  C   UNL A   1      46.432  33.439  30.343  1.00  0.00     0.012 A 
ATOM     94  C   UNL A   1      45.760  34.047  28.086  1.00  0.00     0.148 A 
ATOM     95  C   UNL A   1      46.774  34.766  30.605  1.00  0.00     0.002 A 
ATOM     96  C   UNL A   1      46.152  35.356  28.336  1.00  0.00     0.091 A 
ATOM     97  F   UNL A   1      45.242  33.678  26.905  1.00  0.00    -0.205 F 
ATOM     98  C   UNL A   1      46.646  35.721  29.599  1.00  0.00     0.022 A 
BRANCH  96  99
ATOM     99  S   UNL A   1      46.114  36.632  27.071  1.00  0.00     0.127 S 
ATOM    100  O   UNL A   1      46.879  37.704  27.707  1.00  0.00    -0.237 OA
ATOM    101  O   UNL A   1      46.795  35.979  25.953  1.00  0.00    -0.237 OA
ATOM    102  O   UNL A   1      44.708  36.924  26.835  1.00  0.00    -0.744 OA
ENDBRANCH  96  99
ENDBRANCH  69  92
ENDBRANCH  43  44
ENDBRANCH  35  38
ENDBRANCH  33  34
ENDBRANCH   1  33
TORSDOF 17
ENDMDL
