MODEL 1
REMARK VINA RESULT:     -12.1      0.000      0.000
REMARK SMILES CCn1nc(-c2cccnc2)c2cc(C(=O)NCCCCNC(=O)c3ccc(-c4c5nc(c(-c6cccc(S(=O)(=O)[O-])c6F)c6ccc([nH]6)c(-c6cccc(S(=O)(=O)[O-])c6F)c6nc(c(-c7cccc(S(=O)(=O)[O-])c7F)c7ccc4[nH]7)C=C6)C=C5)cc3)sc21
REMARK SMILES IDX 20 1 19 2 18 3 17 4 15 5 16 6 14 8 3 9 4 10 89 11 5 12 12 13
REMARK SMILES IDX 88 14 13 15 2 16 1 17 6 18 7 19 11 20 8 21 10 22 9 23 21 24
REMARK SMILES IDX 22 25 23 26 24 28 25 29 26 30 87 31 27 32 86 33 28 34 29 35
REMARK SMILES IDX 30 36 80 37 31 38 85 39 79 40 81 41 32 42 84 43 78 44 77 45
REMARK SMILES IDX 33 47 65 48 45 49 64 50 46 51 49 52 63 53 82 54 47 55 48 56
REMARK SMILES IDX 62 58 83 59 50 60 34 61 35 62 43 63 36 64 38 65 44 66 37 67
REMARK SMILES IDX 39 68 40 69 41 70 42 71 66 72 67 73 75 74 68 75 70 76 76 77
REMARK SMILES IDX 69 78 71 79 72 80 73 81 74 82 51 83 52 84 60 85 53 86 55 87
REMARK SMILES IDX 61 88 54 89 56 90 57 91 58 92 59 93
REMARK H PARENT 17 7 22 27 81 46 49 57
REMARK Flexibility Score: inf
ROOT
ATOM      1  C   UNL A   1      38.072  19.580  25.003  1.00  0.00     0.023 C 
ENDROOT
BRANCH   1   2
ATOM      2  C   UNL A   1      36.966  20.595  24.688  1.00  0.00     0.023 C 
BRANCH   2   3
ATOM      3  C   UNL A   1      36.766  21.720  25.721  1.00  0.00     0.116 C 
BRANCH   3   4
ATOM      4  N   UNL A   1      35.566  21.537  26.529  1.00  0.00    -0.351 N 
ATOM      5  C   UNL A   1      34.351  22.200  26.562  1.00  0.00     0.261 C 
ATOM      6  O   UNL A   1      33.497  21.736  27.319  1.00  0.00    -0.268 OA
ATOM      7  H   UNL A   1      35.634  20.799  27.177  1.00  0.00     0.163 HD
BRANCH   5   8
ATOM      8  C   UNL A   1      34.070  23.363  25.727  1.00  0.00     0.095 A 
ATOM      9  N   UNL A   1      32.618  25.471  23.048  1.00  0.00    -0.254 N 
ATOM     10  N   UNL A   1      32.414  26.739  23.507  1.00  0.00    -0.171 NA
ATOM     11  C   UNL A   1      33.312  24.739  23.934  1.00  0.00     0.122 A 
ATOM     12  C   UNL A   1      32.959  26.736  24.758  1.00  0.00     0.103 A 
ATOM     13  C   UNL A   1      33.397  25.442  25.059  1.00  0.00     0.040 A 
ATOM     14  S   UNL A   1      34.023  23.260  23.992  1.00  0.00    -0.110 S 
ATOM     15  C   UNL A   1      33.880  24.699  26.141  1.00  0.00     0.038 A 
BRANCH   9  16
ATOM     16  C   UNL A   1      32.053  24.996  21.803  1.00  0.00     0.142 C 
ATOM     17  C   UNL A   1      32.627  25.708  20.580  1.00  0.00     0.029 C 
ENDBRANCH   9  16
BRANCH  12  18
ATOM     18  C   UNL A   1      33.128  27.976  25.495  1.00  0.00     0.021 A 
ATOM     19  C   UNL A   1      34.005  28.087  26.574  1.00  0.00     0.013 A 
ATOM     20  C   UNL A   1      32.302  29.065  25.226  1.00  0.00     0.121 A 
ATOM     21  C   UNL A   1      34.027  29.263  27.323  1.00  0.00     0.021 A 
ATOM     22  N   UNL A   1      32.290  30.217  25.944  1.00  0.00    -0.264 NA
ATOM     23  C   UNL A   1      33.156  30.286  26.976  1.00  0.00     0.111 A 
ENDBRANCH  12  18
ENDBRANCH   5   8
ENDBRANCH   3   4
ENDBRANCH   2   3
ENDBRANCH   1   2
BRANCH   1  24
ATOM     24  C   UNL A   1      39.261  20.142  25.770  1.00  0.00     0.116 C 
BRANCH  24  25
ATOM     25  N   UNL A   1      40.377  19.195  25.886  1.00  0.00    -0.352 N 
ATOM     26  C   UNL A   1      41.733  19.478  25.994  1.00  0.00     0.251 C 
ATOM     27  H   UNL A   1      40.135  18.240  25.886  1.00  0.00     0.163 HD
ATOM     28  O   UNL A   1      42.578  18.659  25.673  1.00  0.00    -0.269 OA
BRANCH  26  29
ATOM     29  C   UNL A   1      42.123  20.790  26.541  1.00  0.00     0.039 A 
ATOM     30  C   UNL A   1      42.609  21.830  25.741  1.00  0.00     0.014 A 
ATOM     31  C   UNL A   1      41.938  20.966  27.908  1.00  0.00     0.014 A 
ATOM     32  C   UNL A   1      42.830  23.074  26.329  1.00  0.00     0.010 A 
ATOM     33  C   UNL A   1      41.947  22.226  28.428  1.00  0.00     0.010 A 
ATOM     34  C   UNL A   1      42.480  23.262  27.675  1.00  0.00    -0.014 A 
BRANCH  34  35
ATOM     35  C   UNL A   1      42.554  24.561  28.327  1.00  0.00     0.031 A 
ATOM     36  C   UNL A   1      41.342  25.399  28.138  1.00  0.00     0.074 A 
ATOM     37  C   UNL A   1      43.510  24.842  29.241  1.00  0.00     0.049 A 
ATOM     38  N   UNL A   1      41.233  26.463  27.416  1.00  0.00    -0.248 NA
ATOM     39  C   UNL A   1      40.057  24.903  28.659  1.00  0.00     0.031 C 
ATOM     40  C   UNL A   1      44.543  23.940  29.774  1.00  0.00     0.029 A 
ATOM     41  N   UNL A   1      43.659  25.945  30.021  1.00  0.00    -0.354 N 
ATOM     42  C   UNL A   1      39.933  26.920  27.624  1.00  0.00     0.074 A 
ATOM     43  C   UNL A   1      39.205  25.801  28.158  1.00  0.00     0.031 C 
ATOM     44  C   UNL A   1      45.007  24.427  30.946  1.00  0.00     0.029 A 
ATOM     45  C   UNL A   1      44.435  25.742  31.160  1.00  0.00     0.049 A 
ATOM     46  H   UNL A   1      43.252  26.813  29.800  1.00  0.00     0.167 HD
ATOM     47  C   UNL A   1      39.652  28.254  27.624  1.00  0.00     0.034 A 
ATOM     48  C   UNL A   1      44.545  26.573  32.228  1.00  0.00     0.034 A 
ATOM     49  C   UNL A   1      40.776  29.011  27.122  1.00  0.00     0.049 A 
ATOM     50  C   UNL A   1      44.076  27.908  31.786  1.00  0.00     0.074 A 
ATOM     51  C   UNL A   1      41.519  29.006  25.959  1.00  0.00     0.029 A 
ATOM     52  N   UNL A   1      41.544  29.660  28.061  1.00  0.00    -0.354 N 
ATOM     53  N   UNL A   1      44.704  28.631  30.903  1.00  0.00    -0.248 NA
ATOM     54  C   UNL A   1      42.669  28.224  31.974  1.00  0.00     0.031 C 
ATOM     55  C   UNL A   1      42.865  29.203  26.388  1.00  0.00     0.029 A 
ATOM     56  C   UNL A   1      42.857  29.414  27.767  1.00  0.00     0.049 A 
ATOM     57  H   UNL A   1      41.209  30.205  28.810  1.00  0.00     0.167 HD
ATOM     58  C   UNL A   1      43.691  29.133  30.097  1.00  0.00     0.074 A 
ATOM     59  C   UNL A   1      42.461  28.942  30.866  1.00  0.00     0.031 C 
ATOM     60  C   UNL A   1      43.901  29.361  28.767  1.00  0.00     0.034 A 
BRANCH  47  61
ATOM     61  C   UNL A   1      38.567  28.940  28.436  1.00  0.00     0.023 A 
ATOM     62  C   UNL A   1      37.762  29.878  27.745  1.00  0.00     0.012 A 
ATOM     63  C   UNL A   1      38.474  28.942  29.845  1.00  0.00     0.148 A 
ATOM     64  C   UNL A   1      36.982  30.822  28.421  1.00  0.00     0.002 A 
ATOM     65  C   UNL A   1      37.639  29.834  30.512  1.00  0.00     0.091 A 
ATOM     66  F   UNL A   1      39.280  28.173  30.577  1.00  0.00    -0.205 F 
ATOM     67  C   UNL A   1      36.921  30.800  29.807  1.00  0.00     0.022 A 
BRANCH  65  68
ATOM     68  S   UNL A   1      37.482  29.823  32.303  1.00  0.00     0.127 S 
ATOM     69  O   UNL A   1      38.768  30.380  32.712  1.00  0.00    -0.237 OA
ATOM     70  O   UNL A   1      36.331  30.703  32.504  1.00  0.00    -0.237 OA
ATOM     71  O   UNL A   1      37.244  28.433  32.671  1.00  0.00    -0.744 OA
ENDBRANCH  65  68
ENDBRANCH  47  61
BRANCH  48  72
ATOM     72  C   UNL A   1      44.786  26.276  33.661  1.00  0.00     0.023 A 
ATOM     73  C   UNL A   1      46.095  26.351  34.180  1.00  0.00     0.012 A 
ATOM     74  C   UNL A   1      43.712  26.208  34.576  1.00  0.00     0.148 A 
ATOM     75  C   UNL A   1      46.324  26.401  35.562  1.00  0.00     0.002 A 
ATOM     76  C   UNL A   1      43.945  26.254  35.948  1.00  0.00     0.091 A 
ATOM     77  F   UNL A   1      42.459  26.201  34.100  1.00  0.00    -0.205 F 
ATOM     78  C   UNL A   1      45.250  26.364  36.445  1.00  0.00     0.022 A 
BRANCH  76  79
ATOM     79  S   UNL A   1      42.603  26.245  37.145  1.00  0.00     0.127 S 
ATOM     80  O   UNL A   1      41.834  27.424  36.748  1.00  0.00    -0.237 OA
ATOM     81  O   UNL A   1      41.958  24.966  36.861  1.00  0.00    -0.237 OA
ATOM     82  O   UNL A   1      43.240  26.357  38.452  1.00  0.00    -0.744 OA
ENDBRANCH  76  79
ENDBRANCH  48  72
BRANCH  60  83
ATOM     83  C   UNL A   1      45.315  29.333  28.248  1.00  0.00     0.023 A 
ATOM     84  C   UNL A   1      46.199  30.427  28.354  1.00  0.00     0.012 A 
ATOM     85  C   UNL A   1      45.813  28.101  27.794  1.00  0.00     0.148 A 
ATOM     86  C   UNL A   1      47.543  30.298  27.992  1.00  0.00     0.002 A 
ATOM     87  C   UNL A   1      47.158  27.962  27.484  1.00  0.00     0.091 A 
ATOM     88  F   UNL A   1      44.959  27.070  27.695  1.00  0.00    -0.205 F 
ATOM     89  C   UNL A   1      48.026  29.060  27.571  1.00  0.00     0.022 A 
BRANCH  87  90
ATOM     90  S   UNL A   1      47.845  26.362  27.062  1.00  0.00     0.127 S 
ATOM     91  O   UNL A   1      47.530  25.571  28.249  1.00  0.00    -0.237 OA
ATOM     92  O   UNL A   1      47.087  25.996  25.863  1.00  0.00    -0.237 OA
ATOM     93  O   UNL A   1      49.264  26.594  26.815  1.00  0.00    -0.744 OA
ENDBRANCH  87  90
ENDBRANCH  60  83
ENDBRANCH  34  35
ENDBRANCH  26  29
ENDBRANCH  24  25
ENDBRANCH   1  24
TORSDOF 16
ENDMDL
MODEL 2
REMARK VINA RESULT:     -11.9      1.772      2.111
REMARK SMILES CCn1nc(-c2cccnc2)c2cc(C(=O)NCCCCNC(=O)c3ccc(-c4c5nc(c(-c6cccc(S(=O)(=O)[O-])c6F)c6ccc([nH]6)c(-c6cccc(S(=O)(=O)[O-])c6F)c6nc(c(-c7cccc(S(=O)(=O)[O-])c7F)c7ccc4[nH]7)C=C6)C=C5)cc3)sc21
REMARK SMILES IDX 20 1 19 2 18 3 17 4 15 5 16 6 14 8 3 9 4 10 89 11 5 12 12 13
REMARK SMILES IDX 88 14 13 15 2 16 1 17 6 18 7 19 11 20 8 21 10 22 9 23 21 24
REMARK SMILES IDX 22 25 23 26 24 28 25 29 26 30 87 31 27 32 86 33 28 34 29 35
REMARK SMILES IDX 30 36 80 37 31 38 85 39 79 40 81 41 32 42 84 43 78 44 77 45
REMARK SMILES IDX 33 47 65 48 45 49 64 50 46 51 49 52 63 53 82 54 47 55 48 56
REMARK SMILES IDX 62 58 83 59 50 60 34 61 35 62 43 63 36 64 38 65 44 66 37 67
REMARK SMILES IDX 39 68 40 69 41 70 42 71 66 72 67 73 75 74 68 75 70 76 76 77
REMARK SMILES IDX 69 78 71 79 72 80 73 81 74 82 51 83 52 84 60 85 53 86 55 87
REMARK SMILES IDX 61 88 54 89 56 90 57 91 58 92 59 93
REMARK H PARENT 17 7 22 27 81 46 49 57
REMARK Flexibility Score: inf
ROOT
ATOM      1  C   UNL A   1      38.167  19.500  24.678  1.00  0.00     0.023 C 
ENDROOT
BRANCH   1   2
ATOM      2  C   UNL A   1      36.711  19.667  25.130  1.00  0.00     0.023 C 
BRANCH   2   3
ATOM      3  C   UNL A   1      36.207  21.116  25.266  1.00  0.00     0.116 C 
BRANCH   3   4
ATOM      4  N   UNL A   1      36.581  21.952  24.130  1.00  0.00    -0.351 N 
ATOM      5  C   UNL A   1      36.017  23.092  23.583  1.00  0.00     0.261 C 
ATOM      6  O   UNL A   1      36.636  23.615  22.656  1.00  0.00    -0.268 OA
ATOM      7  H   UNL A   1      37.390  21.646  23.663  1.00  0.00     0.163 HD
BRANCH   5   8
ATOM      8  C   UNL A   1      34.777  23.673  24.088  1.00  0.00     0.095 A 
ATOM      9  N   UNL A   1      31.457  23.956  25.710  1.00  0.00    -0.254 N 
ATOM     10  N   UNL A   1      31.357  25.145  26.369  1.00  0.00    -0.171 NA
ATOM     11  C   UNL A   1      32.571  23.907  24.962  1.00  0.00     0.122 A 
ATOM     12  C   UNL A   1      32.505  25.808  26.045  1.00  0.00     0.103 A 
ATOM     13  C   UNL A   1      33.312  24.967  25.272  1.00  0.00     0.040 A 
ATOM     14  S   UNL A   1      33.235  22.909  23.839  1.00  0.00    -0.110 S 
ATOM     15  C   UNL A   1      34.608  24.909  24.748  1.00  0.00     0.038 A 
BRANCH   9  16
ATOM     16  C   UNL A   1      30.510  22.878  25.903  1.00  0.00     0.142 C 
ATOM     17  C   UNL A   1      29.838  22.918  27.274  1.00  0.00     0.029 C 
ENDBRANCH   9  16
BRANCH  12  18
ATOM     18  C   UNL A   1      32.673  27.209  26.387  1.00  0.00     0.021 A 
ATOM     19  C   UNL A   1      33.930  27.805  26.491  1.00  0.00     0.013 A 
ATOM     20  C   UNL A   1      31.569  27.972  26.762  1.00  0.00     0.121 A 
ATOM     21  C   UNL A   1      34.032  29.118  26.951  1.00  0.00     0.021 A 
ATOM     22  N   UNL A   1      31.636  29.246  27.226  1.00  0.00    -0.264 NA
ATOM     23  C   UNL A   1      32.870  29.787  27.307  1.00  0.00     0.111 A 
ENDBRANCH  12  18
ENDBRANCH   5   8
ENDBRANCH   3   4
ENDBRANCH   2   3
ENDBRANCH   1   2
BRANCH   1  24
ATOM     24  C   UNL A   1      39.211  19.948  25.692  1.00  0.00     0.116 C 
BRANCH  24  25
ATOM     25  N   UNL A   1      40.333  19.010  25.823  1.00  0.00    -0.352 N 
ATOM     26  C   UNL A   1      41.685  19.304  25.946  1.00  0.00     0.251 C 
ATOM     27  H   UNL A   1      40.098  18.054  25.824  1.00  0.00     0.163 HD
ATOM     28  O   UNL A   1      42.540  18.491  25.637  1.00  0.00    -0.269 OA
BRANCH  26  29
ATOM     29  C   UNL A   1      42.059  20.621  26.494  1.00  0.00     0.039 A 
ATOM     30  C   UNL A   1      42.440  21.697  25.685  1.00  0.00     0.014 A 
ATOM     31  C   UNL A   1      41.967  20.761  27.874  1.00  0.00     0.014 A 
ATOM     32  C   UNL A   1      42.651  22.937  26.284  1.00  0.00     0.010 A 
ATOM     33  C   UNL A   1      41.962  22.010  28.422  1.00  0.00     0.010 A 
ATOM     34  C   UNL A   1      42.393  23.083  27.656  1.00  0.00    -0.014 A 
BRANCH  34  35
ATOM     35  C   UNL A   1      42.460  24.371  28.330  1.00  0.00     0.031 A 
ATOM     36  C   UNL A   1      41.268  25.228  28.111  1.00  0.00     0.074 A 
ATOM     37  C   UNL A   1      43.386  24.624  29.284  1.00  0.00     0.049 A 
ATOM     38  N   UNL A   1      41.199  26.304  27.402  1.00  0.00    -0.248 NA
ATOM     39  C   UNL A   1      39.957  24.741  28.576  1.00  0.00     0.031 C 
ATOM     40  C   UNL A   1      44.387  23.700  29.839  1.00  0.00     0.029 A 
ATOM     41  N   UNL A   1      43.520  25.712  30.086  1.00  0.00    -0.354 N 
ATOM     42  C   UNL A   1      39.898  26.775  27.569  1.00  0.00     0.074 A 
ATOM     43  C   UNL A   1      39.136  25.658  28.058  1.00  0.00     0.031 C 
ATOM     44  C   UNL A   1      44.813  24.162  31.035  1.00  0.00     0.029 A 
ATOM     45  C   UNL A   1      44.251  25.482  31.250  1.00  0.00     0.049 A 
ATOM     46  H   UNL A   1      43.133  26.590  29.864  1.00  0.00     0.167 HD
ATOM     47  C   UNL A   1      39.635  28.113  27.580  1.00  0.00     0.034 A 
ATOM     48  C   UNL A   1      44.333  26.294  32.333  1.00  0.00     0.034 A 
ATOM     49  C   UNL A   1      40.786  28.862  27.132  1.00  0.00     0.049 A 
ATOM     50  C   UNL A   1      43.897  27.642  31.897  1.00  0.00     0.074 A 
ATOM     51  C   UNL A   1      41.572  28.865  25.997  1.00  0.00     0.029 A 
ATOM     52  N   UNL A   1      41.528  29.486  28.109  1.00  0.00    -0.354 N 
ATOM     53  N   UNL A   1      44.567  28.370  31.049  1.00  0.00    -0.248 NA
ATOM     54  C   UNL A   1      42.488  27.975  32.038  1.00  0.00     0.031 C 
ATOM     55  C   UNL A   1      42.904  29.037  26.479  1.00  0.00     0.029 A 
ATOM     56  C   UNL A   1      42.847  29.227  27.860  1.00  0.00     0.049 A 
ATOM     57  H   UNL A   1      41.172  30.024  28.854  1.00  0.00     0.167 HD
ATOM     58  C   UNL A   1      43.591  28.898  30.214  1.00  0.00     0.074 A 
ATOM     59  C   UNL A   1      42.331  28.712  30.934  1.00  0.00     0.031 C 
ATOM     60  C   UNL A   1      43.853  29.144  28.897  1.00  0.00     0.034 A 
BRANCH  47  61
ATOM     61  C   UNL A   1      38.530  28.801  28.363  1.00  0.00     0.023 A 
ATOM     62  C   UNL A   1      37.722  29.713  27.641  1.00  0.00     0.012 A 
ATOM     63  C   UNL A   1      38.418  28.832  29.770  1.00  0.00     0.148 A 
ATOM     64  C   UNL A   1      36.920  30.661  28.286  1.00  0.00     0.002 A 
ATOM     65  C   UNL A   1      37.562  29.726  30.406  1.00  0.00     0.091 A 
ATOM     66  F   UNL A   1      39.223  28.089  30.529  1.00  0.00    -0.205 F 
ATOM     67  C   UNL A   1      36.840  30.667  29.671  1.00  0.00     0.022 A 
BRANCH  65  68
ATOM     68  S   UNL A   1      37.380  29.751  32.195  1.00  0.00     0.127 S 
ATOM     69  O   UNL A   1      38.581  30.475  32.600  1.00  0.00    -0.237 OA
ATOM     70  O   UNL A   1      36.126  30.488  32.355  1.00  0.00    -0.237 OA
ATOM     71  O   UNL A   1      37.309  28.355  32.605  1.00  0.00    -0.744 OA
ENDBRANCH  65  68
ENDBRANCH  47  61
BRANCH  48  72
ATOM     72  C   UNL A   1      44.516  25.972  33.770  1.00  0.00     0.023 A 
ATOM     73  C   UNL A   1      43.386  25.801  34.597  1.00  0.00     0.012 A 
ATOM     74  C   UNL A   1      45.769  25.545  34.261  1.00  0.00     0.148 A 
ATOM     75  C   UNL A   1      43.495  25.186  35.852  1.00  0.00     0.002 A 
ATOM     76  C   UNL A   1      45.872  24.940  35.511  1.00  0.00     0.091 A 
ATOM     77  F   UNL A   1      46.842  25.642  33.464  1.00  0.00    -0.205 F 
ATOM     78  C   UNL A   1      44.735  24.746  36.304  1.00  0.00     0.022 A 
BRANCH  76  79
ATOM     79  S   UNL A   1      47.436  24.316  36.143  1.00  0.00     0.127 S 
ATOM     80  O   UNL A   1      47.081  23.935  37.510  1.00  0.00    -0.237 OA
ATOM     81  O   UNL A   1      47.699  23.198  35.241  1.00  0.00    -0.237 OA
ATOM     82  O   UNL A   1      48.369  25.434  36.056  1.00  0.00    -0.744 OA
ENDBRANCH  76  79
ENDBRANCH  48  72
BRANCH  60  83
ATOM     83  C   UNL A   1      45.284  29.104  28.429  1.00  0.00     0.023 A 
ATOM     84  C   UNL A   1      46.181  30.182  28.592  1.00  0.00     0.012 A 
ATOM     85  C   UNL A   1      45.780  27.876  27.966  1.00  0.00     0.148 A 
ATOM     86  C   UNL A   1      47.535  30.040  28.277  1.00  0.00     0.002 A 
ATOM     87  C   UNL A   1      47.133  27.722  27.703  1.00  0.00     0.091 A 
ATOM     88  F   UNL A   1      44.915  26.861  27.812  1.00  0.00    -0.205 F 
ATOM     89  C   UNL A   1      48.015  28.804  27.847  1.00  0.00     0.022 A 
BRANCH  87  90
ATOM     90  S   UNL A   1      47.812  26.120  27.270  1.00  0.00     0.127 S 
ATOM     91  O   UNL A   1      49.233  26.420  27.120  1.00  0.00    -0.237 OA
ATOM     92  O   UNL A   1      47.478  25.307  28.442  1.00  0.00    -0.237 OA
ATOM     93  O   UNL A   1      47.119  25.713  26.054  1.00  0.00    -0.744 OA
ENDBRANCH  87  90
ENDBRANCH  60  83
ENDBRANCH  34  35
ENDBRANCH  26  29
ENDBRANCH  24  25
ENDBRANCH   1  24
TORSDOF 16
ENDMDL
MODEL 3
REMARK VINA RESULT:     -11.8      3.133      7.597
REMARK SMILES CCn1nc(-c2cccnc2)c2cc(C(=O)NCCCCNC(=O)c3ccc(-c4c5nc(c(-c6cccc(S(=O)(=O)[O-])c6F)c6ccc([nH]6)c(-c6cccc(S(=O)(=O)[O-])c6F)c6nc(c(-c7cccc(S(=O)(=O)[O-])c7F)c7ccc4[nH]7)C=C6)C=C5)cc3)sc21
REMARK SMILES IDX 20 1 19 2 18 3 17 4 15 5 16 6 14 8 3 9 4 10 89 11 5 12 12 13
REMARK SMILES IDX 88 14 13 15 2 16 1 17 6 18 7 19 11 20 8 21 10 22 9 23 21 24
REMARK SMILES IDX 22 25 23 26 24 28 25 29 26 30 87 31 27 32 86 33 28 34 29 35
REMARK SMILES IDX 30 36 80 37 31 38 85 39 79 40 81 41 32 42 84 43 78 44 77 45
REMARK SMILES IDX 33 47 65 48 45 49 64 50 46 51 49 52 63 53 82 54 47 55 48 56
REMARK SMILES IDX 62 58 83 59 50 60 34 61 35 62 43 63 36 64 38 65 44 66 37 67
REMARK SMILES IDX 39 68 40 69 41 70 42 71 66 72 67 73 75 74 68 75 70 76 76 77
REMARK SMILES IDX 69 78 71 79 72 80 73 81 74 82 51 83 52 84 60 85 53 86 55 87
REMARK SMILES IDX 61 88 54 89 56 90 57 91 58 92 59 93
REMARK H PARENT 17 7 22 27 81 46 49 57
REMARK Flexibility Score: inf
ROOT
ATOM      1  C   UNL A   1      39.718  21.578  26.148  1.00  0.00     0.023 C 
ENDROOT
BRANCH   1   2
ATOM      2  C   UNL A   1      39.412  22.984  26.678  1.00  0.00     0.023 C 
BRANCH   2   3
ATOM      3  C   UNL A   1      38.034  23.562  26.304  1.00  0.00     0.116 C 
BRANCH   3   4
ATOM      4  N   UNL A   1      37.826  23.637  24.862  1.00  0.00    -0.351 N 
ATOM      5  C   UNL A   1      36.789  23.223  24.044  1.00  0.00     0.261 C 
ATOM      6  O   UNL A   1      36.885  23.515  22.851  1.00  0.00    -0.268 OA
ATOM      7  H   UNL A   1      38.567  24.065  24.377  1.00  0.00     0.163 HD
BRANCH   5   8
ATOM      8  C   UNL A   1      35.624  22.509  24.557  1.00  0.00     0.095 A 
ATOM      9  N   UNL A   1      32.107  21.735  25.431  1.00  0.00    -0.254 N 
ATOM     10  N   UNL A   1      31.864  20.404  25.266  1.00  0.00    -0.171 NA
ATOM     11  C   UNL A   1      33.414  22.011  25.302  1.00  0.00     0.122 A 
ATOM     12  C   UNL A   1      33.084  19.875  24.959  1.00  0.00     0.103 A 
ATOM     13  C   UNL A   1      34.016  20.913  24.856  1.00  0.00     0.040 A 
ATOM     14  S   UNL A   1      34.408  23.301  25.515  1.00  0.00    -0.110 S 
ATOM     15  C   UNL A   1      35.334  21.132  24.444  1.00  0.00     0.038 A 
BRANCH   9  16
ATOM     16  C   UNL A   1      31.044  22.701  25.619  1.00  0.00     0.142 C 
ATOM     17  C   UNL A   1      30.914  23.675  24.450  1.00  0.00     0.029 C 
ENDBRANCH   9  16
BRANCH  12  18
ATOM     18  C   UNL A   1      33.278  18.436  24.918  1.00  0.00     0.021 A 
ATOM     19  C   UNL A   1      34.014  17.813  23.911  1.00  0.00     0.013 A 
ATOM     20  C   UNL A   1      32.606  17.616  25.822  1.00  0.00     0.121 A 
ATOM     21  C   UNL A   1      34.055  16.420  23.851  1.00  0.00     0.021 A 
ATOM     22  N   UNL A   1      32.615  16.260  25.783  1.00  0.00    -0.264 NA
ATOM     23  C   UNL A   1      33.342  15.696  24.796  1.00  0.00     0.111 A 
ENDBRANCH  12  18
ENDBRANCH   5   8
ENDBRANCH   3   4
ENDBRANCH   2   3
ENDBRANCH   1   2
BRANCH   1  24
ATOM     24  C   UNL A   1      40.573  20.715  27.067  1.00  0.00     0.116 C 
BRANCH  24  25
ATOM     25  N   UNL A   1      41.775  20.185  26.413  1.00  0.00    -0.352 N 
ATOM     26  C   UNL A   1      42.788  20.892  25.777  1.00  0.00     0.251 C 
ATOM     27  H   UNL A   1      41.877  19.205  26.426  1.00  0.00     0.163 HD
ATOM     28  O   UNL A   1      43.495  20.366  24.935  1.00  0.00    -0.269 OA
BRANCH  26  29
ATOM     29  C   UNL A   1      43.005  22.295  26.176  1.00  0.00     0.039 A 
ATOM     30  C   UNL A   1      42.726  23.374  25.330  1.00  0.00     0.014 A 
ATOM     31  C   UNL A   1      43.463  22.503  27.472  1.00  0.00     0.014 A 
ATOM     32  C   UNL A   1      42.842  24.666  25.840  1.00  0.00     0.010 A 
ATOM     33  C   UNL A   1      43.366  23.745  28.026  1.00  0.00     0.010 A 
ATOM     34  C   UNL A   1      43.150  24.836  27.198  1.00  0.00    -0.014 A 
BRANCH  34  35
ATOM     35  C   UNL A   1      43.160  26.143  27.838  1.00  0.00     0.031 A 
ATOM     36  C   UNL A   1      44.301  27.003  27.433  1.00  0.00     0.074 A 
ATOM     37  C   UNL A   1      42.080  26.614  28.504  1.00  0.00     0.049 A 
ATOM     38  N   UNL A   1      45.321  27.336  28.150  1.00  0.00    -0.248 NA
ATOM     39  C   UNL A   1      44.422  27.389  26.017  1.00  0.00     0.031 C 
ATOM     40  C   UNL A   1      40.759  25.982  28.645  1.00  0.00     0.029 A 
ATOM     41  N   UNL A   1      41.876  27.839  29.056  1.00  0.00    -0.354 N 
ATOM     42  C   UNL A   1      46.066  28.204  27.354  1.00  0.00     0.074 A 
ATOM     43  C   UNL A   1      45.619  27.980  26.006  1.00  0.00     0.031 C 
ATOM     44  C   UNL A   1      39.845  26.919  28.983  1.00  0.00     0.029 A 
ATOM     45  C   UNL A   1      40.535  28.167  29.245  1.00  0.00     0.049 A 
ATOM     46  H   UNL A   1      42.613  28.444  29.300  1.00  0.00     0.167 HD
ATOM     47  C   UNL A   1      46.761  29.238  27.908  1.00  0.00     0.034 A 
ATOM     48  C   UNL A   1      40.030  29.393  29.535  1.00  0.00     0.034 A 
ATOM     49  C   UNL A   1      46.820  29.101  29.345  1.00  0.00     0.049 A 
ATOM     50  C   UNL A   1      41.152  30.209  30.057  1.00  0.00     0.074 A 
ATOM     51  C   UNL A   1      47.263  28.127  30.218  1.00  0.00     0.029 A 
ATOM     52  N   UNL A   1      45.976  29.907  30.072  1.00  0.00    -0.354 N 
ATOM     53  N   UNL A   1      41.748  29.965  31.189  1.00  0.00    -0.248 NA
ATOM     54  C   UNL A   1      41.913  31.000  29.102  1.00  0.00     0.031 C 
ATOM     55  C   UNL A   1      46.292  28.108  31.263  1.00  0.00     0.029 A 
ATOM     56  C   UNL A   1      45.373  29.130  31.022  1.00  0.00     0.049 A 
ATOM     57  H   UNL A   1      45.832  30.872  29.934  1.00  0.00     0.167 HD
ATOM     58  C   UNL A   1      43.096  30.134  30.903  1.00  0.00     0.074 A 
ATOM     59  C   UNL A   1      43.129  30.875  29.642  1.00  0.00     0.031 C 
ATOM     60  C   UNL A   1      44.048  29.391  31.541  1.00  0.00     0.034 A 
BRANCH  47  61
ATOM     61  C   UNL A   1      47.038  30.581  27.255  1.00  0.00     0.023 A 
ATOM     62  C   UNL A   1      48.350  31.095  27.405  1.00  0.00     0.012 A 
ATOM     63  C   UNL A   1      46.059  31.476  26.770  1.00  0.00     0.148 A 
ATOM     64  C   UNL A   1      48.647  32.442  27.173  1.00  0.00     0.002 A 
ATOM     65  C   UNL A   1      46.376  32.798  26.469  1.00  0.00     0.091 A 
ATOM     66  F   UNL A   1      44.780  31.109  26.708  1.00  0.00    -0.205 F 
ATOM     67  C   UNL A   1      47.658  33.295  26.705  1.00  0.00     0.022 A 
BRANCH  65  68
ATOM     68  S   UNL A   1      45.149  33.938  25.816  1.00  0.00     0.127 S 
ATOM     69  O   UNL A   1      44.613  33.177  24.692  1.00  0.00    -0.237 OA
ATOM     70  O   UNL A   1      44.244  34.084  26.956  1.00  0.00    -0.237 OA
ATOM     71  O   UNL A   1      45.880  35.152  25.474  1.00  0.00    -0.744 OA
ENDBRANCH  65  68
ENDBRANCH  47  61
BRANCH  48  72
ATOM     72  C   UNL A   1      38.729  30.010  29.179  1.00  0.00     0.023 A 
ATOM     73  C   UNL A   1      38.003  29.520  28.073  1.00  0.00     0.012 A 
ATOM     74  C   UNL A   1      38.065  30.868  30.081  1.00  0.00     0.148 A 
ATOM     75  C   UNL A   1      36.650  29.839  27.898  1.00  0.00     0.002 A 
ATOM     76  C   UNL A   1      36.721  31.186  29.899  1.00  0.00     0.091 A 
ATOM     77  F   UNL A   1      38.720  31.292  31.170  1.00  0.00    -0.205 F 
ATOM     78  C   UNL A   1      36.006  30.663  28.815  1.00  0.00     0.022 A 
BRANCH  76  79
ATOM     79  S   UNL A   1      35.818  32.217  31.064  1.00  0.00     0.127 S 
ATOM     80  O   UNL A   1      34.505  32.318  30.427  1.00  0.00    -0.237 OA
ATOM     81  O   UNL A   1      35.852  31.400  32.275  1.00  0.00    -0.237 OA
ATOM     82  O   UNL A   1      36.552  33.475  31.128  1.00  0.00    -0.744 OA
ENDBRANCH  76  79
ENDBRANCH  48  72
BRANCH  60  83
ATOM     83  C   UNL A   1      43.642  28.593  32.753  1.00  0.00     0.023 A 
ATOM     84  C   UNL A   1      43.269  27.234  32.694  1.00  0.00     0.012 A 
ATOM     85  C   UNL A   1      43.811  29.195  34.010  1.00  0.00     0.148 A 
ATOM     86  C   UNL A   1      43.048  26.501  33.864  1.00  0.00     0.002 A 
ATOM     87  C   UNL A   1      43.640  28.453  35.170  1.00  0.00     0.091 A 
ATOM     88  F   UNL A   1      44.163  30.490  34.051  1.00  0.00    -0.205 F 
ATOM     89  C   UNL A   1      43.249  27.107  35.103  1.00  0.00     0.022 A 
BRANCH  87  90
ATOM     90  S   UNL A   1      44.011  29.155  36.776  1.00  0.00     0.127 S 
ATOM     91  O   UNL A   1      42.921  30.112  36.951  1.00  0.00    -0.237 OA
ATOM     92  O   UNL A   1      43.947  27.986  37.657  1.00  0.00    -0.237 OA
ATOM     93  O   UNL A   1      45.346  29.731  36.658  1.00  0.00    -0.744 OA
ENDBRANCH  87  90
ENDBRANCH  60  83
ENDBRANCH  34  35
ENDBRANCH  26  29
ENDBRANCH  24  25
ENDBRANCH   1  24
TORSDOF 16
ENDMDL
