MODEL 1
REMARK VINA RESULT:     -11.0      0.000      0.000
REMARK SMILES CN(CC(=O)NCCCCNC(=O)c1ccc(-c2c3nc(c(-c4cccc(S(=O)(=O)[O-])c4F)c4ccc([nH]4)c(-c4cccc(S(=O)(=O)[O-])c4F)c4nc(c(-c5cccc(S(=O)(=O)[O-])c5F)c5ccc2[nH]5)C=C4)C=C3)cc1)C(=O)c1ccccn1
REMARK SMILES IDX 8 1 7 2 6 3 4 4 5 5 3 7 2 8 1 9 77 10 78 11 79 12 80 13
REMARK SMILES IDX 84 14 81 15 83 16 82 17 9 18 10 19 11 20 12 21 13 23 14 24
REMARK SMILES IDX 15 25 76 26 16 27 75 28 17 29 18 30 19 31 69 32 20 33 74 34
REMARK SMILES IDX 68 35 70 36 21 37 73 38 67 39 66 40 22 42 54 43 34 44 53 45
REMARK SMILES IDX 35 46 38 47 52 48 71 49 36 50 37 51 51 53 72 54 39 55 23 56
REMARK SMILES IDX 24 57 32 58 25 59 27 60 33 61 26 62 28 63 29 64 30 65 31 66
REMARK SMILES IDX 55 67 56 68 64 69 57 70 59 71 65 72 58 73 60 74 61 75 62 76
REMARK SMILES IDX 63 77 40 78 41 79 49 80 42 81 44 82 50 83 43 84 45 85 46 86
REMARK SMILES IDX 47 87 48 88
REMARK H PARENT 6 6 11 22 70 41 38 52
REMARK Flexibility Score: inf
ROOT
ATOM      1  C   UNL A   1      32.061  30.040  26.512  1.00  0.00     0.023 C 
ENDROOT
BRANCH   1   2
ATOM      2  C   UNL A   1      32.534  29.722  25.096  1.00  0.00     0.116 C 
BRANCH   2   3
ATOM      3  N   UNL A   1      31.454  29.515  24.156  1.00  0.00    -0.355 N 
ATOM      4  C   UNL A   1      31.077  28.387  23.489  1.00  0.00     0.239 C 
ATOM      5  O   UNL A   1      29.955  28.388  22.971  1.00  0.00    -0.273 OA
ATOM      6  H   UNL A   1      30.906  30.312  23.969  1.00  0.00     0.163 HD
BRANCH   4   7
ATOM      7  C   UNL A   1      31.923  27.100  23.496  1.00  0.00     0.219 C 
BRANCH   7   8
ATOM      8  N   UNL A   1      32.852  26.898  22.379  1.00  0.00    -0.331 N 
ATOM      9  C   UNL A   1      33.873  27.905  22.140  1.00  0.00     0.147 C 
BRANCH   8  10
ATOM     10  C   UNL A   1      33.045  25.666  21.730  1.00  0.00     0.272 C 
ATOM     11  O   UNL A   1      32.995  25.564  20.504  1.00  0.00    -0.267 OA
BRANCH  10  12
ATOM     12  C   UNL A   1      33.352  24.444  22.529  1.00  0.00     0.128 A 
ATOM     13  C   UNL A   1      32.350  23.536  22.846  1.00  0.00     0.034 A 
ATOM     14  N   UNL A   1      34.658  24.280  22.869  1.00  0.00    -0.251 NA
ATOM     15  C   UNL A   1      32.697  22.413  23.590  1.00  0.00     0.004 A 
ATOM     16  C   UNL A   1      34.964  23.156  23.552  1.00  0.00     0.112 A 
ATOM     17  C   UNL A   1      34.027  22.212  23.944  1.00  0.00     0.020 A 
ENDBRANCH  10  12
ENDBRANCH   8  10
ENDBRANCH   7   8
ENDBRANCH   4   7
ENDBRANCH   2   3
ENDBRANCH   1   2
BRANCH   1  18
ATOM     18  C   UNL A   1      31.768  31.515  26.794  1.00  0.00     0.023 C 
BRANCH  18  19
ATOM     19  C   UNL A   1      32.931  32.337  27.338  1.00  0.00     0.116 C 
BRANCH  19  20
ATOM     20  N   UNL A   1      32.585  33.720  27.627  1.00  0.00    -0.352 N 
ATOM     21  C   UNL A   1      33.149  34.579  28.539  1.00  0.00     0.251 C 
ATOM     22  H   UNL A   1      31.845  34.092  27.095  1.00  0.00     0.163 HD
ATOM     23  O   UNL A   1      32.669  35.699  28.702  1.00  0.00    -0.269 OA
BRANCH  21  24
ATOM     24  C   UNL A   1      34.308  34.144  29.352  1.00  0.00     0.039 A 
ATOM     25  C   UNL A   1      34.075  33.395  30.509  1.00  0.00     0.014 A 
ATOM     26  C   UNL A   1      35.615  34.453  28.969  1.00  0.00     0.014 A 
ATOM     27  C   UNL A   1      35.155  32.894  31.240  1.00  0.00     0.010 A 
ATOM     28  C   UNL A   1      36.689  33.895  29.660  1.00  0.00     0.010 A 
ATOM     29  C   UNL A   1      36.472  33.109  30.802  1.00  0.00    -0.014 A 
BRANCH  29  30
ATOM     30  C   UNL A   1      37.632  32.508  31.509  1.00  0.00     0.031 A 
ATOM     31  C   UNL A   1      38.377  31.351  30.899  1.00  0.00     0.074 A 
ATOM     32  C   UNL A   1      37.958  32.941  32.744  1.00  0.00     0.049 A 
ATOM     33  N   UNL A   1      39.364  30.651  31.397  1.00  0.00    -0.248 NA
ATOM     34  C   UNL A   1      37.939  30.904  29.566  1.00  0.00     0.031 C 
ATOM     35  C   UNL A   1      37.267  34.004  33.477  1.00  0.00     0.029 A 
ATOM     36  N   UNL A   1      38.937  32.524  33.611  1.00  0.00    -0.354 N 
ATOM     37  C   UNL A   1      39.644  29.665  30.458  1.00  0.00     0.074 A 
ATOM     38  C   UNL A   1      38.698  29.834  29.375  1.00  0.00     0.031 C 
ATOM     39  C   UNL A   1      37.845  34.157  34.680  1.00  0.00     0.029 A 
ATOM     40  C   UNL A   1      38.927  33.187  34.817  1.00  0.00     0.049 A 
ATOM     41  H   UNL A   1      39.585  31.816  33.392  1.00  0.00     0.167 HD
ATOM     42  C   UNL A   1      40.620  28.726  30.475  1.00  0.00     0.034 A 
ATOM     43  C   UNL A   1      39.699  33.030  35.910  1.00  0.00     0.034 A 
ATOM     44  C   UNL A   1      41.588  28.589  31.530  1.00  0.00     0.049 A 
ATOM     45  C   UNL A   1      40.799  32.002  35.889  1.00  0.00     0.074 A 
ATOM     46  C   UNL A   1      42.661  27.718  31.604  1.00  0.00     0.029 A 
ATOM     47  N   UNL A   1      41.602  29.340  32.694  1.00  0.00    -0.354 N 
ATOM     48  N   UNL A   1      41.142  31.181  34.926  1.00  0.00    -0.248 NA
ATOM     49  C   UNL A   1      41.640  31.904  37.089  1.00  0.00     0.031 C 
ATOM     50  C   UNL A   1      43.317  27.934  32.821  1.00  0.00     0.029 A 
ATOM     51  C   UNL A   1      42.664  28.953  33.495  1.00  0.00     0.049 A 
ATOM     52  H   UNL A   1      40.954  30.045  32.919  1.00  0.00     0.167 HD
ATOM     53  C   UNL A   1      42.261  30.499  35.388  1.00  0.00     0.074 A 
ATOM     54  C   UNL A   1      42.551  31.017  36.709  1.00  0.00     0.031 C 
ATOM     55  C   UNL A   1      42.977  29.521  34.780  1.00  0.00     0.034 A 
BRANCH  42  56
ATOM     56  C   UNL A   1      40.730  27.811  29.283  1.00  0.00     0.023 A 
ATOM     57  C   UNL A   1      39.935  26.647  29.232  1.00  0.00     0.012 A 
ATOM     58  C   UNL A   1      41.565  28.125  28.194  1.00  0.00     0.148 A 
ATOM     59  C   UNL A   1      39.996  25.791  28.134  1.00  0.00     0.002 A 
ATOM     60  C   UNL A   1      41.588  27.289  27.082  1.00  0.00     0.091 A 
ATOM     61  F   UNL A   1      42.328  29.224  28.268  1.00  0.00    -0.205 F 
ATOM     62  C   UNL A   1      40.814  26.117  27.056  1.00  0.00     0.022 A 
BRANCH  60  63
ATOM     63  S   UNL A   1      42.549  27.660  25.611  1.00  0.00     0.127 S 
ATOM     64  O   UNL A   1      43.915  27.615  26.131  1.00  0.00    -0.237 OA
ATOM     65  O   UNL A   1      42.198  26.548  24.725  1.00  0.00    -0.237 OA
ATOM     66  O   UNL A   1      42.096  28.965  25.154  1.00  0.00    -0.744 OA
ENDBRANCH  60  63
ENDBRANCH  42  56
BRANCH  43  67
ATOM     67  C   UNL A   1      39.510  33.918  37.092  1.00  0.00     0.023 A 
ATOM     68  C   UNL A   1      39.929  35.261  37.017  1.00  0.00     0.012 A 
ATOM     69  C   UNL A   1      38.909  33.452  38.277  1.00  0.00     0.148 A 
ATOM     70  C   UNL A   1      39.785  36.115  38.112  1.00  0.00     0.002 A 
ATOM     71  C   UNL A   1      38.719  34.322  39.345  1.00  0.00     0.091 A 
ATOM     72  F   UNL A   1      38.530  32.168  38.336  1.00  0.00    -0.205 F 
ATOM     73  C   UNL A   1      39.172  35.649  39.271  1.00  0.00     0.022 A 
BRANCH  71  74
ATOM     74  S   UNL A   1      37.825  33.841  40.828  1.00  0.00     0.127 S 
ATOM     75  O   UNL A   1      38.792  32.972  41.492  1.00  0.00    -0.237 OA
ATOM     76  O   UNL A   1      37.604  35.132  41.481  1.00  0.00    -0.237 OA
ATOM     77  O   UNL A   1      36.607  33.195  40.355  1.00  0.00    -0.744 OA
ENDBRANCH  71  74
ENDBRANCH  43  67
BRANCH  55  78
ATOM     78  C   UNL A   1      44.172  28.968  35.513  1.00  0.00     0.023 A 
ATOM     79  C   UNL A   1      45.426  29.598  35.383  1.00  0.00     0.012 A 
ATOM     80  C   UNL A   1      44.036  27.872  36.388  1.00  0.00     0.148 A 
ATOM     81  C   UNL A   1      46.532  29.126  36.089  1.00  0.00     0.002 A 
ATOM     82  C   UNL A   1      45.130  27.438  37.124  1.00  0.00     0.091 A 
ATOM     83  F   UNL A   1      42.838  27.274  36.482  1.00  0.00    -0.205 F 
ATOM     84  C   UNL A   1      46.381  28.055  36.968  1.00  0.00     0.022 A 
BRANCH  82  85
ATOM     85  S   UNL A   1      45.008  26.129  38.349  1.00  0.00     0.127 S 
ATOM     86  O   UNL A   1      44.014  26.676  39.272  1.00  0.00    -0.237 OA
ATOM     87  O   UNL A   1      44.540  24.997  37.550  1.00  0.00    -0.237 OA
ATOM     88  O   UNL A   1      46.349  25.968  38.897  1.00  0.00    -0.744 OA
ENDBRANCH  82  85
ENDBRANCH  55  78
ENDBRANCH  29  30
ENDBRANCH  21  24
ENDBRANCH  19  20
ENDBRANCH  18  19
ENDBRANCH   1  18
TORSDOF 17
ENDMDL
MODEL 2
REMARK VINA RESULT:     -10.8      6.145      9.031
REMARK SMILES CN(CC(=O)NCCCCNC(=O)c1ccc(-c2c3nc(c(-c4cccc(S(=O)(=O)[O-])c4F)c4ccc([nH]4)c(-c4cccc(S(=O)(=O)[O-])c4F)c4nc(c(-c5cccc(S(=O)(=O)[O-])c5F)c5ccc2[nH]5)C=C4)C=C3)cc1)C(=O)c1ccccn1
REMARK SMILES IDX 8 1 7 2 6 3 4 4 5 5 3 7 2 8 1 9 77 10 78 11 79 12 80 13
REMARK SMILES IDX 84 14 81 15 83 16 82 17 9 18 10 19 11 20 12 21 13 23 14 24
REMARK SMILES IDX 15 25 76 26 16 27 75 28 17 29 18 30 19 31 69 32 20 33 74 34
REMARK SMILES IDX 68 35 70 36 21 37 73 38 67 39 66 40 22 42 54 43 34 44 53 45
REMARK SMILES IDX 35 46 38 47 52 48 71 49 36 50 37 51 51 53 72 54 39 55 23 56
REMARK SMILES IDX 24 57 32 58 25 59 27 60 33 61 26 62 28 63 29 64 30 65 31 66
REMARK SMILES IDX 55 67 56 68 64 69 57 70 59 71 65 72 58 73 60 74 61 75 62 76
REMARK SMILES IDX 63 77 40 78 41 79 49 80 42 81 44 82 50 83 43 84 45 85 46 86
REMARK SMILES IDX 47 87 48 88
REMARK H PARENT 6 6 11 22 70 41 38 52
REMARK Flexibility Score: inf
ROOT
ATOM      1  C   UNL A   1      36.446  23.153  23.664  1.00  0.00     0.023 C 
ENDROOT
BRANCH   1   2
ATOM      2  C   UNL A   1      35.367  24.030  24.296  1.00  0.00     0.116 C 
BRANCH   2   3
ATOM      3  N   UNL A   1      34.337  24.441  23.368  1.00  0.00    -0.355 N 
ATOM      4  C   UNL A   1      33.262  23.751  22.892  1.00  0.00     0.239 C 
ATOM      5  O   UNL A   1      32.371  24.407  22.341  1.00  0.00    -0.273 OA
ATOM      6  H   UNL A   1      34.426  25.361  23.027  1.00  0.00     0.163 HD
BRANCH   4   7
ATOM      7  C   UNL A   1      33.063  22.246  23.151  1.00  0.00     0.219 C 
BRANCH   7   8
ATOM      8  N   UNL A   1      32.712  21.837  24.515  1.00  0.00    -0.331 N 
ATOM      9  C   UNL A   1      31.487  22.359  25.098  1.00  0.00     0.147 C 
BRANCH   8  10
ATOM     10  C   UNL A   1      33.284  20.738  25.178  1.00  0.00     0.272 C 
ATOM     11  O   UNL A   1      33.657  20.808  26.349  1.00  0.00    -0.267 OA
BRANCH  10  12
ATOM     12  C   UNL A   1      33.421  19.431  24.471  1.00  0.00     0.128 A 
ATOM     13  C   UNL A   1      32.471  19.025  23.543  1.00  0.00     0.034 A 
ATOM     14  N   UNL A   1      34.539  18.719  24.770  1.00  0.00    -0.251 NA
ATOM     15  C   UNL A   1      32.654  17.798  22.913  1.00  0.00     0.004 A 
ATOM     16  C   UNL A   1      34.707  17.555  24.106  1.00  0.00     0.112 A 
ATOM     17  C   UNL A   1      33.795  17.052  23.190  1.00  0.00     0.020 A 
ENDBRANCH  10  12
ENDBRANCH   8  10
ENDBRANCH   7   8
ENDBRANCH   4   7
ENDBRANCH   2   3
ENDBRANCH   1   2
BRANCH   1  18
ATOM     18  C   UNL A   1      36.597  21.755  24.269  1.00  0.00     0.023 C 
BRANCH  18  19
ATOM     19  C   UNL A   1      37.188  21.693  25.673  1.00  0.00     0.116 C 
BRANCH  19  20
ATOM     20  N   UNL A   1      38.295  20.758  25.799  1.00  0.00    -0.352 N 
ATOM     21  C   UNL A   1      39.581  20.995  26.224  1.00  0.00     0.251 C 
ATOM     22  H   UNL A   1      38.097  19.828  25.547  1.00  0.00     0.163 HD
ATOM     23  O   UNL A   1      40.413  20.090  26.189  1.00  0.00    -0.269 OA
BRANCH  21  24
ATOM     24  C   UNL A   1      39.975  22.346  26.685  1.00  0.00     0.039 A 
ATOM     25  C   UNL A   1      40.959  22.461  27.670  1.00  0.00     0.014 A 
ATOM     26  C   UNL A   1      39.396  23.493  26.137  1.00  0.00     0.014 A 
ATOM     27  C   UNL A   1      41.413  23.725  28.054  1.00  0.00     0.010 A 
ATOM     28  C   UNL A   1      39.899  24.749  26.470  1.00  0.00     0.010 A 
ATOM     29  C   UNL A   1      40.913  24.880  27.430  1.00  0.00    -0.014 A 
BRANCH  29  30
ATOM     30  C   UNL A   1      41.447  26.228  27.754  1.00  0.00     0.031 A 
ATOM     31  C   UNL A   1      42.873  26.580  27.421  1.00  0.00     0.074 A 
ATOM     32  C   UNL A   1      40.679  27.105  28.432  1.00  0.00     0.049 A 
ATOM     33  N   UNL A   1      43.536  27.676  27.690  1.00  0.00    -0.248 NA
ATOM     34  C   UNL A   1      43.665  25.558  26.716  1.00  0.00     0.031 C 
ATOM     35  C   UNL A   1      39.308  26.858  28.880  1.00  0.00     0.029 A 
ATOM     36  N   UNL A   1      40.952  28.371  28.886  1.00  0.00    -0.354 N 
ATOM     37  C   UNL A   1      44.827  27.464  27.219  1.00  0.00     0.074 A 
ATOM     38  C   UNL A   1      44.864  26.122  26.680  1.00  0.00     0.031 C 
ATOM     39  C   UNL A   1      38.858  27.938  29.541  1.00  0.00     0.029 A 
ATOM     40  C   UNL A   1      39.916  28.942  29.589  1.00  0.00     0.049 A 
ATOM     41  H   UNL A   1      41.809  28.829  28.724  1.00  0.00     0.167 HD
ATOM     42  C   UNL A   1      45.877  28.319  27.203  1.00  0.00     0.034 A 
ATOM     43  C   UNL A   1      39.829  30.137  30.206  1.00  0.00     0.034 A 
ATOM     44  C   UNL A   1      45.826  29.668  27.698  1.00  0.00     0.049 A 
ATOM     45  C   UNL A   1      40.999  31.082  30.143  1.00  0.00     0.074 A 
ATOM     46  C   UNL A   1      46.814  30.637  27.659  1.00  0.00     0.029 A 
ATOM     47  N   UNL A   1      44.729  30.242  28.321  1.00  0.00    -0.354 N 
ATOM     48  N   UNL A   1      42.161  30.917  29.560  1.00  0.00    -0.248 NA
ATOM     49  C   UNL A   1      40.833  32.389  30.793  1.00  0.00     0.031 C 
ATOM     50  C   UNL A   1      46.318  31.793  28.272  1.00  0.00     0.029 A 
ATOM     51  C   UNL A   1      45.015  31.550  28.674  1.00  0.00     0.049 A 
ATOM     52  H   UNL A   1      43.873  29.787  28.489  1.00  0.00     0.167 HD
ATOM     53  C   UNL A   1      42.848  32.112  29.735  1.00  0.00     0.074 A 
ATOM     54  C   UNL A   1      41.964  32.999  30.464  1.00  0.00     0.031 C 
ATOM     55  C   UNL A   1      44.104  32.442  29.343  1.00  0.00     0.034 A 
BRANCH  42  56
ATOM     56  C   UNL A   1      47.159  27.839  26.572  1.00  0.00     0.023 A 
ATOM     57  C   UNL A   1      48.164  27.283  27.390  1.00  0.00     0.012 A 
ATOM     58  C   UNL A   1      47.349  27.882  25.178  1.00  0.00     0.148 A 
ATOM     59  C   UNL A   1      49.352  26.809  26.836  1.00  0.00     0.002 A 
ATOM     60  C   UNL A   1      48.518  27.368  24.627  1.00  0.00     0.091 A 
ATOM     61  F   UNL A   1      46.392  28.433  24.418  1.00  0.00    -0.205 F 
ATOM     62  C   UNL A   1      49.524  26.842  25.455  1.00  0.00     0.022 A 
BRANCH  60  63
ATOM     63  S   UNL A   1      48.804  27.295  22.855  1.00  0.00     0.127 S 
ATOM     64  O   UNL A   1      48.328  25.950  22.535  1.00  0.00    -0.237 OA
ATOM     65  O   UNL A   1      47.951  28.377  22.360  1.00  0.00    -0.237 OA
ATOM     66  O   UNL A   1      50.231  27.515  22.670  1.00  0.00    -0.744 OA
ENDBRANCH  60  63
ENDBRANCH  42  56
BRANCH  43  67
ATOM     67  C   UNL A   1      38.559  30.542  30.874  1.00  0.00     0.023 A 
ATOM     68  C   UNL A   1      38.353  30.198  32.225  1.00  0.00     0.012 A 
ATOM     69  C   UNL A   1      37.567  31.273  30.194  1.00  0.00     0.148 A 
ATOM     70  C   UNL A   1      37.168  30.544  32.875  1.00  0.00     0.002 A 
ATOM     71  C   UNL A   1      36.411  31.661  30.863  1.00  0.00     0.091 A 
ATOM     72  F   UNL A   1      37.773  31.579  28.905  1.00  0.00    -0.205 F 
ATOM     73  C   UNL A   1      36.202  31.283  32.199  1.00  0.00     0.022 A 
BRANCH  71  74
ATOM     74  S   UNL A   1      35.174  32.722  30.107  1.00  0.00     0.127 S 
ATOM     75  O   UNL A   1      35.966  33.894  29.743  1.00  0.00    -0.237 OA
ATOM     76  O   UNL A   1      34.724  31.907  28.978  1.00  0.00    -0.237 OA
ATOM     77  O   UNL A   1      34.161  32.932  31.134  1.00  0.00    -0.744 OA
ENDBRANCH  71  74
ENDBRANCH  43  67
BRANCH  55  78
ATOM     78  C   UNL A   1      44.592  33.833  29.652  1.00  0.00     0.023 A 
ATOM     79  C   UNL A   1      45.249  34.090  30.872  1.00  0.00     0.012 A 
ATOM     80  C   UNL A   1      44.467  34.867  28.703  1.00  0.00     0.148 A 
ATOM     81  C   UNL A   1      45.745  35.362  31.154  1.00  0.00     0.002 A 
ATOM     82  C   UNL A   1      45.007  36.118  28.971  1.00  0.00     0.091 A 
ATOM     83  F   UNL A   1      43.821  34.607  27.556  1.00  0.00    -0.205 F 
ATOM     84  C   UNL A   1      45.636  36.372  30.200  1.00  0.00     0.022 A 
BRANCH  82  85
ATOM     85  S   UNL A   1      44.998  37.449  27.764  1.00  0.00     0.127 S 
ATOM     86  O   UNL A   1      45.627  36.809  26.609  1.00  0.00    -0.237 OA
ATOM     87  O   UNL A   1      43.568  37.718  27.608  1.00  0.00    -0.237 OA
ATOM     88  O   UNL A   1      45.755  38.539  28.365  1.00  0.00    -0.744 OA
ENDBRANCH  82  85
ENDBRANCH  55  78
ENDBRANCH  29  30
ENDBRANCH  21  24
ENDBRANCH  19  20
ENDBRANCH  18  19
ENDBRANCH   1  18
TORSDOF 17
ENDMDL
MODEL 3
REMARK VINA RESULT:     -10.7      6.375     12.289
REMARK SMILES CN(CC(=O)NCCCCNC(=O)c1ccc(-c2c3nc(c(-c4cccc(S(=O)(=O)[O-])c4F)c4ccc([nH]4)c(-c4cccc(S(=O)(=O)[O-])c4F)c4nc(c(-c5cccc(S(=O)(=O)[O-])c5F)c5ccc2[nH]5)C=C4)C=C3)cc1)C(=O)c1ccccn1
REMARK SMILES IDX 8 1 7 2 6 3 4 4 5 5 3 7 2 8 1 9 77 10 78 11 79 12 80 13
REMARK SMILES IDX 84 14 81 15 83 16 82 17 9 18 10 19 11 20 12 21 13 23 14 24
REMARK SMILES IDX 15 25 76 26 16 27 75 28 17 29 18 30 19 31 69 32 20 33 74 34
REMARK SMILES IDX 68 35 70 36 21 37 73 38 67 39 66 40 22 42 54 43 34 44 53 45
REMARK SMILES IDX 35 46 38 47 52 48 71 49 36 50 37 51 51 53 72 54 39 55 23 56
REMARK SMILES IDX 24 57 32 58 25 59 27 60 33 61 26 62 28 63 29 64 30 65 31 66
REMARK SMILES IDX 55 67 56 68 64 69 57 70 59 71 65 72 58 73 60 74 61 75 62 76
REMARK SMILES IDX 63 77 40 78 41 79 49 80 42 81 44 82 50 83 43 84 45 85 46 86
REMARK SMILES IDX 47 87 48 88
REMARK H PARENT 6 6 11 22 70 41 38 52
REMARK Flexibility Score: inf
ROOT
ATOM      1  C   UNL A   1      37.827  21.821  25.047  1.00  0.00     0.023 C 
ENDROOT
BRANCH   1   2
ATOM      2  C   UNL A   1      36.310  21.834  24.865  1.00  0.00     0.116 C 
BRANCH   2   3
ATOM      3  N   UNL A   1      35.585  22.175  26.070  1.00  0.00    -0.355 N 
ATOM      4  C   UNL A   1      34.346  22.724  26.220  1.00  0.00     0.239 C 
ATOM      5  O   UNL A   1      33.831  22.651  27.342  1.00  0.00    -0.273 OA
ATOM      6  H   UNL A   1      36.060  21.981  26.911  1.00  0.00     0.163 HD
BRANCH   4   7
ATOM      7  C   UNL A   1      33.536  23.276  25.033  1.00  0.00     0.219 C 
BRANCH   7   8
ATOM      8  N   UNL A   1      32.834  22.305  24.187  1.00  0.00    -0.331 N 
ATOM      9  C   UNL A   1      32.986  22.409  22.745  1.00  0.00     0.147 C 
BRANCH   8  10
ATOM     10  C   UNL A   1      32.295  21.095  24.659  1.00  0.00     0.272 C 
ATOM     11  O   UNL A   1      31.370  21.069  25.471  1.00  0.00    -0.267 OA
BRANCH  10  12
ATOM     12  C   UNL A   1      32.825  19.797  24.151  1.00  0.00     0.128 A 
ATOM     13  C   UNL A   1      33.911  19.186  24.765  1.00  0.00     0.034 A 
ATOM     14  N   UNL A   1      32.150  19.260  23.101  1.00  0.00    -0.251 NA
ATOM     15  C   UNL A   1      34.358  17.974  24.249  1.00  0.00     0.004 A 
ATOM     16  C   UNL A   1      32.584  18.061  22.656  1.00  0.00     0.112 A 
ATOM     17  C   UNL A   1      33.680  17.395  23.181  1.00  0.00     0.020 A 
ENDBRANCH  10  12
ENDBRANCH   8  10
ENDBRANCH   7   8
ENDBRANCH   4   7
ENDBRANCH   2   3
ENDBRANCH   1   2
BRANCH   1  18
ATOM     18  C   UNL A   1      38.461  20.436  25.188  1.00  0.00     0.023 C 
BRANCH  18  19
ATOM     19  C   UNL A   1      39.446  20.264  26.339  1.00  0.00     0.116 C 
BRANCH  19  20
ATOM     20  N   UNL A   1      40.443  19.230  26.106  1.00  0.00    -0.352 N 
ATOM     21  C   UNL A   1      41.812  19.343  26.075  1.00  0.00     0.251 C 
ATOM     22  H   UNL A   1      40.088  18.326  25.950  1.00  0.00     0.163 HD
ATOM     23  O   UNL A   1      42.499  18.367  25.782  1.00  0.00    -0.269 OA
BRANCH  21  24
ATOM     24  C   UNL A   1      42.458  20.646  26.355  1.00  0.00     0.039 A 
ATOM     25  C   UNL A   1      42.874  21.436  25.280  1.00  0.00     0.014 A 
ATOM     26  C   UNL A   1      42.634  21.097  27.665  1.00  0.00     0.014 A 
ATOM     27  C   UNL A   1      43.400  22.709  25.517  1.00  0.00     0.010 A 
ATOM     28  C   UNL A   1      43.093  22.393  27.896  1.00  0.00     0.010 A 
ATOM     29  C   UNL A   1      43.480  23.213  26.825  1.00  0.00    -0.014 A 
BRANCH  29  30
ATOM     30  C   UNL A   1      43.947  24.598  27.095  1.00  0.00     0.031 A 
ATOM     31  C   UNL A   1      42.990  25.633  27.623  1.00  0.00     0.074 A 
ATOM     32  C   UNL A   1      45.209  24.950  26.776  1.00  0.00     0.049 A 
ATOM     33  N   UNL A   1      43.194  26.905  27.850  1.00  0.00    -0.248 NA
ATOM     34  C   UNL A   1      41.617  25.186  27.910  1.00  0.00     0.031 C 
ATOM     35  C   UNL A   1      46.212  24.061  26.187  1.00  0.00     0.029 A 
ATOM     36  N   UNL A   1      45.856  26.156  26.878  1.00  0.00    -0.354 N 
ATOM     37  C   UNL A   1      41.973  27.417  28.273  1.00  0.00     0.074 A 
ATOM     38  C   UNL A   1      41.023  26.325  28.237  1.00  0.00     0.031 C 
ATOM     39  C   UNL A   1      47.347  24.750  25.983  1.00  0.00     0.029 A 
ATOM     40  C   UNL A   1      47.146  26.135  26.399  1.00  0.00     0.049 A 
ATOM     41  H   UNL A   1      45.437  26.962  27.257  1.00  0.00     0.167 HD
ATOM     42  C   UNL A   1      41.674  28.671  28.688  1.00  0.00     0.034 A 
ATOM     43  C   UNL A   1      48.062  27.118  26.303  1.00  0.00     0.034 A 
ATOM     44  C   UNL A   1      42.629  29.743  28.766  1.00  0.00     0.049 A 
ATOM     45  C   UNL A   1      47.714  28.495  26.803  1.00  0.00     0.074 A 
ATOM     46  C   UNL A   1      42.442  31.029  29.244  1.00  0.00     0.029 A 
ATOM     47  N   UNL A   1      43.951  29.657  28.358  1.00  0.00    -0.354 N 
ATOM     48  N   UNL A   1      46.597  28.919  27.341  1.00  0.00    -0.248 NA
ATOM     49  C   UNL A   1      48.765  29.518  26.716  1.00  0.00     0.031 C 
ATOM     50  C   UNL A   1      43.648  31.725  29.112  1.00  0.00     0.029 A 
ATOM     51  C   UNL A   1      44.591  30.867  28.571  1.00  0.00     0.049 A 
ATOM     52  H   UNL A   1      44.372  28.856  27.974  1.00  0.00     0.167 HD
ATOM     53  C   UNL A   1      46.823  30.244  27.694  1.00  0.00     0.074 A 
ATOM     54  C   UNL A   1      48.191  30.547  27.326  1.00  0.00     0.031 C 
ATOM     55  C   UNL A   1      45.971  31.136  28.257  1.00  0.00     0.034 A 
BRANCH  42  56
ATOM     56  C   UNL A   1      40.265  28.936  29.151  1.00  0.00     0.023 A 
ATOM     57  C   UNL A   1      39.263  29.202  28.194  1.00  0.00     0.012 A 
ATOM     58  C   UNL A   1      39.917  28.866  30.514  1.00  0.00     0.148 A 
ATOM     59  C   UNL A   1      37.945  29.429  28.587  1.00  0.00     0.002 A 
ATOM     60  C   UNL A   1      38.592  29.051  30.895  1.00  0.00     0.091 A 
ATOM     61  F   UNL A   1      40.885  28.633  31.410  1.00  0.00    -0.205 F 
ATOM     62  C   UNL A   1      37.608  29.344  29.935  1.00  0.00     0.022 A 
BRANCH  60  63
ATOM     63  S   UNL A   1      38.042  28.886  32.597  1.00  0.00     0.127 S 
ATOM     64  O   UNL A   1      36.653  29.332  32.503  1.00  0.00    -0.237 OA
ATOM     65  O   UNL A   1      38.206  27.452  32.836  1.00  0.00    -0.237 OA
ATOM     66  O   UNL A   1      38.920  29.737  33.387  1.00  0.00    -0.744 OA
ENDBRANCH  60  63
ENDBRANCH  42  56
BRANCH  43  67
ATOM     67  C   UNL A   1      49.425  26.821  25.776  1.00  0.00     0.023 A 
ATOM     68  C   UNL A   1      50.356  26.170  26.608  1.00  0.00     0.012 A 
ATOM     69  C   UNL A   1      49.799  27.161  24.463  1.00  0.00     0.148 A 
ATOM     70  C   UNL A   1      51.647  25.894  26.154  1.00  0.00     0.002 A 
ATOM     71  C   UNL A   1      51.069  26.835  23.998  1.00  0.00     0.091 A 
ATOM     72  F   UNL A   1      48.905  27.793  23.689  1.00  0.00    -0.205 F 
ATOM     73  C   UNL A   1      52.000  26.218  24.848  1.00  0.00     0.022 A 
BRANCH  71  74
ATOM     74  S   UNL A   1      51.564  27.100  22.291  1.00  0.00     0.127 S 
ATOM     75  O   UNL A   1      50.392  26.626  21.562  1.00  0.00    -0.237 OA
ATOM     76  O   UNL A   1      51.770  28.549  22.256  1.00  0.00    -0.237 OA
ATOM     77  O   UNL A   1      52.783  26.320  22.114  1.00  0.00    -0.744 OA
ENDBRANCH  71  74
ENDBRANCH  43  67
BRANCH  55  78
ATOM     78  C   UNL A   1      46.496  32.516  28.554  1.00  0.00     0.023 A 
ATOM     79  C   UNL A   1      47.006  32.811  29.835  1.00  0.00     0.012 A 
ATOM     80  C   UNL A   1      46.554  33.497  27.544  1.00  0.00     0.148 A 
ATOM     81  C   UNL A   1      47.536  34.070  30.113  1.00  0.00     0.002 A 
ATOM     82  C   UNL A   1      47.127  34.732  27.815  1.00  0.00     0.091 A 
ATOM     83  F   UNL A   1      46.045  33.203  26.338  1.00  0.00    -0.205 F 
ATOM     84  C   UNL A   1      47.609  35.025  29.101  1.00  0.00     0.022 A 
BRANCH  82  85
ATOM     85  S   UNL A   1      47.349  35.988  26.549  1.00  0.00     0.127 S 
ATOM     86  O   UNL A   1      47.964  37.074  27.312  1.00  0.00    -0.237 OA
ATOM     87  O   UNL A   1      48.246  35.323  25.604  1.00  0.00    -0.237 OA
ATOM     88  O   UNL A   1      46.019  36.267  26.025  1.00  0.00    -0.744 OA
ENDBRANCH  82  85
ENDBRANCH  55  78
ENDBRANCH  29  30
ENDBRANCH  21  24
ENDBRANCH  19  20
ENDBRANCH  18  19
ENDBRANCH   1  18
TORSDOF 17
ENDMDL
