MODEL 1
REMARK VINA RESULT:     -13.3      0.000      0.000
REMARK SMILES C/C(=N\NC(N)=O)c1nnn(-c2ccc(C(=O)NCCCCNC(=O)c3ccc(-c4c5nc(c(-c6cccc(S(=O)(=O)[O-])c6F)c6ccc([nH]6)c(-c6cccc(S(=O)(=O)[O-])c6F)c6nc(c(-c7cccc(S(=O)(=O)[O-])c7F)c7ccc4[nH]7)C=C6)C=C5)cc3)cc2)c1C
REMARK SMILES IDX 20 1 19 2 18 3 16 4 17 5 15 7 12 8 13 9 90 10 14 11 89 12
REMARK SMILES IDX 11 13 8 14 9 15 91 16 10 17 92 18 2 19 1 20 3 21 4 22 5 23
REMARK SMILES IDX 6 25 7 26 21 29 22 30 23 31 24 32 25 34 26 35 27 36 88 37
REMARK SMILES IDX 28 38 87 39 29 40 30 41 31 42 81 43 32 44 86 45 80 46 82 47
REMARK SMILES IDX 33 48 85 49 79 50 78 51 34 53 66 54 46 55 65 56 47 57 50 58
REMARK SMILES IDX 64 59 83 60 48 61 49 62 63 64 84 65 51 66 35 67 36 68 44 69
REMARK SMILES IDX 37 70 39 71 45 72 38 73 40 74 41 75 42 76 43 77 67 78 68 79
REMARK SMILES IDX 76 80 69 81 71 82 77 83 70 84 72 85 73 86 74 87 75 88 52 89
REMARK SMILES IDX 53 90 61 91 54 92 56 93 62 94 55 95 57 96 58 97 59 98 60 99
REMARK H PARENT 18 6 4 24 6 27 6 28 23 33 82 52 50 63
REMARK Flexibility Score: inf
ROOT
ATOM      1  C   UNL A   1      34.356  24.397  24.238  1.00  0.00     0.023 C 
ENDROOT
BRANCH   1   2
ATOM      2  C   UNL A   1      33.355  25.240  23.436  1.00  0.00     0.116 C 
BRANCH   2   3
ATOM      3  N   UNL A   1      32.016  25.152  23.996  1.00  0.00    -0.352 N 
ATOM      4  C   UNL A   1      31.291  25.964  24.834  1.00  0.00     0.251 C 
ATOM      5  O   UNL A   1      30.149  25.614  25.129  1.00  0.00    -0.269 OA
ATOM      6  H   UNL A   1      31.529  24.344  23.715  1.00  0.00     0.163 HD
BRANCH   4   7
ATOM      7  C   UNL A   1      31.795  27.263  25.365  1.00  0.00     0.039 A 
ATOM      8  C   UNL A   1      32.451  29.756  26.438  1.00  0.00     0.067 A 
ATOM      9  C   UNL A   1      31.950  28.772  27.287  1.00  0.00     0.029 A 
ATOM     10  C   UNL A   1      32.732  29.478  25.100  1.00  0.00     0.029 A 
ATOM     11  C   UNL A   1      31.600  27.532  26.735  1.00  0.00     0.016 A 
ATOM     12  C   UNL A   1      32.444  28.218  24.583  1.00  0.00     0.016 A 
BRANCH   8  13
ATOM     13  N   UNL A   1      32.539  31.089  26.868  1.00  0.00    -0.217 N 
ATOM     14  C   UNL A   1      33.095  32.916  27.907  1.00  0.00     0.132 A 
ATOM     15  N   UNL A   1      31.869  33.095  27.313  1.00  0.00    -0.128 NA
ATOM     16  C   UNL A   1      33.555  31.645  27.620  1.00  0.00     0.071 A 
ATOM     17  N   UNL A   1      31.575  31.999  26.622  1.00  0.00    -0.061 NA
ATOM     18  C   UNL A   1      34.840  30.960  27.902  1.00  0.00     0.069 C 
BRANCH  14  19
ATOM     19  C   UNL A   1      33.809  33.979  28.597  1.00  0.00     0.087 C 
ATOM     20  C   UNL A   1      34.575  34.940  27.723  1.00  0.00     0.071 C 
ATOM     21  N   UNL A   1      33.674  34.003  29.890  1.00  0.00    -0.174 NA
BRANCH  21  22
ATOM     22  N   UNL A   1      34.321  34.908  30.688  1.00  0.00    -0.229 N 
ATOM     23  C   UNL A   1      34.251  35.006  32.063  1.00  0.00     0.332 C 
ATOM     24  H   UNL A   1      34.899  35.561  30.231  1.00  0.00     0.195 HD
ATOM     25  N   UNL A   1      35.024  36.022  32.549  1.00  0.00    -0.350 N 
ATOM     26  O   UNL A   1      33.618  34.307  32.831  1.00  0.00    -0.247 OA
ATOM     27  H   UNL A   1      35.537  36.589  31.929  1.00  0.00     0.161 HD
ATOM     28  H   UNL A   1      35.067  36.188  33.518  1.00  0.00     0.161 HD
ENDBRANCH  21  22
ENDBRANCH  14  19
ENDBRANCH   8  13
ENDBRANCH   4   7
ENDBRANCH   2   3
ENDBRANCH   1   2
BRANCH   1  29
ATOM     29  C   UNL A   1      35.179  23.394  23.415  1.00  0.00     0.023 C 
BRANCH  29  30
ATOM     30  C   UNL A   1      36.572  23.099  23.961  1.00  0.00     0.116 C 
BRANCH  30  31
ATOM     31  N   UNL A   1      36.773  21.684  24.263  1.00  0.00    -0.352 N 
ATOM     32  C   UNL A   1      37.813  21.109  24.968  1.00  0.00     0.251 C 
ATOM     33  H   UNL A   1      36.086  21.066  23.923  1.00  0.00     0.163 HD
ATOM     34  O   UNL A   1      38.101  19.930  24.787  1.00  0.00    -0.269 OA
BRANCH  32  35
ATOM     35  C   UNL A   1      38.565  21.923  25.941  1.00  0.00     0.039 A 
ATOM     36  C   UNL A   1      39.820  21.513  26.391  1.00  0.00     0.014 A 
ATOM     37  C   UNL A   1      38.008  23.120  26.396  1.00  0.00     0.014 A 
ATOM     38  C   UNL A   1      40.538  22.360  27.231  1.00  0.00     0.010 A 
ATOM     39  C   UNL A   1      38.767  24.012  27.125  1.00  0.00     0.010 A 
ATOM     40  C   UNL A   1      40.027  23.631  27.566  1.00  0.00    -0.014 A 
BRANCH  40  41
ATOM     41  C   UNL A   1      40.903  24.617  28.203  1.00  0.00     0.031 A 
ATOM     42  C   UNL A   1      40.242  25.938  28.370  1.00  0.00     0.074 A 
ATOM     43  C   UNL A   1      42.129  24.380  28.722  1.00  0.00     0.049 A 
ATOM     44  N   UNL A   1      40.402  26.968  27.609  1.00  0.00    -0.248 NA
ATOM     45  C   UNL A   1      39.128  26.070  29.322  1.00  0.00     0.031 C 
ATOM     46  C   UNL A   1      42.801  23.089  28.888  1.00  0.00     0.029 A 
ATOM     47  N   UNL A   1      43.006  25.249  29.311  1.00  0.00    -0.354 N 
ATOM     48  C   UNL A   1      39.637  27.974  28.187  1.00  0.00     0.074 A 
ATOM     49  C   UNL A   1      38.700  27.306  29.050  1.00  0.00     0.031 C 
ATOM     50  C   UNL A   1      43.848  23.226  29.734  1.00  0.00     0.029 A 
ATOM     51  C   UNL A   1      44.028  24.634  30.035  1.00  0.00     0.049 A 
ATOM     52  H   UNL A   1      42.924  26.227  29.229  1.00  0.00     0.167 HD
ATOM     53  C   UNL A   1      40.080  29.262  28.150  1.00  0.00     0.034 A 
ATOM     54  C   UNL A   1      44.947  25.233  30.836  1.00  0.00     0.034 A 
ATOM     55  C   UNL A   1      41.143  29.406  27.177  1.00  0.00     0.049 A 
ATOM     56  C   UNL A   1      45.058  26.633  30.383  1.00  0.00     0.074 A 
ATOM     57  C   UNL A   1      41.299  29.151  25.828  1.00  0.00     0.029 A 
ATOM     58  N   UNL A   1      42.410  29.497  27.696  1.00  0.00    -0.354 N 
ATOM     59  N   UNL A   1      45.566  26.976  29.234  1.00  0.00    -0.248 NA
ATOM     60  C   UNL A   1      44.247  27.641  31.041  1.00  0.00     0.031 C 
ATOM     61  C   UNL A   1      42.641  28.681  25.689  1.00  0.00     0.029 A 
ATOM     62  C   UNL A   1      43.263  28.750  26.937  1.00  0.00     0.049 A 
ATOM     63  H   UNL A   1      42.664  30.018  28.492  1.00  0.00     0.167 HD
ATOM     64  C   UNL A   1      44.735  27.996  28.800  1.00  0.00     0.074 A 
ATOM     65  C   UNL A   1      44.051  28.461  30.006  1.00  0.00     0.031 C 
ATOM     66  C   UNL A   1      44.465  28.144  27.470  1.00  0.00     0.034 A 
BRANCH  53  67
ATOM     67  C   UNL A   1      39.945  30.260  29.294  1.00  0.00     0.023 A 
ATOM     68  C   UNL A   1      40.793  30.057  30.409  1.00  0.00     0.012 A 
ATOM     69  C   UNL A   1      38.859  31.146  29.480  1.00  0.00     0.148 A 
ATOM     70  C   UNL A   1      40.512  30.611  31.663  1.00  0.00     0.002 A 
ATOM     71  C   UNL A   1      38.624  31.753  30.710  1.00  0.00     0.091 A 
ATOM     72  F   UNL A   1      37.964  31.336  28.512  1.00  0.00    -0.205 F 
ATOM     73  C   UNL A   1      39.423  31.457  31.815  1.00  0.00     0.022 A 
BRANCH  71  74
ATOM     74  S   UNL A   1      37.252  32.889  30.959  1.00  0.00     0.127 S 
ATOM     75  O   UNL A   1      37.657  33.566  32.188  1.00  0.00    -0.237 OA
ATOM     76  O   UNL A   1      37.323  33.703  29.746  1.00  0.00    -0.237 OA
ATOM     77  O   UNL A   1      36.058  32.059  31.055  1.00  0.00    -0.744 OA
ENDBRANCH  71  74
ENDBRANCH  53  67
BRANCH  54  78
ATOM     78  C   UNL A   1      45.614  24.788  32.085  1.00  0.00     0.023 A 
ATOM     79  C   UNL A   1      46.878  25.319  32.429  1.00  0.00     0.012 A 
ATOM     80  C   UNL A   1      44.882  24.121  33.089  1.00  0.00     0.148 A 
ATOM     81  C   UNL A   1      47.365  25.246  33.740  1.00  0.00     0.002 A 
ATOM     82  C   UNL A   1      45.370  24.052  34.392  1.00  0.00     0.091 A 
ATOM     83  F   UNL A   1      43.669  23.641  32.789  1.00  0.00    -0.205 F 
ATOM     84  C   UNL A   1      46.604  24.628  34.726  1.00  0.00     0.022 A 
BRANCH  82  85
ATOM     85  S   UNL A   1      44.425  23.305  35.727  1.00  0.00     0.127 S 
ATOM     86  O   UNL A   1      44.995  21.958  35.784  1.00  0.00    -0.237 OA
ATOM     87  O   UNL A   1      44.769  24.165  36.857  1.00  0.00    -0.237 OA
ATOM     88  O   UNL A   1      43.033  23.349  35.300  1.00  0.00    -0.744 OA
ENDBRANCH  82  85
ENDBRANCH  54  78
BRANCH  66  89
ATOM     89  C   UNL A   1      45.372  27.454  26.482  1.00  0.00     0.023 A 
ATOM     90  C   UNL A   1      46.597  27.995  26.039  1.00  0.00     0.012 A 
ATOM     91  C   UNL A   1      45.019  26.156  26.076  1.00  0.00     0.148 A 
ATOM     92  C   UNL A   1      47.432  27.268  25.184  1.00  0.00     0.002 A 
ATOM     93  C   UNL A   1      45.874  25.417  25.270  1.00  0.00     0.091 A 
ATOM     94  F   UNL A   1      43.849  25.656  26.502  1.00  0.00    -0.205 F 
ATOM     95  C   UNL A   1      47.076  25.974  24.809  1.00  0.00     0.022 A 
BRANCH  93  96
ATOM     96  S   UNL A   1      45.516  23.711  24.852  1.00  0.00     0.127 S 
ATOM     97  O   UNL A   1      46.564  23.408  23.880  1.00  0.00    -0.237 OA
ATOM     98  O   UNL A   1      45.660  23.034  26.141  1.00  0.00    -0.237 OA
ATOM     99  O   UNL A   1      44.154  23.704  24.328  1.00  0.00    -0.744 OA
ENDBRANCH  93  96
ENDBRANCH  66  89
ENDBRANCH  40  41
ENDBRANCH  32  35
ENDBRANCH  30  31
ENDBRANCH  29  30
ENDBRANCH   1  29
TORSDOF 17
ENDMDL
MODEL 2
REMARK VINA RESULT:     -13.3      3.637      8.709
REMARK SMILES C/C(=N\NC(N)=O)c1nnn(-c2ccc(C(=O)NCCCCNC(=O)c3ccc(-c4c5nc(c(-c6cccc(S(=O)(=O)[O-])c6F)c6ccc([nH]6)c(-c6cccc(S(=O)(=O)[O-])c6F)c6nc(c(-c7cccc(S(=O)(=O)[O-])c7F)c7ccc4[nH]7)C=C6)C=C5)cc3)cc2)c1C
REMARK SMILES IDX 20 1 19 2 18 3 16 4 17 5 15 7 12 8 13 9 90 10 14 11 89 12
REMARK SMILES IDX 11 13 8 14 9 15 91 16 10 17 92 18 2 19 1 20 3 21 4 22 5 23
REMARK SMILES IDX 6 25 7 26 21 29 22 30 23 31 24 32 25 34 26 35 27 36 88 37
REMARK SMILES IDX 28 38 87 39 29 40 30 41 31 42 81 43 32 44 86 45 80 46 82 47
REMARK SMILES IDX 33 48 85 49 79 50 78 51 34 53 66 54 46 55 65 56 47 57 50 58
REMARK SMILES IDX 64 59 83 60 48 61 49 62 63 64 84 65 51 66 35 67 36 68 44 69
REMARK SMILES IDX 37 70 39 71 45 72 38 73 40 74 41 75 42 76 43 77 67 78 68 79
REMARK SMILES IDX 76 80 69 81 71 82 77 83 70 84 72 85 73 86 74 87 75 88 52 89
REMARK SMILES IDX 53 90 61 91 54 92 56 93 62 94 55 95 57 96 58 97 59 98 60 99
REMARK H PARENT 18 6 4 24 6 27 6 28 23 33 82 52 50 63
REMARK Flexibility Score: inf
ROOT
ATOM      1  C   UNL A   1      32.376  31.330  26.859  1.00  0.00     0.023 C 
ENDROOT
BRANCH   1   2
ATOM      2  C   UNL A   1      32.017  30.066  26.066  1.00  0.00     0.116 C 
BRANCH   2   3
ATOM      3  N   UNL A   1      31.028  30.346  25.038  1.00  0.00    -0.352 N 
ATOM      4  C   UNL A   1      30.576  29.640  23.949  1.00  0.00     0.251 C 
ATOM      5  O   UNL A   1      29.702  30.153  23.252  1.00  0.00    -0.269 OA
ATOM      6  H   UNL A   1      30.591  31.222  25.144  1.00  0.00     0.163 HD
BRANCH   4   7
ATOM      7  C   UNL A   1      31.054  28.272  23.596  1.00  0.00     0.039 A 
ATOM      8  C   UNL A   1      31.893  25.635  23.222  1.00  0.00     0.067 A 
ATOM      9  C   UNL A   1      30.561  25.874  23.552  1.00  0.00     0.029 A 
ATOM     10  C   UNL A   1      32.772  26.689  22.967  1.00  0.00     0.029 A 
ATOM     11  C   UNL A   1      30.155  27.199  23.762  1.00  0.00     0.016 A 
ATOM     12  C   UNL A   1      32.334  28.001  23.111  1.00  0.00     0.016 A 
BRANCH   8  13
ATOM     13  N   UNL A   1      32.420  24.336  23.289  1.00  0.00    -0.217 N 
ATOM     14  C   UNL A   1      33.409  22.516  23.946  1.00  0.00     0.132 A 
ATOM     15  N   UNL A   1      33.303  22.497  22.576  1.00  0.00    -0.128 NA
ATOM     16  C   UNL A   1      32.832  23.675  24.429  1.00  0.00     0.071 A 
ATOM     17  N   UNL A   1      32.633  23.579  22.194  1.00  0.00    -0.061 NA
ATOM     18  C   UNL A   1      32.568  24.161  25.805  1.00  0.00     0.069 C 
BRANCH  14  19
ATOM     19  C   UNL A   1      33.928  21.398  24.720  1.00  0.00     0.087 C 
ATOM     20  C   UNL A   1      35.241  21.630  25.422  1.00  0.00     0.071 C 
ATOM     21  N   UNL A   1      33.178  20.335  24.750  1.00  0.00    -0.174 NA
BRANCH  21  22
ATOM     22  N   UNL A   1      33.546  19.184  25.391  1.00  0.00    -0.229 N 
ATOM     23  C   UNL A   1      32.864  17.984  25.408  1.00  0.00     0.332 C 
ATOM     24  H   UNL A   1      34.391  19.215  25.896  1.00  0.00     0.195 HD
ATOM     25  N   UNL A   1      33.509  17.032  26.145  1.00  0.00    -0.350 N 
ATOM     26  O   UNL A   1      31.817  17.712  24.853  1.00  0.00    -0.247 OA
ATOM     27  H   UNL A   1      34.356  17.251  26.596  1.00  0.00     0.161 HD
ATOM     28  H   UNL A   1      33.127  16.129  26.226  1.00  0.00     0.161 HD
ENDBRANCH  21  22
ENDBRANCH  14  19
ENDBRANCH   8  13
ENDBRANCH   4   7
ENDBRANCH   2   3
ENDBRANCH   1   2
BRANCH   1  29
ATOM     29  C   UNL A   1      33.691  31.259  27.650  1.00  0.00     0.023 C 
BRANCH  29  30
ATOM     30  C   UNL A   1      34.314  32.610  27.990  1.00  0.00     0.116 C 
BRANCH  30  31
ATOM     31  N   UNL A   1      34.354  32.868  29.426  1.00  0.00    -0.352 N 
ATOM     32  C   UNL A   1      35.111  32.220  30.383  1.00  0.00     0.251 C 
ATOM     33  H   UNL A   1      33.771  33.593  29.753  1.00  0.00     0.163 HD
ATOM     34  O   UNL A   1      34.752  32.219  31.556  1.00  0.00    -0.269 OA
BRANCH  32  35
ATOM     35  C   UNL A   1      36.354  31.535  29.979  1.00  0.00     0.039 A 
ATOM     36  C   UNL A   1      37.531  32.257  29.782  1.00  0.00     0.014 A 
ATOM     37  C   UNL A   1      36.339  30.149  29.809  1.00  0.00     0.014 A 
ATOM     38  C   UNL A   1      38.703  31.560  29.500  1.00  0.00     0.010 A 
ATOM     39  C   UNL A   1      37.517  29.451  29.653  1.00  0.00     0.010 A 
ATOM     40  C   UNL A   1      38.703  30.150  29.476  1.00  0.00    -0.014 A 
BRANCH  40  41
ATOM     41  C   UNL A   1      39.978  29.428  29.466  1.00  0.00     0.031 A 
ATOM     42  C   UNL A   1      40.517  29.212  30.834  1.00  0.00     0.074 A 
ATOM     43  C   UNL A   1      40.578  28.880  28.386  1.00  0.00     0.049 A 
ATOM     44  N   UNL A   1      41.442  29.909  31.404  1.00  0.00    -0.248 NA
ATOM     45  C   UNL A   1      39.818  28.295  31.747  1.00  0.00     0.031 C 
ATOM     46  C   UNL A   1      40.046  28.760  27.026  1.00  0.00     0.029 A 
ATOM     47  N   UNL A   1      41.769  28.213  28.297  1.00  0.00    -0.354 N 
ATOM     48  C   UNL A   1      41.651  29.305  32.637  1.00  0.00     0.074 A 
ATOM     49  C   UNL A   1      40.477  28.515  32.889  1.00  0.00     0.031 C 
ATOM     50  C   UNL A   1      40.786  27.871  26.323  1.00  0.00     0.029 A 
ATOM     51  C   UNL A   1      41.938  27.487  27.117  1.00  0.00     0.049 A 
ATOM     52  H   UNL A   1      42.451  28.243  29.008  1.00  0.00     0.167 HD
ATOM     53  C   UNL A   1      42.909  29.255  33.159  1.00  0.00     0.034 A 
ATOM     54  C   UNL A   1      42.941  26.622  26.819  1.00  0.00     0.034 A 
ATOM     55  C   UNL A   1      43.783  30.180  32.466  1.00  0.00     0.049 A 
ATOM     56  C   UNL A   1      44.091  26.993  27.667  1.00  0.00     0.074 A 
ATOM     57  C   UNL A   1      43.783  31.535  32.193  1.00  0.00     0.029 A 
ATOM     58  N   UNL A   1      44.655  29.612  31.572  1.00  0.00    -0.354 N 
ATOM     59  N   UNL A   1      44.757  28.102  27.524  1.00  0.00    -0.248 NA
ATOM     60  C   UNL A   1      44.265  26.310  28.935  1.00  0.00     0.031 C 
ATOM     61  C   UNL A   1      44.328  31.651  30.878  1.00  0.00     0.029 A 
ATOM     62  C   UNL A   1      44.710  30.380  30.446  1.00  0.00     0.049 A 
ATOM     63  H   UNL A   1      45.161  28.780  31.719  1.00  0.00     0.167 HD
ATOM     64  C   UNL A   1      44.998  28.509  28.825  1.00  0.00     0.074 A 
ATOM     65  C   UNL A   1      44.816  27.305  29.635  1.00  0.00     0.031 C 
ATOM     66  C   UNL A   1      45.017  29.838  29.139  1.00  0.00     0.034 A 
BRANCH  53  67
ATOM     67  C   UNL A   1      43.491  28.064  33.910  1.00  0.00     0.023 A 
ATOM     68  C   UNL A   1      43.955  26.986  33.117  1.00  0.00     0.012 A 
ATOM     69  C   UNL A   1      43.317  27.803  35.289  1.00  0.00     0.148 A 
ATOM     70  C   UNL A   1      44.125  25.701  33.642  1.00  0.00     0.002 A 
ATOM     71  C   UNL A   1      43.556  26.540  35.821  1.00  0.00     0.091 A 
ATOM     72  F   UNL A   1      42.809  28.732  36.096  1.00  0.00    -0.205 F 
ATOM     73  C   UNL A   1      43.921  25.476  34.996  1.00  0.00     0.022 A 
BRANCH  71  74
ATOM     74  S   UNL A   1      43.347  26.196  37.575  1.00  0.00     0.127 S 
ATOM     75  O   UNL A   1      44.139  27.266  38.175  1.00  0.00    -0.237 OA
ATOM     76  O   UNL A   1      41.898  26.331  37.728  1.00  0.00    -0.237 OA
ATOM     77  O   UNL A   1      43.847  24.843  37.779  1.00  0.00    -0.744 OA
ENDBRANCH  71  74
ENDBRANCH  53  67
BRANCH  54  78
ATOM     78  C   UNL A   1      42.968  25.376  26.012  1.00  0.00     0.023 A 
ATOM     79  C   UNL A   1      43.996  25.182  25.061  1.00  0.00     0.012 A 
ATOM     80  C   UNL A   1      42.210  24.254  26.402  1.00  0.00     0.148 A 
ATOM     81  C   UNL A   1      44.299  23.908  24.567  1.00  0.00     0.002 A 
ATOM     82  C   UNL A   1      42.516  22.987  25.909  1.00  0.00     0.091 A 
ATOM     83  F   UNL A   1      41.254  24.413  27.327  1.00  0.00    -0.205 F 
ATOM     84  C   UNL A   1      43.571  22.807  25.004  1.00  0.00     0.022 A 
BRANCH  82  85
ATOM     85  S   UNL A   1      41.645  21.513  26.459  1.00  0.00     0.127 S 
ATOM     86  O   UNL A   1      40.268  21.808  26.060  1.00  0.00    -0.237 OA
ATOM     87  O   UNL A   1      42.299  20.468  25.675  1.00  0.00    -0.237 OA
ATOM     88  O   UNL A   1      41.850  21.445  27.899  1.00  0.00    -0.744 OA
ENDBRANCH  82  85
ENDBRANCH  54  78
BRANCH  66  89
ATOM     89  C   UNL A   1      45.165  30.829  28.011  1.00  0.00     0.023 A 
ATOM     90  C   UNL A   1      44.088  31.270  27.214  1.00  0.00     0.012 A 
ATOM     91  C   UNL A   1      46.428  31.417  27.828  1.00  0.00     0.148 A 
ATOM     92  C   UNL A   1      44.279  32.251  26.236  1.00  0.00     0.002 A 
ATOM     93  C   UNL A   1      46.602  32.426  26.892  1.00  0.00     0.091 A 
ATOM     94  F   UNL A   1      47.444  30.983  28.590  1.00  0.00    -0.205 F 
ATOM     95  C   UNL A   1      45.533  32.838  26.083  1.00  0.00     0.022 A 
BRANCH  93  96
ATOM     96  S   UNL A   1      48.165  33.290  26.735  1.00  0.00     0.127 S 
ATOM     97  O   UNL A   1      49.068  32.215  26.326  1.00  0.00    -0.237 OA
ATOM     98  O   UNL A   1      47.876  34.277  25.694  1.00  0.00    -0.237 OA
ATOM     99  O   UNL A   1      48.435  33.872  28.045  1.00  0.00    -0.744 OA
ENDBRANCH  93  96
ENDBRANCH  66  89
ENDBRANCH  40  41
ENDBRANCH  32  35
ENDBRANCH  30  31
ENDBRANCH  29  30
ENDBRANCH   1  29
TORSDOF 17
ENDMDL
MODEL 3
REMARK VINA RESULT:     -13.1      4.138     10.417
REMARK SMILES C/C(=N\NC(N)=O)c1nnn(-c2ccc(C(=O)NCCCCNC(=O)c3ccc(-c4c5nc(c(-c6cccc(S(=O)(=O)[O-])c6F)c6ccc([nH]6)c(-c6cccc(S(=O)(=O)[O-])c6F)c6nc(c(-c7cccc(S(=O)(=O)[O-])c7F)c7ccc4[nH]7)C=C6)C=C5)cc3)cc2)c1C
REMARK SMILES IDX 20 1 19 2 18 3 16 4 17 5 15 7 12 8 13 9 90 10 14 11 89 12
REMARK SMILES IDX 11 13 8 14 9 15 91 16 10 17 92 18 2 19 1 20 3 21 4 22 5 23
REMARK SMILES IDX 6 25 7 26 21 29 22 30 23 31 24 32 25 34 26 35 27 36 88 37
REMARK SMILES IDX 28 38 87 39 29 40 30 41 31 42 81 43 32 44 86 45 80 46 82 47
REMARK SMILES IDX 33 48 85 49 79 50 78 51 34 53 66 54 46 55 65 56 47 57 50 58
REMARK SMILES IDX 64 59 83 60 48 61 49 62 63 64 84 65 51 66 35 67 36 68 44 69
REMARK SMILES IDX 37 70 39 71 45 72 38 73 40 74 41 75 42 76 43 77 67 78 68 79
REMARK SMILES IDX 76 80 69 81 71 82 77 83 70 84 72 85 73 86 74 87 75 88 52 89
REMARK SMILES IDX 53 90 61 91 54 92 56 93 62 94 55 95 57 96 58 97 59 98 60 99
REMARK H PARENT 18 6 4 24 6 27 6 28 23 33 82 52 50 63
REMARK Flexibility Score: inf
ROOT
ATOM      1  C   UNL A   1      31.584  30.870  26.872  1.00  0.00     0.023 C 
ENDROOT
BRANCH   1   2
ATOM      2  C   UNL A   1      32.123  30.130  25.640  1.00  0.00     0.116 C 
BRANCH   2   3
ATOM      3  N   UNL A   1      31.115  30.026  24.598  1.00  0.00    -0.352 N 
ATOM      4  C   UNL A   1      30.653  28.979  23.838  1.00  0.00     0.251 C 
ATOM      5  O   UNL A   1      29.763  29.210  23.021  1.00  0.00    -0.269 OA
ATOM      6  H   UNL A   1      30.673  30.882  24.396  1.00  0.00     0.163 HD
BRANCH   4   7
ATOM      7  C   UNL A   1      31.137  27.576  23.982  1.00  0.00     0.039 A 
ATOM      8  C   UNL A   1      32.006  24.984  24.550  1.00  0.00     0.067 A 
ATOM      9  C   UNL A   1      30.689  25.330  24.845  1.00  0.00     0.029 A 
ATOM     10  C   UNL A   1      32.849  25.869  23.878  1.00  0.00     0.029 A 
ATOM     11  C   UNL A   1      30.270  26.640  24.579  1.00  0.00     0.016 A 
ATOM     12  C   UNL A   1      32.394  27.145  23.557  1.00  0.00     0.016 A 
BRANCH   8  13
ATOM     13  N   UNL A   1      32.561  23.798  25.057  1.00  0.00    -0.217 N 
ATOM     14  C   UNL A   1      33.109  21.720  25.377  1.00  0.00     0.132 A 
ATOM     15  N   UNL A   1      33.333  22.424  26.535  1.00  0.00    -0.128 NA
ATOM     16  C   UNL A   1      32.633  22.582  24.407  1.00  0.00     0.071 A 
ATOM     17  N   UNL A   1      33.064  23.705  26.304  1.00  0.00    -0.061 NA
ATOM     18  C   UNL A   1      32.331  22.397  22.967  1.00  0.00     0.069 C 
BRANCH  14  19
ATOM     19  C   UNL A   1      33.469  20.319  25.214  1.00  0.00     0.087 C 
ATOM     20  C   UNL A   1      34.925  20.035  24.948  1.00  0.00     0.071 C 
ATOM     21  N   UNL A   1      32.496  19.467  25.356  1.00  0.00    -0.174 NA
BRANCH  21  22
ATOM     22  N   UNL A   1      32.660  18.119  25.184  1.00  0.00    -0.229 N 
ATOM     23  C   UNL A   1      32.697  17.429  23.989  1.00  0.00     0.332 C 
ATOM     24  H   UNL A   1      32.762  17.582  26.003  1.00  0.00     0.195 HD
ATOM     25  N   UNL A   1      32.875  16.087  24.171  1.00  0.00    -0.350 N 
ATOM     26  O   UNL A   1      32.605  17.880  22.863  1.00  0.00    -0.247 OA
ATOM     27  H   UNL A   1      32.949  15.721  25.082  1.00  0.00     0.161 HD
ATOM     28  H   UNL A   1      32.929  15.488  23.393  1.00  0.00     0.161 HD
ENDBRANCH  21  22
ENDBRANCH  14  19
ENDBRANCH   8  13
ENDBRANCH   4   7
ENDBRANCH   2   3
ENDBRANCH   1   2
BRANCH   1  29
ATOM     29  C   UNL A   1      31.594  32.403  26.776  1.00  0.00     0.023 C 
BRANCH  29  30
ATOM     30  C   UNL A   1      32.852  33.077  27.314  1.00  0.00     0.116 C 
BRANCH  30  31
ATOM     31  N   UNL A   1      32.557  34.217  28.178  1.00  0.00    -0.352 N 
ATOM     32  C   UNL A   1      33.152  34.542  29.382  1.00  0.00     0.251 C 
ATOM     33  H   UNL A   1      31.850  34.827  27.866  1.00  0.00     0.163 HD
ATOM     34  O   UNL A   1      32.552  35.234  30.198  1.00  0.00    -0.269 OA
BRANCH  32  35
ATOM     35  C   UNL A   1      34.514  34.054  29.671  1.00  0.00     0.039 A 
ATOM     36  C   UNL A   1      34.716  32.986  30.545  1.00  0.00     0.014 A 
ATOM     37  C   UNL A   1      35.601  34.670  29.046  1.00  0.00     0.014 A 
ATOM     38  C   UNL A   1      36.008  32.494  30.711  1.00  0.00     0.010 A 
ATOM     39  C   UNL A   1      36.858  34.108  29.114  1.00  0.00     0.010 A 
ATOM     40  C   UNL A   1      37.076  33.031  29.963  1.00  0.00    -0.014 A 
BRANCH  40  41
ATOM     41  C   UNL A   1      38.359  32.326  29.929  1.00  0.00     0.031 A 
ATOM     42  C   UNL A   1      38.253  30.984  29.298  1.00  0.00     0.074 A 
ATOM     43  C   UNL A   1      39.560  32.834  30.289  1.00  0.00     0.049 A 
ATOM     44  N   UNL A   1      38.174  29.857  29.923  1.00  0.00    -0.248 NA
ATOM     45  C   UNL A   1      37.975  30.886  27.858  1.00  0.00     0.031 C 
ATOM     46  C   UNL A   1      39.877  34.216  30.661  1.00  0.00     0.029 A 
ATOM     47  N   UNL A   1      40.789  32.234  30.302  1.00  0.00    -0.354 N 
ATOM     48  C   UNL A   1      38.153  28.887  28.928  1.00  0.00     0.074 A 
ATOM     49  C   UNL A   1      37.773  29.572  27.722  1.00  0.00     0.031 C 
ATOM     50  C   UNL A   1      41.217  34.400  30.628  1.00  0.00     0.029 A 
ATOM     51  C   UNL A   1      41.862  33.121  30.403  1.00  0.00     0.049 A 
ATOM     52  H   UNL A   1      40.906  31.258  30.247  1.00  0.00     0.167 HD
ATOM     53  C   UNL A   1      38.777  27.695  29.138  1.00  0.00     0.034 A 
ATOM     54  C   UNL A   1      43.184  32.829  30.293  1.00  0.00     0.034 A 
ATOM     55  C   UNL A   1      39.068  27.514  30.546  1.00  0.00     0.049 A 
ATOM     56  C   UNL A   1      43.334  31.398  30.619  1.00  0.00     0.074 A 
ATOM     57  C   UNL A   1      38.341  27.516  31.721  1.00  0.00     0.029 A 
ATOM     58  N   UNL A   1      40.377  27.710  30.908  1.00  0.00    -0.354 N 
ATOM     59  N   UNL A   1      43.138  30.911  31.810  1.00  0.00    -0.248 NA
ATOM     60  C   UNL A   1      43.324  30.436  29.533  1.00  0.00     0.031 C 
ATOM     61  C   UNL A   1      39.192  28.136  32.686  1.00  0.00     0.029 A 
ATOM     62  C   UNL A   1      40.421  28.405  32.081  1.00  0.00     0.049 A 
ATOM     63  H   UNL A   1      41.161  27.399  30.401  1.00  0.00     0.167 HD
ATOM     64  C   UNL A   1      42.477  29.717  31.571  1.00  0.00     0.074 A 
ATOM     65  C   UNL A   1      42.759  29.407  30.169  1.00  0.00     0.031 C 
ATOM     66  C   UNL A   1      41.524  29.271  32.441  1.00  0.00     0.034 A 
BRANCH  53  67
ATOM     67  C   UNL A   1      39.574  26.935  28.085  1.00  0.00     0.023 A 
ATOM     68  C   UNL A   1      39.433  25.526  28.085  1.00  0.00     0.012 A 
ATOM     69  C   UNL A   1      40.658  27.460  27.344  1.00  0.00     0.148 A 
ATOM     70  C   UNL A   1      40.376  24.687  27.481  1.00  0.00     0.002 A 
ATOM     71  C   UNL A   1      41.555  26.625  26.685  1.00  0.00     0.091 A 
ATOM     72  F   UNL A   1      40.916  28.766  27.353  1.00  0.00    -0.205 F 
ATOM     73  C   UNL A   1      41.442  25.238  26.784  1.00  0.00     0.022 A 
BRANCH  71  74
ATOM     74  S   UNL A   1      42.934  27.279  25.733  1.00  0.00     0.127 S 
ATOM     75  O   UNL A   1      43.681  27.995  26.763  1.00  0.00    -0.237 OA
ATOM     76  O   UNL A   1      43.562  26.051  25.247  1.00  0.00    -0.237 OA
ATOM     77  O   UNL A   1      42.341  28.104  24.688  1.00  0.00    -0.744 OA
ENDBRANCH  71  74
ENDBRANCH  53  67
BRANCH  54  78
ATOM     78  C   UNL A   1      44.328  33.605  29.751  1.00  0.00     0.023 A 
ATOM     79  C   UNL A   1      45.417  33.925  30.594  1.00  0.00     0.012 A 
ATOM     80  C   UNL A   1      44.512  33.731  28.358  1.00  0.00     0.148 A 
ATOM     81  C   UNL A   1      46.660  34.295  30.067  1.00  0.00     0.002 A 
ATOM     82  C   UNL A   1      45.751  34.098  27.839  1.00  0.00     0.091 A 
ATOM     83  F   UNL A   1      43.502  33.400  27.544  1.00  0.00    -0.205 F 
ATOM     84  C   UNL A   1      46.833  34.364  28.689  1.00  0.00     0.022 A 
BRANCH  82  85
ATOM     85  S   UNL A   1      46.062  34.169  26.069  1.00  0.00     0.127 S 
ATOM     86  O   UNL A   1      46.131  32.750  25.717  1.00  0.00    -0.237 OA
ATOM     87  O   UNL A   1      44.873  34.864  25.583  1.00  0.00    -0.237 OA
ATOM     88  O   UNL A   1      47.321  34.887  25.917  1.00  0.00    -0.744 OA
ENDBRANCH  82  85
ENDBRANCH  54  78
BRANCH  66  89
ATOM     89  C   UNL A   1      41.491  29.874  33.823  1.00  0.00     0.023 A 
ATOM     90  C   UNL A   1      42.332  29.457  34.876  1.00  0.00     0.012 A 
ATOM     91  C   UNL A   1      40.650  30.981  34.026  1.00  0.00     0.148 A 
ATOM     92  C   UNL A   1      42.307  30.112  36.112  1.00  0.00     0.002 A 
ATOM     93  C   UNL A   1      40.666  31.660  35.236  1.00  0.00     0.091 A 
ATOM     94  F   UNL A   1      39.852  31.363  33.017  1.00  0.00    -0.205 F 
ATOM     95  C   UNL A   1      41.483  31.221  36.288  1.00  0.00     0.022 A 
BRANCH  93  96
ATOM     96  S   UNL A   1      39.710  33.158  35.475  1.00  0.00     0.127 S 
ATOM     97  O   UNL A   1      38.338  32.657  35.418  1.00  0.00    -0.237 OA
ATOM     98  O   UNL A   1      40.146  33.603  36.799  1.00  0.00    -0.237 OA
ATOM     99  O   UNL A   1      40.094  34.056  34.391  1.00  0.00    -0.744 OA
ENDBRANCH  93  96
ENDBRANCH  66  89
ENDBRANCH  40  41
ENDBRANCH  32  35
ENDBRANCH  30  31
ENDBRANCH  29  30
ENDBRANCH   1  29
TORSDOF 17
ENDMDL
