MODEL 1
REMARK VINA RESULT:     -12.1      0.000      0.000
REMARK SMILES N#Cc1ccccc1S(=O)(=O)N1CCC(C(=O)NCCCCNC(=O)c2ccc(-c3c4nc(c(-c5cccc(S(=O)(=O)[O-])c5F)c5ccc([nH]5)c(-c5cccc(S(=O)(=O)[O-])c5F)c5nc(c(-c6cccc(S(=O)(=O)[O-])c6F)c6ccc3[nH]6)C=C5)C=C4)cc2)CC1
REMARK SMILES IDX 20 1 19 2 18 3 16 4 17 5 15 7 12 8 13 9 90 10 14 11 89 12
REMARK SMILES IDX 9 13 10 14 11 15 8 16 3 17 4 18 5 19 7 20 6 21 2 22 1 23
REMARK SMILES IDX 21 24 22 25 23 26 24 27 25 29 26 30 27 31 88 32 28 33 87 34
REMARK SMILES IDX 29 35 30 36 31 37 81 38 32 39 86 40 80 41 82 42 33 43 85 44
REMARK SMILES IDX 79 45 78 46 34 48 66 49 46 50 65 51 47 52 50 53 64 54 83 55
REMARK SMILES IDX 48 56 49 57 63 59 84 60 51 61 35 62 36 63 44 64 37 65 39 66
REMARK SMILES IDX 45 67 38 68 40 69 41 70 42 71 43 72 67 73 68 74 76 75 69 76
REMARK SMILES IDX 71 77 77 78 70 79 72 80 73 81 74 82 75 83 52 84 53 85 61 86
REMARK SMILES IDX 54 87 56 88 62 89 55 90 57 91 58 92 59 93 60 94
REMARK H PARENT 18 6 23 28 82 47 50 58
REMARK Flexibility Score: inf
ROOT
ATOM      1  C   UNL A   1      32.592  29.068  24.513  1.00  0.00     0.023 C 
ENDROOT
BRANCH   1   2
ATOM      2  C   UNL A   1      31.843  28.854  23.203  1.00  0.00     0.116 C 
BRANCH   2   3
ATOM      3  N   UNL A   1      32.615  28.065  22.259  1.00  0.00    -0.356 N 
ATOM      4  C   UNL A   1      32.970  26.751  22.286  1.00  0.00     0.223 C 
ATOM      5  O   UNL A   1      33.661  26.310  21.366  1.00  0.00    -0.275 OA
ATOM      6  H   UNL A   1      32.936  28.562  21.471  1.00  0.00     0.163 HD
BRANCH   4   7
ATOM      7  C   UNL A   1      32.502  25.840  23.410  1.00  0.00     0.081 C 
ATOM      8  N   UNL A   1      32.593  23.285  24.815  1.00  0.00    -0.198 NA
ATOM      9  C   UNL A   1      31.580  23.445  23.758  1.00  0.00     0.103 C 
ATOM     10  C   UNL A   1      33.375  24.416  25.336  1.00  0.00     0.103 C 
ATOM     11  C   UNL A   1      31.721  24.654  22.862  1.00  0.00     0.030 C 
ATOM     12  C   UNL A   1      33.667  25.500  24.326  1.00  0.00     0.030 C 
BRANCH   8  13
ATOM     13  S   UNL A   1      32.382  21.963  25.848  1.00  0.00     0.244 S 
ATOM     14  O   UNL A   1      30.993  21.560  25.744  1.00  0.00    -0.207 OA
ATOM     15  O   UNL A   1      32.955  22.309  27.132  1.00  0.00    -0.207 OA
BRANCH  13  16
ATOM     16  C   UNL A   1      33.316  20.548  25.284  1.00  0.00     0.100 A 
ATOM     17  C   UNL A   1      34.698  20.427  25.132  1.00  0.00     0.072 A 
ATOM     18  C   UNL A   1      35.230  19.223  24.626  1.00  0.00     0.021 A 
ATOM     19  C   UNL A   1      34.412  18.148  24.297  1.00  0.00     0.001 A 
ATOM     20  C   UNL A   1      32.497  19.446  24.955  1.00  0.00     0.023 A 
ATOM     21  C   UNL A   1      33.040  18.256  24.470  1.00  0.00     0.001 A 
BRANCH  17  22
ATOM     22  C   UNL A   1      35.692  21.398  25.457  1.00  0.00     0.101 C 
ATOM     23  N   UNL A   1      36.414  22.243  25.775  1.00  0.00    -0.192 NA
ENDBRANCH  17  22
ENDBRANCH  13  16
ENDBRANCH   8  13
ENDBRANCH   4   7
ENDBRANCH   2   3
ENDBRANCH   1   2
BRANCH   1  24
ATOM     24  C   UNL A   1      31.831  28.596  25.747  1.00  0.00     0.023 C 
BRANCH  24  25
ATOM     25  C   UNL A   1      32.191  29.336  27.026  1.00  0.00     0.116 C 
BRANCH  25  26
ATOM     26  N   UNL A   1      32.153  30.785  26.868  1.00  0.00    -0.352 N 
ATOM     27  C   UNL A   1      33.090  31.708  27.260  1.00  0.00     0.251 C 
ATOM     28  H   UNL A   1      31.353  31.147  26.424  1.00  0.00     0.163 HD
ATOM     29  O   UNL A   1      32.849  32.909  27.198  1.00  0.00    -0.269 OA
BRANCH  27  30
ATOM     30  C   UNL A   1      34.379  31.224  27.788  1.00  0.00     0.039 A 
ATOM     31  C   UNL A   1      35.388  32.148  28.065  1.00  0.00     0.014 A 
ATOM     32  C   UNL A   1      34.553  29.868  28.078  1.00  0.00     0.014 A 
ATOM     33  C   UNL A   1      36.554  31.716  28.697  1.00  0.00     0.010 A 
ATOM     34  C   UNL A   1      35.673  29.459  28.790  1.00  0.00     0.010 A 
ATOM     35  C   UNL A   1      36.689  30.376  29.098  1.00  0.00    -0.014 A 
BRANCH  35  36
ATOM     36  C   UNL A   1      37.886  29.914  29.846  1.00  0.00     0.031 A 
ATOM     37  C   UNL A   1      38.151  30.434  31.233  1.00  0.00     0.074 A 
ATOM     38  C   UNL A   1      38.769  29.090  29.249  1.00  0.00     0.049 A 
ATOM     39  N   UNL A   1      39.164  30.190  32.022  1.00  0.00    -0.248 NA
ATOM     40  C   UNL A   1      37.166  31.372  31.797  1.00  0.00     0.031 C 
ATOM     41  C   UNL A   1      38.664  28.584  27.878  1.00  0.00     0.029 A 
ATOM     42  N   UNL A   1      39.945  28.554  29.709  1.00  0.00    -0.354 N 
ATOM     43  C   UNL A   1      38.956  30.965  33.156  1.00  0.00     0.074 A 
ATOM     44  C   UNL A   1      37.744  31.722  32.936  1.00  0.00     0.031 C 
ATOM     45  C   UNL A   1      39.726  27.807  27.612  1.00  0.00     0.029 A 
ATOM     46  C   UNL A   1      40.605  27.787  28.777  1.00  0.00     0.049 A 
ATOM     47  H   UNL A   1      40.285  28.704  30.621  1.00  0.00     0.167 HD
ATOM     48  C   UNL A   1      39.689  31.019  34.293  1.00  0.00     0.034 A 
ATOM     49  C   UNL A   1      41.792  27.151  28.847  1.00  0.00     0.034 A 
ATOM     50  C   UNL A   1      40.876  30.240  34.521  1.00  0.00     0.049 A 
ATOM     51  C   UNL A   1      42.574  27.209  30.132  1.00  0.00     0.074 A 
ATOM     52  C   UNL A   1      41.645  30.164  35.668  1.00  0.00     0.029 A 
ATOM     53  N   UNL A   1      41.471  29.413  33.582  1.00  0.00    -0.354 N 
ATOM     54  N   UNL A   1      42.280  27.826  31.251  1.00  0.00    -0.248 NA
ATOM     55  C   UNL A   1      43.832  26.452  30.177  1.00  0.00     0.031 C 
ATOM     56  C   UNL A   1      42.727  29.316  35.410  1.00  0.00     0.029 A 
ATOM     57  C   UNL A   1      42.606  28.831  34.117  1.00  0.00     0.049 A 
ATOM     58  H   UNL A   1      41.137  29.263  32.668  1.00  0.00     0.167 HD
ATOM     59  C   UNL A   1      43.295  27.501  32.143  1.00  0.00     0.074 A 
ATOM     60  C   UNL A   1      44.200  26.614  31.441  1.00  0.00     0.031 C 
ATOM     61  C   UNL A   1      43.470  27.910  33.424  1.00  0.00     0.034 A 
BRANCH  48  62
ATOM     62  C   UNL A   1      39.201  31.919  35.399  1.00  0.00     0.023 A 
ATOM     63  C   UNL A   1      38.256  31.434  36.327  1.00  0.00     0.012 A 
ATOM     64  C   UNL A   1      39.720  33.219  35.556  1.00  0.00     0.148 A 
ATOM     65  C   UNL A   1      37.808  32.241  37.372  1.00  0.00     0.002 A 
ATOM     66  C   UNL A   1      39.307  33.999  36.630  1.00  0.00     0.091 A 
ATOM     67  F   UNL A   1      40.602  33.668  34.654  1.00  0.00    -0.205 F 
ATOM     68  C   UNL A   1      38.341  33.517  37.530  1.00  0.00     0.022 A 
BRANCH  66  69
ATOM     69  S   UNL A   1      39.992  35.622  36.971  1.00  0.00     0.127 S 
ATOM     70  O   UNL A   1      39.311  35.975  38.216  1.00  0.00    -0.237 OA
ATOM     71  O   UNL A   1      41.417  35.328  37.119  1.00  0.00    -0.237 OA
ATOM     72  O   UNL A   1      39.657  36.452  35.822  1.00  0.00    -0.744 OA
ENDBRANCH  66  69
ENDBRANCH  48  62
BRANCH  49  73
ATOM     73  C   UNL A   1      42.292  26.368  27.682  1.00  0.00     0.023 A 
ATOM     74  C   UNL A   1      43.144  26.982  26.743  1.00  0.00     0.012 A 
ATOM     75  C   UNL A   1      41.936  25.017  27.505  1.00  0.00     0.148 A 
ATOM     76  C   UNL A   1      43.600  26.279  25.628  1.00  0.00     0.002 A 
ATOM     77  C   UNL A   1      42.442  24.305  26.425  1.00  0.00     0.091 A 
ATOM     78  F   UNL A   1      41.119  24.453  28.405  1.00  0.00    -0.205 F 
ATOM     79  C   UNL A   1      43.256  24.938  25.473  1.00  0.00     0.022 A 
BRANCH  77  80
ATOM     80  S   UNL A   1      42.159  22.543  26.216  1.00  0.00     0.127 S 
ATOM     81  O   UNL A   1      42.871  22.271  24.969  1.00  0.00    -0.237 OA
ATOM     82  O   UNL A   1      42.787  21.993  27.417  1.00  0.00    -0.237 OA
ATOM     83  O   UNL A   1      40.713  22.380  26.166  1.00  0.00    -0.744 OA
ENDBRANCH  77  80
ENDBRANCH  49  73
BRANCH  61  84
ATOM     84  C   UNL A   1      44.657  27.367  34.176  1.00  0.00     0.023 A 
ATOM     85  C   UNL A   1      45.912  27.998  34.068  1.00  0.00     0.012 A 
ATOM     86  C   UNL A   1      44.507  26.270  35.048  1.00  0.00     0.148 A 
ATOM     87  C   UNL A   1      47.007  27.523  34.788  1.00  0.00     0.002 A 
ATOM     88  C   UNL A   1      45.588  25.837  35.804  1.00  0.00     0.091 A 
ATOM     89  F   UNL A   1      43.308  25.674  35.124  1.00  0.00    -0.205 F 
ATOM     90  C   UNL A   1      46.842  26.451  35.664  1.00  0.00     0.022 A 
BRANCH  88  91
ATOM     91  S   UNL A   1      45.447  24.532  37.029  1.00  0.00     0.127 S 
ATOM     92  O   UNL A   1      45.343  23.342  36.187  1.00  0.00    -0.237 OA
ATOM     93  O   UNL A   1      46.711  24.655  37.758  1.00  0.00    -0.237 OA
ATOM     94  O   UNL A   1      44.262  24.844  37.816  1.00  0.00    -0.744 OA
ENDBRANCH  88  91
ENDBRANCH  61  84
ENDBRANCH  35  36
ENDBRANCH  27  30
ENDBRANCH  25  26
ENDBRANCH  24  25
ENDBRANCH   1  24
TORSDOF 17
ENDMDL
MODEL 2
REMARK VINA RESULT:     -12.0      2.490      3.277
REMARK SMILES N#Cc1ccccc1S(=O)(=O)N1CCC(C(=O)NCCCCNC(=O)c2ccc(-c3c4nc(c(-c5cccc(S(=O)(=O)[O-])c5F)c5ccc([nH]5)c(-c5cccc(S(=O)(=O)[O-])c5F)c5nc(c(-c6cccc(S(=O)(=O)[O-])c6F)c6ccc3[nH]6)C=C5)C=C4)cc2)CC1
REMARK SMILES IDX 20 1 19 2 18 3 16 4 17 5 15 7 12 8 13 9 90 10 14 11 89 12
REMARK SMILES IDX 9 13 10 14 11 15 8 16 3 17 4 18 5 19 7 20 6 21 2 22 1 23
REMARK SMILES IDX 21 24 22 25 23 26 24 27 25 29 26 30 27 31 88 32 28 33 87 34
REMARK SMILES IDX 29 35 30 36 31 37 81 38 32 39 86 40 80 41 82 42 33 43 85 44
REMARK SMILES IDX 79 45 78 46 34 48 66 49 46 50 65 51 47 52 50 53 64 54 83 55
REMARK SMILES IDX 48 56 49 57 63 59 84 60 51 61 35 62 36 63 44 64 37 65 39 66
REMARK SMILES IDX 45 67 38 68 40 69 41 70 42 71 43 72 67 73 68 74 76 75 69 76
REMARK SMILES IDX 71 77 77 78 70 79 72 80 73 81 74 82 75 83 52 84 53 85 61 86
REMARK SMILES IDX 54 87 56 88 62 89 55 90 57 91 58 92 59 93 60 94
REMARK H PARENT 18 6 23 28 82 47 50 58
REMARK Flexibility Score: inf
ROOT
ATOM      1  C   UNL A   1      32.875  29.752  25.047  1.00  0.00     0.023 C 
ENDROOT
BRANCH   1   2
ATOM      2  C   UNL A   1      31.367  29.892  25.224  1.00  0.00     0.116 C 
BRANCH   2   3
ATOM      3  N   UNL A   1      30.653  29.688  23.976  1.00  0.00    -0.356 N 
ATOM      4  C   UNL A   1      30.629  28.617  23.135  1.00  0.00     0.223 C 
ATOM      5  O   UNL A   1      29.954  28.693  22.107  1.00  0.00    -0.275 OA
ATOM      6  H   UNL A   1      30.096  30.449  23.690  1.00  0.00     0.163 HD
BRANCH   4   7
ATOM      7  C   UNL A   1      31.394  27.346  23.470  1.00  0.00     0.081 C 
ATOM      8  N   UNL A   1      32.419  24.723  22.708  1.00  0.00    -0.198 NA
ATOM      9  C   UNL A   1      31.098  24.776  23.358  1.00  0.00     0.103 C 
ATOM     10  C   UNL A   1      33.317  25.886  22.651  1.00  0.00     0.103 C 
ATOM     11  C   UNL A   1      30.465  26.141  23.495  1.00  0.00     0.030 C 
ATOM     12  C   UNL A   1      32.616  27.221  22.573  1.00  0.00     0.030 C 
BRANCH   8  13
ATOM     13  S   UNL A   1      33.141  23.196  22.623  1.00  0.00     0.244 S 
ATOM     14  O   UNL A   1      33.771  23.096  21.321  1.00  0.00    -0.207 OA
ATOM     15  O   UNL A   1      32.160  22.219  23.045  1.00  0.00    -0.207 OA
BRANCH  13  16
ATOM     16  C   UNL A   1      34.481  23.051  23.795  1.00  0.00     0.100 A 
ATOM     17  C   UNL A   1      34.431  23.151  25.187  1.00  0.00     0.072 A 
ATOM     18  C   UNL A   1      35.627  23.047  25.927  1.00  0.00     0.021 A 
ATOM     19  C   UNL A   1      36.850  22.824  25.305  1.00  0.00     0.001 A 
ATOM     20  C   UNL A   1      35.729  22.816  23.177  1.00  0.00     0.023 A 
ATOM     21  C   UNL A   1      36.900  22.699  23.925  1.00  0.00     0.001 A 
BRANCH  17  22
ATOM     22  C   UNL A   1      33.270  23.333  25.999  1.00  0.00     0.101 C 
ATOM     23  N   UNL A   1      32.333  23.591  26.624  1.00  0.00    -0.192 NA
ENDBRANCH  17  22
ENDBRANCH  13  16
ENDBRANCH   8  13
ENDBRANCH   4   7
ENDBRANCH   2   3
ENDBRANCH   1   2
BRANCH   1  24
ATOM     24  C   UNL A   1      33.505  28.680  25.928  1.00  0.00     0.023 C 
BRANCH  24  25
ATOM     25  C   UNL A   1      33.494  29.003  27.414  1.00  0.00     0.116 C 
BRANCH  25  26
ATOM     26  N   UNL A   1      33.578  30.435  27.679  1.00  0.00    -0.352 N 
ATOM     27  C   UNL A   1      34.599  31.131  28.276  1.00  0.00     0.251 C 
ATOM     28  H   UNL A   1      32.802  30.970  27.394  1.00  0.00     0.163 HD
ATOM     29  O   UNL A   1      34.462  32.313  28.570  1.00  0.00    -0.269 OA
BRANCH  27  30
ATOM     30  C   UNL A   1      35.853  30.418  28.583  1.00  0.00     0.039 A 
ATOM     31  C   UNL A   1      36.939  30.553  27.718  1.00  0.00     0.014 A 
ATOM     32  C   UNL A   1      35.969  29.683  29.766  1.00  0.00     0.014 A 
ATOM     33  C   UNL A   1      38.169  29.999  28.075  1.00  0.00     0.010 A 
ATOM     34  C   UNL A   1      37.216  29.217  30.162  1.00  0.00     0.010 A 
ATOM     35  C   UNL A   1      38.325  29.361  29.317  1.00  0.00    -0.014 A 
BRANCH  35  36
ATOM     36  C   UNL A   1      39.646  28.840  29.752  1.00  0.00     0.031 A 
ATOM     37  C   UNL A   1      40.409  29.544  30.841  1.00  0.00     0.074 A 
ATOM     38  C   UNL A   1      40.189  27.783  29.116  1.00  0.00     0.049 A 
ATOM     39  N   UNL A   1      41.595  29.273  31.322  1.00  0.00    -0.248 NA
ATOM     40  C   UNL A   1      39.772  30.723  31.451  1.00  0.00     0.031 C 
ATOM     41  C   UNL A   1      39.583  27.067  27.991  1.00  0.00     0.029 A 
ATOM     42  N   UNL A   1      41.388  27.142  29.308  1.00  0.00    -0.354 N 
ATOM     43  C   UNL A   1      41.857  30.261  32.262  1.00  0.00     0.074 A 
ATOM     44  C   UNL A   1      40.728  31.164  32.255  1.00  0.00     0.031 C 
ATOM     45  C   UNL A   1      40.408  26.084  27.598  1.00  0.00     0.029 A 
ATOM     46  C   UNL A   1      41.616  26.120  28.416  1.00  0.00     0.049 A 
ATOM     47  H   UNL A   1      42.024  27.391  30.016  1.00  0.00     0.167 HD
ATOM     48  C   UNL A   1      42.927  30.389  33.083  1.00  0.00     0.034 A 
ATOM     49  C   UNL A   1      42.684  25.312  28.266  1.00  0.00     0.034 A 
ATOM     50  C   UNL A   1      44.032  29.470  33.110  1.00  0.00     0.049 A 
ATOM     51  C   UNL A   1      43.849  25.461  29.207  1.00  0.00     0.074 A 
ATOM     52  C   UNL A   1      45.124  29.467  33.957  1.00  0.00     0.029 A 
ATOM     53  N   UNL A   1      44.191  28.399  32.245  1.00  0.00    -0.354 N 
ATOM     54  N   UNL A   1      44.010  26.309  30.195  1.00  0.00    -0.248 NA
ATOM     55  C   UNL A   1      44.963  24.518  29.039  1.00  0.00     0.031 C 
ATOM     56  C   UNL A   1      45.964  28.413  33.582  1.00  0.00     0.029 A 
ATOM     57  C   UNL A   1      45.371  27.735  32.528  1.00  0.00     0.049 A 
ATOM     58  H   UNL A   1      43.559  28.149  31.532  1.00  0.00     0.167 HD
ATOM     59  C   UNL A   1      45.222  25.977  30.788  1.00  0.00     0.074 A 
ATOM     60  C   UNL A   1      45.743  24.837  30.062  1.00  0.00     0.031 C 
ATOM     61  C   UNL A   1      45.853  26.570  31.831  1.00  0.00     0.034 A 
BRANCH  48  62
ATOM     62  C   UNL A   1      42.931  31.541  34.054  1.00  0.00     0.023 A 
ATOM     63  C   UNL A   1      43.503  32.773  33.672  1.00  0.00     0.012 A 
ATOM     64  C   UNL A   1      42.318  31.426  35.317  1.00  0.00     0.148 A 
ATOM     65  C   UNL A   1      43.497  33.860  34.545  1.00  0.00     0.002 A 
ATOM     66  C   UNL A   1      42.271  32.528  36.161  1.00  0.00     0.091 A 
ATOM     67  F   UNL A   1      41.797  30.242  35.668  1.00  0.00    -0.205 F 
ATOM     68  C   UNL A   1      42.872  33.741  35.783  1.00  0.00     0.022 A 
BRANCH  66  69
ATOM     69  S   UNL A   1      41.418  32.506  37.740  1.00  0.00     0.127 S 
ATOM     70  O   UNL A   1      42.217  31.538  38.493  1.00  0.00    -0.237 OA
ATOM     71  O   UNL A   1      41.561  33.892  38.186  1.00  0.00    -0.237 OA
ATOM     72  O   UNL A   1      40.050  32.095  37.455  1.00  0.00    -0.744 OA
ENDBRANCH  66  69
ENDBRANCH  48  62
BRANCH  49  73
ATOM     73  C   UNL A   1      42.685  24.260  27.209  1.00  0.00     0.023 A 
ATOM     74  C   UNL A   1      43.311  24.513  25.974  1.00  0.00     0.012 A 
ATOM     75  C   UNL A   1      42.077  23.009  27.427  1.00  0.00     0.148 A 
ATOM     76  C   UNL A   1      43.297  23.555  24.959  1.00  0.00     0.002 A 
ATOM     77  C   UNL A   1      42.118  22.037  26.435  1.00  0.00     0.091 A 
ATOM     78  F   UNL A   1      41.479  22.790  28.607  1.00  0.00    -0.205 F 
ATOM     79  C   UNL A   1      42.708  22.315  25.193  1.00  0.00     0.022 A 
BRANCH  77  80
ATOM     80  S   UNL A   1      41.502  20.370  26.693  1.00  0.00     0.127 S 
ATOM     81  O   UNL A   1      42.275  19.941  27.856  1.00  0.00    -0.237 OA
ATOM     82  O   UNL A   1      40.082  20.610  26.950  1.00  0.00    -0.237 OA
ATOM     83  O   UNL A   1      41.776  19.654  25.454  1.00  0.00    -0.744 OA
ENDBRANCH  77  80
ENDBRANCH  49  73
BRANCH  61  84
ATOM     84  C   UNL A   1      47.157  25.973  32.291  1.00  0.00     0.023 A 
ATOM     85  C   UNL A   1      48.372  26.402  31.721  1.00  0.00     0.012 A 
ATOM     86  C   UNL A   1      47.180  25.036  33.343  1.00  0.00     0.148 A 
ATOM     87  C   UNL A   1      49.586  25.879  32.166  1.00  0.00     0.002 A 
ATOM     88  C   UNL A   1      48.395  24.561  33.819  1.00  0.00     0.091 A 
ATOM     89  F   UNL A   1      46.012  24.629  33.862  1.00  0.00    -0.205 F 
ATOM     90  C   UNL A   1      49.598  24.970  33.221  1.00  0.00     0.022 A 
BRANCH  88  91
ATOM     91  S   UNL A   1      48.515  23.467  35.237  1.00  0.00     0.127 S 
ATOM     92  O   UNL A   1      47.870  22.255  34.734  1.00  0.00    -0.237 OA
ATOM     93  O   UNL A   1      49.964  23.356  35.420  1.00  0.00    -0.237 OA
ATOM     94  O   UNL A   1      47.818  24.138  36.326  1.00  0.00    -0.744 OA
ENDBRANCH  88  91
ENDBRANCH  61  84
ENDBRANCH  35  36
ENDBRANCH  27  30
ENDBRANCH  25  26
ENDBRANCH  24  25
ENDBRANCH   1  24
TORSDOF 17
ENDMDL
MODEL 3
REMARK VINA RESULT:     -11.8      2.541      8.096
REMARK SMILES N#Cc1ccccc1S(=O)(=O)N1CCC(C(=O)NCCCCNC(=O)c2ccc(-c3c4nc(c(-c5cccc(S(=O)(=O)[O-])c5F)c5ccc([nH]5)c(-c5cccc(S(=O)(=O)[O-])c5F)c5nc(c(-c6cccc(S(=O)(=O)[O-])c6F)c6ccc3[nH]6)C=C5)C=C4)cc2)CC1
REMARK SMILES IDX 20 1 19 2 18 3 16 4 17 5 15 7 12 8 13 9 90 10 14 11 89 12
REMARK SMILES IDX 9 13 10 14 11 15 8 16 3 17 4 18 5 19 7 20 6 21 2 22 1 23
REMARK SMILES IDX 21 24 22 25 23 26 24 27 25 29 26 30 27 31 88 32 28 33 87 34
REMARK SMILES IDX 29 35 30 36 31 37 81 38 32 39 86 40 80 41 82 42 33 43 85 44
REMARK SMILES IDX 79 45 78 46 34 48 66 49 46 50 65 51 47 52 50 53 64 54 83 55
REMARK SMILES IDX 48 56 49 57 63 59 84 60 51 61 35 62 36 63 44 64 37 65 39 66
REMARK SMILES IDX 45 67 38 68 40 69 41 70 42 71 43 72 67 73 68 74 76 75 69 76
REMARK SMILES IDX 71 77 77 78 70 79 72 80 73 81 74 82 75 83 52 84 53 85 61 86
REMARK SMILES IDX 54 87 56 88 62 89 55 90 57 91 58 92 59 93 60 94
REMARK H PARENT 18 6 23 28 82 47 50 58
REMARK Flexibility Score: inf
ROOT
ATOM      1  C   UNL A   1      32.291  29.945  26.569  1.00  0.00     0.023 C 
ENDROOT
BRANCH   1   2
ATOM      2  C   UNL A   1      32.183  29.563  25.097  1.00  0.00     0.116 C 
BRANCH   2   3
ATOM      3  N   UNL A   1      30.959  30.061  24.494  1.00  0.00    -0.356 N 
ATOM      4  C   UNL A   1      30.139  29.499  23.564  1.00  0.00     0.223 C 
ATOM      5  O   UNL A   1      29.156  30.138  23.185  1.00  0.00    -0.275 OA
ATOM      6  H   UNL A   1      30.678  30.952  24.808  1.00  0.00     0.163 HD
BRANCH   4   7
ATOM      7  C   UNL A   1      30.412  28.103  23.025  1.00  0.00     0.081 C 
ATOM      8  N   UNL A   1      31.857  25.573  23.143  1.00  0.00    -0.198 NA
ATOM      9  C   UNL A   1      32.406  26.631  22.277  1.00  0.00     0.103 C 
ATOM     10  C   UNL A   1      30.518  25.659  23.742  1.00  0.00     0.103 C 
ATOM     11  C   UNL A   1      31.812  28.011  22.436  1.00  0.00     0.030 C 
ATOM     12  C   UNL A   1      30.066  27.061  24.076  1.00  0.00     0.030 C 
BRANCH   8  13
ATOM     13  S   UNL A   1      32.488  24.021  22.906  1.00  0.00     0.244 S 
ATOM     14  O   UNL A   1      33.307  24.073  21.710  1.00  0.00    -0.207 OA
ATOM     15  O   UNL A   1      31.394  23.078  23.010  1.00  0.00    -0.207 OA
BRANCH  13  16
ATOM     16  C   UNL A   1      33.616  23.577  24.218  1.00  0.00     0.100 A 
ATOM     17  C   UNL A   1      33.551  22.484  25.084  1.00  0.00     0.072 A 
ATOM     18  C   UNL A   1      34.532  22.343  26.087  1.00  0.00     0.021 A 
ATOM     19  C   UNL A   1      35.574  23.254  26.218  1.00  0.00     0.001 A 
ATOM     20  C   UNL A   1      34.684  24.489  24.356  1.00  0.00     0.023 A 
ATOM     21  C   UNL A   1      35.656  24.327  25.343  1.00  0.00     0.001 A 
BRANCH  17  22
ATOM     22  C   UNL A   1      32.589  21.429  25.074  1.00  0.00     0.101 C 
ATOM     23  N   UNL A   1      31.856  20.540  25.166  1.00  0.00    -0.192 NA
ENDBRANCH  17  22
ENDBRANCH  13  16
ENDBRANCH   8  13
ENDBRANCH   4   7
ENDBRANCH   2   3
ENDBRANCH   1   2
BRANCH   1  24
ATOM     24  C   UNL A   1      31.911  31.392  26.862  1.00  0.00     0.023 C 
BRANCH  24  25
ATOM     25  C   UNL A   1      33.065  32.258  27.344  1.00  0.00     0.116 C 
BRANCH  25  26
ATOM     26  N   UNL A   1      32.674  33.646  27.560  1.00  0.00    -0.352 N 
ATOM     27  C   UNL A   1      33.140  34.523  28.508  1.00  0.00     0.251 C 
ATOM     28  H   UNL A   1      31.988  33.999  26.949  1.00  0.00     0.163 HD
ATOM     29  O   UNL A   1      32.605  35.614  28.667  1.00  0.00    -0.269 OA
BRANCH  27  30
ATOM     30  C   UNL A   1      34.276  34.110  29.352  1.00  0.00     0.039 A 
ATOM     31  C   UNL A   1      34.032  33.334  30.486  1.00  0.00     0.014 A 
ATOM     32  C   UNL A   1      35.583  34.429  28.973  1.00  0.00     0.014 A 
ATOM     33  C   UNL A   1      35.110  32.822  31.208  1.00  0.00     0.010 A 
ATOM     34  C   UNL A   1      36.651  33.839  29.637  1.00  0.00     0.010 A 
ATOM     35  C   UNL A   1      36.426  33.039  30.766  1.00  0.00    -0.014 A 
BRANCH  35  36
ATOM     36  C   UNL A   1      37.584  32.432  31.471  1.00  0.00     0.031 A 
ATOM     37  C   UNL A   1      38.331  31.288  30.842  1.00  0.00     0.074 A 
ATOM     38  C   UNL A   1      37.911  32.859  32.707  1.00  0.00     0.049 A 
ATOM     39  N   UNL A   1      39.331  30.595  31.322  1.00  0.00    -0.248 NA
ATOM     40  C   UNL A   1      37.879  30.843  29.512  1.00  0.00     0.031 C 
ATOM     41  C   UNL A   1      37.210  33.905  33.456  1.00  0.00     0.029 A 
ATOM     42  N   UNL A   1      38.902  32.447  33.563  1.00  0.00    -0.354 N 
ATOM     43  C   UNL A   1      39.605  29.619  30.373  1.00  0.00     0.074 A 
ATOM     44  C   UNL A   1      38.639  29.778  29.308  1.00  0.00     0.031 C 
ATOM     45  C   UNL A   1      37.796  34.056  34.654  1.00  0.00     0.029 A 
ATOM     46  C   UNL A   1      38.890  33.097  34.775  1.00  0.00     0.049 A 
ATOM     47  H   UNL A   1      39.559  31.752  33.332  1.00  0.00     0.167 HD
ATOM     48  C   UNL A   1      40.593  28.692  30.370  1.00  0.00     0.034 A 
ATOM     49  C   UNL A   1      39.663  32.930  35.866  1.00  0.00     0.034 A 
ATOM     50  C   UNL A   1      41.571  28.559  31.414  1.00  0.00     0.049 A 
ATOM     51  C   UNL A   1      40.768  31.910  35.826  1.00  0.00     0.074 A 
ATOM     52  C   UNL A   1      42.658  27.705  31.468  1.00  0.00     0.029 A 
ATOM     53  N   UNL A   1      41.575  29.289  32.592  1.00  0.00    -0.354 N 
ATOM     54  N   UNL A   1      41.109  31.099  34.853  1.00  0.00    -0.248 NA
ATOM     55  C   UNL A   1      41.620  31.806  37.019  1.00  0.00     0.031 C 
ATOM     56  C   UNL A   1      43.300  27.895  32.696  1.00  0.00     0.029 A 
ATOM     57  C   UNL A   1      42.638  28.898  33.387  1.00  0.00     0.049 A 
ATOM     58  H   UNL A   1      40.918  29.983  32.829  1.00  0.00     0.167 HD
ATOM     59  C   UNL A   1      42.235  30.418  35.301  1.00  0.00     0.074 A 
ATOM     60  C   UNL A   1      42.532  30.928  36.624  1.00  0.00     0.031 C 
ATOM     61  C   UNL A   1      42.951  29.450  34.680  1.00  0.00     0.034 A 
BRANCH  48  62
ATOM     62  C   UNL A   1      40.692  27.778  29.175  1.00  0.00     0.023 A 
ATOM     63  C   UNL A   1      39.862  26.641  29.096  1.00  0.00     0.012 A 
ATOM     64  C   UNL A   1      41.560  28.076  28.107  1.00  0.00     0.148 A 
ATOM     65  C   UNL A   1      39.920  25.795  27.990  1.00  0.00     0.002 A 
ATOM     66  C   UNL A   1      41.576  27.256  26.985  1.00  0.00     0.091 A 
ATOM     67  F   UNL A   1      42.355  29.150  28.209  1.00  0.00    -0.205 F 
ATOM     68  C   UNL A   1      40.767  26.108  26.931  1.00  0.00     0.022 A 
BRANCH  66  69
ATOM     69  S   UNL A   1      42.568  27.616  25.533  1.00  0.00     0.127 S 
ATOM     70  O   UNL A   1      42.313  26.440  24.702  1.00  0.00    -0.237 OA
ATOM     71  O   UNL A   1      41.957  28.852  25.044  1.00  0.00    -0.237 OA
ATOM     72  O   UNL A   1      43.938  27.758  26.006  1.00  0.00    -0.744 OA
ENDBRANCH  66  69
ENDBRANCH  48  62
BRANCH  49  73
ATOM     73  C   UNL A   1      39.450  33.779  37.073  1.00  0.00     0.023 A 
ATOM     74  C   UNL A   1      39.925  35.105  37.086  1.00  0.00     0.012 A 
ATOM     75  C   UNL A   1      38.771  33.282  38.202  1.00  0.00     0.148 A 
ATOM     76  C   UNL A   1      39.764  35.908  38.216  1.00  0.00     0.002 A 
ATOM     77  C   UNL A   1      38.561  34.106  39.301  1.00  0.00     0.091 A 
ATOM     78  F   UNL A   1      38.333  32.015  38.173  1.00  0.00    -0.205 F 
ATOM     79  C   UNL A   1      39.075  35.411  39.320  1.00  0.00     0.022 A 
BRANCH  77  80
ATOM     80  S   UNL A   1      37.574  33.596  40.712  1.00  0.00     0.127 S 
ATOM     81  O   UNL A   1      38.478  32.672  41.393  1.00  0.00    -0.237 OA
ATOM     82  O   UNL A   1      37.357  34.868  41.402  1.00  0.00    -0.237 OA
ATOM     83  O   UNL A   1      36.367  33.003  40.154  1.00  0.00    -0.744 OA
ENDBRANCH  77  80
ENDBRANCH  49  73
BRANCH  61  84
ATOM     84  C   UNL A   1      44.160  28.905  35.394  1.00  0.00     0.023 A 
ATOM     85  C   UNL A   1      45.408  29.546  35.264  1.00  0.00     0.012 A 
ATOM     86  C   UNL A   1      44.040  27.795  36.254  1.00  0.00     0.148 A 
ATOM     87  C   UNL A   1      46.525  29.069  35.949  1.00  0.00     0.002 A 
ATOM     88  C   UNL A   1      45.144  27.359  36.976  1.00  0.00     0.091 A 
ATOM     89  F   UNL A   1      42.848  27.189  36.353  1.00  0.00    -0.205 F 
ATOM     90  C   UNL A   1      46.390  27.984  36.813  1.00  0.00     0.022 A 
BRANCH  88  91
ATOM     91  S   UNL A   1      45.043  26.036  38.186  1.00  0.00     0.127 S 
ATOM     92  O   UNL A   1      46.390  26.049  38.755  1.00  0.00    -0.237 OA
ATOM     93  O   UNL A   1      43.995  26.520  39.087  1.00  0.00    -0.237 OA
ATOM     94  O   UNL A   1      44.693  24.833  37.442  1.00  0.00    -0.744 OA
ENDBRANCH  88  91
ENDBRANCH  61  84
ENDBRANCH  35  36
ENDBRANCH  27  30
ENDBRANCH  25  26
ENDBRANCH  24  25
ENDBRANCH   1  24
TORSDOF 17
ENDMDL
