MODEL 1
REMARK VINA RESULT:     -11.9      0.000      0.000
REMARK SMILES C[C@H](Nc1cccc(C(=O)NCCCCNC(=O)c2ccc(-c3c4nc(c(-c5cccc(S(=O)(=O)[O-])c5F)c5ccc([nH]5)c(-c5cccc(S(=O)(=O)[O-])c5F)c5nc(c(-c6cccc(S(=O)(=O)[O-])c6F)c6ccc3[nH]6)C=C5)C=C4)cc2)c1)C1CC[NH+](C)CC1
REMARK SMILES IDX 13 1 12 2 11 3 9 4 10 5 8 7 4 8 5 9 82 10 6 11 7 12 3 13
REMARK SMILES IDX 2 15 1 16 83 17 84 18 89 19 85 20 88 21 86 22 87 23 14 25
REMARK SMILES IDX 15 26 16 27 17 28 18 30 19 31 20 32 81 33 21 34 80 35 22 36
REMARK SMILES IDX 23 37 24 38 74 39 25 40 79 41 73 42 75 43 26 44 78 45 72 46
REMARK SMILES IDX 71 47 27 49 59 50 39 51 58 52 40 53 43 54 57 55 76 56 41 57
REMARK SMILES IDX 42 58 56 60 77 61 44 62 28 63 29 64 37 65 30 66 32 67 38 68
REMARK SMILES IDX 31 69 33 70 34 71 35 72 36 73 60 74 61 75 69 76 62 77 64 78
REMARK SMILES IDX 70 79 63 80 65 81 66 82 67 83 68 84 45 85 46 86 54 87 47 88
REMARK SMILES IDX 49 89 55 90 48 91 50 92 51 93 52 94 53 95
REMARK H PARENT 11 6 3 14 86 24 16 29 75 48 43 59
REMARK Flexibility Score: inf
ROOT
ATOM      1  C   UNL A   1      32.228  30.060  26.804  1.00  0.00     0.023 C 
ENDROOT
BRANCH   1   2
ATOM      2  C   UNL A   1      33.458  29.704  25.980  1.00  0.00     0.116 C 
BRANCH   2   3
ATOM      3  N   UNL A   1      33.186  29.217  24.635  1.00  0.00    -0.352 N 
ATOM      4  C   UNL A   1      32.846  27.955  24.193  1.00  0.00     0.251 C 
ATOM      5  O   UNL A   1      32.646  27.766  22.995  1.00  0.00    -0.269 OA
ATOM      6  H   UNL A   1      33.258  29.897  23.928  1.00  0.00     0.163 HD
BRANCH   4   7
ATOM      7  C   UNL A   1      32.794  26.800  25.124  1.00  0.00     0.041 A 
ATOM      8  C   UNL A   1      33.770  24.744  25.953  1.00  0.00     0.035 A 
ATOM      9  C   UNL A   1      32.523  24.403  26.491  1.00  0.00     0.026 A 
ATOM     10  C   UNL A   1      33.915  26.008  25.387  1.00  0.00     0.039 A 
ATOM     11  C   UNL A   1      31.435  25.273  26.405  1.00  0.00     0.003 A 
ATOM     12  C   UNL A   1      31.562  26.462  25.691  1.00  0.00     0.014 A 
BRANCH   8  13
ATOM     13  N   UNL A   1      34.802  23.831  26.007  1.00  0.00    -0.382 N 
ATOM     14  H   UNL A   1      34.735  23.106  26.668  1.00  0.00     0.160 HD
BRANCH  13  15
ATOM     15  C   UNL A   1      35.987  23.861  25.152  1.00  0.00     0.079 C 
ATOM     16  C   UNL A   1      37.168  23.823  26.126  1.00  0.00     0.031 C 
BRANCH  15  17
ATOM     17  C   UNL A   1      35.897  22.757  24.054  1.00  0.00     0.022 C 
ATOM     18  C   UNL A   1      34.747  22.865  23.048  1.00  0.00     0.067 C 
ATOM     19  C   UNL A   1      35.892  21.330  24.626  1.00  0.00     0.067 C 
ATOM     20  C   UNL A   1      33.396  22.402  23.594  1.00  0.00     0.262 C 
ATOM     21  C   UNL A   1      34.545  20.914  25.208  1.00  0.00     0.262 C 
ATOM     22  N   UNL A   1      33.422  21.111  24.287  1.00  0.00    -0.337 N 
ATOM     23  C   UNL A   1      32.154  20.903  24.993  1.00  0.00     0.332 C 
ATOM     24  H   UNL A   1      33.556  20.415  23.553  1.00  0.00     0.347 HD
ENDBRANCH  15  17
ENDBRANCH  13  15
ENDBRANCH   8  13
ENDBRANCH   4   7
ENDBRANCH   2   3
ENDBRANCH   1   2
BRANCH   1  25
ATOM     25  C   UNL A   1      31.873  31.537  26.899  1.00  0.00     0.023 C 
BRANCH  25  26
ATOM     26  C   UNL A   1      33.004  32.475  27.301  1.00  0.00     0.116 C 
BRANCH  26  27
ATOM     27  N   UNL A   1      32.570  33.828  27.626  1.00  0.00    -0.352 N 
ATOM     28  C   UNL A   1      33.070  34.705  28.562  1.00  0.00     0.251 C 
ATOM     29  H   UNL A   1      31.809  34.163  27.099  1.00  0.00     0.163 HD
ATOM     30  O   UNL A   1      32.526  35.792  28.736  1.00  0.00    -0.269 OA
BRANCH  28  31
ATOM     31  C   UNL A   1      34.235  34.318  29.389  1.00  0.00     0.039 A 
ATOM     32  C   UNL A   1      34.011  33.692  30.618  1.00  0.00     0.014 A 
ATOM     33  C   UNL A   1      35.538  34.524  28.934  1.00  0.00     0.014 A 
ATOM     34  C   UNL A   1      35.093  33.185  31.344  1.00  0.00     0.010 A 
ATOM     35  C   UNL A   1      36.604  33.945  29.614  1.00  0.00     0.010 A 
ATOM     36  C   UNL A   1      36.395  33.263  30.823  1.00  0.00    -0.014 A 
BRANCH  36  37
ATOM     37  C   UNL A   1      37.549  32.624  31.508  1.00  0.00     0.031 A 
ATOM     38  C   UNL A   1      38.261  31.464  30.863  1.00  0.00     0.074 A 
ATOM     39  C   UNL A   1      37.893  33.018  32.752  1.00  0.00     0.049 A 
ATOM     40  N   UNL A   1      39.222  30.716  31.342  1.00  0.00    -0.248 NA
ATOM     41  C   UNL A   1      37.814  31.074  29.516  1.00  0.00     0.031 C 
ATOM     42  C   UNL A   1      37.235  34.079  33.519  1.00  0.00     0.029 A 
ATOM     43  N   UNL A   1      38.867  32.555  33.602  1.00  0.00    -0.354 N 
ATOM     44  C   UNL A   1      39.471  29.752  30.372  1.00  0.00     0.074 A 
ATOM     45  C   UNL A   1      38.532  29.983  29.296  1.00  0.00     0.031 C 
ATOM     46  C   UNL A   1      37.827  34.189  34.719  1.00  0.00     0.029 A 
ATOM     47  C   UNL A   1      38.886  33.192  34.822  1.00  0.00     0.049 A 
ATOM     48  H   UNL A   1      39.493  31.834  33.362  1.00  0.00     0.167 HD
ATOM     49  C   UNL A   1      40.419  28.785  30.359  1.00  0.00     0.034 A 
ATOM     50  C   UNL A   1      39.668  32.992  35.903  1.00  0.00     0.034 A 
ATOM     51  C   UNL A   1      41.385  28.589  31.406  1.00  0.00     0.049 A 
ATOM     52  C   UNL A   1      40.736  31.933  35.845  1.00  0.00     0.074 A 
ATOM     53  C   UNL A   1      42.426  27.679  31.455  1.00  0.00     0.029 A 
ATOM     54  N   UNL A   1      41.433  29.319  32.583  1.00  0.00    -0.354 N 
ATOM     55  N   UNL A   1      41.048  31.127  34.859  1.00  0.00    -0.248 NA
ATOM     56  C   UNL A   1      41.588  31.781  37.034  1.00  0.00     0.031 C 
ATOM     57  C   UNL A   1      43.103  27.856  32.667  1.00  0.00     0.029 A 
ATOM     58  C   UNL A   1      42.490  28.885  33.365  1.00  0.00     0.049 A 
ATOM     59  H   UNL A   1      40.808  30.039  32.826  1.00  0.00     0.167 HD
ATOM     60  C   UNL A   1      42.154  30.404  35.293  1.00  0.00     0.074 A 
ATOM     61  C   UNL A   1      42.470  30.882  36.623  1.00  0.00     0.031 C 
ATOM     62  C   UNL A   1      42.835  29.421  34.655  1.00  0.00     0.034 A 
BRANCH  49  63
ATOM     63  C   UNL A   1      40.508  27.913  29.133  1.00  0.00     0.023 A 
ATOM     64  C   UNL A   1      39.616  26.829  28.997  1.00  0.00     0.012 A 
ATOM     65  C   UNL A   1      41.420  28.191  28.098  1.00  0.00     0.148 A 
ATOM     66  C   UNL A   1      39.652  26.015  27.868  1.00  0.00     0.002 A 
ATOM     67  C   UNL A   1      41.422  27.400  26.954  1.00  0.00     0.091 A 
ATOM     68  F   UNL A   1      42.273  29.214  28.252  1.00  0.00    -0.205 F 
ATOM     69  C   UNL A   1      40.547  26.306  26.842  1.00  0.00     0.022 A 
BRANCH  67  70
ATOM     70  S   UNL A   1      42.482  27.734  25.542  1.00  0.00     0.127 S 
ATOM     71  O   UNL A   1      41.909  28.979  25.032  1.00  0.00    -0.237 OA
ATOM     72  O   UNL A   1      43.795  27.880  26.170  1.00  0.00    -0.237 OA
ATOM     73  O   UNL A   1      42.354  26.581  24.662  1.00  0.00    -0.744 OA
ENDBRANCH  67  70
ENDBRANCH  49  63
BRANCH  50  74
ATOM     74  C   UNL A   1      39.529  33.864  37.104  1.00  0.00     0.023 A 
ATOM     75  C   UNL A   1      40.030  35.181  37.056  1.00  0.00     0.012 A 
ATOM     76  C   UNL A   1      38.909  33.411  38.284  1.00  0.00     0.148 A 
ATOM     77  C   UNL A   1      39.951  36.017  38.170  1.00  0.00     0.002 A 
ATOM     78  C   UNL A   1      38.786  34.267  39.374  1.00  0.00     0.091 A 
ATOM     79  F   UNL A   1      38.452  32.152  38.321  1.00  0.00    -0.205 F 
ATOM     80  C   UNL A   1      39.321  35.563  39.325  1.00  0.00     0.022 A 
BRANCH  78  81
ATOM     81  S   UNL A   1      37.877  33.806  40.853  1.00  0.00     0.127 S 
ATOM     82  O   UNL A   1      38.853  32.978  41.558  1.00  0.00    -0.237 OA
ATOM     83  O   UNL A   1      37.614  35.106  41.470  1.00  0.00    -0.237 OA
ATOM     84  O   UNL A   1      36.684  33.120  40.376  1.00  0.00    -0.744 OA
ENDBRANCH  78  81
ENDBRANCH  50  74
BRANCH  62  85
ATOM     85  C   UNL A   1      44.023  28.822  35.361  1.00  0.00     0.023 A 
ATOM     86  C   UNL A   1      45.310  29.346  35.134  1.00  0.00     0.012 A 
ATOM     87  C   UNL A   1      43.849  27.793  36.308  1.00  0.00     0.148 A 
ATOM     88  C   UNL A   1      46.413  28.834  35.817  1.00  0.00     0.002 A 
ATOM     89  C   UNL A   1      44.947  27.320  37.019  1.00  0.00     0.091 A 
ATOM     90  F   UNL A   1      42.619  27.294  36.495  1.00  0.00    -0.205 F 
ATOM     91  C   UNL A   1      46.230  27.832  36.766  1.00  0.00     0.022 A 
BRANCH  89  92
ATOM     92  S   UNL A   1      44.791  26.098  38.326  1.00  0.00     0.127 S 
ATOM     93  O   UNL A   1      44.410  24.903  37.574  1.00  0.00    -0.237 OA
ATOM     94  O   UNL A   1      46.143  26.062  38.883  1.00  0.00    -0.237 OA
ATOM     95  O   UNL A   1      43.778  26.615  39.238  1.00  0.00    -0.744 OA
ENDBRANCH  89  92
ENDBRANCH  62  85
ENDBRANCH  36  37
ENDBRANCH  28  31
ENDBRANCH  26  27
ENDBRANCH  25  26
ENDBRANCH   1  25
TORSDOF 17
ENDMDL
MODEL 2
REMARK VINA RESULT:     -11.8      2.738      4.731
REMARK SMILES C[C@H](Nc1cccc(C(=O)NCCCCNC(=O)c2ccc(-c3c4nc(c(-c5cccc(S(=O)(=O)[O-])c5F)c5ccc([nH]5)c(-c5cccc(S(=O)(=O)[O-])c5F)c5nc(c(-c6cccc(S(=O)(=O)[O-])c6F)c6ccc3[nH]6)C=C5)C=C4)cc2)c1)C1CC[NH+](C)CC1
REMARK SMILES IDX 13 1 12 2 11 3 9 4 10 5 8 7 4 8 5 9 82 10 6 11 7 12 3 13
REMARK SMILES IDX 2 15 1 16 83 17 84 18 89 19 85 20 88 21 86 22 87 23 14 25
REMARK SMILES IDX 15 26 16 27 17 28 18 30 19 31 20 32 81 33 21 34 80 35 22 36
REMARK SMILES IDX 23 37 24 38 74 39 25 40 79 41 73 42 75 43 26 44 78 45 72 46
REMARK SMILES IDX 71 47 27 49 59 50 39 51 58 52 40 53 43 54 57 55 76 56 41 57
REMARK SMILES IDX 42 58 56 60 77 61 44 62 28 63 29 64 37 65 30 66 32 67 38 68
REMARK SMILES IDX 31 69 33 70 34 71 35 72 36 73 60 74 61 75 69 76 62 77 64 78
REMARK SMILES IDX 70 79 63 80 65 81 66 82 67 83 68 84 45 85 46 86 54 87 47 88
REMARK SMILES IDX 49 89 55 90 48 91 50 92 51 93 52 94 53 95
REMARK H PARENT 11 6 3 14 86 24 16 29 75 48 43 59
REMARK Flexibility Score: inf
ROOT
ATOM      1  C   UNL A   1      33.768  27.458  22.589  1.00  0.00     0.023 C 
ENDROOT
BRANCH   1   2
ATOM      2  C   UNL A   1      32.848  26.608  21.723  1.00  0.00     0.116 C 
BRANCH   2   3
ATOM      3  N   UNL A   1      33.023  25.169  21.854  1.00  0.00    -0.352 N 
ATOM      4  C   UNL A   1      32.416  24.269  22.706  1.00  0.00     0.251 C 
ATOM      5  O   UNL A   1      32.708  23.077  22.637  1.00  0.00    -0.269 OA
ATOM      6  H   UNL A   1      33.679  24.775  21.236  1.00  0.00     0.163 HD
BRANCH   4   7
ATOM      7  C   UNL A   1      31.476  24.720  23.763  1.00  0.00     0.041 A 
ATOM      8  C   UNL A   1      29.563  26.051  24.423  1.00  0.00     0.035 A 
ATOM      9  C   UNL A   1      29.992  25.954  25.753  1.00  0.00     0.026 A 
ATOM     10  C   UNL A   1      30.249  25.316  23.460  1.00  0.00     0.039 A 
ATOM     11  C   UNL A   1      31.113  25.197  26.099  1.00  0.00     0.003 A 
ATOM     12  C   UNL A   1      31.877  24.605  25.097  1.00  0.00     0.014 A 
BRANCH   8  13
ATOM     13  N   UNL A   1      28.487  26.856  24.118  1.00  0.00    -0.382 N 
ATOM     14  H   UNL A   1      27.650  26.706  24.612  1.00  0.00     0.160 HD
BRANCH  13  15
ATOM     15  C   UNL A   1      28.499  27.918  23.113  1.00  0.00     0.079 C 
ATOM     16  C   UNL A   1      27.124  28.580  23.233  1.00  0.00     0.031 C 
BRANCH  15  17
ATOM     17  C   UNL A   1      29.769  28.810  23.275  1.00  0.00     0.022 C 
ATOM     18  C   UNL A   1      29.655  30.024  24.203  1.00  0.00     0.067 C 
ATOM     19  C   UNL A   1      30.347  29.292  21.934  1.00  0.00     0.067 C 
ATOM     20  C   UNL A   1      28.924  31.215  23.584  1.00  0.00     0.262 C 
ATOM     21  C   UNL A   1      29.567  30.448  21.318  1.00  0.00     0.262 C 
ATOM     22  N   UNL A   1      29.364  31.574  22.234  1.00  0.00    -0.337 N 
ATOM     23  C   UNL A   1      28.424  32.535  21.646  1.00  0.00     0.332 C 
ATOM     24  H   UNL A   1      30.290  31.988  22.354  1.00  0.00     0.347 HD
ENDBRANCH  15  17
ENDBRANCH  13  15
ENDBRANCH   8  13
ENDBRANCH   4   7
ENDBRANCH   2   3
ENDBRANCH   1   2
BRANCH   1  25
ATOM     25  C   UNL A   1      33.277  27.785  23.992  1.00  0.00     0.023 C 
BRANCH  25  26
ATOM     26  C   UNL A   1      33.894  29.012  24.650  1.00  0.00     0.116 C 
BRANCH  26  27
ATOM     27  N   UNL A   1      32.921  29.992  25.115  1.00  0.00    -0.352 N 
ATOM     28  C   UNL A   1      32.902  30.719  26.284  1.00  0.00     0.251 C 
ATOM     29  H   UNL A   1      32.168  30.159  24.503  1.00  0.00     0.163 HD
ATOM     30  O   UNL A   1      31.955  31.461  26.530  1.00  0.00    -0.269 OA
BRANCH  28  31
ATOM     31  C   UNL A   1      34.003  30.573  27.262  1.00  0.00     0.039 A 
ATOM     32  C   UNL A   1      34.283  29.304  27.778  1.00  0.00     0.014 A 
ATOM     33  C   UNL A   1      34.786  31.667  27.631  1.00  0.00     0.014 A 
ATOM     34  C   UNL A   1      35.409  29.118  28.586  1.00  0.00     0.010 A 
ATOM     35  C   UNL A   1      35.951  31.466  28.364  1.00  0.00     0.010 A 
ATOM     36  C   UNL A   1      36.281  30.188  28.844  1.00  0.00    -0.014 A 
BRANCH  36  37
ATOM     37  C   UNL A   1      37.551  29.997  29.592  1.00  0.00     0.031 A 
ATOM     38  C   UNL A   1      38.639  29.126  29.021  1.00  0.00     0.074 A 
ATOM     39  C   UNL A   1      37.687  30.522  30.827  1.00  0.00     0.049 A 
ATOM     40  N   UNL A   1      39.772  28.761  29.561  1.00  0.00    -0.248 NA
ATOM     41  C   UNL A   1      38.409  28.566  27.679  1.00  0.00     0.031 C 
ATOM     42  C   UNL A   1      36.678  31.323  31.525  1.00  0.00     0.029 A 
ATOM     43  N   UNL A   1      38.721  30.440  31.727  1.00  0.00    -0.354 N 
ATOM     44  C   UNL A   1      40.373  27.907  28.644  1.00  0.00     0.074 A 
ATOM     45  C   UNL A   1      39.460  27.775  27.530  1.00  0.00     0.031 C 
ATOM     46  C   UNL A   1      37.145  31.663  32.738  1.00  0.00     0.029 A 
ATOM     47  C   UNL A   1      38.472  31.085  32.918  1.00  0.00     0.049 A 
ATOM     48  H   UNL A   1      39.563  29.966  31.538  1.00  0.00     0.167 HD
ATOM     49  C   UNL A   1      41.591  27.317  28.702  1.00  0.00     0.034 A 
ATOM     50  C   UNL A   1      39.227  31.193  34.030  1.00  0.00     0.034 A 
ATOM     51  C   UNL A   1      42.519  27.489  29.786  1.00  0.00     0.049 A 
ATOM     52  C   UNL A   1      40.590  30.555  34.052  1.00  0.00     0.074 A 
ATOM     53  C   UNL A   1      43.802  26.986  29.909  1.00  0.00     0.029 A 
ATOM     54  N   UNL A   1      42.268  28.229  30.931  1.00  0.00    -0.354 N 
ATOM     55  N   UNL A   1      41.198  29.871  33.113  1.00  0.00    -0.248 NA
ATOM     56  C   UNL A   1      41.390  30.736  35.273  1.00  0.00     0.031 C 
ATOM     57  C   UNL A   1      44.326  27.418  31.132  1.00  0.00     0.029 A 
ATOM     58  C   UNL A   1      43.372  28.201  31.764  1.00  0.00     0.049 A 
ATOM     59  H   UNL A   1      41.426  28.703  31.123  1.00  0.00     0.167 HD
ATOM     60  C   UNL A   1      42.462  29.577  33.612  1.00  0.00     0.074 A 
ATOM     61  C   UNL A   1      42.540  30.174  34.929  1.00  0.00     0.031 C 
ATOM     62  C   UNL A   1      43.461  28.862  33.040  1.00  0.00     0.034 A 
BRANCH  49  63
ATOM     63  C   UNL A   1      42.021  26.488  27.520  1.00  0.00     0.023 A 
ATOM     64  C   UNL A   1      42.745  27.103  26.478  1.00  0.00     0.012 A 
ATOM     65  C   UNL A   1      41.766  25.104  27.460  1.00  0.00     0.148 A 
ATOM     66  C   UNL A   1      43.180  26.364  25.380  1.00  0.00     0.002 A 
ATOM     67  C   UNL A   1      42.240  24.365  26.382  1.00  0.00     0.091 A 
ATOM     68  F   UNL A   1      41.059  24.540  28.450  1.00  0.00    -0.205 F 
ATOM     69  C   UNL A   1      42.937  24.995  25.337  1.00  0.00     0.022 A 
BRANCH  67  70
ATOM     70  S   UNL A   1      42.046  22.582  26.266  1.00  0.00     0.127 S 
ATOM     71  O   UNL A   1      42.721  22.133  27.483  1.00  0.00    -0.237 OA
ATOM     72  O   UNL A   1      40.591  22.429  26.282  1.00  0.00    -0.237 OA
ATOM     73  O   UNL A   1      42.684  22.190  25.017  1.00  0.00    -0.744 OA
ENDBRANCH  67  70
ENDBRANCH  49  63
BRANCH  50  74
ATOM     74  C   UNL A   1      38.750  32.004  35.187  1.00  0.00     0.023 A 
ATOM     75  C   UNL A   1      38.822  33.410  35.113  1.00  0.00     0.012 A 
ATOM     76  C   UNL A   1      38.227  31.406  36.349  1.00  0.00     0.148 A 
ATOM     77  C   UNL A   1      38.419  34.203  36.188  1.00  0.00     0.002 A 
ATOM     78  C   UNL A   1      37.778  32.204  37.396  1.00  0.00     0.091 A 
ATOM     79  F   UNL A   1      38.180  30.068  36.411  1.00  0.00    -0.205 F 
ATOM     80  C   UNL A   1      37.889  33.601  37.325  1.00  0.00     0.022 A 
BRANCH  78  81
ATOM     81  S   UNL A   1      36.965  31.515  38.842  1.00  0.00     0.127 S 
ATOM     82  O   UNL A   1      37.971  31.725  39.880  1.00  0.00    -0.237 OA
ATOM     83  O   UNL A   1      35.775  32.359  38.958  1.00  0.00    -0.237 OA
ATOM     84  O   UNL A   1      36.680  30.128  38.501  1.00  0.00    -0.744 OA
ENDBRANCH  78  81
ENDBRANCH  50  74
BRANCH  62  85
ATOM     85  C   UNL A   1      44.748  28.720  33.808  1.00  0.00     0.023 A 
ATOM     86  C   UNL A   1      45.768  29.678  33.649  1.00  0.00     0.012 A 
ATOM     87  C   UNL A   1      44.912  27.681  34.746  1.00  0.00     0.148 A 
ATOM     88  C   UNL A   1      46.946  29.588  34.390  1.00  0.00     0.002 A 
ATOM     89  C   UNL A   1      46.069  27.625  35.514  1.00  0.00     0.091 A 
ATOM     90  F   UNL A   1      43.939  26.768  34.868  1.00  0.00    -0.205 F 
ATOM     91  C   UNL A   1      47.091  28.570  35.330  1.00  0.00     0.022 A 
BRANCH  89  92
ATOM     92  S   UNL A   1      46.302  26.405  36.813  1.00  0.00     0.127 S 
ATOM     93  O   UNL A   1      47.579  26.823  37.390  1.00  0.00    -0.237 OA
ATOM     94  O   UNL A   1      45.141  26.639  37.672  1.00  0.00    -0.237 OA
ATOM     95  O   UNL A   1      46.308  25.109  36.148  1.00  0.00    -0.744 OA
ENDBRANCH  89  92
ENDBRANCH  62  85
ENDBRANCH  36  37
ENDBRANCH  28  31
ENDBRANCH  26  27
ENDBRANCH  25  26
ENDBRANCH   1  25
TORSDOF 17
ENDMDL
MODEL 3
REMARK VINA RESULT:     -11.6      6.430     10.079
REMARK SMILES C[C@H](Nc1cccc(C(=O)NCCCCNC(=O)c2ccc(-c3c4nc(c(-c5cccc(S(=O)(=O)[O-])c5F)c5ccc([nH]5)c(-c5cccc(S(=O)(=O)[O-])c5F)c5nc(c(-c6cccc(S(=O)(=O)[O-])c6F)c6ccc3[nH]6)C=C5)C=C4)cc2)c1)C1CC[NH+](C)CC1
REMARK SMILES IDX 13 1 12 2 11 3 9 4 10 5 8 7 4 8 5 9 82 10 6 11 7 12 3 13
REMARK SMILES IDX 2 15 1 16 83 17 84 18 89 19 85 20 88 21 86 22 87 23 14 25
REMARK SMILES IDX 15 26 16 27 17 28 18 30 19 31 20 32 81 33 21 34 80 35 22 36
REMARK SMILES IDX 23 37 24 38 74 39 25 40 79 41 73 42 75 43 26 44 78 45 72 46
REMARK SMILES IDX 71 47 27 49 59 50 39 51 58 52 40 53 43 54 57 55 76 56 41 57
REMARK SMILES IDX 42 58 56 60 77 61 44 62 28 63 29 64 37 65 30 66 32 67 38 68
REMARK SMILES IDX 31 69 33 70 34 71 35 72 36 73 60 74 61 75 69 76 62 77 64 78
REMARK SMILES IDX 70 79 63 80 65 81 66 82 67 83 68 84 45 85 46 86 54 87 47 88
REMARK SMILES IDX 49 89 55 90 48 91 50 92 51 93 52 94 53 95
REMARK H PARENT 11 6 3 14 86 24 16 29 75 48 43 59
REMARK Flexibility Score: inf
ROOT
ATOM      1  C   UNL A   1      36.988  21.130  24.509  1.00  0.00     0.023 C 
ENDROOT
BRANCH   1   2
ATOM      2  C   UNL A   1      36.933  22.360  25.404  1.00  0.00     0.116 C 
BRANCH   2   3
ATOM      3  N   UNL A   1      35.975  22.293  26.497  1.00  0.00    -0.352 N 
ATOM      4  C   UNL A   1      34.637  21.955  26.494  1.00  0.00     0.251 C 
ATOM      5  O   UNL A   1      34.009  21.952  27.551  1.00  0.00    -0.269 OA
ATOM      6  H   UNL A   1      36.340  22.526  27.381  1.00  0.00     0.163 HD
BRANCH   4   7
ATOM      7  C   UNL A   1      33.916  21.675  25.227  1.00  0.00     0.041 A 
ATOM      8  C   UNL A   1      32.569  22.463  23.374  1.00  0.00     0.035 A 
ATOM      9  C   UNL A   1      32.179  21.140  23.132  1.00  0.00     0.026 A 
ATOM     10  C   UNL A   1      33.542  22.692  24.345  1.00  0.00     0.039 A 
ATOM     11  C   UNL A   1      32.696  20.084  23.885  1.00  0.00     0.003 A 
ATOM     12  C   UNL A   1      33.542  20.355  24.957  1.00  0.00     0.014 A 
BRANCH   8  13
ATOM     13  N   UNL A   1      31.990  23.482  22.648  1.00  0.00    -0.382 N 
ATOM     14  H   UNL A   1      31.509  23.239  21.825  1.00  0.00     0.160 HD
BRANCH  13  15
ATOM     15  C   UNL A   1      32.037  24.897  23.013  1.00  0.00     0.079 C 
ATOM     16  C   UNL A   1      32.521  25.607  21.746  1.00  0.00     0.031 C 
BRANCH  15  17
ATOM     17  C   UNL A   1      30.681  25.344  23.641  1.00  0.00     0.022 C 
ATOM     18  C   UNL A   1      30.353  26.840  23.602  1.00  0.00     0.067 C 
ATOM     19  C   UNL A   1      30.492  24.857  25.087  1.00  0.00     0.067 C 
ATOM     20  C   UNL A   1      31.089  27.668  24.654  1.00  0.00     0.262 C 
ATOM     21  C   UNL A   1      31.279  25.672  26.109  1.00  0.00     0.262 C 
ATOM     22  N   UNL A   1      31.049  27.116  26.011  1.00  0.00    -0.337 N 
ATOM     23  C   UNL A   1      32.001  27.833  26.866  1.00  0.00     0.332 C 
ATOM     24  H   UNL A   1      30.089  27.254  26.329  1.00  0.00     0.347 HD
ENDBRANCH  15  17
ENDBRANCH  13  15
ENDBRANCH   8  13
ENDBRANCH   4   7
ENDBRANCH   2   3
ENDBRANCH   1   2
BRANCH   1  25
ATOM     25  C   UNL A   1      37.888  19.991  24.969  1.00  0.00     0.023 C 
BRANCH  25  26
ATOM     26  C   UNL A   1      39.118  20.390  25.775  1.00  0.00     0.116 C 
BRANCH  26  27
ATOM     27  N   UNL A   1      40.130  19.347  25.876  1.00  0.00    -0.352 N 
ATOM     28  C   UNL A   1      41.469  19.454  26.176  1.00  0.00     0.251 C 
ATOM     29  H   UNL A   1      39.808  18.432  25.705  1.00  0.00     0.163 HD
ATOM     30  O   UNL A   1      42.185  18.456  26.153  1.00  0.00    -0.269 OA
BRANCH  28  31
ATOM     31  C   UNL A   1      42.054  20.778  26.483  1.00  0.00     0.039 A 
ATOM     32  C   UNL A   1      42.370  21.637  25.426  1.00  0.00     0.014 A 
ATOM     33  C   UNL A   1      42.242  21.192  27.802  1.00  0.00     0.014 A 
ATOM     34  C   UNL A   1      42.782  22.945  25.697  1.00  0.00     0.010 A 
ATOM     35  C   UNL A   1      42.569  22.517  28.069  1.00  0.00     0.010 A 
ATOM     36  C   UNL A   1      42.836  23.412  27.021  1.00  0.00    -0.014 A 
BRANCH  36  37
ATOM     37  C   UNL A   1      43.147  24.831  27.336  1.00  0.00     0.031 A 
ATOM     38  C   UNL A   1      44.555  25.345  27.191  1.00  0.00     0.074 A 
ATOM     39  C   UNL A   1      42.187  25.630  27.848  1.00  0.00     0.049 A 
ATOM     40  N   UNL A   1      45.042  26.517  27.506  1.00  0.00    -0.248 NA
ATOM     41  C   UNL A   1      45.554  24.408  26.650  1.00  0.00     0.031 C 
ATOM     42  C   UNL A   1      40.801  25.232  28.108  1.00  0.00     0.029 A 
ATOM     43  N   UNL A   1      42.238  26.937  28.265  1.00  0.00    -0.354 N 
ATOM     44  C   UNL A   1      46.403  26.449  27.234  1.00  0.00     0.074 A 
ATOM     45  C   UNL A   1      46.673  25.107  26.767  1.00  0.00     0.031 C 
ATOM     46  C   UNL A   1      40.134  26.273  28.632  1.00  0.00     0.029 A 
ATOM     47  C   UNL A   1      41.046  27.403  28.773  1.00  0.00     0.049 A 
ATOM     48  H   UNL A   1      43.050  27.490  28.206  1.00  0.00     0.167 HD
ATOM     49  C   UNL A   1      47.338  27.424  27.324  1.00  0.00     0.034 A 
ATOM     50  C   UNL A   1      40.726  28.604  29.297  1.00  0.00     0.034 A 
ATOM     51  C   UNL A   1      47.059  28.772  27.740  1.00  0.00     0.049 A 
ATOM     52  C   UNL A   1      41.778  29.679  29.353  1.00  0.00     0.074 A 
ATOM     53  C   UNL A   1      47.926  29.849  27.803  1.00  0.00     0.029 A 
ATOM     54  N   UNL A   1      45.819  29.231  28.154  1.00  0.00    -0.354 N 
ATOM     55  N   UNL A   1      43.027  29.635  28.954  1.00  0.00    -0.248 NA
ATOM     56  C   UNL A   1      41.369  30.983  29.895  1.00  0.00     0.031 C 
ATOM     57  C   UNL A   1      47.209  30.960  28.261  1.00  0.00     0.029 A 
ATOM     58  C   UNL A   1      45.893  30.576  28.469  1.00  0.00     0.049 A 
ATOM     59  H   UNL A   1      45.005  28.679  28.215  1.00  0.00     0.167 HD
ATOM     60  C   UNL A   1      43.537  30.912  29.158  1.00  0.00     0.074 A 
ATOM     61  C   UNL A   1      42.458  31.712  29.697  1.00  0.00     0.031 C 
ATOM     62  C   UNL A   1      44.791  31.376  28.936  1.00  0.00     0.034 A 
BRANCH  49  63
ATOM     63  C   UNL A   1      48.741  27.086  26.892  1.00  0.00     0.023 A 
ATOM     64  C   UNL A   1      49.577  26.370  27.774  1.00  0.00     0.012 A 
ATOM     65  C   UNL A   1      49.215  27.420  25.609  1.00  0.00     0.148 A 
ATOM     66  C   UNL A   1      50.872  26.019  27.400  1.00  0.00     0.002 A 
ATOM     67  C   UNL A   1      50.494  27.029  25.227  1.00  0.00     0.091 A 
ATOM     68  F   UNL A   1      48.415  28.118  24.791  1.00  0.00    -0.205 F 
ATOM     69  C   UNL A   1      51.327  26.339  26.124  1.00  0.00     0.022 A 
BRANCH  67  70
ATOM     70  S   UNL A   1      51.150  27.325  23.580  1.00  0.00     0.127 S 
ATOM     71  O   UNL A   1      51.203  28.786  23.543  1.00  0.00    -0.237 OA
ATOM     72  O   UNL A   1      52.455  26.668  23.646  1.00  0.00    -0.237 OA
ATOM     73  O   UNL A   1      50.207  26.711  22.657  1.00  0.00    -0.744 OA
ENDBRANCH  67  70
ENDBRANCH  49  63
BRANCH  50  74
ATOM     74  C   UNL A   1      39.329  28.886  29.735  1.00  0.00     0.023 A 
ATOM     75  C   UNL A   1      38.930  28.510  31.033  1.00  0.00     0.012 A 
ATOM     76  C   UNL A   1      38.399  29.523  28.890  1.00  0.00     0.148 A 
ATOM     77  C   UNL A   1      37.622  28.726  31.469  1.00  0.00     0.002 A 
ATOM     78  C   UNL A   1      37.112  29.783  29.349  1.00  0.00     0.091 A 
ATOM     79  F   UNL A   1      38.789  29.860  27.653  1.00  0.00    -0.205 F 
ATOM     80  C   UNL A   1      36.716  29.370  30.631  1.00  0.00     0.022 A 
BRANCH  78  81
ATOM     81  S   UNL A   1      35.924  30.720  28.382  1.00  0.00     0.127 S 
ATOM     82  O   UNL A   1      35.483  29.728  27.405  1.00  0.00    -0.237 OA
ATOM     83  O   UNL A   1      34.924  31.080  29.388  1.00  0.00    -0.237 OA
ATOM     84  O   UNL A   1      36.668  31.854  27.850  1.00  0.00    -0.744 OA
ENDBRANCH  78  81
ENDBRANCH  50  74
BRANCH  62  85
ATOM     85  C   UNL A   1      45.062  32.828  29.229  1.00  0.00     0.023 A 
ATOM     86  C   UNL A   1      45.691  33.192  30.435  1.00  0.00     0.012 A 
ATOM     87  C   UNL A   1      44.766  33.820  28.274  1.00  0.00     0.148 A 
ATOM     88  C   UNL A   1      45.993  34.528  30.701  1.00  0.00     0.002 A 
ATOM     89  C   UNL A   1      45.112  35.143  28.526  1.00  0.00     0.091 A 
ATOM     90  F   UNL A   1      44.149  33.455  27.141  1.00  0.00    -0.205 F 
ATOM     91  C   UNL A   1      45.716  35.499  29.743  1.00  0.00     0.022 A 
BRANCH  89  92
ATOM     92  S   UNL A   1      44.879  36.445  27.310  1.00  0.00     0.127 S 
ATOM     93  O   UNL A   1      45.342  37.623  28.043  1.00  0.00    -0.237 OA
ATOM     94  O   UNL A   1      45.760  36.019  26.223  1.00  0.00    -0.237 OA
ATOM     95  O   UNL A   1      43.460  36.432  26.978  1.00  0.00    -0.744 OA
ENDBRANCH  89  92
ENDBRANCH  62  85
ENDBRANCH  36  37
ENDBRANCH  28  31
ENDBRANCH  26  27
ENDBRANCH  25  26
ENDBRANCH   1  25
TORSDOF 17
ENDMDL
