MODEL 1
REMARK VINA RESULT:     -10.9      0.000      0.000
REMARK SMILES Cc1nnc(SCC[C@H]2CCC[C@]2([NH2+]C(C)C)C(=O)NCCCCNC(=O)c2ccc(-c3c4nc(c(-c5cccc(S(=O)(=O)[O-])c5F)c5ccc([nH]5)c(-c5cccc(S(=O)(=O)[O-])c5F)c5nc(c(-c6cccc(S(=O)(=O)[O-])c6F)c6ccc3[nH]6)C=C5)C=C4)cc2)o1
REMARK SMILES IDX 22 1 21 2 20 3 18 4 19 5 13 7 9 8 10 9 11 10 12 11 8 12 7 13
REMARK SMILES IDX 6 14 5 15 1 16 2 17 3 18 91 19 4 20 14 21 15 24 16 25 17 26
REMARK SMILES IDX 23 27 24 28 25 29 26 30 27 32 28 33 29 34 90 35 30 36 89 37
REMARK SMILES IDX 31 38 32 39 33 40 83 41 34 42 88 43 82 44 84 45 35 46 87 47
REMARK SMILES IDX 81 48 80 49 36 51 68 52 48 53 67 54 49 55 52 56 66 57 85 58
REMARK SMILES IDX 50 59 51 60 65 62 86 63 53 64 37 65 38 66 46 67 39 68 41 69
REMARK SMILES IDX 47 70 40 71 42 72 43 73 44 74 45 75 69 76 70 77 78 78 71 79
REMARK SMILES IDX 73 80 79 81 72 82 74 83 75 84 76 85 77 86 54 87 55 88 63 89
REMARK SMILES IDX 56 90 58 91 64 92 57 93 59 94 60 95 61 96 62 97
REMARK H PARENT 20 6 14 22 14 23 25 31 84 50 52 61
REMARK Flexibility Score: inf
ROOT
ATOM      1  C   UNL A   1      37.345  21.347  24.566  1.00  0.00     0.023 C 
ENDROOT
BRANCH   1   2
ATOM      2  C   UNL A   1      37.072  22.450  25.590  1.00  0.00     0.116 C 
BRANCH   2   3
ATOM      3  N   UNL A   1      36.065  22.004  26.510  1.00  0.00    -0.351 N 
ATOM      4  C   UNL A   1      34.730  22.190  26.502  1.00  0.00     0.281 C 
ATOM      5  O   UNL A   1      34.174  21.912  27.574  1.00  0.00    -0.268 OA
ATOM      6  H   UNL A   1      36.404  21.475  27.268  1.00  0.00     0.163 HD
BRANCH   4   7
ATOM      7  C   UNL A   1      33.911  22.610  25.215  1.00  0.00     0.178 C 
ATOM      8  C   UNL A   1      34.430  23.830  24.388  1.00  0.00     0.061 C 
ATOM      9  C   UNL A   1      34.330  24.970  25.393  1.00  0.00     0.011 C 
ATOM     10  C   UNL A   1      33.042  24.685  26.141  1.00  0.00     0.008 C 
ATOM     11  C   UNL A   1      32.636  23.235  25.799  1.00  0.00     0.079 C 
BRANCH   8  12
ATOM     12  C   UNL A   1      33.712  24.197  23.027  1.00  0.00     0.022 C 
BRANCH  12  13
ATOM     13  C   UNL A   1      33.527  25.639  22.463  1.00  0.00     0.080 C 
BRANCH  13  14
ATOM     14  S   UNL A   1      31.919  26.065  21.691  1.00  0.00    -0.065 SA
BRANCH  14  15
ATOM     15  C   UNL A   1      31.441  27.556  22.462  1.00  0.00     0.276 A 
ATOM     16  C   UNL A   1      31.540  29.464  25.418  1.00  0.00     0.113 C 
ATOM     17  C   UNL A   1      31.261  28.974  24.051  1.00  0.00     0.214 A 
ATOM     18  N   UNL A   1      30.211  29.154  23.277  1.00  0.00    -0.112 NA
ATOM     19  O   UNL A   1      32.134  28.053  23.539  1.00  0.00    -0.416 OA
ATOM     20  N   UNL A   1      30.339  28.244  22.231  1.00  0.00    -0.101 NA
ENDBRANCH  14  15
ENDBRANCH  13  14
ENDBRANCH  12  13
ENDBRANCH   8  12
BRANCH   7  21
ATOM     21  N   UNL A   1      33.814  21.442  24.318  1.00  0.00    -0.331 N 
ATOM     22  H   UNL A   1      34.468  20.739  24.659  1.00  0.00     0.347 HD
ATOM     23  H   UNL A   1      34.012  21.814  23.389  1.00  0.00     0.347 HD
BRANCH  21  24
ATOM     24  C   UNL A   1      32.506  20.793  24.182  1.00  0.00     0.176 C 
ATOM     25  C   UNL A   1      32.117  20.604  22.719  1.00  0.00     0.075 C 
ATOM     26  C   UNL A   1      32.624  19.424  24.864  1.00  0.00     0.075 C 
ENDBRANCH  21  24
ENDBRANCH   7  21
ENDBRANCH   4   7
ENDBRANCH   2   3
ENDBRANCH   1   2
BRANCH   1  27
ATOM     27  C   UNL A   1      38.078  20.125  25.138  1.00  0.00     0.023 C 
BRANCH  27  28
ATOM     28  C   UNL A   1      39.217  20.455  26.095  1.00  0.00     0.116 C 
BRANCH  28  29
ATOM     29  N   UNL A   1      40.289  19.474  26.030  1.00  0.00    -0.352 N 
ATOM     30  C   UNL A   1      41.645  19.677  26.117  1.00  0.00     0.251 C 
ATOM     31  H   UNL A   1      40.006  18.539  25.908  1.00  0.00     0.163 HD
ATOM     32  O   UNL A   1      42.426  18.769  25.900  1.00  0.00    -0.269 OA
BRANCH  30  33
ATOM     33  C   UNL A   1      42.127  21.031  26.450  1.00  0.00     0.039 A 
ATOM     34  C   UNL A   1      42.330  21.945  25.415  1.00  0.00     0.014 A 
ATOM     35  C   UNL A   1      42.316  21.403  27.785  1.00  0.00     0.014 A 
ATOM     36  C   UNL A   1      42.675  23.260  25.726  1.00  0.00     0.010 A 
ATOM     37  C   UNL A   1      42.582  22.730  28.092  1.00  0.00     0.010 A 
ATOM     38  C   UNL A   1      42.771  23.669  27.066  1.00  0.00    -0.014 A 
BRANCH  38  39
ATOM     39  C   UNL A   1      43.068  25.080  27.418  1.00  0.00     0.031 A 
ATOM     40  C   UNL A   1      44.475  25.598  27.310  1.00  0.00     0.074 A 
ATOM     41  C   UNL A   1      42.087  25.865  27.904  1.00  0.00     0.049 A 
ATOM     42  N   UNL A   1      44.944  26.778  27.622  1.00  0.00    -0.248 NA
ATOM     43  C   UNL A   1      45.498  24.659  26.815  1.00  0.00     0.031 C 
ATOM     44  C   UNL A   1      40.699  25.450  28.123  1.00  0.00     0.029 A 
ATOM     45  N   UNL A   1      42.112  27.170  28.327  1.00  0.00    -0.354 N 
ATOM     46  C   UNL A   1      46.313  26.715  27.391  1.00  0.00     0.074 A 
ATOM     47  C   UNL A   1      46.607  25.368  26.955  1.00  0.00     0.031 C 
ATOM     48  C   UNL A   1      40.005  26.482  28.629  1.00  0.00     0.029 A 
ATOM     49  C   UNL A   1      40.903  27.619  28.803  1.00  0.00     0.049 A 
ATOM     50  H   UNL A   1      42.920  27.731  28.293  1.00  0.00     0.167 HD
ATOM     51  C   UNL A   1      47.236  27.698  27.499  1.00  0.00     0.034 A 
ATOM     52  C   UNL A   1      40.560  28.812  29.328  1.00  0.00     0.034 A 
ATOM     53  C   UNL A   1      46.931  29.045  27.899  1.00  0.00     0.049 A 
ATOM     54  C   UNL A   1      41.603  29.892  29.419  1.00  0.00     0.074 A 
ATOM     55  C   UNL A   1      47.778  30.135  27.968  1.00  0.00     0.029 A 
ATOM     56  N   UNL A   1      45.680  29.484  28.302  1.00  0.00    -0.354 N 
ATOM     57  N   UNL A   1      42.862  29.859  29.053  1.00  0.00    -0.248 NA
ATOM     58  C   UNL A   1      41.171  31.189  29.961  1.00  0.00     0.031 C 
ATOM     59  C   UNL A   1      47.045  31.228  28.440  1.00  0.00     0.029 A 
ATOM     60  C   UNL A   1      45.733  30.826  28.632  1.00  0.00     0.049 A 
ATOM     61  H   UNL A   1      44.871  28.923  28.349  1.00  0.00     0.167 HD
ATOM     62  C   UNL A   1      43.360  31.136  29.281  1.00  0.00     0.074 A 
ATOM     63  C   UNL A   1      42.261  31.926  29.799  1.00  0.00     0.031 C 
ATOM     64  C   UNL A   1      44.616  31.611  29.092  1.00  0.00     0.034 A 
BRANCH  51  65
ATOM     65  C   UNL A   1      48.659  27.365  27.129  1.00  0.00     0.023 A 
ATOM     66  C   UNL A   1      49.501  26.756  28.083  1.00  0.00     0.012 A 
ATOM     67  C   UNL A   1      49.147  27.604  25.830  1.00  0.00     0.148 A 
ATOM     68  C   UNL A   1      50.816  26.424  27.763  1.00  0.00     0.002 A 
ATOM     69  C   UNL A   1      50.445  27.226  25.504  1.00  0.00     0.091 A 
ATOM     70  F   UNL A   1      48.340  28.202  24.943  1.00  0.00    -0.205 F 
ATOM     71  C   UNL A   1      51.284  26.649  26.472  1.00  0.00     0.022 A 
BRANCH  69  72
ATOM     72  S   UNL A   1      51.118  27.396  23.848  1.00  0.00     0.127 S 
ATOM     73  O   UNL A   1      52.306  26.547  23.924  1.00  0.00    -0.237 OA
ATOM     74  O   UNL A   1      50.037  26.858  23.022  1.00  0.00    -0.237 OA
ATOM     75  O   UNL A   1      51.378  28.816  23.662  1.00  0.00    -0.744 OA
ENDBRANCH  69  72
ENDBRANCH  51  65
BRANCH  52  76
ATOM     76  C   UNL A   1      39.154  29.070  29.750  1.00  0.00     0.023 A 
ATOM     77  C   UNL A   1      38.736  28.682  31.038  1.00  0.00     0.012 A 
ATOM     78  C   UNL A   1      38.233  29.702  28.893  1.00  0.00     0.148 A 
ATOM     79  C   UNL A   1      37.418  28.882  31.451  1.00  0.00     0.002 A 
ATOM     80  C   UNL A   1      36.936  29.950  29.330  1.00  0.00     0.091 A 
ATOM     81  F   UNL A   1      38.646  30.056  27.667  1.00  0.00    -0.205 F 
ATOM     82  C   UNL A   1      36.521  29.523  30.601  1.00  0.00     0.022 A 
BRANCH  80  83
ATOM     83  S   UNL A   1      35.751  30.882  28.354  1.00  0.00     0.127 S 
ATOM     84  O   UNL A   1      36.580  31.964  27.830  1.00  0.00    -0.237 OA
ATOM     85  O   UNL A   1      35.331  29.891  27.362  1.00  0.00    -0.237 OA
ATOM     86  O   UNL A   1      34.703  31.280  29.285  1.00  0.00    -0.744 OA
ENDBRANCH  80  83
ENDBRANCH  52  76
BRANCH  64  87
ATOM     87  C   UNL A   1      44.868  33.064  29.398  1.00  0.00     0.023 A 
ATOM     88  C   UNL A   1      45.295  33.449  30.684  1.00  0.00     0.012 A 
ATOM     89  C   UNL A   1      44.755  34.038  28.386  1.00  0.00     0.148 A 
ATOM     90  C   UNL A   1      45.575  34.786  30.967  1.00  0.00     0.002 A 
ATOM     91  C   UNL A   1      45.086  35.358  28.659  1.00  0.00     0.091 A 
ATOM     92  F   UNL A   1      44.330  33.652  27.173  1.00  0.00    -0.205 F 
ATOM     93  C   UNL A   1      45.482  35.738  29.952  1.00  0.00     0.022 A 
BRANCH  91  94
ATOM     94  S   UNL A   1      45.093  36.633  27.394  1.00  0.00     0.127 S 
ATOM     95  O   UNL A   1      43.682  36.685  27.016  1.00  0.00    -0.237 OA
ATOM     96  O   UNL A   1      45.571  37.800  28.134  1.00  0.00    -0.237 OA
ATOM     97  O   UNL A   1      46.000  36.163  26.355  1.00  0.00    -0.744 OA
ENDBRANCH  91  94
ENDBRANCH  64  87
ENDBRANCH  38  39
ENDBRANCH  30  33
ENDBRANCH  28  29
ENDBRANCH  27  28
ENDBRANCH   1  27
TORSDOF 20
ENDMDL
MODEL 2
REMARK VINA RESULT:     -10.6      1.131      7.505
REMARK SMILES Cc1nnc(SCC[C@H]2CCC[C@]2([NH2+]C(C)C)C(=O)NCCCCNC(=O)c2ccc(-c3c4nc(c(-c5cccc(S(=O)(=O)[O-])c5F)c5ccc([nH]5)c(-c5cccc(S(=O)(=O)[O-])c5F)c5nc(c(-c6cccc(S(=O)(=O)[O-])c6F)c6ccc3[nH]6)C=C5)C=C4)cc2)o1
REMARK SMILES IDX 22 1 21 2 20 3 18 4 19 5 13 7 9 8 10 9 11 10 12 11 8 12 7 13
REMARK SMILES IDX 6 14 5 15 1 16 2 17 3 18 91 19 4 20 14 21 15 24 16 25 17 26
REMARK SMILES IDX 23 27 24 28 25 29 26 30 27 32 28 33 29 34 90 35 30 36 89 37
REMARK SMILES IDX 31 38 32 39 33 40 83 41 34 42 88 43 82 44 84 45 35 46 87 47
REMARK SMILES IDX 81 48 80 49 36 51 68 52 48 53 67 54 49 55 52 56 66 57 85 58
REMARK SMILES IDX 50 59 51 60 65 62 86 63 53 64 37 65 38 66 46 67 39 68 41 69
REMARK SMILES IDX 47 70 40 71 42 72 43 73 44 74 45 75 69 76 70 77 78 78 71 79
REMARK SMILES IDX 73 80 79 81 72 82 74 83 75 84 76 85 77 86 54 87 55 88 63 89
REMARK SMILES IDX 56 90 58 91 64 92 57 93 59 94 60 95 61 96 62 97
REMARK H PARENT 20 6 14 22 14 23 25 31 84 50 52 61
REMARK Flexibility Score: inf
ROOT
ATOM      1  C   UNL A   1      37.393  21.359  24.646  1.00  0.00     0.023 C 
ENDROOT
BRANCH   1   2
ATOM      2  C   UNL A   1      35.869  21.227  24.601  1.00  0.00     0.116 C 
BRANCH   2   3
ATOM      3  N   UNL A   1      35.368  21.069  25.935  1.00  0.00    -0.351 N 
ATOM      4  C   UNL A   1      34.234  21.529  26.502  1.00  0.00     0.281 C 
ATOM      5  O   UNL A   1      34.219  21.453  27.739  1.00  0.00    -0.268 OA
ATOM      6  H   UNL A   1      35.943  20.539  26.533  1.00  0.00     0.163 HD
BRANCH   4   7
ATOM      7  C   UNL A   1      32.974  22.013  25.675  1.00  0.00     0.178 C 
ATOM      8  C   UNL A   1      33.231  22.860  24.388  1.00  0.00     0.061 C 
ATOM      9  C   UNL A   1      33.922  24.097  24.946  1.00  0.00     0.011 C 
ATOM     10  C   UNL A   1      33.193  24.367  26.247  1.00  0.00     0.008 C 
ATOM     11  C   UNL A   1      32.366  23.104  26.568  1.00  0.00     0.079 C 
BRANCH   8  12
ATOM     12  C   UNL A   1      32.004  23.251  23.468  1.00  0.00     0.022 C 
BRANCH  12  13
ATOM     13  C   UNL A   1      31.651  24.694  22.997  1.00  0.00     0.080 C 
BRANCH  13  14
ATOM     14  S   UNL A   1      30.308  25.585  23.872  1.00  0.00    -0.065 SA
BRANCH  14  15
ATOM     15  C   UNL A   1      30.361  27.206  23.229  1.00  0.00     0.276 A 
ATOM     16  C   UNL A   1      29.059  30.468  23.454  1.00  0.00     0.113 C 
ATOM     17  C   UNL A   1      29.806  29.262  23.041  1.00  0.00     0.214 A 
ATOM     18  N   UNL A   1      30.227  28.883  21.851  1.00  0.00    -0.112 NA
ATOM     19  O   UNL A   1      29.963  28.283  23.984  1.00  0.00    -0.416 OA
ATOM     20  N   UNL A   1      30.607  27.550  21.980  1.00  0.00    -0.101 NA
ENDBRANCH  14  15
ENDBRANCH  13  14
ENDBRANCH  12  13
ENDBRANCH   8  12
BRANCH   7  21
ATOM     21  N   UNL A   1      32.171  20.831  25.307  1.00  0.00    -0.331 N 
ATOM     22  H   UNL A   1      31.426  21.149  24.687  1.00  0.00     0.347 HD
ATOM     23  H   UNL A   1      31.865  20.440  26.198  1.00  0.00     0.347 HD
BRANCH  21  24
ATOM     24  C   UNL A   1      32.855  19.723  24.634  1.00  0.00     0.176 C 
ATOM     25  C   UNL A   1      32.747  18.424  25.429  1.00  0.00     0.075 C 
ATOM     26  C   UNL A   1      32.174  19.550  23.270  1.00  0.00     0.075 C 
ENDBRANCH  21  24
ENDBRANCH   7  21
ENDBRANCH   4   7
ENDBRANCH   2   3
ENDBRANCH   1   2
BRANCH   1  27
ATOM     27  C   UNL A   1      38.135  20.026  24.828  1.00  0.00     0.023 C 
BRANCH  27  28
ATOM     28  C   UNL A   1      38.845  19.870  26.167  1.00  0.00     0.116 C 
BRANCH  28  29
ATOM     29  N   UNL A   1      40.043  19.052  26.059  1.00  0.00    -0.352 N 
ATOM     30  C   UNL A   1      41.358  19.444  26.123  1.00  0.00     0.251 C 
ATOM     31  H   UNL A   1      39.892  18.089  25.923  1.00  0.00     0.163 HD
ATOM     32  O   UNL A   1      42.255  18.659  25.870  1.00  0.00    -0.269 OA
BRANCH  30  33
ATOM     33  C   UNL A   1      41.652  20.846  26.475  1.00  0.00     0.039 A 
ATOM     34  C   UNL A   1      42.213  21.122  27.722  1.00  0.00     0.014 A 
ATOM     35  C   UNL A   1      41.427  21.867  25.546  1.00  0.00     0.014 A 
ATOM     36  C   UNL A   1      42.601  22.427  28.021  1.00  0.00     0.010 A 
ATOM     37  C   UNL A   1      41.886  23.149  25.817  1.00  0.00     0.010 A 
ATOM     38  C   UNL A   1      42.470  23.443  27.059  1.00  0.00    -0.014 A 
BRANCH  38  39
ATOM     39  C   UNL A   1      42.940  24.823  27.332  1.00  0.00     0.031 A 
ATOM     40  C   UNL A   1      42.019  25.812  27.991  1.00  0.00     0.074 A 
ATOM     41  C   UNL A   1      44.164  25.203  26.917  1.00  0.00     0.049 A 
ATOM     42  N   UNL A   1      42.224  27.074  28.263  1.00  0.00    -0.248 NA
ATOM     43  C   UNL A   1      40.679  25.329  28.369  1.00  0.00     0.031 C 
ATOM     44  C   UNL A   1      45.119  24.352  26.200  1.00  0.00     0.029 A 
ATOM     45  N   UNL A   1      44.808  26.411  27.016  1.00  0.00    -0.354 N 
ATOM     46  C   UNL A   1      41.037  27.542  28.813  1.00  0.00     0.074 A 
ATOM     47  C   UNL A   1      40.100  26.440  28.796  1.00  0.00     0.031 C 
ATOM     48  C   UNL A   1      46.227  25.061  25.934  1.00  0.00     0.029 A 
ATOM     49  C   UNL A   1      46.051  26.423  26.428  1.00  0.00     0.049 A 
ATOM     50  H   UNL A   1      44.416  27.195  27.464  1.00  0.00     0.167 HD
ATOM     51  C   UNL A   1      40.762  28.766  29.317  1.00  0.00     0.034 A 
ATOM     52  C   UNL A   1      46.944  27.424  26.296  1.00  0.00     0.034 A 
ATOM     53  C   UNL A   1      41.709  29.846  29.363  1.00  0.00     0.049 A 
ATOM     54  C   UNL A   1      46.619  28.770  26.884  1.00  0.00     0.074 A 
ATOM     55  C   UNL A   1      41.556  31.102  29.920  1.00  0.00     0.029 A 
ATOM     56  N   UNL A   1      42.986  29.800  28.825  1.00  0.00    -0.354 N 
ATOM     57  N   UNL A   1      45.547  29.150  27.536  1.00  0.00    -0.248 NA
ATOM     58  C   UNL A   1      47.642  29.818  26.750  1.00  0.00     0.031 C 
ATOM     59  C   UNL A   1      42.731  31.826  29.695  1.00  0.00     0.029 A 
ATOM     60  C   UNL A   1      43.629  31.008  29.028  1.00  0.00     0.049 A 
ATOM     61  H   UNL A   1      43.378  29.021  28.366  1.00  0.00     0.167 HD
ATOM     62  C   UNL A   1      45.782  30.463  27.925  1.00  0.00     0.074 A 
ATOM     63  C   UNL A   1      47.107  30.808  27.452  1.00  0.00     0.031 C 
ATOM     64  C   UNL A   1      44.970  31.314  28.601  1.00  0.00     0.034 A 
BRANCH  51  65
ATOM     65  C   UNL A   1      39.393  28.988  29.909  1.00  0.00     0.023 A 
ATOM     66  C   UNL A   1      39.115  28.521  31.210  1.00  0.00     0.012 A 
ATOM     67  C   UNL A   1      38.403  29.699  29.204  1.00  0.00     0.148 A 
ATOM     68  C   UNL A   1      37.862  28.725  31.787  1.00  0.00     0.002 A 
ATOM     69  C   UNL A   1      37.172  29.940  29.805  1.00  0.00     0.091 A 
ATOM     70  F   UNL A   1      38.678  30.118  27.961  1.00  0.00    -0.205 F 
ATOM     71  C   UNL A   1      36.896  29.443  31.089  1.00  0.00     0.022 A 
BRANCH  69  72
ATOM     72  S   UNL A   1      35.889  30.926  29.026  1.00  0.00     0.127 S 
ATOM     73  O   UNL A   1      35.129  31.391  30.185  1.00  0.00    -0.237 OA
ATOM     74  O   UNL A   1      36.667  31.964  28.350  1.00  0.00    -0.237 OA
ATOM     75  O   UNL A   1      35.174  30.024  28.133  1.00  0.00    -0.744 OA
ENDBRANCH  69  72
ENDBRANCH  51  65
BRANCH  52  76
ATOM     76  C   UNL A   1      48.257  27.175  25.636  1.00  0.00     0.023 A 
ATOM     77  C   UNL A   1      49.333  26.682  26.400  1.00  0.00     0.012 A 
ATOM     78  C   UNL A   1      48.446  27.412  24.261  1.00  0.00     0.148 A 
ATOM     79  C   UNL A   1      50.583  26.469  25.817  1.00  0.00     0.002 A 
ATOM     80  C   UNL A   1      49.677  27.144  23.674  1.00  0.00     0.091 A 
ATOM     81  F   UNL A   1      47.413  27.889  23.551  1.00  0.00    -0.205 F 
ATOM     82  C   UNL A   1      50.753  26.691  24.454  1.00  0.00     0.022 A 
BRANCH  80  83
ATOM     83  S   UNL A   1      49.952  27.278  21.904  1.00  0.00     0.127 S 
ATOM     84  O   UNL A   1      51.355  26.889  21.789  1.00  0.00    -0.237 OA
ATOM     85  O   UNL A   1      48.996  26.305  21.375  1.00  0.00    -0.237 OA
ATOM     86  O   UNL A   1      49.649  28.662  21.564  1.00  0.00    -0.744 OA
ENDBRANCH  80  83
ENDBRANCH  52  76
BRANCH  64  87
ATOM     87  C   UNL A   1      45.503  32.686  28.917  1.00  0.00     0.023 A 
ATOM     88  C   UNL A   1      46.397  32.864  29.992  1.00  0.00     0.012 A 
ATOM     89  C   UNL A   1      45.176  33.786  28.099  1.00  0.00     0.148 A 
ATOM     90  C   UNL A   1      46.932  34.123  30.267  1.00  0.00     0.002 A 
ATOM     91  C   UNL A   1      45.753  35.025  28.346  1.00  0.00     0.091 A 
ATOM     92  F   UNL A   1      44.310  33.597  27.092  1.00  0.00    -0.205 F 
ATOM     93  C   UNL A   1      46.620  35.199  29.438  1.00  0.00     0.022 A 
BRANCH  91  94
ATOM     94  S   UNL A   1      45.490  36.442  27.274  1.00  0.00     0.127 S 
ATOM     95  O   UNL A   1      45.702  37.556  28.198  1.00  0.00    -0.237 OA
ATOM     96  O   UNL A   1      46.542  36.271  26.272  1.00  0.00    -0.237 OA
ATOM     97  O   UNL A   1      44.135  36.310  26.757  1.00  0.00    -0.744 OA
ENDBRANCH  91  94
ENDBRANCH  64  87
ENDBRANCH  38  39
ENDBRANCH  30  33
ENDBRANCH  28  29
ENDBRANCH  27  28
ENDBRANCH   1  27
TORSDOF 20
ENDMDL
MODEL 3
REMARK VINA RESULT:     -10.2      1.770      7.717
REMARK SMILES Cc1nnc(SCC[C@H]2CCC[C@]2([NH2+]C(C)C)C(=O)NCCCCNC(=O)c2ccc(-c3c4nc(c(-c5cccc(S(=O)(=O)[O-])c5F)c5ccc([nH]5)c(-c5cccc(S(=O)(=O)[O-])c5F)c5nc(c(-c6cccc(S(=O)(=O)[O-])c6F)c6ccc3[nH]6)C=C5)C=C4)cc2)o1
REMARK SMILES IDX 22 1 21 2 20 3 18 4 19 5 13 7 9 8 10 9 11 10 12 11 8 12 7 13
REMARK SMILES IDX 6 14 5 15 1 16 2 17 3 18 91 19 4 20 14 21 15 24 16 25 17 26
REMARK SMILES IDX 23 27 24 28 25 29 26 30 27 32 28 33 29 34 90 35 30 36 89 37
REMARK SMILES IDX 31 38 32 39 33 40 83 41 34 42 88 43 82 44 84 45 35 46 87 47
REMARK SMILES IDX 81 48 80 49 36 51 68 52 48 53 67 54 49 55 52 56 66 57 85 58
REMARK SMILES IDX 50 59 51 60 65 62 86 63 53 64 37 65 38 66 46 67 39 68 41 69
REMARK SMILES IDX 47 70 40 71 42 72 43 73 44 74 45 75 69 76 70 77 78 78 71 79
REMARK SMILES IDX 73 80 79 81 72 82 74 83 75 84 76 85 77 86 54 87 55 88 63 89
REMARK SMILES IDX 56 90 58 91 64 92 57 93 59 94 60 95 61 96 62 97
REMARK H PARENT 20 6 14 22 14 23 25 31 84 50 52 61
REMARK Flexibility Score: inf
ROOT
ATOM      1  C   UNL A   1      37.044  21.683  24.598  1.00  0.00     0.023 C 
ENDROOT
BRANCH   1   2
ATOM      2  C   UNL A   1      36.633  22.575  25.772  1.00  0.00     0.116 C 
BRANCH   2   3
ATOM      3  N   UNL A   1      35.670  21.882  26.579  1.00  0.00    -0.351 N 
ATOM      4  C   UNL A   1      34.323  21.945  26.579  1.00  0.00     0.281 C 
ATOM      5  O   UNL A   1      33.793  21.430  27.574  1.00  0.00    -0.268 OA
ATOM      6  H   UNL A   1      36.055  21.259  27.237  1.00  0.00     0.163 HD
BRANCH   4   7
ATOM      7  C   UNL A   1      33.472  22.512  25.372  1.00  0.00     0.178 C 
ATOM      8  C   UNL A   1      33.814  23.943  24.849  1.00  0.00     0.061 C 
ATOM      9  C   UNL A   1      33.526  24.812  26.067  1.00  0.00     0.011 C 
ATOM     10  C   UNL A   1      32.284  24.189  26.673  1.00  0.00     0.008 C 
ATOM     11  C   UNL A   1      32.108  22.805  26.012  1.00  0.00     0.079 C 
BRANCH   8  12
ATOM     12  C   UNL A   1      33.072  24.490  23.562  1.00  0.00     0.022 C 
BRANCH  12  13
ATOM     13  C   UNL A   1      33.367  25.848  22.857  1.00  0.00     0.080 C 
BRANCH  13  14
ATOM     14  S   UNL A   1      31.954  26.960  22.496  1.00  0.00    -0.065 SA
BRANCH  14  15
ATOM     15  C   UNL A   1      31.924  28.084  23.831  1.00  0.00     0.276 A 
ATOM     16  C   UNL A   1      31.852  28.442  27.331  1.00  0.00     0.113 C 
ATOM     17  C   UNL A   1      31.853  28.701  25.876  1.00  0.00     0.214 A 
ATOM     18  N   UNL A   1      31.288  29.667  25.180  1.00  0.00    -0.112 NA
ATOM     19  O   UNL A   1      32.372  27.719  25.078  1.00  0.00    -0.416 OA
ATOM     20  N   UNL A   1      31.354  29.274  23.846  1.00  0.00    -0.101 NA
ENDBRANCH  14  15
ENDBRANCH  13  14
ENDBRANCH  12  13
ENDBRANCH   8  12
BRANCH   7  21
ATOM     21  N   UNL A   1      33.567  21.565  24.244  1.00  0.00    -0.331 N 
ATOM     22  H   UNL A   1      34.392  20.986  24.399  1.00  0.00     0.347 HD
ATOM     23  H   UNL A   1      33.595  22.156  23.413  1.00  0.00     0.347 HD
BRANCH  21  24
ATOM     24  C   UNL A   1      32.436  20.661  24.014  1.00  0.00     0.176 C 
ATOM     25  C   UNL A   1      32.092  20.550  22.531  1.00  0.00     0.075 C 
ATOM     26  C   UNL A   1      32.857  19.286  24.548  1.00  0.00     0.075 C 
ENDBRANCH  21  24
ENDBRANCH   7  21
ENDBRANCH   4   7
ENDBRANCH   2   3
ENDBRANCH   1   2
BRANCH   1  27
ATOM     27  C   UNL A   1      37.977  20.526  24.985  1.00  0.00     0.023 C 
BRANCH  27  28
ATOM     28  C   UNL A   1      39.191  20.934  25.809  1.00  0.00     0.116 C 
BRANCH  28  29
ATOM     29  N   UNL A   1      40.074  19.809  26.078  1.00  0.00    -0.352 N 
ATOM     30  C   UNL A   1      41.411  19.823  26.392  1.00  0.00     0.251 C 
ATOM     31  H   UNL A   1      39.657  18.918  26.030  1.00  0.00     0.163 HD
ATOM     32  O   UNL A   1      42.049  18.787  26.447  1.00  0.00    -0.269 OA
BRANCH  30  33
ATOM     33  C   UNL A   1      42.059  21.127  26.627  1.00  0.00     0.039 A 
ATOM     34  C   UNL A   1      42.198  22.011  25.556  1.00  0.00     0.014 A 
ATOM     35  C   UNL A   1      42.466  21.489  27.915  1.00  0.00     0.014 A 
ATOM     36  C   UNL A   1      42.702  23.290  25.789  1.00  0.00     0.010 A 
ATOM     37  C   UNL A   1      42.895  22.787  28.155  1.00  0.00     0.010 A 
ATOM     38  C   UNL A   1      43.024  23.697  27.095  1.00  0.00    -0.014 A 
BRANCH  38  39
ATOM     39  C   UNL A   1      43.496  25.075  27.374  1.00  0.00     0.031 A 
ATOM     40  C   UNL A   1      42.531  26.111  27.879  1.00  0.00     0.074 A 
ATOM     41  C   UNL A   1      44.772  25.410  27.098  1.00  0.00     0.049 A 
ATOM     42  N   UNL A   1      42.737  27.377  28.128  1.00  0.00    -0.248 NA
ATOM     43  C   UNL A   1      41.142  25.675  28.108  1.00  0.00     0.031 C 
ATOM     44  C   UNL A   1      45.782  24.509  26.535  1.00  0.00     0.029 A 
ATOM     45  N   UNL A   1      45.433  26.605  27.231  1.00  0.00    -0.354 N 
ATOM     46  C   UNL A   1      41.505  27.895  28.510  1.00  0.00     0.074 A 
ATOM     47  C   UNL A   1      40.547  26.815  28.419  1.00  0.00     0.031 C 
ATOM     48  C   UNL A   1      46.934  25.181  26.381  1.00  0.00     0.029 A 
ATOM     49  C   UNL A   1      46.738  26.565  26.800  1.00  0.00     0.049 A 
ATOM     50  H   UNL A   1      45.012  27.415  27.599  1.00  0.00     0.167 HD
ATOM     51  C   UNL A   1      41.206  29.145  28.933  1.00  0.00     0.034 A 
ATOM     52  C   UNL A   1      47.668  27.538  26.742  1.00  0.00     0.034 A 
ATOM     53  C   UNL A   1      42.170  30.203  29.055  1.00  0.00     0.049 A 
ATOM     54  C   UNL A   1      47.313  28.914  27.236  1.00  0.00     0.074 A 
ATOM     55  C   UNL A   1      41.986  31.483  29.543  1.00  0.00     0.029 A 
ATOM     56  N   UNL A   1      43.501  30.105  28.680  1.00  0.00    -0.354 N 
ATOM     57  N   UNL A   1      46.180  29.345  27.738  1.00  0.00    -0.248 NA
ATOM     58  C   UNL A   1      48.373  29.931  27.190  1.00  0.00     0.031 C 
ATOM     59  C   UNL A   1      43.200  32.169  29.438  1.00  0.00     0.029 A 
ATOM     60  C   UNL A   1      44.149  31.304  28.916  1.00  0.00     0.049 A 
ATOM     61  H   UNL A   1      43.924  29.300  28.300  1.00  0.00     0.167 HD
ATOM     62  C   UNL A   1      46.403  30.666  28.105  1.00  0.00     0.074 A 
ATOM     63  C   UNL A   1      47.785  30.960  27.785  1.00  0.00     0.031 C 
ATOM     64  C   UNL A   1      45.540  31.561  28.645  1.00  0.00     0.034 A 
BRANCH  51  65
ATOM     65  C   UNL A   1      39.782  29.421  29.344  1.00  0.00     0.023 A 
ATOM     66  C   UNL A   1      38.793  29.591  28.353  1.00  0.00     0.012 A 
ATOM     67  C   UNL A   1      39.412  29.460  30.702  1.00  0.00     0.148 A 
ATOM     68  C   UNL A   1      37.466  29.834  28.705  1.00  0.00     0.002 A 
ATOM     69  C   UNL A   1      38.078  29.654  31.045  1.00  0.00     0.091 A 
ATOM     70  F   UNL A   1      40.368  29.316  31.630  1.00  0.00    -0.205 F 
ATOM     71  C   UNL A   1      37.108  29.854  30.050  1.00  0.00     0.022 A 
BRANCH  69  72
ATOM     72  S   UNL A   1      37.499  29.615  32.744  1.00  0.00     0.127 S 
ATOM     73  O   UNL A   1      37.483  28.178  33.017  1.00  0.00    -0.237 OA
ATOM     74  O   UNL A   1      38.548  30.356  33.443  1.00  0.00    -0.237 OA
ATOM     75  O   UNL A   1      36.195  30.263  32.741  1.00  0.00    -0.744 OA
ENDBRANCH  69  72
ENDBRANCH  51  65
BRANCH  52  76
ATOM     76  C   UNL A   1      49.045  27.232  26.257  1.00  0.00     0.023 A 
ATOM     77  C   UNL A   1      49.279  27.112  24.873  1.00  0.00     0.012 A 
ATOM     78  C   UNL A   1      50.121  27.071  27.150  1.00  0.00     0.148 A 
ATOM     79  C   UNL A   1      50.549  26.796  24.389  1.00  0.00     0.002 A 
ATOM     80  C   UNL A   1      51.396  26.812  26.660  1.00  0.00     0.091 A 
ATOM     81  F   UNL A   1      49.877  27.180  28.464  1.00  0.00    -0.205 F 
ATOM     82  C   UNL A   1      51.609  26.655  25.281  1.00  0.00     0.022 A 
BRANCH  80  83
ATOM     83  S   UNL A   1      52.842  26.741  27.722  1.00  0.00     0.127 S 
ATOM     84  O   UNL A   1      52.318  26.046  28.895  1.00  0.00    -0.237 OA
ATOM     85  O   UNL A   1      53.776  25.961  26.909  1.00  0.00    -0.237 OA
ATOM     86  O   UNL A   1      53.243  28.126  27.933  1.00  0.00    -0.744 OA
ENDBRANCH  80  83
ENDBRANCH  52  76
BRANCH  64  87
ATOM     87  C   UNL A   1      46.069  32.932  28.974  1.00  0.00     0.023 A 
ATOM     88  C   UNL A   1      46.744  33.153  30.191  1.00  0.00     0.012 A 
ATOM     89  C   UNL A   1      45.963  33.982  28.040  1.00  0.00     0.148 A 
ATOM     90  C   UNL A   1      47.277  34.408  30.487  1.00  0.00     0.002 A 
ATOM     91  C   UNL A   1      46.543  35.213  28.318  1.00  0.00     0.091 A 
ATOM     92  F   UNL A   1      45.302  33.755  26.895  1.00  0.00    -0.205 F 
ATOM     93  C   UNL A   1      47.188  35.433  29.547  1.00  0.00     0.022 A 
BRANCH  91  94
ATOM     94  S   UNL A   1      46.566  36.560  27.129  1.00  0.00     0.127 S 
ATOM     95  O   UNL A   1      46.699  35.838  25.865  1.00  0.00    -0.237 OA
ATOM     96  O   UNL A   1      45.260  37.183  27.343  1.00  0.00    -0.237 OA
ATOM     97  O   UNL A   1      47.701  37.397  27.492  1.00  0.00    -0.744 OA
ENDBRANCH  91  94
ENDBRANCH  64  87
ENDBRANCH  38  39
ENDBRANCH  30  33
ENDBRANCH  28  29
ENDBRANCH  27  28
ENDBRANCH   1  27
TORSDOF 20
ENDMDL
