MODEL 1
REMARK VINA RESULT:     -13.2      0.000      0.000
REMARK SMILES COc1ccc(-c2ccc(/C=C3\SC(=S)N([C@H](Cc4ccccc4)C(=O)NCCCCNC(=O)c4ccc(-c5c6nc(c(-c7cccc(S(=O)(=O)[O-])c7F)c7ccc([nH]7)c(-c7cccc(S(=O)(=O)[O-])c7F)c7nc(c(-c8cccc(S(=O)(=O)[O-])c8F)c8ccc5[nH]8)C=C7)C=C6)cc4)C3=O)o2)cc1
REMARK SMILES IDX 29 1 28 2 27 3 25 4 26 5 17 7 16 8 11 9 12 10 13 11 98 12
REMARK SMILES IDX 14 13 99 14 15 15 10 16 7 17 8 18 100 19 9 20 6 21 3 22 4 23
REMARK SMILES IDX 102 24 5 25 101 26 2 27 1 28 18 29 19 30 20 31 24 32 21 33
REMARK SMILES IDX 23 34 22 35 30 36 31 37 32 38 33 39 34 41 35 42 36 43 97 44
REMARK SMILES IDX 37 45 96 46 38 47 39 48 40 49 90 50 41 51 95 52 89 53 91 54
REMARK SMILES IDX 42 55 94 56 88 57 87 58 43 60 75 61 55 62 74 63 56 64 59 65
REMARK SMILES IDX 73 66 92 67 57 68 58 69 72 71 93 72 60 73 44 74 45 75 53 76
REMARK SMILES IDX 46 77 48 78 54 79 47 80 49 81 50 82 51 83 52 84 76 85 77 86
REMARK SMILES IDX 85 87 78 88 80 89 86 90 79 91 81 92 82 93 83 94 84 95 61 96
REMARK SMILES IDX 62 97 70 98 63 99 65 100 71 101 64 102 66 103 67 104 68 105
REMARK SMILES IDX 69 106
REMARK H PARENT 27 6 32 40 91 59 59 70
REMARK Flexibility Score: inf
ROOT
ATOM      1  C   UNL A   1      31.972  29.678  27.262  1.00  0.00     0.023 C 
ENDROOT
BRANCH   1   2
ATOM      2  C   UNL A   1      32.152  28.553  26.247  1.00  0.00     0.116 C 
BRANCH   2   3
ATOM      3  N   UNL A   1      31.312  27.419  26.554  1.00  0.00    -0.354 N 
ATOM      4  C   UNL A   1      30.619  26.593  25.730  1.00  0.00     0.243 C 
ATOM      5  O   UNL A   1      29.775  25.860  26.258  1.00  0.00    -0.273 OA
ATOM      6  H   UNL A   1      31.230  27.213  27.512  1.00  0.00     0.163 HD
BRANCH   4   7
ATOM      7  C   UNL A   1      30.794  26.573  24.195  1.00  0.00     0.185 C 
BRANCH   7   8
ATOM      8  N   UNL A   1      31.711  25.510  23.708  1.00  0.00    -0.280 N 
ATOM      9  C   UNL A   1      32.260  22.037  24.018  1.00  0.00     0.068 C 
ATOM     10  C   UNL A   1      32.469  23.298  23.631  1.00  0.00     0.084 C 
ATOM     11  S   UNL A   1      33.904  24.170  23.347  1.00  0.00    -0.054 SA
ATOM     12  C   UNL A   1      31.307  24.208  23.510  1.00  0.00     0.267 C 
ATOM     13  C   UNL A   1      33.068  25.718  23.506  1.00  0.00     0.149 C 
ATOM     14  O   UNL A   1      30.187  23.792  23.269  1.00  0.00    -0.268 OA
ATOM     15  S   UNL A   1      33.921  27.148  23.435  1.00  0.00    -0.052 S 
BRANCH   9  16
ATOM     16  C   UNL A   1      33.253  21.070  24.307  1.00  0.00     0.128 A 
ATOM     17  C   UNL A   1      35.306  20.369  24.805  1.00  0.00     0.134 A 
ATOM     18  C   UNL A   1      34.549  19.234  24.638  1.00  0.00     0.051 A 
ATOM     19  O   UNL A   1      34.539  21.465  24.575  1.00  0.00    -0.457 OA
ATOM     20  C   UNL A   1      33.238  19.679  24.330  1.00  0.00     0.051 A 
BRANCH  17  21
ATOM     21  C   UNL A   1      36.681  20.652  25.171  1.00  0.00     0.017 A 
ATOM     22  C   UNL A   1      39.370  21.167  25.818  1.00  0.00     0.118 A 
ATOM     23  C   UNL A   1      38.990  19.918  25.330  1.00  0.00     0.047 A 
ATOM     24  C   UNL A   1      38.404  22.161  25.986  1.00  0.00     0.047 A 
ATOM     25  C   UNL A   1      37.655  19.657  25.022  1.00  0.00     0.016 A 
ATOM     26  C   UNL A   1      37.065  21.906  25.657  1.00  0.00     0.016 A 
BRANCH  22  27
ATOM     27  O   UNL A   1      40.709  21.298  26.060  1.00  0.00    -0.497 OA
ATOM     28  C   UNL A   1      41.260  20.449  27.055  1.00  0.00     0.278 C 
ENDBRANCH  22  27
ENDBRANCH  17  21
ENDBRANCH   9  16
ENDBRANCH   7   8
BRANCH   7  29
ATOM     29  C   UNL A   1      30.982  28.025  23.677  1.00  0.00     0.071 C 
BRANCH  29  30
ATOM     30  C   UNL A   1      29.739  28.883  23.539  1.00  0.00    -0.045 A 
ATOM     31  C   UNL A   1      28.507  28.309  23.189  1.00  0.00     0.004 A 
ATOM     32  C   UNL A   1      29.805  30.274  23.672  1.00  0.00     0.004 A 
ATOM     33  C   UNL A   1      27.360  29.086  23.033  1.00  0.00     0.000 A 
ATOM     34  C   UNL A   1      28.663  31.060  23.473  1.00  0.00     0.000 A 
ATOM     35  C   UNL A   1      27.440  30.465  23.170  1.00  0.00     0.000 A 
ENDBRANCH  29  30
ENDBRANCH   7  29
ENDBRANCH   4   7
ENDBRANCH   2   3
ENDBRANCH   1   2
BRANCH   1  36
ATOM     36  C   UNL A   1      32.032  31.078  26.655  1.00  0.00     0.023 C 
BRANCH  36  37
ATOM     37  C   UNL A   1      33.120  31.979  27.230  1.00  0.00     0.116 C 
BRANCH  37  38
ATOM     38  N   UNL A   1      32.674  33.350  27.447  1.00  0.00    -0.352 N 
ATOM     39  C   UNL A   1      33.124  34.253  28.380  1.00  0.00     0.251 C 
ATOM     40  H   UNL A   1      31.959  33.669  26.850  1.00  0.00     0.163 HD
ATOM     41  O   UNL A   1      32.566  35.337  28.520  1.00  0.00    -0.269 OA
BRANCH  39  42
ATOM     42  C   UNL A   1      34.269  33.883  29.234  1.00  0.00     0.039 A 
ATOM     43  C   UNL A   1      34.044  33.099  30.366  1.00  0.00     0.014 A 
ATOM     44  C   UNL A   1      35.567  34.253  28.870  1.00  0.00     0.014 A 
ATOM     45  C   UNL A   1      35.133  32.618  31.094  1.00  0.00     0.010 A 
ATOM     46  C   UNL A   1      36.650  33.711  29.552  1.00  0.00     0.010 A 
ATOM     47  C   UNL A   1      36.444  32.885  30.668  1.00  0.00    -0.014 A 
BRANCH  47  48
ATOM     48  C   UNL A   1      37.618  32.286  31.352  1.00  0.00     0.031 A 
ATOM     49  C   UNL A   1      38.366  31.148  30.714  1.00  0.00     0.074 A 
ATOM     50  C   UNL A   1      37.942  32.698  32.594  1.00  0.00     0.049 A 
ATOM     51  N   UNL A   1      39.366  30.453  31.188  1.00  0.00    -0.248 NA
ATOM     52  C   UNL A   1      37.913  30.716  29.381  1.00  0.00     0.031 C 
ATOM     53  C   UNL A   1      37.237  33.732  33.355  1.00  0.00     0.029 A 
ATOM     54  N   UNL A   1      38.929  32.273  33.449  1.00  0.00    -0.354 N 
ATOM     55  C   UNL A   1      39.638  29.480  30.234  1.00  0.00     0.074 A 
ATOM     56  C   UNL A   1      38.676  29.653  29.168  1.00  0.00     0.031 C 
ATOM     57  C   UNL A   1      37.813  33.863  34.560  1.00  0.00     0.029 A 
ATOM     58  C   UNL A   1      38.909  32.905  34.671  1.00  0.00     0.049 A 
ATOM     59  H   UNL A   1      39.588  31.583  33.211  1.00  0.00     0.167 HD
ATOM     60  C   UNL A   1      40.619  28.548  30.230  1.00  0.00     0.034 A 
ATOM     61  C   UNL A   1      39.682  32.728  35.761  1.00  0.00     0.034 A 
ATOM     62  C   UNL A   1      41.604  28.412  31.268  1.00  0.00     0.049 A 
ATOM     63  C   UNL A   1      40.793  31.715  35.711  1.00  0.00     0.074 A 
ATOM     64  C   UNL A   1      42.699  27.567  31.309  1.00  0.00     0.029 A 
ATOM     65  N   UNL A   1      41.610  29.133  32.452  1.00  0.00    -0.354 N 
ATOM     66  N   UNL A   1      41.144  30.923  34.727  1.00  0.00    -0.248 NA
ATOM     67  C   UNL A   1      41.639  31.596  36.908  1.00  0.00     0.031 C 
ATOM     68  C   UNL A   1      43.357  27.764  32.527  1.00  0.00     0.029 A 
ATOM     69  C   UNL A   1      42.684  28.747  33.236  1.00  0.00     0.049 A 
ATOM     70  H   UNL A   1      40.949  29.820  32.698  1.00  0.00     0.167 HD
ATOM     71  C   UNL A   1      42.267  30.236  35.171  1.00  0.00     0.074 A 
ATOM     72  C   UNL A   1      42.553  30.722  36.506  1.00  0.00     0.031 C 
ATOM     73  C   UNL A   1      42.987  29.277  34.540  1.00  0.00     0.034 A 
BRANCH  60  74
ATOM     74  C   UNL A   1      40.714  27.639  29.033  1.00  0.00     0.023 A 
ATOM     75  C   UNL A   1      39.827  26.549  28.919  1.00  0.00     0.012 A 
ATOM     76  C   UNL A   1      41.635  27.890  27.998  1.00  0.00     0.148 A 
ATOM     77  C   UNL A   1      39.875  25.705  27.811  1.00  0.00     0.002 A 
ATOM     78  C   UNL A   1      41.649  27.070  26.876  1.00  0.00     0.091 A 
ATOM     79  F   UNL A   1      42.487  28.917  28.135  1.00  0.00    -0.205 F 
ATOM     80  C   UNL A   1      40.778  25.972  26.786  1.00  0.00     0.022 A 
BRANCH  78  81
ATOM     81  S   UNL A   1      42.719  27.376  25.466  1.00  0.00     0.127 S 
ATOM     82  O   UNL A   1      42.532  26.154  24.684  1.00  0.00    -0.237 OA
ATOM     83  O   UNL A   1      42.120  28.574  24.877  1.00  0.00    -0.237 OA
ATOM     84  O   UNL A   1      44.055  27.572  26.011  1.00  0.00    -0.744 OA
ENDBRANCH  78  81
ENDBRANCH  60  74
BRANCH  61  85
ATOM     85  C   UNL A   1      39.474  33.580  36.966  1.00  0.00     0.023 A 
ATOM     86  C   UNL A   1      39.972  34.898  36.972  1.00  0.00     0.012 A 
ATOM     87  C   UNL A   1      38.766  33.108  38.088  1.00  0.00     0.148 A 
ATOM     88  C   UNL A   1      39.793  35.721  38.084  1.00  0.00     0.002 A 
ATOM     89  C   UNL A   1      38.544  33.953  39.171  1.00  0.00     0.091 A 
ATOM     90  F   UNL A   1      38.311  31.848  38.069  1.00  0.00    -0.205 F 
ATOM     91  C   UNL A   1      39.072  35.253  39.179  1.00  0.00     0.022 A 
BRANCH  89  92
ATOM     92  S   UNL A   1      37.513  33.478  40.564  1.00  0.00     0.127 S 
ATOM     93  O   UNL A   1      36.350  32.902  39.893  1.00  0.00    -0.237 OA
ATOM     94  O   UNL A   1      38.366  32.512  41.257  1.00  0.00    -0.237 OA
ATOM     95  O   UNL A   1      37.272  34.707  41.308  1.00  0.00    -0.744 OA
ENDBRANCH  89  92
ENDBRANCH  61  85
BRANCH  73  96
ATOM     96  C   UNL A   1      44.174  28.701  35.266  1.00  0.00     0.023 A 
ATOM     97  C   UNL A   1      45.455  29.248  35.054  1.00  0.00     0.012 A 
ATOM     98  C   UNL A   1      44.009  27.676  36.219  1.00  0.00     0.148 A 
ATOM     99  C   UNL A   1      46.557  28.764  35.756  1.00  0.00     0.002 A 
ATOM    100  C   UNL A   1      45.104  27.232  36.950  1.00  0.00     0.091 A 
ATOM    101  F   UNL A   1      42.784  27.157  36.394  1.00  0.00    -0.205 F 
ATOM    102  C   UNL A   1      46.380  27.767  36.711  1.00  0.00     0.022 A 
BRANCH 100 103
ATOM    103  S   UNL A   1      44.954  26.019  38.267  1.00  0.00     0.127 S 
ATOM    104  O   UNL A   1      44.082  26.712  39.214  1.00  0.00    -0.237 OA
ATOM    105  O   UNL A   1      44.330  24.888  37.579  1.00  0.00    -0.237 OA
ATOM    106  O   UNL A   1      46.310  25.767  38.735  1.00  0.00    -0.744 OA
ENDBRANCH 100 103
ENDBRANCH  73  96
ENDBRANCH  47  48
ENDBRANCH  39  42
ENDBRANCH  37  38
ENDBRANCH  36  37
ENDBRANCH   1  36
TORSDOF 20
ENDMDL
MODEL 2
REMARK VINA RESULT:     -13.1      1.424      7.630
REMARK SMILES COc1ccc(-c2ccc(/C=C3\SC(=S)N([C@H](Cc4ccccc4)C(=O)NCCCCNC(=O)c4ccc(-c5c6nc(c(-c7cccc(S(=O)(=O)[O-])c7F)c7ccc([nH]7)c(-c7cccc(S(=O)(=O)[O-])c7F)c7nc(c(-c8cccc(S(=O)(=O)[O-])c8F)c8ccc5[nH]8)C=C7)C=C6)cc4)C3=O)o2)cc1
REMARK SMILES IDX 29 1 28 2 27 3 25 4 26 5 17 7 16 8 11 9 12 10 13 11 98 12
REMARK SMILES IDX 14 13 99 14 15 15 10 16 7 17 8 18 100 19 9 20 6 21 3 22 4 23
REMARK SMILES IDX 102 24 5 25 101 26 2 27 1 28 18 29 19 30 20 31 24 32 21 33
REMARK SMILES IDX 23 34 22 35 30 36 31 37 32 38 33 39 34 41 35 42 36 43 97 44
REMARK SMILES IDX 37 45 96 46 38 47 39 48 40 49 90 50 41 51 95 52 89 53 91 54
REMARK SMILES IDX 42 55 94 56 88 57 87 58 43 60 75 61 55 62 74 63 56 64 59 65
REMARK SMILES IDX 73 66 92 67 57 68 58 69 72 71 93 72 60 73 44 74 45 75 53 76
REMARK SMILES IDX 46 77 48 78 54 79 47 80 49 81 50 82 51 83 52 84 76 85 77 86
REMARK SMILES IDX 85 87 78 88 80 89 86 90 79 91 81 92 82 93 83 94 84 95 61 96
REMARK SMILES IDX 62 97 70 98 63 99 65 100 71 101 64 102 66 103 67 104 68 105
REMARK SMILES IDX 69 106
REMARK H PARENT 27 6 32 40 91 59 59 70
REMARK Flexibility Score: inf
ROOT
ATOM      1  C   UNL A   1      34.687  30.581  27.653  1.00  0.00     0.023 C 
ENDROOT
BRANCH   1   2
ATOM      2  C   UNL A   1      33.990  29.547  26.774  1.00  0.00     0.116 C 
BRANCH   2   3
ATOM      3  N   UNL A   1      32.991  28.808  27.510  1.00  0.00    -0.354 N 
ATOM      4  C   UNL A   1      31.784  28.331  27.113  1.00  0.00     0.243 C 
ATOM      5  O   UNL A   1      31.012  27.959  28.005  1.00  0.00    -0.273 OA
ATOM      6  H   UNL A   1      33.223  28.621  28.447  1.00  0.00     0.163 HD
BRANCH   4   7
ATOM      7  C   UNL A   1      31.323  28.291  25.639  1.00  0.00     0.185 C 
BRANCH   7   8
ATOM      8  N   UNL A   1      31.869  27.142  24.870  1.00  0.00    -0.280 N 
ATOM      9  C   UNL A   1      32.475  23.682  25.210  1.00  0.00     0.068 C 
ATOM     10  C   UNL A   1      32.472  24.892  24.648  1.00  0.00     0.084 C 
ATOM     11  S   UNL A   1      33.581  25.657  23.606  1.00  0.00    -0.054 SA
ATOM     12  C   UNL A   1      31.411  25.852  25.028  1.00  0.00     0.267 C 
ATOM     13  C   UNL A   1      32.946  27.257  24.003  1.00  0.00     0.149 C 
ATOM     14  O   UNL A   1      30.316  25.481  25.415  1.00  0.00    -0.268 OA
ATOM     15  S   UNL A   1      33.661  28.627  23.378  1.00  0.00    -0.052 S 
BRANCH   9  16
ATOM     16  C   UNL A   1      33.474  22.687  25.064  1.00  0.00     0.128 A 
ATOM     17  C   UNL A   1      34.247  20.604  24.955  1.00  0.00     0.134 A 
ATOM     18  C   UNL A   1      35.350  21.421  24.878  1.00  0.00     0.051 A 
ATOM     19  O   UNL A   1      33.129  21.360  25.099  1.00  0.00    -0.457 OA
ATOM     20  C   UNL A   1      34.857  22.750  24.938  1.00  0.00     0.051 A 
BRANCH  17  21
ATOM     21  C   UNL A   1      34.015  19.173  24.903  1.00  0.00     0.017 A 
ATOM     22  C   UNL A   1      33.497  16.410  24.773  1.00  0.00     0.118 A 
ATOM     23  C   UNL A   1      32.513  17.291  25.221  1.00  0.00     0.047 A 
ATOM     24  C   UNL A   1      34.743  16.911  24.391  1.00  0.00     0.047 A 
ATOM     25  C   UNL A   1      32.773  18.659  25.299  1.00  0.00     0.016 A 
ATOM     26  C   UNL A   1      34.998  18.288  24.449  1.00  0.00     0.016 A 
BRANCH  22  27
ATOM     27  O   UNL A   1      33.106  15.102  24.724  1.00  0.00    -0.497 OA
ATOM     28  C   UNL A   1      32.376  14.616  25.840  1.00  0.00     0.278 C 
ENDBRANCH  22  27
ENDBRANCH  17  21
ENDBRANCH   9  16
ENDBRANCH   7   8
BRANCH   7  29
ATOM     29  C   UNL A   1      31.415  29.716  25.029  1.00  0.00     0.071 C 
BRANCH  29  30
ATOM     30  C   UNL A   1      30.272  30.168  24.139  1.00  0.00    -0.045 A 
ATOM     31  C   UNL A   1      29.633  31.398  24.362  1.00  0.00     0.004 A 
ATOM     32  C   UNL A   1      29.770  29.335  23.133  1.00  0.00     0.004 A 
ATOM     33  C   UNL A   1      28.565  31.816  23.571  1.00  0.00     0.000 A 
ATOM     34  C   UNL A   1      28.669  29.735  22.366  1.00  0.00     0.000 A 
ATOM     35  C   UNL A   1      28.078  30.981  22.575  1.00  0.00     0.000 A 
ENDBRANCH  29  30
ENDBRANCH   7  29
ENDBRANCH   4   7
ENDBRANCH   2   3
ENDBRANCH   1   2
BRANCH   1  36
ATOM     36  C   UNL A   1      34.316  32.026  27.326  1.00  0.00     0.023 C 
BRANCH  36  37
ATOM     37  C   UNL A   1      32.919  32.445  27.768  1.00  0.00     0.116 C 
BRANCH  37  38
ATOM     38  N   UNL A   1      32.752  33.890  27.851  1.00  0.00    -0.352 N 
ATOM     39  C   UNL A   1      33.437  34.781  28.644  1.00  0.00     0.251 C 
ATOM     40  H   UNL A   1      32.062  34.278  27.266  1.00  0.00     0.163 HD
ATOM     41  O   UNL A   1      33.101  35.961  28.691  1.00  0.00    -0.269 OA
BRANCH  39  42
ATOM     42  C   UNL A   1      34.560  34.288  29.464  1.00  0.00     0.039 A 
ATOM     43  C   UNL A   1      34.284  33.533  30.605  1.00  0.00     0.014 A 
ATOM     44  C   UNL A   1      35.879  34.513  29.059  1.00  0.00     0.014 A 
ATOM     45  C   UNL A   1      35.335  32.934  31.301  1.00  0.00     0.010 A 
ATOM     46  C   UNL A   1      36.916  33.856  29.710  1.00  0.00     0.010 A 
ATOM     47  C   UNL A   1      36.655  33.057  30.834  1.00  0.00    -0.014 A 
BRANCH  47  48
ATOM     48  C   UNL A   1      37.776  32.332  31.484  1.00  0.00     0.031 A 
ATOM     49  C   UNL A   1      38.340  32.824  32.787  1.00  0.00     0.074 A 
ATOM     50  C   UNL A   1      38.353  31.295  30.845  1.00  0.00     0.049 A 
ATOM     51  N   UNL A   1      39.359  32.369  33.468  1.00  0.00    -0.248 NA
ATOM     52  C   UNL A   1      37.693  34.000  33.393  1.00  0.00     0.031 C 
ATOM     53  C   UNL A   1      37.953  30.779  29.533  1.00  0.00     0.029 A 
ATOM     54  N   UNL A   1      39.421  30.507  31.199  1.00  0.00    -0.354 N 
ATOM     55  C   UNL A   1      39.500  33.219  34.557  1.00  0.00     0.074 A 
ATOM     56  C   UNL A   1      38.482  34.240  34.430  1.00  0.00     0.031 C 
ATOM     57  C   UNL A   1      38.763  29.763  29.194  1.00  0.00     0.029 A 
ATOM     58  C   UNL A   1      39.755  29.571  30.247  1.00  0.00     0.049 A 
ATOM     59  H   UNL A   1      39.901  30.603  32.052  1.00  0.00     0.167 HD
ATOM     60  C   UNL A   1      40.375  33.141  35.586  1.00  0.00     0.034 A 
ATOM     61  C   UNL A   1      40.752  28.665  30.222  1.00  0.00     0.034 A 
ATOM     62  C   UNL A   1      41.352  32.097  35.734  1.00  0.00     0.049 A 
ATOM     63  C   UNL A   1      41.683  28.571  31.401  1.00  0.00     0.074 A 
ATOM     64  C   UNL A   1      42.215  31.871  36.791  1.00  0.00     0.029 A 
ATOM     65  N   UNL A   1      41.601  31.108  34.795  1.00  0.00    -0.354 N 
ATOM     66  N   UNL A   1      41.688  29.277  32.506  1.00  0.00    -0.248 NA
ATOM     67  C   UNL A   1      42.723  27.534  31.347  1.00  0.00     0.031 C 
ATOM     68  C   UNL A   1      43.001  30.756  36.482  1.00  0.00     0.029 A 
ATOM     69  C   UNL A   1      42.612  30.274  35.242  1.00  0.00     0.049 A 
ATOM     70  H   UNL A   1      41.127  31.012  33.937  1.00  0.00     0.167 HD
ATOM     71  C   UNL A   1      42.706  28.750  33.291  1.00  0.00     0.074 A 
ATOM     72  C   UNL A   1      43.282  27.649  32.544  1.00  0.00     0.031 C 
ATOM     73  C   UNL A   1      43.139  29.150  34.511  1.00  0.00     0.034 A 
BRANCH  60  74
ATOM     74  C   UNL A   1      40.275  34.182  36.670  1.00  0.00     0.023 A 
ATOM     75  C   UNL A   1      40.697  35.501  36.403  1.00  0.00     0.012 A 
ATOM     76  C   UNL A   1      39.715  33.877  37.925  1.00  0.00     0.148 A 
ATOM     77  C   UNL A   1      40.594  36.492  37.379  1.00  0.00     0.002 A 
ATOM     78  C   UNL A   1      39.576  34.879  38.877  1.00  0.00     0.091 A 
ATOM     79  F   UNL A   1      39.341  32.612  38.168  1.00  0.00    -0.205 F 
ATOM     80  C   UNL A   1      40.023  36.183  38.610  1.00  0.00     0.022 A 
BRANCH  78  81
ATOM     81  S   UNL A   1      38.782  34.602  40.465  1.00  0.00     0.127 S 
ATOM     82  O   UNL A   1      38.428  35.965  40.859  1.00  0.00    -0.237 OA
ATOM     83  O   UNL A   1      37.644  33.759  40.099  1.00  0.00    -0.237 OA
ATOM     84  O   UNL A   1      39.777  33.947  41.302  1.00  0.00    -0.744 OA
ENDBRANCH  78  81
ENDBRANCH  60  74
BRANCH  61  85
ATOM     85  C   UNL A   1      40.877  27.727  29.071  1.00  0.00     0.023 A 
ATOM     86  C   UNL A   1      40.067  26.576  29.030  1.00  0.00     0.012 A 
ATOM     87  C   UNL A   1      41.763  27.981  28.007  1.00  0.00     0.148 A 
ATOM     88  C   UNL A   1      40.159  25.679  27.965  1.00  0.00     0.002 A 
ATOM     89  C   UNL A   1      41.810  27.112  26.922  1.00  0.00     0.091 A 
ATOM     90  F   UNL A   1      42.535  29.076  28.070  1.00  0.00    -0.205 F 
ATOM     91  C   UNL A   1      41.022  25.951  26.908  1.00  0.00     0.022 A 
BRANCH  89  92
ATOM     92  S   UNL A   1      42.793  27.454  25.458  1.00  0.00     0.127 S 
ATOM     93  O   UNL A   1      42.713  26.185  24.739  1.00  0.00    -0.237 OA
ATOM     94  O   UNL A   1      42.050  28.557  24.846  1.00  0.00    -0.237 OA
ATOM     95  O   UNL A   1      44.113  27.823  25.951  1.00  0.00    -0.744 OA
ENDBRANCH  89  92
ENDBRANCH  61  85
BRANCH  73  96
ATOM     96  C   UNL A   1      44.273  28.384  35.138  1.00  0.00     0.023 A 
ATOM     97  C   UNL A   1      45.602  28.686  34.781  1.00  0.00     0.012 A 
ATOM     98  C   UNL A   1      44.028  27.424  36.140  1.00  0.00     0.148 A 
ATOM     99  C   UNL A   1      46.667  28.025  35.389  1.00  0.00     0.002 A 
ATOM    100  C   UNL A   1      45.096  26.804  36.776  1.00  0.00     0.091 A 
ATOM    101  F   UNL A   1      42.755  27.137  36.454  1.00  0.00    -0.205 F 
ATOM    102  C   UNL A   1      46.416  27.094  36.393  1.00  0.00     0.022 A 
BRANCH 100 103
ATOM    103  S   UNL A   1      44.870  25.662  38.146  1.00  0.00     0.127 S 
ATOM    104  O   UNL A   1      46.252  25.405  38.550  1.00  0.00    -0.237 OA
ATOM    105  O   UNL A   1      44.097  26.464  39.095  1.00  0.00    -0.237 OA
ATOM    106  O   UNL A   1      44.156  24.517  37.599  1.00  0.00    -0.744 OA
ENDBRANCH 100 103
ENDBRANCH  73  96
ENDBRANCH  47  48
ENDBRANCH  39  42
ENDBRANCH  37  38
ENDBRANCH  36  37
ENDBRANCH   1  36
TORSDOF 20
ENDMDL
MODEL 3
REMARK VINA RESULT:     -12.8      1.819      2.701
REMARK SMILES COc1ccc(-c2ccc(/C=C3\SC(=S)N([C@H](Cc4ccccc4)C(=O)NCCCCNC(=O)c4ccc(-c5c6nc(c(-c7cccc(S(=O)(=O)[O-])c7F)c7ccc([nH]7)c(-c7cccc(S(=O)(=O)[O-])c7F)c7nc(c(-c8cccc(S(=O)(=O)[O-])c8F)c8ccc5[nH]8)C=C7)C=C6)cc4)C3=O)o2)cc1
REMARK SMILES IDX 29 1 28 2 27 3 25 4 26 5 17 7 16 8 11 9 12 10 13 11 98 12
REMARK SMILES IDX 14 13 99 14 15 15 10 16 7 17 8 18 100 19 9 20 6 21 3 22 4 23
REMARK SMILES IDX 102 24 5 25 101 26 2 27 1 28 18 29 19 30 20 31 24 32 21 33
REMARK SMILES IDX 23 34 22 35 30 36 31 37 32 38 33 39 34 41 35 42 36 43 97 44
REMARK SMILES IDX 37 45 96 46 38 47 39 48 40 49 90 50 41 51 95 52 89 53 91 54
REMARK SMILES IDX 42 55 94 56 88 57 87 58 43 60 75 61 55 62 74 63 56 64 59 65
REMARK SMILES IDX 73 66 92 67 57 68 58 69 72 71 93 72 60 73 44 74 45 75 53 76
REMARK SMILES IDX 46 77 48 78 54 79 47 80 49 81 50 82 51 83 52 84 76 85 77 86
REMARK SMILES IDX 85 87 78 88 80 89 86 90 79 91 81 92 82 93 83 94 84 95 61 96
REMARK SMILES IDX 62 97 70 98 63 99 65 100 71 101 64 102 66 103 67 104 68 105
REMARK SMILES IDX 69 106
REMARK H PARENT 27 6 32 40 91 59 59 70
REMARK Flexibility Score: inf
ROOT
ATOM      1  C   UNL A   1      34.842  30.318  27.559  1.00  0.00     0.023 C 
ENDROOT
BRANCH   1   2
ATOM      2  C   UNL A   1      34.065  29.344  26.678  1.00  0.00     0.116 C 
BRANCH   2   3
ATOM      3  N   UNL A   1      33.045  28.646  27.426  1.00  0.00    -0.354 N 
ATOM      4  C   UNL A   1      31.815  28.219  27.043  1.00  0.00     0.243 C 
ATOM      5  O   UNL A   1      31.039  27.878  27.944  1.00  0.00    -0.273 OA
ATOM      6  H   UNL A   1      33.280  28.449  28.361  1.00  0.00     0.163 HD
BRANCH   4   7
ATOM      7  C   UNL A   1      31.336  28.199  25.575  1.00  0.00     0.185 C 
BRANCH   7   8
ATOM      8  N   UNL A   1      31.879  27.065  24.781  1.00  0.00    -0.280 N 
ATOM      9  C   UNL A   1      32.517  23.606  25.063  1.00  0.00     0.068 C 
ATOM     10  C   UNL A   1      32.496  24.824  24.518  1.00  0.00     0.084 C 
ATOM     11  S   UNL A   1      33.583  25.613  23.470  1.00  0.00    -0.054 SA
ATOM     12  C   UNL A   1      31.433  25.770  24.928  1.00  0.00     0.267 C 
ATOM     13  C   UNL A   1      32.942  27.201  23.900  1.00  0.00     0.149 C 
ATOM     14  O   UNL A   1      30.348  25.384  25.326  1.00  0.00    -0.268 OA
ATOM     15  S   UNL A   1      33.636  28.586  23.283  1.00  0.00    -0.052 S 
BRANCH   9  16
ATOM     16  C   UNL A   1      33.521  22.622  24.888  1.00  0.00     0.128 A 
ATOM     17  C   UNL A   1      34.337  20.551  24.864  1.00  0.00     0.134 A 
ATOM     18  C   UNL A   1      35.400  21.380  24.597  1.00  0.00     0.051 A 
ATOM     19  O   UNL A   1      33.220  21.296  25.071  1.00  0.00    -0.457 OA
ATOM     20  C   UNL A   1      34.880  22.699  24.602  1.00  0.00     0.051 A 
BRANCH  17  21
ATOM     21  C   UNL A   1      34.140  19.117  24.958  1.00  0.00     0.017 A 
ATOM     22  C   UNL A   1      33.689  16.344  25.116  1.00  0.00     0.118 A 
ATOM     23  C   UNL A   1      32.748  17.241  25.621  1.00  0.00     0.047 A 
ATOM     24  C   UNL A   1      34.858  16.834  24.533  1.00  0.00     0.047 A 
ATOM     25  C   UNL A   1      32.977  18.615  25.555  1.00  0.00     0.016 A 
ATOM     26  C   UNL A   1      35.080  18.216  24.447  1.00  0.00     0.016 A 
BRANCH  22  27
ATOM     27  O   UNL A   1      33.333  15.029  25.224  1.00  0.00    -0.497 OA
ATOM     28  C   UNL A   1      32.005  14.764  25.650  1.00  0.00     0.278 C 
ENDBRANCH  22  27
ENDBRANCH  17  21
ENDBRANCH   9  16
ENDBRANCH   7   8
BRANCH   7  29
ATOM     29  C   UNL A   1      31.412  29.634  24.985  1.00  0.00     0.071 C 
BRANCH  29  30
ATOM     30  C   UNL A   1      30.253  30.093  24.120  1.00  0.00    -0.045 A 
ATOM     31  C   UNL A   1      29.859  29.351  22.996  1.00  0.00     0.004 A 
ATOM     32  C   UNL A   1      29.607  31.309  24.368  1.00  0.00     0.004 A 
ATOM     33  C   UNL A   1      28.814  29.772  22.175  1.00  0.00     0.000 A 
ATOM     34  C   UNL A   1      28.586  31.756  23.520  1.00  0.00     0.000 A 
ATOM     35  C   UNL A   1      28.181  30.980  22.434  1.00  0.00     0.000 A 
ENDBRANCH  29  30
ENDBRANCH   7  29
ENDBRANCH   4   7
ENDBRANCH   2   3
ENDBRANCH   1   2
BRANCH   1  36
ATOM     36  C   UNL A   1      34.416  31.776  27.401  1.00  0.00     0.023 C 
BRANCH  36  37
ATOM     37  C   UNL A   1      32.958  32.059  27.749  1.00  0.00     0.116 C 
BRANCH  37  38
ATOM     38  N   UNL A   1      32.647  33.481  27.801  1.00  0.00    -0.352 N 
ATOM     39  C   UNL A   1      33.230  34.452  28.580  1.00  0.00     0.251 C 
ATOM     40  H   UNL A   1      31.928  33.786  27.202  1.00  0.00     0.163 HD
ATOM     41  O   UNL A   1      32.778  35.592  28.601  1.00  0.00    -0.269 OA
BRANCH  39  42
ATOM     42  C   UNL A   1      34.389  34.090  29.420  1.00  0.00     0.039 A 
ATOM     43  C   UNL A   1      34.173  33.379  30.601  1.00  0.00     0.014 A 
ATOM     44  C   UNL A   1      35.686  34.392  28.996  1.00  0.00     0.014 A 
ATOM     45  C   UNL A   1      35.268  32.901  31.323  1.00  0.00     0.010 A 
ATOM     46  C   UNL A   1      36.772  33.851  29.675  1.00  0.00     0.010 A 
ATOM     47  C   UNL A   1      36.574  33.097  30.842  1.00  0.00    -0.014 A 
BRANCH  47  48
ATOM     48  C   UNL A   1      37.747  32.495  31.524  1.00  0.00     0.031 A 
ATOM     49  C   UNL A   1      38.484  31.349  30.891  1.00  0.00     0.074 A 
ATOM     50  C   UNL A   1      38.081  32.915  32.761  1.00  0.00     0.049 A 
ATOM     51  N   UNL A   1      39.483  30.650  31.364  1.00  0.00    -0.248 NA
ATOM     52  C   UNL A   1      38.021  30.909  29.564  1.00  0.00     0.031 C 
ATOM     53  C   UNL A   1      37.387  33.959  33.518  1.00  0.00     0.029 A 
ATOM     54  N   UNL A   1      39.071  32.491  33.614  1.00  0.00    -0.354 N 
ATOM     55  C   UNL A   1      39.743  29.669  30.416  1.00  0.00     0.074 A 
ATOM     56  C   UNL A   1      38.776  29.840  29.354  1.00  0.00     0.031 C 
ATOM     57  C   UNL A   1      37.971  34.095  34.719  1.00  0.00     0.029 A 
ATOM     58  C   UNL A   1      39.062  33.132  34.831  1.00  0.00     0.049 A 
ATOM     59  H   UNL A   1      39.724  31.794  33.376  1.00  0.00     0.167 HD
ATOM     60  C   UNL A   1      40.718  28.731  30.413  1.00  0.00     0.034 A 
ATOM     61  C   UNL A   1      39.840  32.959  35.917  1.00  0.00     0.034 A 
ATOM     62  C   UNL A   1      41.709  28.596  31.446  1.00  0.00     0.049 A 
ATOM     63  C   UNL A   1      40.945  31.938  35.869  1.00  0.00     0.074 A 
ATOM     64  C   UNL A   1      42.798  27.745  31.487  1.00  0.00     0.029 A 
ATOM     65  N   UNL A   1      41.726  29.326  32.624  1.00  0.00    -0.354 N 
ATOM     66  N   UNL A   1      41.285  31.136  34.888  1.00  0.00    -0.248 NA
ATOM     67  C   UNL A   1      41.797  31.823  37.061  1.00  0.00     0.031 C 
ATOM     68  C   UNL A   1      43.464  27.947  32.700  1.00  0.00     0.029 A 
ATOM     69  C   UNL A   1      42.802  28.939  33.405  1.00  0.00     0.049 A 
ATOM     70  H   UNL A   1      41.071  30.019  32.869  1.00  0.00     0.167 HD
ATOM     71  C   UNL A   1      42.406  30.446  35.332  1.00  0.00     0.074 A 
ATOM     72  C   UNL A   1      42.703  30.940  36.661  1.00  0.00     0.031 C 
ATOM     73  C   UNL A   1      43.117  29.477  34.704  1.00  0.00     0.034 A 
BRANCH  60  74
ATOM     74  C   UNL A   1      40.801  27.811  29.223  1.00  0.00     0.023 A 
ATOM     75  C   UNL A   1      39.988  26.660  29.180  1.00  0.00     0.012 A 
ATOM     76  C   UNL A   1      41.632  28.111  28.127  1.00  0.00     0.148 A 
ATOM     77  C   UNL A   1      40.025  25.804  28.080  1.00  0.00     0.002 A 
ATOM     78  C   UNL A   1      41.632  27.276  27.016  1.00  0.00     0.091 A 
ATOM     79  F   UNL A   1      42.415  29.197  28.196  1.00  0.00    -0.205 F 
ATOM     80  C   UNL A   1      40.838  26.118  26.995  1.00  0.00     0.022 A 
BRANCH  78  81
ATOM     81  S   UNL A   1      42.584  27.635  25.535  1.00  0.00     0.127 S 
ATOM     82  O   UNL A   1      42.288  26.468  24.705  1.00  0.00    -0.237 OA
ATOM     83  O   UNL A   1      41.975  28.882  25.071  1.00  0.00    -0.237 OA
ATOM     84  O   UNL A   1      43.968  27.761  25.968  1.00  0.00    -0.744 OA
ENDBRANCH  78  81
ENDBRANCH  60  74
BRANCH  61  85
ATOM     85  C   UNL A   1      39.645  33.821  37.117  1.00  0.00     0.023 A 
ATOM     86  C   UNL A   1      40.095  35.155  37.086  1.00  0.00     0.012 A 
ATOM     87  C   UNL A   1      38.994  33.342  38.270  1.00  0.00     0.148 A 
ATOM     88  C   UNL A   1      39.926  35.989  38.193  1.00  0.00     0.002 A 
ATOM     89  C   UNL A   1      38.780  34.194  39.349  1.00  0.00     0.091 A 
ATOM     90  F   UNL A   1      38.584  32.066  38.285  1.00  0.00    -0.205 F 
ATOM     91  C   UNL A   1      39.262  35.512  39.319  1.00  0.00     0.022 A 
BRANCH  89  92
ATOM     92  S   UNL A   1      37.817  33.705  40.784  1.00  0.00     0.127 S 
ATOM     93  O   UNL A   1      38.713  32.755  41.437  1.00  0.00    -0.237 OA
ATOM     94  O   UNL A   1      37.651  34.979  41.485  1.00  0.00    -0.237 OA
ATOM     95  O   UNL A   1      36.579  33.149  40.252  1.00  0.00    -0.744 OA
ENDBRANCH  89  92
ENDBRANCH  61  85
BRANCH  73  96
ATOM     96  C   UNL A   1      44.304  28.899  35.427  1.00  0.00     0.023 A 
ATOM     97  C   UNL A   1      44.126  27.808  36.300  1.00  0.00     0.012 A 
ATOM     98  C   UNL A   1      45.605  29.383  35.179  1.00  0.00     0.148 A 
ATOM     99  C   UNL A   1      45.220  27.225  36.937  1.00  0.00     0.002 A 
ATOM    100  C   UNL A   1      46.695  28.766  35.781  1.00  0.00     0.091 A 
ATOM    101  F   UNL A   1      45.751  30.434  34.359  1.00  0.00    -0.205 F 
ATOM    102  C   UNL A   1      46.503  27.695  36.669  1.00  0.00     0.022 A 
BRANCH 100 103
ATOM    103  S   UNL A   1      48.389  29.242  35.421  1.00  0.00     0.127 S 
ATOM    104  O   UNL A   1      48.586  30.363  36.339  1.00  0.00    -0.237 OA
ATOM    105  O   UNL A   1      49.133  28.030  35.770  1.00  0.00    -0.237 OA
ATOM    106  O   UNL A   1      48.419  29.581  34.005  1.00  0.00    -0.744 OA
ENDBRANCH 100 103
ENDBRANCH  73  96
ENDBRANCH  47  48
ENDBRANCH  39  42
ENDBRANCH  37  38
ENDBRANCH  36  37
ENDBRANCH   1  36
TORSDOF 20
ENDMDL
