MODEL 1
REMARK VINA RESULT:     -13.0      0.000      0.000
REMARK SMILES O=C(NCCCCNC(=O)[C@H]1CC[C@H]2CCCC[C@@H]2N1C(=O)c1ccn[nH]1)c1ccc(-c2c3nc(c(-c4cccc(S(=O)(=O)[O-])c4F)c4ccc([nH]4)c(-c4cccc(S(=O)(=O)[O-])c4F)c4nc(c(-c5cccc(S(=O)(=O)[O-])c5F)c5ccc2[nH]5)C=C4)C=C3)cc1
REMARK SMILES IDX 5 1 4 2 3 3 1 4 2 5 28 7 29 8 90 9 30 10 89 11 31 12 32 13
REMARK SMILES IDX 33 14 83 15 34 16 88 17 82 18 84 19 35 20 87 21 81 22 80 23
REMARK SMILES IDX 36 25 68 26 48 27 67 28 49 29 52 30 66 31 85 32 50 33 51 34
REMARK SMILES IDX 65 36 86 37 53 38 37 39 38 40 46 41 39 42 41 43 47 44 40 45
REMARK SMILES IDX 42 46 43 47 44 48 45 49 69 50 70 51 78 52 71 53 73 54 79 55
REMARK SMILES IDX 72 56 74 57 75 58 76 59 77 60 54 61 55 62 63 63 56 64 58 65
REMARK SMILES IDX 64 66 57 67 59 68 60 69 61 70 62 71 6 72 7 73 8 74 9 75
REMARK SMILES IDX 10 77 11 78 12 79 20 80 13 81 19 82 14 83 18 84 15 85 17 86
REMARK SMILES IDX 16 87 21 88 22 89 23 90 24 91 27 92 25 93 26 94
REMARK H PARENT 3 6 84 24 52 35 8 76 27 95
REMARK Flexibility Score: inf
ROOT
ATOM      1  C   UNL A   1      35.793  22.469  24.436  1.00  0.00     0.023 C 
ENDROOT
BRANCH   1   2
ATOM      2  C   UNL A   1      36.491  22.149  25.754  1.00  0.00     0.116 C 
BRANCH   2   3
ATOM      3  N   UNL A   1      37.448  21.055  25.660  1.00  0.00    -0.352 N 
ATOM      4  O   UNL A   1      39.503  20.112  25.750  1.00  0.00    -0.269 OA
ATOM      5  C   UNL A   1      38.791  21.089  25.957  1.00  0.00     0.251 C 
ATOM      6  H   UNL A   1      37.093  20.191  25.350  1.00  0.00     0.163 HD
BRANCH   5   7
ATOM      7  C   UNL A   1      39.356  22.346  26.487  1.00  0.00     0.039 A 
ATOM      8  C   UNL A   1      38.899  23.571  25.998  1.00  0.00     0.014 A 
ATOM      9  C   UNL A   1      40.407  22.289  27.405  1.00  0.00     0.014 A 
ATOM     10  C   UNL A   1      39.589  24.731  26.316  1.00  0.00     0.010 A 
ATOM     11  C   UNL A   1      41.049  23.469  27.785  1.00  0.00     0.010 A 
ATOM     12  C   UNL A   1      40.669  24.694  27.216  1.00  0.00    -0.014 A 
BRANCH  12  13
ATOM     13  C   UNL A   1      41.334  25.964  27.592  1.00  0.00     0.031 A 
ATOM     14  C   UNL A   1      42.730  26.286  27.139  1.00  0.00     0.074 A 
ATOM     15  C   UNL A   1      40.638  26.844  28.338  1.00  0.00     0.049 A 
ATOM     16  N   UNL A   1      43.426  27.374  27.346  1.00  0.00    -0.248 NA
ATOM     17  C   UNL A   1      43.444  25.258  26.363  1.00  0.00     0.031 C 
ATOM     18  C   UNL A   1      39.293  26.611  28.869  1.00  0.00     0.029 A 
ATOM     19  N   UNL A   1      40.953  28.106  28.770  1.00  0.00    -0.354 N 
ATOM     20  C   UNL A   1      44.669  27.151  26.764  1.00  0.00     0.074 A 
ATOM     21  C   UNL A   1      44.634  25.821  26.194  1.00  0.00     0.031 C 
ATOM     22  C   UNL A   1      38.881  27.708  29.520  1.00  0.00     0.029 A 
ATOM     23  C   UNL A   1      39.948  28.700  29.494  1.00  0.00     0.049 A 
ATOM     24  H   UNL A   1      41.813  28.543  28.580  1.00  0.00     0.167 HD
ATOM     25  C   UNL A   1      45.731  27.988  26.698  1.00  0.00     0.034 A 
ATOM     26  C   UNL A   1      39.891  29.912  30.080  1.00  0.00     0.034 A 
ATOM     27  C   UNL A   1      45.738  29.328  27.226  1.00  0.00     0.049 A 
ATOM     28  C   UNL A   1      41.065  30.835  29.942  1.00  0.00     0.074 A 
ATOM     29  C   UNL A   1      46.747  30.274  27.160  1.00  0.00     0.029 A 
ATOM     30  N   UNL A   1      44.686  29.915  27.913  1.00  0.00    -0.354 N 
ATOM     31  N   UNL A   1      42.185  30.648  29.287  1.00  0.00    -0.248 NA
ATOM     32  C   UNL A   1      40.961  32.142  30.603  1.00  0.00     0.031 C 
ATOM     33  C   UNL A   1      46.306  31.431  27.812  1.00  0.00     0.029 A 
ATOM     34  C   UNL A   1      45.021  31.207  28.280  1.00  0.00     0.049 A 
ATOM     35  H   UNL A   1      43.827  29.476  28.111  1.00  0.00     0.167 HD
ATOM     36  C   UNL A   1      42.919  31.815  29.452  1.00  0.00     0.074 A 
ATOM     37  C   UNL A   1      42.098  32.718  30.234  1.00  0.00     0.031 C 
ATOM     38  C   UNL A   1      44.172  32.103  29.023  1.00  0.00     0.034 A 
BRANCH  25  39
ATOM     39  C   UNL A   1      46.967  27.508  25.982  1.00  0.00     0.023 A 
ATOM     40  C   UNL A   1      47.889  26.696  26.671  1.00  0.00     0.012 A 
ATOM     41  C   UNL A   1      47.173  27.783  24.616  1.00  0.00     0.148 A 
ATOM     42  C   UNL A   1      49.004  26.174  26.015  1.00  0.00     0.002 A 
ATOM     43  C   UNL A   1      48.271  27.235  23.961  1.00  0.00     0.091 A 
ATOM     44  F   UNL A   1      46.298  28.578  23.984  1.00  0.00    -0.205 F 
ATOM     45  C   UNL A   1      49.189  26.435  24.660  1.00  0.00     0.022 A 
BRANCH  43  46
ATOM     46  S   UNL A   1      48.560  27.461  22.201  1.00  0.00     0.127 S 
ATOM     47  O   UNL A   1      47.381  28.231  21.806  1.00  0.00    -0.237 OA
ATOM     48  O   UNL A   1      49.814  28.216  22.186  1.00  0.00    -0.237 OA
ATOM     49  O   UNL A   1      48.655  26.121  21.639  1.00  0.00    -0.744 OA
ENDBRANCH  43  46
ENDBRANCH  25  39
BRANCH  26  50
ATOM     50  C   UNL A   1      38.648  30.323  30.788  1.00  0.00     0.023 A 
ATOM     51  C   UNL A   1      38.523  30.075  32.168  1.00  0.00     0.012 A 
ATOM     52  C   UNL A   1      37.628  31.032  30.123  1.00  0.00     0.148 A 
ATOM     53  C   UNL A   1      37.400  30.516  32.869  1.00  0.00     0.002 A 
ATOM     54  C   UNL A   1      36.543  31.522  30.841  1.00  0.00     0.091 A 
ATOM     55  F   UNL A   1      37.749  31.240  28.804  1.00  0.00    -0.205 F 
ATOM     56  C   UNL A   1      36.419  31.253  32.211  1.00  0.00     0.022 A 
BRANCH  54  57
ATOM     57  S   UNL A   1      35.343  32.616  30.073  1.00  0.00     0.127 S 
ATOM     58  O   UNL A   1      34.841  31.795  28.976  1.00  0.00    -0.237 OA
ATOM     59  O   UNL A   1      34.387  32.850  31.157  1.00  0.00    -0.237 OA
ATOM     60  O   UNL A   1      36.109  33.799  29.698  1.00  0.00    -0.744 OA
ENDBRANCH  54  57
ENDBRANCH  26  50
BRANCH  38  61
ATOM     61  C   UNL A   1      44.732  33.444  29.404  1.00  0.00     0.023 A 
ATOM     62  C   UNL A   1      45.480  33.562  30.593  1.00  0.00     0.012 A 
ATOM     63  C   UNL A   1      44.565  34.568  28.574  1.00  0.00     0.148 A 
ATOM     64  C   UNL A   1      46.029  34.788  30.964  1.00  0.00     0.002 A 
ATOM     65  C   UNL A   1      45.148  35.779  28.933  1.00  0.00     0.091 A 
ATOM     66  F   UNL A   1      43.829  34.442  27.460  1.00  0.00    -0.205 F 
ATOM     67  C   UNL A   1      45.873  35.892  30.130  1.00  0.00     0.022 A 
BRANCH  65  68
ATOM     68  S   UNL A   1      45.054  37.225  27.871  1.00  0.00     0.127 S 
ATOM     69  O   UNL A   1      45.474  38.290  28.777  1.00  0.00    -0.237 OA
ATOM     70  O   UNL A   1      46.018  36.907  26.815  1.00  0.00    -0.237 OA
ATOM     71  O   UNL A   1      43.670  37.284  27.417  1.00  0.00    -0.744 OA
ENDBRANCH  65  68
ENDBRANCH  38  61
ENDBRANCH  12  13
ENDBRANCH   5   7
ENDBRANCH   2   3
ENDBRANCH   1   2
BRANCH   1  72
ATOM     72  C   UNL A   1      34.939  23.738  24.450  1.00  0.00     0.023 C 
BRANCH  72  73
ATOM     73  C   UNL A   1      33.526  23.532  23.908  1.00  0.00     0.116 C 
BRANCH  73  74
ATOM     74  N   UNL A   1      33.392  24.092  22.579  1.00  0.00    -0.354 N 
ATOM     75  C   UNL A   1      33.323  25.366  22.116  1.00  0.00     0.242 C 
ATOM     76  H   UNL A   1      33.342  23.413  21.869  1.00  0.00     0.163 HD
ATOM     77  O   UNL A   1      33.275  25.499  20.883  1.00  0.00    -0.273 OA
BRANCH  75  78
ATOM     78  C   UNL A   1      33.309  26.641  23.011  1.00  0.00     0.175 C 
ATOM     79  C   UNL A   1      33.786  28.004  22.513  1.00  0.00     0.036 C 
ATOM     80  N   UNL A   1      32.077  26.848  23.803  1.00  0.00    -0.322 N 
ATOM     81  C   UNL A   1      33.950  29.025  23.655  1.00  0.00     0.008 C 
ATOM     82  C   UNL A   1      32.212  27.729  24.979  1.00  0.00     0.089 C 
ATOM     83  C   UNL A   1      33.588  28.443  25.027  1.00  0.00     0.012 C 
ATOM     84  C   UNL A   1      31.979  27.021  26.318  1.00  0.00     0.025 C 
ATOM     85  C   UNL A   1      33.586  29.507  26.128  1.00  0.00     0.006 C 
ATOM     86  C   UNL A   1      31.992  28.041  27.460  1.00  0.00     0.002 C 
ATOM     87  C   UNL A   1      33.272  28.878  27.485  1.00  0.00     0.000 C 
BRANCH  80  88
ATOM     88  C   UNL A   1      30.843  26.617  23.174  1.00  0.00     0.272 C 
ATOM     89  O   UNL A   1      30.397  25.489  22.995  1.00  0.00    -0.267 OA
BRANCH  88  90
ATOM     90  C   UNL A   1      30.088  27.766  22.756  1.00  0.00     0.123 A 
ATOM     91  C   UNL A   1      28.840  28.219  23.132  1.00  0.00     0.055 A 
ATOM     92  N   UNL A   1      30.587  28.731  21.923  1.00  0.00    -0.273 N 
ATOM     93  C   UNL A   1      28.651  29.407  22.404  1.00  0.00     0.135 A 
ATOM     94  N   UNL A   1      29.701  29.704  21.636  1.00  0.00    -0.183 NA
ATOM     95  H   UNL A   1      31.505  28.714  21.568  1.00  0.00     0.190 HD
ENDBRANCH  88  90
ENDBRANCH  80  88
ENDBRANCH  75  78
ENDBRANCH  73  74
ENDBRANCH  72  73
ENDBRANCH   1  72
TORSDOF 16
ENDMDL
MODEL 2
REMARK VINA RESULT:     -12.8      0.443      7.470
REMARK SMILES O=C(NCCCCNC(=O)[C@H]1CC[C@H]2CCCC[C@@H]2N1C(=O)c1ccn[nH]1)c1ccc(-c2c3nc(c(-c4cccc(S(=O)(=O)[O-])c4F)c4ccc([nH]4)c(-c4cccc(S(=O)(=O)[O-])c4F)c4nc(c(-c5cccc(S(=O)(=O)[O-])c5F)c5ccc2[nH]5)C=C4)C=C3)cc1
REMARK SMILES IDX 5 1 4 2 3 3 1 4 2 5 28 7 29 8 90 9 30 10 89 11 31 12 32 13
REMARK SMILES IDX 33 14 83 15 34 16 88 17 82 18 84 19 35 20 87 21 81 22 80 23
REMARK SMILES IDX 36 25 68 26 48 27 67 28 49 29 52 30 66 31 85 32 50 33 51 34
REMARK SMILES IDX 65 36 86 37 53 38 37 39 38 40 46 41 39 42 41 43 47 44 40 45
REMARK SMILES IDX 42 46 43 47 44 48 45 49 69 50 70 51 78 52 71 53 73 54 79 55
REMARK SMILES IDX 72 56 74 57 75 58 76 59 77 60 54 61 55 62 63 63 56 64 58 65
REMARK SMILES IDX 64 66 57 67 59 68 60 69 61 70 62 71 6 72 7 73 8 74 9 75
REMARK SMILES IDX 10 77 11 78 12 79 20 80 13 81 19 82 14 83 18 84 15 85 17 86
REMARK SMILES IDX 16 87 21 88 22 89 23 90 24 91 27 92 25 93 26 94
REMARK H PARENT 3 6 84 24 52 35 8 76 27 95
REMARK Flexibility Score: inf
ROOT
ATOM      1  C   UNL A   1      35.757  22.279  24.427  1.00  0.00     0.023 C 
ENDROOT
BRANCH   1   2
ATOM      2  C   UNL A   1      36.464  21.996  25.748  1.00  0.00     0.116 C 
BRANCH   2   3
ATOM      3  N   UNL A   1      37.441  20.918  25.671  1.00  0.00    -0.352 N 
ATOM      4  O   UNL A   1      39.516  20.017  25.749  1.00  0.00    -0.269 OA
ATOM      5  C   UNL A   1      38.789  20.988  25.938  1.00  0.00     0.251 C 
ATOM      6  H   UNL A   1      37.097  20.037  25.397  1.00  0.00     0.163 HD
BRANCH   5   7
ATOM      7  C   UNL A   1      39.339  22.272  26.415  1.00  0.00     0.039 A 
ATOM      8  C   UNL A   1      38.849  23.470  25.893  1.00  0.00     0.014 A 
ATOM      9  C   UNL A   1      40.408  22.266  27.313  1.00  0.00     0.014 A 
ATOM     10  C   UNL A   1      39.522  24.654  26.158  1.00  0.00     0.010 A 
ATOM     11  C   UNL A   1      41.034  23.471  27.640  1.00  0.00     0.010 A 
ATOM     12  C   UNL A   1      40.620  24.668  27.037  1.00  0.00    -0.014 A 
BRANCH  12  13
ATOM     13  C   UNL A   1      41.266  25.963  27.357  1.00  0.00     0.031 A 
ATOM     14  C   UNL A   1      40.575  27.002  28.193  1.00  0.00     0.074 A 
ATOM     15  C   UNL A   1      42.514  26.177  26.896  1.00  0.00     0.049 A 
ATOM     16  N   UNL A   1      41.028  28.161  28.598  1.00  0.00    -0.248 NA
ATOM     17  C   UNL A   1      39.197  26.716  28.626  1.00  0.00     0.031 C 
ATOM     18  C   UNL A   1      43.258  25.252  26.037  1.00  0.00     0.029 A 
ATOM     19  N   UNL A   1      43.378  27.223  27.086  1.00  0.00    -0.354 N 
ATOM     20  C   UNL A   1      39.986  28.759  29.296  1.00  0.00     0.074 A 
ATOM     21  C   UNL A   1      38.872  27.836  29.261  1.00  0.00     0.031 C 
ATOM     22  C   UNL A   1      44.480  25.752  25.808  1.00  0.00     0.029 A 
ATOM     23  C   UNL A   1      44.589  27.050  26.462  1.00  0.00     0.049 A 
ATOM     24  H   UNL A   1      43.152  28.019  27.618  1.00  0.00     0.167 HD
ATOM     25  C   UNL A   1      39.970  29.959  29.923  1.00  0.00     0.034 A 
ATOM     26  C   UNL A   1      45.671  27.851  26.415  1.00  0.00     0.034 A 
ATOM     27  C   UNL A   1      41.101  30.849  29.992  1.00  0.00     0.049 A 
ATOM     28  C   UNL A   1      45.640  29.150  27.164  1.00  0.00     0.074 A 
ATOM     29  C   UNL A   1      41.201  32.063  30.651  1.00  0.00     0.029 A 
ATOM     30  N   UNL A   1      42.327  30.621  29.388  1.00  0.00    -0.354 N 
ATOM     31  N   UNL A   1      44.685  29.642  27.915  1.00  0.00    -0.248 NA
ATOM     32  C   UNL A   1      46.839  29.993  27.078  1.00  0.00     0.031 C 
ATOM     33  C   UNL A   1      42.488  32.571  30.439  1.00  0.00     0.029 A 
ATOM     34  C   UNL A   1      43.190  31.671  29.653  1.00  0.00     0.049 A 
ATOM     35  H   UNL A   1      42.552  29.828  28.848  1.00  0.00     0.167 HD
ATOM     36  C   UNL A   1      45.168  30.851  28.397  1.00  0.00     0.074 A 
ATOM     37  C   UNL A   1      46.517  30.996  27.885  1.00  0.00     0.031 C 
ATOM     38  C   UNL A   1      44.542  31.774  29.167  1.00  0.00     0.034 A 
BRANCH  25  39
ATOM     39  C   UNL A   1      38.708  30.369  30.635  1.00  0.00     0.023 A 
ATOM     40  C   UNL A   1      38.575  30.095  32.011  1.00  0.00     0.012 A 
ATOM     41  C   UNL A   1      37.699  31.097  29.975  1.00  0.00     0.148 A 
ATOM     42  C   UNL A   1      37.451  30.527  32.716  1.00  0.00     0.002 A 
ATOM     43  C   UNL A   1      36.596  31.552  30.690  1.00  0.00     0.091 A 
ATOM     44  F   UNL A   1      37.833  31.328  28.661  1.00  0.00    -0.205 F 
ATOM     45  C   UNL A   1      36.470  31.264  32.059  1.00  0.00     0.022 A 
BRANCH  43  46
ATOM     46  S   UNL A   1      35.310  32.562  29.946  1.00  0.00     0.127 S 
ATOM     47  O   UNL A   1      34.393  32.746  31.069  1.00  0.00    -0.237 OA
ATOM     48  O   UNL A   1      36.046  33.766  29.556  1.00  0.00    -0.237 OA
ATOM     49  O   UNL A   1      34.790  31.785  28.829  1.00  0.00    -0.744 OA
ENDBRANCH  43  46
ENDBRANCH  25  39
BRANCH  26  50
ATOM     50  C   UNL A   1      46.884  27.398  25.679  1.00  0.00     0.023 A 
ATOM     51  C   UNL A   1      47.746  26.461  26.278  1.00  0.00     0.012 A 
ATOM     52  C   UNL A   1      47.142  27.825  24.362  1.00  0.00     0.148 A 
ATOM     53  C   UNL A   1      48.849  25.966  25.581  1.00  0.00     0.002 A 
ATOM     54  C   UNL A   1      48.207  27.282  23.653  1.00  0.00     0.091 A 
ATOM     55  F   UNL A   1      46.326  28.737  23.814  1.00  0.00    -0.205 F 
ATOM     56  C   UNL A   1      49.071  26.363  24.264  1.00  0.00     0.022 A 
BRANCH  54  57
ATOM     57  S   UNL A   1      48.431  27.632  21.905  1.00  0.00     0.127 S 
ATOM     58  O   UNL A   1      49.575  28.538  21.923  1.00  0.00    -0.237 OA
ATOM     59  O   UNL A   1      48.702  26.307  21.347  1.00  0.00    -0.237 OA
ATOM     60  O   UNL A   1      47.159  28.203  21.478  1.00  0.00    -0.744 OA
ENDBRANCH  54  57
ENDBRANCH  26  50
BRANCH  38  61
ATOM     61  C   UNL A   1      45.308  33.027  29.489  1.00  0.00     0.023 A 
ATOM     62  C   UNL A   1      46.118  33.058  30.641  1.00  0.00     0.012 A 
ATOM     63  C   UNL A   1      45.269  34.147  28.637  1.00  0.00     0.148 A 
ATOM     64  C   UNL A   1      46.856  34.196  30.958  1.00  0.00     0.002 A 
ATOM     65  C   UNL A   1      46.037  35.266  28.940  1.00  0.00     0.091 A 
ATOM     66  F   UNL A   1      44.472  34.108  27.560  1.00  0.00    -0.205 F 
ATOM     67  C   UNL A   1      46.824  35.295  30.103  1.00  0.00     0.022 A 
BRANCH  65  68
ATOM     68  S   UNL A   1      46.105  36.689  27.846  1.00  0.00     0.127 S 
ATOM     69  O   UNL A   1      44.754  37.229  27.972  1.00  0.00    -0.237 OA
ATOM     70  O   UNL A   1      47.150  37.512  28.459  1.00  0.00    -0.237 OA
ATOM     71  O   UNL A   1      46.457  36.156  26.536  1.00  0.00    -0.744 OA
ENDBRANCH  65  68
ENDBRANCH  38  61
ENDBRANCH  12  13
ENDBRANCH   5   7
ENDBRANCH   2   3
ENDBRANCH   1   2
BRANCH   1  72
ATOM     72  C   UNL A   1      35.017  23.615  24.366  1.00  0.00     0.023 C 
BRANCH  72  73
ATOM     73  C   UNL A   1      33.570  23.494  23.890  1.00  0.00     0.116 C 
BRANCH  73  74
ATOM     74  N   UNL A   1      33.409  24.055  22.565  1.00  0.00    -0.354 N 
ATOM     75  C   UNL A   1      33.329  25.330  22.104  1.00  0.00     0.242 C 
ATOM     76  H   UNL A   1      33.346  23.376  21.856  1.00  0.00     0.163 HD
ATOM     77  O   UNL A   1      33.257  25.463  20.873  1.00  0.00    -0.273 OA
BRANCH  75  78
ATOM     78  C   UNL A   1      33.333  26.604  23.000  1.00  0.00     0.175 C 
ATOM     79  C   UNL A   1      33.824  27.962  22.502  1.00  0.00     0.036 C 
ATOM     80  N   UNL A   1      32.105  26.824  23.796  1.00  0.00    -0.322 N 
ATOM     81  C   UNL A   1      34.002  28.980  23.645  1.00  0.00     0.008 C 
ATOM     82  C   UNL A   1      32.254  27.703  24.972  1.00  0.00     0.089 C 
ATOM     83  C   UNL A   1      33.638  28.401  25.017  1.00  0.00     0.012 C 
ATOM     84  C   UNL A   1      32.016  26.996  26.312  1.00  0.00     0.025 C 
ATOM     85  C   UNL A   1      33.651  29.464  26.119  1.00  0.00     0.006 C 
ATOM     86  C   UNL A   1      32.043  28.015  27.455  1.00  0.00     0.002 C 
ATOM     87  C   UNL A   1      33.333  28.837  27.476  1.00  0.00     0.000 C 
BRANCH  80  88
ATOM     88  C   UNL A   1      30.867  26.608  23.170  1.00  0.00     0.272 C 
ATOM     89  O   UNL A   1      30.405  25.485  22.996  1.00  0.00    -0.267 OA
BRANCH  88  90
ATOM     90  C   UNL A   1      30.127  27.765  22.750  1.00  0.00     0.123 A 
ATOM     91  C   UNL A   1      28.884  28.235  23.124  1.00  0.00     0.055 A 
ATOM     92  N   UNL A   1      30.638  28.722  21.915  1.00  0.00    -0.273 N 
ATOM     93  C   UNL A   1      28.710  29.423  22.394  1.00  0.00     0.135 A 
ATOM     94  N   UNL A   1      29.764  29.706  21.626  1.00  0.00    -0.183 NA
ATOM     95  H   UNL A   1      31.556  28.693  21.561  1.00  0.00     0.190 HD
ENDBRANCH  88  90
ENDBRANCH  80  88
ENDBRANCH  75  78
ENDBRANCH  73  74
ENDBRANCH  72  73
ENDBRANCH   1  72
TORSDOF 16
ENDMDL
MODEL 3
REMARK VINA RESULT:     -12.8      1.387      1.644
REMARK SMILES O=C(NCCCCNC(=O)[C@H]1CC[C@H]2CCCC[C@@H]2N1C(=O)c1ccn[nH]1)c1ccc(-c2c3nc(c(-c4cccc(S(=O)(=O)[O-])c4F)c4ccc([nH]4)c(-c4cccc(S(=O)(=O)[O-])c4F)c4nc(c(-c5cccc(S(=O)(=O)[O-])c5F)c5ccc2[nH]5)C=C4)C=C3)cc1
REMARK SMILES IDX 5 1 4 2 3 3 1 4 2 5 28 7 29 8 90 9 30 10 89 11 31 12 32 13
REMARK SMILES IDX 33 14 83 15 34 16 88 17 82 18 84 19 35 20 87 21 81 22 80 23
REMARK SMILES IDX 36 25 68 26 48 27 67 28 49 29 52 30 66 31 85 32 50 33 51 34
REMARK SMILES IDX 65 36 86 37 53 38 37 39 38 40 46 41 39 42 41 43 47 44 40 45
REMARK SMILES IDX 42 46 43 47 44 48 45 49 69 50 70 51 78 52 71 53 73 54 79 55
REMARK SMILES IDX 72 56 74 57 75 58 76 59 77 60 54 61 55 62 63 63 56 64 58 65
REMARK SMILES IDX 64 66 57 67 59 68 60 69 61 70 62 71 6 72 7 73 8 74 9 75
REMARK SMILES IDX 10 77 11 78 12 79 20 80 13 81 19 82 14 83 18 84 15 85 17 86
REMARK SMILES IDX 16 87 21 88 22 89 23 90 24 91 27 92 25 93 26 94
REMARK H PARENT 3 6 84 24 52 35 8 76 27 95
REMARK Flexibility Score: inf
ROOT
ATOM      1  C   UNL A   1      36.000  22.275  24.142  1.00  0.00     0.023 C 
ENDROOT
BRANCH   1   2
ATOM      2  C   UNL A   1      36.507  21.842  25.514  1.00  0.00     0.116 C 
BRANCH   2   3
ATOM      3  N   UNL A   1      37.451  20.733  25.467  1.00  0.00    -0.352 N 
ATOM      4  O   UNL A   1      39.484  19.757  25.655  1.00  0.00    -0.269 OA
ATOM      5  C   UNL A   1      38.778  20.746  25.827  1.00  0.00     0.251 C 
ATOM      6  H   UNL A   1      37.098  19.874  25.139  1.00  0.00     0.163 HD
BRANCH   5   7
ATOM      7  C   UNL A   1      39.336  21.994  26.385  1.00  0.00     0.039 A 
ATOM      8  C   UNL A   1      38.865  23.227  25.930  1.00  0.00     0.014 A 
ATOM      9  C   UNL A   1      40.395  21.923  27.292  1.00  0.00     0.014 A 
ATOM     10  C   UNL A   1      39.547  24.385  26.271  1.00  0.00     0.010 A 
ATOM     11  C   UNL A   1      41.030  23.100  27.697  1.00  0.00     0.010 A 
ATOM     12  C   UNL A   1      40.635  24.335  27.161  1.00  0.00    -0.014 A 
BRANCH  12  13
ATOM     13  C   UNL A   1      41.291  25.602  27.564  1.00  0.00     0.031 A 
ATOM     14  C   UNL A   1      42.699  25.924  27.149  1.00  0.00     0.074 A 
ATOM     15  C   UNL A   1      40.578  26.477  28.297  1.00  0.00     0.049 A 
ATOM     16  N   UNL A   1      43.392  27.009  27.382  1.00  0.00    -0.248 NA
ATOM     17  C   UNL A   1      43.431  24.901  26.384  1.00  0.00     0.031 C 
ATOM     18  C   UNL A   1      39.219  26.242  28.792  1.00  0.00     0.029 A 
ATOM     19  N   UNL A   1      40.883  27.735  28.747  1.00  0.00    -0.354 N 
ATOM     20  C   UNL A   1      44.648  26.789  26.831  1.00  0.00     0.074 A 
ATOM     21  C   UNL A   1      44.626  25.463  26.250  1.00  0.00     0.031 C 
ATOM     22  C   UNL A   1      38.792  27.335  29.440  1.00  0.00     0.029 A 
ATOM     23  C   UNL A   1      39.861  28.326  29.449  1.00  0.00     0.049 A 
ATOM     24  H   UNL A   1      41.749  28.172  28.582  1.00  0.00     0.167 HD
ATOM     25  C   UNL A   1      45.713  27.625  26.798  1.00  0.00     0.034 A 
ATOM     26  C   UNL A   1      39.790  29.533  30.042  1.00  0.00     0.034 A 
ATOM     27  C   UNL A   1      45.709  28.961  27.336  1.00  0.00     0.049 A 
ATOM     28  C   UNL A   1      40.969  30.456  29.941  1.00  0.00     0.074 A 
ATOM     29  C   UNL A   1      46.720  29.905  27.302  1.00  0.00     0.029 A 
ATOM     30  N   UNL A   1      44.640  29.544  27.999  1.00  0.00    -0.354 N 
ATOM     31  N   UNL A   1      42.105  30.271  29.314  1.00  0.00    -0.248 NA
ATOM     32  C   UNL A   1      40.850  31.758  30.609  1.00  0.00     0.031 C 
ATOM     33  C   UNL A   1      46.264  31.059  27.951  1.00  0.00     0.029 A 
ATOM     34  C   UNL A   1      44.967  30.833  28.384  1.00  0.00     0.049 A 
ATOM     35  H   UNL A   1      43.775  29.105  28.172  1.00  0.00     0.167 HD
ATOM     36  C   UNL A   1      42.836  31.436  29.507  1.00  0.00     0.074 A 
ATOM     37  C   UNL A   1      41.997  32.335  30.274  1.00  0.00     0.031 C 
ATOM     38  C   UNL A   1      44.100  31.725  29.112  1.00  0.00     0.034 A 
BRANCH  25  39
ATOM     39  C   UNL A   1      46.966  27.148  26.111  1.00  0.00     0.023 A 
ATOM     40  C   UNL A   1      47.141  27.412  24.738  1.00  0.00     0.012 A 
ATOM     41  C   UNL A   1      48.002  26.523  26.832  1.00  0.00     0.148 A 
ATOM     42  C   UNL A   1      48.322  27.050  24.090  1.00  0.00     0.002 A 
ATOM     43  C   UNL A   1      49.189  26.192  26.187  1.00  0.00     0.091 A 
ATOM     44  F   UNL A   1      47.808  26.258  28.132  1.00  0.00    -0.205 F 
ATOM     45  C   UNL A   1      49.348  26.451  24.815  1.00  0.00     0.022 A 
BRANCH  43  46
ATOM     46  S   UNL A   1      50.593  25.475  27.050  1.00  0.00     0.127 S 
ATOM     47  O   UNL A   1      51.546  25.286  25.958  1.00  0.00    -0.237 OA
ATOM     48  O   UNL A   1      50.951  26.534  27.995  1.00  0.00    -0.237 OA
ATOM     49  O   UNL A   1      50.096  24.254  27.671  1.00  0.00    -0.744 OA
ENDBRANCH  43  46
ENDBRANCH  25  39
BRANCH  26  50
ATOM     50  C   UNL A   1      38.530  29.942  30.721  1.00  0.00     0.023 A 
ATOM     51  C   UNL A   1      38.330  29.600  32.071  1.00  0.00     0.012 A 
ATOM     52  C   UNL A   1      37.571  30.736  30.064  1.00  0.00     0.148 A 
ATOM     53  C   UNL A   1      37.191  30.033  32.751  1.00  0.00     0.002 A 
ATOM     54  C   UNL A   1      36.470  31.216  30.765  1.00  0.00     0.091 A 
ATOM     55  F   UNL A   1      37.763  31.034  28.771  1.00  0.00    -0.205 F 
ATOM     56  C   UNL A   1      36.270  30.854  32.104  1.00  0.00     0.022 A 
BRANCH  54  57
ATOM     57  S   UNL A   1      35.349  32.410  30.026  1.00  0.00     0.127 S 
ATOM     58  O   UNL A   1      34.404  32.651  31.112  1.00  0.00    -0.237 OA
ATOM     59  O   UNL A   1      36.237  33.532  29.720  1.00  0.00    -0.237 OA
ATOM     60  O   UNL A   1      34.820  31.738  28.845  1.00  0.00    -0.744 OA
ENDBRANCH  54  57
ENDBRANCH  26  50
BRANCH  38  61
ATOM     61  C   UNL A   1      44.652  33.063  29.517  1.00  0.00     0.023 A 
ATOM     62  C   UNL A   1      45.403  33.163  30.706  1.00  0.00     0.012 A 
ATOM     63  C   UNL A   1      44.476  34.201  28.708  1.00  0.00     0.148 A 
ATOM     64  C   UNL A   1      45.944  34.385  31.099  1.00  0.00     0.002 A 
ATOM     65  C   UNL A   1      45.051  35.409  29.089  1.00  0.00     0.091 A 
ATOM     66  F   UNL A   1      43.737  34.091  27.595  1.00  0.00    -0.205 F 
ATOM     67  C   UNL A   1      45.779  35.504  30.287  1.00  0.00     0.022 A 
BRANCH  65  68
ATOM     68  S   UNL A   1      44.944  36.874  28.055  1.00  0.00     0.127 S 
ATOM     69  O   UNL A   1      43.546  37.258  28.225  1.00  0.00    -0.237 OA
ATOM     70  O   UNL A   1      45.907  37.779  28.686  1.00  0.00    -0.237 OA
ATOM     71  O   UNL A   1      45.326  36.435  26.719  1.00  0.00    -0.744 OA
ENDBRANCH  65  68
ENDBRANCH  38  61
ENDBRANCH  12  13
ENDBRANCH   5   7
ENDBRANCH   2   3
ENDBRANCH   1   2
BRANCH   1  72
ATOM     72  C   UNL A   1      35.384  23.674  24.095  1.00  0.00     0.023 C 
BRANCH  72  73
ATOM     73  C   UNL A   1      33.879  23.673  23.834  1.00  0.00     0.116 C 
BRANCH  73  74
ATOM     74  N   UNL A   1      33.579  24.211  22.523  1.00  0.00    -0.354 N 
ATOM     75  C   UNL A   1      33.356  25.471  22.070  1.00  0.00     0.242 C 
ATOM     76  H   UNL A   1      33.525  23.526  21.820  1.00  0.00     0.163 HD
ATOM     77  O   UNL A   1      33.187  25.591  20.847  1.00  0.00    -0.273 OA
BRANCH  75  78
ATOM     78  C   UNL A   1      33.310  26.745  22.965  1.00  0.00     0.175 C 
ATOM     79  C   UNL A   1      33.716  28.127  22.454  1.00  0.00     0.036 C 
ATOM     80  N   UNL A   1      32.090  26.900  23.787  1.00  0.00    -0.322 N 
ATOM     81  C   UNL A   1      33.863  29.156  23.592  1.00  0.00     0.008 C 
ATOM     82  C   UNL A   1      32.217  27.788  24.959  1.00  0.00     0.089 C 
ATOM     83  C   UNL A   1      33.562  28.561  24.972  1.00  0.00     0.012 C 
ATOM     84  C   UNL A   1      32.048  27.073  26.304  1.00  0.00     0.025 C 
ATOM     85  C   UNL A   1      33.542  29.626  26.073  1.00  0.00     0.006 C 
ATOM     86  C   UNL A   1      32.046  28.094  27.445  1.00  0.00     0.002 C 
ATOM     87  C   UNL A   1      33.289  28.985  27.437  1.00  0.00     0.000 C 
BRANCH  80  88
ATOM     88  C   UNL A   1      30.852  26.616  23.190  1.00  0.00     0.272 C 
ATOM     89  O   UNL A   1      30.441  25.470  23.040  1.00  0.00    -0.267 OA
BRANCH  88  90
ATOM     90  C   UNL A   1      30.049  27.730  22.768  1.00  0.00     0.123 A 
ATOM     91  C   UNL A   1      28.790  28.141  23.156  1.00  0.00     0.055 A 
ATOM     92  N   UNL A   1      30.500  28.702  21.916  1.00  0.00    -0.273 N 
ATOM     93  C   UNL A   1      28.547  29.312  22.416  1.00  0.00     0.135 A 
ATOM     94  N   UNL A   1      29.574  29.637  21.629  1.00  0.00    -0.183 NA
ATOM     95  H   UNL A   1      31.413  28.715  21.548  1.00  0.00     0.190 HD
ENDBRANCH  88  90
ENDBRANCH  80  88
ENDBRANCH  75  78
ENDBRANCH  73  74
ENDBRANCH  72  73
ENDBRANCH   1  72
TORSDOF 16
ENDMDL
