MODEL 1
REMARK VINA RESULT:     -10.6      0.000      0.000
REMARK SMILES CCOC(=O)c1c(NC(=O)/C=C(/C)C(=O)NCCCCNC(=O)c2ccc(-c3c4nc(c(-c5cccc(S(=O)(=O)[O-])c5F)c5ccc([nH]5)c(-c5cccc(S(=O)(=O)[O-])c5F)c5nc(c(-c6cccc(S(=O)(=O)[O-])c6F)c6ccc3[nH]6)C=C5)C=C4)cc2)sc2c1CC[C@H](C(C)(C)C)C2
REMARK SMILES IDX 17 1 16 2 14 3 15 4 12 6 11 7 13 8 9 9 8 10 10 12 7 13 6 14
REMARK SMILES IDX 89 15 87 16 88 17 90 18 97 19 91 20 92 21 4 22 5 23 3 24
REMARK SMILES IDX 2 25 1 26 93 27 94 28 95 29 96 30 18 31 19 32 20 33 21 34
REMARK SMILES IDX 22 35 23 37 24 38 25 39 86 40 26 41 85 42 27 43 28 44 29 45
REMARK SMILES IDX 79 46 30 47 84 48 78 49 80 50 31 51 83 52 77 53 76 54 32 56
REMARK SMILES IDX 64 57 44 58 63 59 45 60 48 61 62 62 81 63 46 64 47 65 61 67
REMARK SMILES IDX 82 68 49 69 33 70 34 71 42 72 35 73 37 74 43 75 36 76 38 77
REMARK SMILES IDX 39 78 40 79 41 80 65 81 66 82 74 83 67 84 69 85 75 86 68 87
REMARK SMILES IDX 70 88 71 89 72 90 73 91 50 92 51 93 59 94 52 95 54 96 60 97
REMARK SMILES IDX 53 98 55 99 56 100 57 101 58 102
REMARK H PARENT 16 5 8 11 21 36 80 55 48 66
REMARK Flexibility Score: inf
ROOT
ATOM      1  C   UNL A   1      35.735  30.475  27.647  1.00  0.00     0.116 C 
ENDROOT
BRANCH   1   2
ATOM      2  N   UNL A   1      34.931  29.309  26.889  1.00  0.00    -0.352 N 
ATOM      3  C   UNL A   1      34.010  28.699  26.047  1.00  0.00     0.247 C 
ATOM      4  O   UNL A   1      34.333  27.498  25.907  1.00  0.00    -0.270 OA
ATOM      5  H   UNL A   1      35.382  28.516  27.260  1.00  0.00     0.163 HD
BRANCH   3   6
ATOM      6  C   UNL A   1      32.716  29.062  25.243  1.00  0.00     0.019 C 
ATOM      7  C   UNL A   1      32.826  29.126  23.899  1.00  0.00     0.080 C 
ATOM      8  C   UNL A   1      31.245  29.365  25.499  1.00  0.00     0.050 C 
BRANCH   7   9
ATOM      9  C   UNL A   1      33.809  28.571  22.980  1.00  0.00     0.249 C 
ATOM     10  N   UNL A   1      33.307  27.637  22.127  1.00  0.00    -0.313 N 
ATOM     11  H   UNL A   1      33.684  27.653  21.217  1.00  0.00     0.171 HD
ATOM     12  O   UNL A   1      34.834  29.201  22.733  1.00  0.00    -0.270 OA
BRANCH  10  13
ATOM     13  C   UNL A   1      32.344  26.667  22.348  1.00  0.00     0.110 A 
ATOM     14  C   UNL A   1      31.491  26.348  23.415  1.00  0.00     0.098 A 
ATOM     15  C   UNL A   1      32.228  25.195  24.017  1.00  0.00    -0.017 A 
ATOM     16  S   UNL A   1      32.840  25.238  21.531  1.00  0.00    -0.122 S 
ATOM     17  C   UNL A   1      32.885  24.452  23.032  1.00  0.00     0.011 A 
ATOM     18  C   UNL A   1      32.316  24.693  25.422  1.00  0.00     0.038 C 
ATOM     19  C   UNL A   1      33.520  23.090  23.220  1.00  0.00     0.051 C 
ATOM     20  C   UNL A   1      33.009  23.342  25.628  1.00  0.00     0.009 C 
ATOM     21  C   UNL A   1      32.809  22.418  24.413  1.00  0.00    -0.000 C 
BRANCH  14  22
ATOM     22  C   UNL A   1      29.999  26.782  23.445  1.00  0.00     0.341 C 
ATOM     23  O   UNL A   1      29.203  25.974  23.925  1.00  0.00    -0.246 OA
BRANCH  22  24
ATOM     24  O   UNL A   1      29.418  27.941  22.936  1.00  0.00    -0.462 OA
BRANCH  24  25
ATOM     25  C   UNL A   1      28.663  29.289  22.376  1.00  0.00     0.230 C 
ATOM     26  C   UNL A   1      27.995  30.399  23.247  1.00  0.00     0.049 C 
ENDBRANCH  24  25
ENDBRANCH  22  24
ENDBRANCH  14  22
BRANCH  21  27
ATOM     27  C   UNL A   1      33.112  20.912  24.704  1.00  0.00    -0.035 C 
ATOM     28  C   UNL A   1      34.631  20.765  24.546  1.00  0.00     0.011 C 
ATOM     29  C   UNL A   1      32.785  20.468  26.135  1.00  0.00     0.011 C 
ATOM     30  C   UNL A   1      32.435  19.926  23.726  1.00  0.00     0.011 C 
ENDBRANCH  21  27
ENDBRANCH  10  13
ENDBRANCH   7   9
ENDBRANCH   3   6
ENDBRANCH   1   2
BRANCH   1  31
ATOM     31  C   UNL A   1      35.417  32.023  28.016  1.00  0.00     0.023 C 
BRANCH  31  32
ATOM     32  C   UNL A   1      34.052  32.776  28.034  1.00  0.00     0.023 C 
BRANCH  32  33
ATOM     33  C   UNL A   1      34.000  34.316  28.039  1.00  0.00     0.116 C 
BRANCH  33  34
ATOM     34  N   UNL A   1      33.215  34.915  29.106  1.00  0.00    -0.352 N 
ATOM     35  C   UNL A   1      33.439  34.882  30.472  1.00  0.00     0.251 C 
ATOM     36  H   UNL A   1      32.415  35.411  28.818  1.00  0.00     0.163 HD
ATOM     37  O   UNL A   1      32.634  35.424  31.228  1.00  0.00    -0.269 OA
BRANCH  35  38
ATOM     38  C   UNL A   1      34.617  34.182  31.057  1.00  0.00     0.039 A 
ATOM     39  C   UNL A   1      34.426  33.031  31.830  1.00  0.00     0.014 A 
ATOM     40  C   UNL A   1      35.908  34.687  30.919  1.00  0.00     0.014 A 
ATOM     41  C   UNL A   1      35.526  32.335  32.377  1.00  0.00     0.010 A 
ATOM     42  C   UNL A   1      37.005  33.961  31.430  1.00  0.00     0.010 A 
ATOM     43  C   UNL A   1      36.848  32.746  32.137  1.00  0.00    -0.014 A 
BRANCH  43  44
ATOM     44  C   UNL A   1      38.053  31.906  32.535  1.00  0.00     0.031 A 
ATOM     45  C   UNL A   1      38.813  32.183  33.823  1.00  0.00     0.074 A 
ATOM     46  C   UNL A   1      38.581  30.967  31.708  1.00  0.00     0.049 A 
ATOM     47  N   UNL A   1      39.952  31.685  34.243  1.00  0.00    -0.248 NA
ATOM     48  C   UNL A   1      38.236  33.181  34.735  1.00  0.00     0.031 C 
ATOM     49  C   UNL A   1      38.071  30.600  30.384  1.00  0.00     0.029 A 
ATOM     50  N   UNL A   1      39.704  30.167  31.843  1.00  0.00    -0.354 N 
ATOM     51  C   UNL A   1      40.261  32.358  35.420  1.00  0.00     0.074 A 
ATOM     52  C   UNL A   1      39.208  33.331  35.624  1.00  0.00     0.031 C 
ATOM     53  C   UNL A   1      38.863  29.662  29.838  1.00  0.00     0.029 A 
ATOM     54  C   UNL A   1      39.963  29.362  30.751  1.00  0.00     0.049 A 
ATOM     55  H   UNL A   1      40.269  30.172  32.648  1.00  0.00     0.167 HD
ATOM     56  C   UNL A   1      41.289  32.173  36.288  1.00  0.00     0.034 A 
ATOM     57  C   UNL A   1      40.960  28.487  30.489  1.00  0.00     0.034 A 
ATOM     58  C   UNL A   1      42.289  31.144  36.181  1.00  0.00     0.049 A 
ATOM     59  C   UNL A   1      42.050  28.239  31.504  1.00  0.00     0.074 A 
ATOM     60  C   UNL A   1      43.283  30.819  37.091  1.00  0.00     0.029 A 
ATOM     61  N   UNL A   1      42.422  30.268  35.120  1.00  0.00    -0.354 N 
ATOM     62  N   UNL A   1      42.218  28.782  32.683  1.00  0.00    -0.248 NA
ATOM     63  C   UNL A   1      43.070  27.227  31.167  1.00  0.00     0.031 C 
ATOM     64  C   UNL A   1      44.025  29.753  36.573  1.00  0.00     0.029 A 
ATOM     65  C   UNL A   1      43.475  29.399  35.354  1.00  0.00     0.049 A 
ATOM     66  H   UNL A   1      41.851  30.262  34.317  1.00  0.00     0.167 HD
ATOM     67  C   UNL A   1      43.317  28.139  33.247  1.00  0.00     0.074 A 
ATOM     68  C   UNL A   1      43.779  27.163  32.287  1.00  0.00     0.031 C 
ATOM     69  C   UNL A   1      43.889  28.354  34.456  1.00  0.00     0.034 A 
BRANCH  56  70
ATOM     70  C   UNL A   1      41.348  33.066  37.505  1.00  0.00     0.023 A 
ATOM     71  C   UNL A   1      40.668  32.683  38.679  1.00  0.00     0.012 A 
ATOM     72  C   UNL A   1      42.126  34.241  37.510  1.00  0.00     0.148 A 
ATOM     73  C   UNL A   1      40.710  33.483  39.819  1.00  0.00     0.002 A 
ATOM     74  C   UNL A   1      42.208  35.006  38.668  1.00  0.00     0.091 A 
ATOM     75  F   UNL A   1      42.767  34.591  36.386  1.00  0.00    -0.205 F 
ATOM     76  C   UNL A   1      41.486  34.638  39.816  1.00  0.00     0.022 A 
BRANCH  74  77
ATOM     77  S   UNL A   1      43.255  36.459  38.800  1.00  0.00     0.127 S 
ATOM     78  O   UNL A   1      42.869  37.209  37.606  1.00  0.00    -0.237 OA
ATOM     79  O   UNL A   1      42.806  37.050  40.061  1.00  0.00    -0.237 OA
ATOM     80  O   UNL A   1      44.625  35.966  38.816  1.00  0.00    -0.744 OA
ENDBRANCH  74  77
ENDBRANCH  56  70
BRANCH  57  81
ATOM     81  C   UNL A   1      40.954  27.688  29.224  1.00  0.00     0.023 A 
ATOM     82  C   UNL A   1      40.125  26.549  29.139  1.00  0.00     0.012 A 
ATOM     83  C   UNL A   1      41.777  28.017  28.131  1.00  0.00     0.148 A 
ATOM     84  C   UNL A   1      40.151  25.728  28.010  1.00  0.00     0.002 A 
ATOM     85  C   UNL A   1      41.759  27.224  26.988  1.00  0.00     0.091 A 
ATOM     86  F   UNL A   1      42.564  29.098  28.233  1.00  0.00    -0.205 F 
ATOM     87  C   UNL A   1      40.963  26.069  26.933  1.00  0.00     0.022 A 
BRANCH  85  88
ATOM     88  S   UNL A   1      42.685  27.638  25.505  1.00  0.00     0.127 S 
ATOM     89  O   UNL A   1      42.442  26.468  24.664  1.00  0.00    -0.237 OA
ATOM     90  O   UNL A   1      42.014  28.862  25.066  1.00  0.00    -0.237 OA
ATOM     91  O   UNL A   1      44.061  27.828  25.941  1.00  0.00    -0.744 OA
ENDBRANCH  85  88
ENDBRANCH  57  81
BRANCH  69  92
ATOM     92  C   UNL A   1      45.032  27.475  34.895  1.00  0.00     0.023 A 
ATOM     93  C   UNL A   1      46.364  27.905  34.735  1.00  0.00     0.012 A 
ATOM     94  C   UNL A   1      44.774  26.277  35.596  1.00  0.00     0.148 A 
ATOM     95  C   UNL A   1      47.418  27.156  35.260  1.00  0.00     0.002 A 
ATOM     96  C   UNL A   1      45.826  25.561  36.156  1.00  0.00     0.091 A 
ATOM     97  F   UNL A   1      43.501  25.874  35.720  1.00  0.00    -0.205 F 
ATOM     98  C   UNL A   1      47.149  25.996  35.984  1.00  0.00     0.022 A 
BRANCH  96  99
ATOM     99  S   UNL A   1      45.570  24.114  37.192  1.00  0.00     0.127 S 
ATOM    100  O   UNL A   1      44.706  24.650  38.244  1.00  0.00    -0.237 OA
ATOM    101  O   UNL A   1      44.907  23.190  36.272  1.00  0.00    -0.237 OA
ATOM    102  O   UNL A   1      46.893  23.692  37.632  1.00  0.00    -0.744 OA
ENDBRANCH  96  99
ENDBRANCH  69  92
ENDBRANCH  43  44
ENDBRANCH  35  38
ENDBRANCH  33  34
ENDBRANCH  32  33
ENDBRANCH  31  32
ENDBRANCH   1  31
TORSDOF 20
ENDMDL
MODEL 2
REMARK VINA RESULT:     -10.2      5.259     12.647
REMARK SMILES CCOC(=O)c1c(NC(=O)/C=C(/C)C(=O)NCCCCNC(=O)c2ccc(-c3c4nc(c(-c5cccc(S(=O)(=O)[O-])c5F)c5ccc([nH]5)c(-c5cccc(S(=O)(=O)[O-])c5F)c5nc(c(-c6cccc(S(=O)(=O)[O-])c6F)c6ccc3[nH]6)C=C5)C=C4)cc2)sc2c1CC[C@H](C(C)(C)C)C2
REMARK SMILES IDX 17 1 16 2 14 3 15 4 12 6 11 7 13 8 9 9 8 10 10 12 7 13 6 14
REMARK SMILES IDX 89 15 87 16 88 17 90 18 97 19 91 20 92 21 4 22 5 23 3 24
REMARK SMILES IDX 2 25 1 26 93 27 94 28 95 29 96 30 18 31 19 32 20 33 21 34
REMARK SMILES IDX 22 35 23 37 24 38 25 39 86 40 26 41 85 42 27 43 28 44 29 45
REMARK SMILES IDX 79 46 30 47 84 48 78 49 80 50 31 51 83 52 77 53 76 54 32 56
REMARK SMILES IDX 64 57 44 58 63 59 45 60 48 61 62 62 81 63 46 64 47 65 61 67
REMARK SMILES IDX 82 68 49 69 33 70 34 71 42 72 35 73 37 74 43 75 36 76 38 77
REMARK SMILES IDX 39 78 40 79 41 80 65 81 66 82 74 83 67 84 69 85 75 86 68 87
REMARK SMILES IDX 70 88 71 89 72 90 73 91 50 92 51 93 59 94 52 95 54 96 60 97
REMARK SMILES IDX 53 98 55 99 56 100 57 101 58 102
REMARK H PARENT 16 5 8 11 21 36 80 55 48 66
REMARK Flexibility Score: inf
ROOT
ATOM      1  C   UNL A   1      43.582  23.113  30.161  1.00  0.00     0.116 C 
ENDROOT
BRANCH   1   2
ATOM      2  N   UNL A   1      44.500  24.167  30.951  1.00  0.00    -0.352 N 
ATOM      3  C   UNL A   1      44.986  24.944  31.996  1.00  0.00     0.247 C 
ATOM      4  O   UNL A   1      46.106  25.394  31.670  1.00  0.00    -0.270 OA
ATOM      5  H   UNL A   1      45.115  24.438  30.231  1.00  0.00     0.163 HD
BRANCH   3   6
ATOM      6  C   UNL A   1      44.552  25.412  33.427  1.00  0.00     0.019 C 
ATOM      7  C   UNL A   1      43.948  26.615  33.522  1.00  0.00     0.080 C 
ATOM      8  C   UNL A   1      44.566  24.901  34.862  1.00  0.00     0.050 C 
BRANCH   7   9
ATOM      9  C   UNL A   1      43.267  27.439  32.533  1.00  0.00     0.249 C 
ATOM     10  N   UNL A   1      43.237  28.764  32.841  1.00  0.00    -0.313 N 
ATOM     11  H   UNL A   1      43.330  29.375  32.073  1.00  0.00     0.171 HD
ATOM     12  O   UNL A   1      43.143  27.029  31.382  1.00  0.00    -0.270 OA
BRANCH  10  13
ATOM     13  C   UNL A   1      43.095  29.382  34.071  1.00  0.00     0.110 A 
ATOM     14  C   UNL A   1      42.248  29.200  35.175  1.00  0.00     0.098 A 
ATOM     15  C   UNL A   1      41.265  30.304  34.948  1.00  0.00    -0.017 A 
ATOM     16  S   UNL A   1      43.464  31.049  33.869  1.00  0.00    -0.122 S 
ATOM     17  C   UNL A   1      41.883  31.411  34.358  1.00  0.00     0.011 A 
ATOM     18  C   UNL A   1      39.817  30.435  35.294  1.00  0.00     0.038 C 
ATOM     19  C   UNL A   1      41.278  32.791  34.206  1.00  0.00     0.051 C 
ATOM     20  C   UNL A   1      39.183  31.814  35.088  1.00  0.00     0.009 C 
ATOM     21  C   UNL A   1      40.208  32.942  35.308  1.00  0.00    -0.000 C 
BRANCH  14  22
ATOM     22  C   UNL A   1      42.694  28.425  36.446  1.00  0.00     0.341 C 
ATOM     23  O   UNL A   1      43.619  28.919  37.093  1.00  0.00    -0.246 OA
BRANCH  22  24
ATOM     24  O   UNL A   1      42.238  27.200  36.925  1.00  0.00    -0.462 OA
BRANCH  24  25
ATOM     25  C   UNL A   1      41.767  25.749  37.537  1.00  0.00     0.230 C 
ATOM     26  C   UNL A   1      40.296  25.261  37.720  1.00  0.00     0.049 C 
ENDBRANCH  24  25
ENDBRANCH  22  24
ENDBRANCH  14  22
BRANCH  21  27
ATOM     27  C   UNL A   1      39.565  34.350  35.529  1.00  0.00    -0.035 C 
ATOM     28  C   UNL A   1      39.507  34.535  37.050  1.00  0.00     0.011 C 
ATOM     29  C   UNL A   1      40.402  35.516  34.988  1.00  0.00     0.011 C 
ATOM     30  C   UNL A   1      38.129  34.488  34.977  1.00  0.00     0.011 C 
ENDBRANCH  21  27
ENDBRANCH  10  13
ENDBRANCH   7   9
ENDBRANCH   3   6
ENDBRANCH   1   2
BRANCH   1  31
ATOM     31  C   UNL A   1      43.024  23.002  28.641  1.00  0.00     0.023 C 
BRANCH  31  32
ATOM     32  C   UNL A   1      42.372  21.788  27.913  1.00  0.00     0.023 C 
BRANCH  32  33
ATOM     33  C   UNL A   1      41.954  21.888  26.433  1.00  0.00     0.116 C 
BRANCH  33  34
ATOM     34  N   UNL A   1      40.542  21.673  26.162  1.00  0.00    -0.352 N 
ATOM     35  C   UNL A   1      39.488  22.562  26.293  1.00  0.00     0.251 C 
ATOM     36  H   UNL A   1      40.303  20.773  25.843  1.00  0.00     0.163 HD
ATOM     37  O   UNL A   1      38.345  22.181  26.047  1.00  0.00    -0.269 OA
BRANCH  35  38
ATOM     38  C   UNL A   1      39.697  23.964  26.751  1.00  0.00     0.039 A 
ATOM     39  C   UNL A   1      39.377  24.318  28.067  1.00  0.00     0.014 A 
ATOM     40  C   UNL A   1      40.134  24.959  25.880  1.00  0.00     0.014 A 
ATOM     41  C   UNL A   1      39.587  25.634  28.535  1.00  0.00     0.010 A 
ATOM     42  C   UNL A   1      40.384  26.259  26.366  1.00  0.00     0.010 A 
ATOM     43  C   UNL A   1      40.157  26.623  27.714  1.00  0.00    -0.014 A 
BRANCH  43  44
ATOM     44  C   UNL A   1      40.584  27.982  28.246  1.00  0.00     0.031 A 
ATOM     45  C   UNL A   1      42.053  28.323  28.444  1.00  0.00     0.074 A 
ATOM     46  C   UNL A   1      39.684  28.899  28.689  1.00  0.00     0.049 A 
ATOM     47  N   UNL A   1      42.597  29.359  29.037  1.00  0.00    -0.248 NA
ATOM     48  C   UNL A   1      43.035  27.348  27.948  1.00  0.00     0.031 C 
ATOM     49  C   UNL A   1      38.226  28.746  28.682  1.00  0.00     0.029 A 
ATOM     50  N   UNL A   1      39.866  30.139  29.278  1.00  0.00    -0.354 N 
ATOM     51  C   UNL A   1      43.968  29.126  29.050  1.00  0.00     0.074 A 
ATOM     52  C   UNL A   1      44.168  27.828  28.442  1.00  0.00     0.031 C 
ATOM     53  C   UNL A   1      37.655  29.833  29.227  1.00  0.00     0.029 A 
ATOM     54  C   UNL A   1      38.694  30.766  29.655  1.00  0.00     0.049 A 
ATOM     55  H   UNL A   1      40.754  30.540  29.415  1.00  0.00     0.167 HD
ATOM     56  C   UNL A   1      44.985  29.918  29.478  1.00  0.00     0.034 A 
ATOM     57  C   UNL A   1      38.459  31.944  30.275  1.00  0.00     0.034 A 
ATOM     58  C   UNL A   1      44.836  31.258  29.981  1.00  0.00     0.049 A 
ATOM     59  C   UNL A   1      39.604  32.845  30.671  1.00  0.00     0.074 A 
ATOM     60  C   UNL A   1      45.833  32.162  30.313  1.00  0.00     0.029 A 
ATOM     61  N   UNL A   1      43.631  31.893  30.214  1.00  0.00    -0.354 N 
ATOM     62  N   UNL A   1      40.891  32.659  30.518  1.00  0.00    -0.248 NA
ATOM     63  C   UNL A   1      39.263  34.139  31.293  1.00  0.00     0.031 C 
ATOM     64  C   UNL A   1      45.229  33.342  30.758  1.00  0.00     0.029 A 
ATOM     65  C   UNL A   1      43.857  33.179  30.678  1.00  0.00     0.049 A 
ATOM     66  H   UNL A   1      42.744  31.492  30.071  1.00  0.00     0.167 HD
ATOM     67  C   UNL A   1      41.502  33.829  30.965  1.00  0.00     0.074 A 
ATOM     68  C   UNL A   1      40.451  34.722  31.394  1.00  0.00     0.031 C 
ATOM     69  C   UNL A   1      42.823  34.120  31.017  1.00  0.00     0.034 A 
BRANCH  56  70
ATOM     70  C   UNL A   1      46.392  29.384  29.346  1.00  0.00     0.023 A 
ATOM     71  C   UNL A   1      46.911  28.544  30.352  1.00  0.00     0.012 A 
ATOM     72  C   UNL A   1      47.169  29.654  28.202  1.00  0.00     0.148 A 
ATOM     73  C   UNL A   1      48.202  28.032  30.254  1.00  0.00     0.002 A 
ATOM     74  C   UNL A   1      48.437  29.094  28.085  1.00  0.00     0.091 A 
ATOM     75  F   UNL A   1      46.661  30.453  27.254  1.00  0.00    -0.205 F 
ATOM     76  C   UNL A   1      48.962  28.299  29.118  1.00  0.00     0.022 A 
BRANCH  74  77
ATOM     77  S   UNL A   1      49.457  29.298  26.621  1.00  0.00     0.127 S 
ATOM     78  O   UNL A   1      50.674  28.588  27.009  1.00  0.00    -0.237 OA
ATOM     79  O   UNL A   1      48.661  28.626  25.593  1.00  0.00    -0.237 OA
ATOM     80  O   UNL A   1      49.602  30.734  26.431  1.00  0.00    -0.744 OA
ENDBRANCH  74  77
ENDBRANCH  56  70
BRANCH  57  81
ATOM     81  C   UNL A   1      37.057  32.413  30.506  1.00  0.00     0.023 A 
ATOM     82  C   UNL A   1      36.465  32.202  31.769  1.00  0.00     0.012 A 
ATOM     83  C   UNL A   1      36.299  33.024  29.490  1.00  0.00     0.148 A 
ATOM     84  C   UNL A   1      35.132  32.548  32.002  1.00  0.00     0.002 A 
ATOM     85  C   UNL A   1      34.987  33.413  29.744  1.00  0.00     0.091 A 
ATOM     86  F   UNL A   1      36.875  33.208  28.293  1.00  0.00    -0.205 F 
ATOM     87  C   UNL A   1      34.397  33.158  30.992  1.00  0.00     0.022 A 
BRANCH  85  88
ATOM     88  S   UNL A   1      33.991  34.306  28.545  1.00  0.00     0.127 S 
ATOM     89  O   UNL A   1      34.841  35.457  28.247  1.00  0.00    -0.237 OA
ATOM     90  O   UNL A   1      33.876  33.327  27.464  1.00  0.00    -0.237 OA
ATOM     91  O   UNL A   1      32.737  34.607  29.223  1.00  0.00    -0.744 OA
ENDBRANCH  85  88
ENDBRANCH  57  81
BRANCH  69  92
ATOM     92  C   UNL A   1      43.256  35.493  31.467  1.00  0.00     0.023 A 
ATOM     93  C   UNL A   1      43.578  35.731  32.817  1.00  0.00     0.012 A 
ATOM     94  C   UNL A   1      43.476  36.512  30.515  1.00  0.00     0.148 A 
ATOM     95  C   UNL A   1      44.105  36.962  33.213  1.00  0.00     0.002 A 
ATOM     96  C   UNL A   1      44.046  37.717  30.909  1.00  0.00     0.091 A 
ATOM     97  F   UNL A   1      43.145  36.273  29.238  1.00  0.00    -0.205 F 
ATOM     98  C   UNL A   1      44.354  37.947  32.259  1.00  0.00     0.022 A 
BRANCH  96  99
ATOM     99  S   UNL A   1      44.500  39.003  29.738  1.00  0.00     0.127 S 
ATOM    100  O   UNL A   1      43.196  39.389  29.198  1.00  0.00    -0.237 OA
ATOM    101  O   UNL A   1      45.120  40.005  30.605  1.00  0.00    -0.237 OA
ATOM    102  O   UNL A   1      45.406  38.380  28.783  1.00  0.00    -0.744 OA
ENDBRANCH  96  99
ENDBRANCH  69  92
ENDBRANCH  43  44
ENDBRANCH  35  38
ENDBRANCH  33  34
ENDBRANCH  32  33
ENDBRANCH  31  32
ENDBRANCH   1  31
TORSDOF 20
ENDMDL
MODEL 3
REMARK VINA RESULT:     -10.1      2.189      2.686
REMARK SMILES CCOC(=O)c1c(NC(=O)/C=C(/C)C(=O)NCCCCNC(=O)c2ccc(-c3c4nc(c(-c5cccc(S(=O)(=O)[O-])c5F)c5ccc([nH]5)c(-c5cccc(S(=O)(=O)[O-])c5F)c5nc(c(-c6cccc(S(=O)(=O)[O-])c6F)c6ccc3[nH]6)C=C5)C=C4)cc2)sc2c1CC[C@H](C(C)(C)C)C2
REMARK SMILES IDX 17 1 16 2 14 3 15 4 12 6 11 7 13 8 9 9 8 10 10 12 7 13 6 14
REMARK SMILES IDX 89 15 87 16 88 17 90 18 97 19 91 20 92 21 4 22 5 23 3 24
REMARK SMILES IDX 2 25 1 26 93 27 94 28 95 29 96 30 18 31 19 32 20 33 21 34
REMARK SMILES IDX 22 35 23 37 24 38 25 39 86 40 26 41 85 42 27 43 28 44 29 45
REMARK SMILES IDX 79 46 30 47 84 48 78 49 80 50 31 51 83 52 77 53 76 54 32 56
REMARK SMILES IDX 64 57 44 58 63 59 45 60 48 61 62 62 81 63 46 64 47 65 61 67
REMARK SMILES IDX 82 68 49 69 33 70 34 71 42 72 35 73 37 74 43 75 36 76 38 77
REMARK SMILES IDX 39 78 40 79 41 80 65 81 66 82 74 83 67 84 69 85 75 86 68 87
REMARK SMILES IDX 70 88 71 89 72 90 73 91 50 92 51 93 59 94 52 95 54 96 60 97
REMARK SMILES IDX 53 98 55 99 56 100 57 101 58 102
REMARK H PARENT 16 5 8 11 21 36 80 55 48 66
REMARK Flexibility Score: inf
ROOT
ATOM      1  C   UNL A   1      35.635  30.793  27.703  1.00  0.00     0.116 C 
ENDROOT
BRANCH   1   2
ATOM      2  N   UNL A   1      34.903  29.590  26.932  1.00  0.00    -0.352 N 
ATOM      3  C   UNL A   1      34.023  28.935  26.079  1.00  0.00     0.247 C 
ATOM      4  O   UNL A   1      34.413  27.756  25.933  1.00  0.00    -0.270 OA
ATOM      5  H   UNL A   1      35.394  28.821  27.299  1.00  0.00     0.163 HD
BRANCH   3   6
ATOM      6  C   UNL A   1      32.715  29.232  25.268  1.00  0.00     0.019 C 
ATOM      7  C   UNL A   1      32.818  29.248  23.922  1.00  0.00     0.080 C 
ATOM      8  C   UNL A   1      31.238  29.503  25.520  1.00  0.00     0.050 C 
BRANCH   7   9
ATOM      9  C   UNL A   1      33.813  28.687  23.019  1.00  0.00     0.249 C 
ATOM     10  N   UNL A   1      33.343  27.681  22.232  1.00  0.00    -0.313 N 
ATOM     11  H   UNL A   1      33.705  27.661  21.316  1.00  0.00     0.171 HD
ATOM     12  O   UNL A   1      34.802  29.349  22.717  1.00  0.00    -0.270 OA
BRANCH  10  13
ATOM     13  C   UNL A   1      32.432  26.681  22.526  1.00  0.00     0.110 A 
ATOM     14  C   UNL A   1      31.556  26.428  23.593  1.00  0.00     0.098 A 
ATOM     15  C   UNL A   1      32.336  25.397  24.345  1.00  0.00    -0.017 A 
ATOM     16  S   UNL A   1      33.046  25.206  21.893  1.00  0.00    -0.122 S 
ATOM     17  C   UNL A   1      33.077  24.594  23.473  1.00  0.00     0.011 A 
ATOM     18  C   UNL A   1      32.396  25.059  25.800  1.00  0.00     0.038 C 
ATOM     19  C   UNL A   1      33.784  23.305  23.835  1.00  0.00     0.051 C 
ATOM     20  C   UNL A   1      33.159  23.786  26.180  1.00  0.00     0.009 C 
ATOM     21  C   UNL A   1      33.065  22.723  25.070  1.00  0.00    -0.000 C 
BRANCH  14  22
ATOM     22  C   UNL A   1      30.042  26.766  23.522  1.00  0.00     0.341 C 
ATOM     23  O   UNL A   1      29.266  25.892  23.915  1.00  0.00    -0.246 OA
BRANCH  22  24
ATOM     24  O   UNL A   1      29.424  27.903  23.007  1.00  0.00    -0.462 OA
BRANCH  24  25
ATOM     25  C   UNL A   1      28.626  29.217  22.429  1.00  0.00     0.230 C 
ATOM     26  C   UNL A   1      28.188  30.467  23.256  1.00  0.00     0.049 C 
ENDBRANCH  24  25
ENDBRANCH  22  24
ENDBRANCH  14  22
BRANCH  21  27
ATOM     27  C   UNL A   1      33.446  21.281  25.538  1.00  0.00    -0.035 C 
ATOM     28  C   UNL A   1      32.263  20.395  25.126  1.00  0.00     0.011 C 
ATOM     29  C   UNL A   1      34.681  20.697  24.841  1.00  0.00     0.011 C 
ATOM     30  C   UNL A   1      33.639  21.137  27.064  1.00  0.00     0.011 C 
ENDBRANCH  21  27
ENDBRANCH  10  13
ENDBRANCH   7   9
ENDBRANCH   3   6
ENDBRANCH   1   2
BRANCH   1  31
ATOM     31  C   UNL A   1      35.258  32.339  28.021  1.00  0.00     0.023 C 
BRANCH  31  32
ATOM     32  C   UNL A   1      33.861  33.030  28.053  1.00  0.00     0.023 C 
BRANCH  32  33
ATOM     33  C   UNL A   1      33.740  34.556  28.229  1.00  0.00     0.116 C 
BRANCH  33  34
ATOM     34  N   UNL A   1      32.947  34.997  29.365  1.00  0.00    -0.352 N 
ATOM     35  C   UNL A   1      33.213  34.855  30.716  1.00  0.00     0.251 C 
ATOM     36  H   UNL A   1      32.106  35.459  29.143  1.00  0.00     0.163 HD
ATOM     37  O   UNL A   1      32.396  35.266  31.538  1.00  0.00    -0.269 OA
BRANCH  35  38
ATOM     38  C   UNL A   1      34.454  34.190  31.206  1.00  0.00     0.039 A 
ATOM     39  C   UNL A   1      35.695  34.805  31.004  1.00  0.00     0.014 A 
ATOM     40  C   UNL A   1      34.421  32.930  31.797  1.00  0.00     0.014 A 
ATOM     41  C   UNL A   1      36.884  34.209  31.478  1.00  0.00     0.010 A 
ATOM     42  C   UNL A   1      35.608  32.363  32.309  1.00  0.00     0.010 A 
ATOM     43  C   UNL A   1      36.864  33.003  32.200  1.00  0.00    -0.014 A 
BRANCH  43  44
ATOM     44  C   UNL A   1      38.095  32.446  32.899  1.00  0.00     0.031 A 
ATOM     45  C   UNL A   1      38.454  32.867  34.315  1.00  0.00     0.074 A 
ATOM     46  C   UNL A   1      38.995  31.659  32.254  1.00  0.00     0.049 A 
ATOM     47  N   UNL A   1      39.543  32.629  35.007  1.00  0.00    -0.248 NA
ATOM     48  C   UNL A   1      37.476  33.701  35.030  1.00  0.00     0.031 C 
ATOM     49  C   UNL A   1      38.902  31.206  30.863  1.00  0.00     0.029 A 
ATOM     50  N   UNL A   1      40.202  31.127  32.676  1.00  0.00    -0.354 N 
ATOM     51  C   UNL A   1      39.413  33.338  36.196  1.00  0.00     0.074 A 
ATOM     52  C   UNL A   1      38.156  34.050  36.113  1.00  0.00     0.031 C 
ATOM     53  C   UNL A   1      39.985  30.474  30.552  1.00  0.00     0.029 A 
ATOM     54  C   UNL A   1      40.879  30.413  31.705  1.00  0.00     0.049 A 
ATOM     55  H   UNL A   1      40.548  31.245  33.589  1.00  0.00     0.167 HD
ATOM     56  C   UNL A   1      40.224  33.374  37.285  1.00  0.00     0.034 A 
ATOM     57  C   UNL A   1      42.076  29.784  31.716  1.00  0.00     0.034 A 
ATOM     58  C   UNL A   1      41.421  32.594  37.452  1.00  0.00     0.049 A 
ATOM     59  C   UNL A   1      42.925  29.771  32.964  1.00  0.00     0.074 A 
ATOM     60  C   UNL A   1      42.221  32.485  38.579  1.00  0.00     0.029 A 
ATOM     61  N   UNL A   1      41.987  31.783  36.486  1.00  0.00    -0.354 N 
ATOM     62  N   UNL A   1      42.690  30.322  34.128  1.00  0.00    -0.248 NA
ATOM     63  C   UNL A   1      44.192  29.015  32.913  1.00  0.00     0.031 C 
ATOM     64  C   UNL A   1      43.278  31.617  38.289  1.00  0.00     0.029 A 
ATOM     65  C   UNL A   1      43.120  31.166  36.991  1.00  0.00     0.049 A 
ATOM     66  H   UNL A   1      41.636  31.662  35.574  1.00  0.00     0.167 HD
ATOM     67  C   UNL A   1      43.739  29.931  34.956  1.00  0.00     0.074 A 
ATOM     68  C   UNL A   1      44.615  29.095  34.168  1.00  0.00     0.031 C 
ATOM     69  C   UNL A   1      43.951  30.251  36.254  1.00  0.00     0.034 A 
BRANCH  56  70
ATOM     70  C   UNL A   1      39.800  34.242  38.446  1.00  0.00     0.023 A 
ATOM     71  C   UNL A   1      40.113  35.616  38.434  1.00  0.00     0.012 A 
ATOM     72  C   UNL A   1      39.037  33.717  39.508  1.00  0.00     0.148 A 
ATOM     73  C   UNL A   1      39.729  36.442  39.488  1.00  0.00     0.002 A 
ATOM     74  C   UNL A   1      38.610  34.558  40.529  1.00  0.00     0.091 A 
ATOM     75  F   UNL A   1      38.746  32.408  39.504  1.00  0.00    -0.205 F 
ATOM     76  C   UNL A   1      38.970  35.916  40.530  1.00  0.00     0.022 A 
BRANCH  74  77
ATOM     77  S   UNL A   1      37.549  34.001  41.867  1.00  0.00     0.127 S 
ATOM     78  O   UNL A   1      37.490  35.192  42.711  1.00  0.00    -0.237 OA
ATOM     79  O   UNL A   1      36.303  33.690  41.165  1.00  0.00    -0.237 OA
ATOM     80  O   UNL A   1      38.217  32.847  42.454  1.00  0.00    -0.744 OA
ENDBRANCH  74  77
ENDBRANCH  56  70
BRANCH  57  81
ATOM     81  C   UNL A   1      42.541  29.021  30.516  1.00  0.00     0.023 A 
ATOM     82  C   UNL A   1      42.239  27.646  30.422  1.00  0.00     0.012 A 
ATOM     83  C   UNL A   1      43.302  29.625  29.498  1.00  0.00     0.148 A 
ATOM     84  C   UNL A   1      42.725  26.878  29.362  1.00  0.00     0.002 A 
ATOM     85  C   UNL A   1      43.739  28.864  28.417  1.00  0.00     0.091 A 
ATOM     86  F   UNL A   1      43.587  30.930  29.608  1.00  0.00    -0.205 F 
ATOM     87  C   UNL A   1      43.468  27.488  28.358  1.00  0.00     0.022 A 
BRANCH  85  88
ATOM     88  S   UNL A   1      44.609  29.578  27.017  1.00  0.00     0.127 S 
ATOM     89  O   UNL A   1      45.879  29.972  27.624  1.00  0.00    -0.237 OA
ATOM     90  O   UNL A   1      44.690  28.439  26.103  1.00  0.00    -0.237 OA
ATOM     91  O   UNL A   1      43.769  30.671  26.547  1.00  0.00    -0.744 OA
ENDBRANCH  85  88
ENDBRANCH  57  81
BRANCH  69  92
ATOM     92  C   UNL A   1      45.124  29.642  36.980  1.00  0.00     0.023 A 
ATOM     93  C   UNL A   1      46.336  30.348  37.094  1.00  0.00     0.012 A 
ATOM     94  C   UNL A   1      44.970  28.420  37.671  1.00  0.00     0.148 A 
ATOM     95  C   UNL A   1      47.378  29.847  37.877  1.00  0.00     0.002 A 
ATOM     96  C   UNL A   1      45.994  27.951  38.486  1.00  0.00     0.091 A 
ATOM     97  F   UNL A   1      43.815  27.753  37.534  1.00  0.00    -0.205 F 
ATOM     98  C   UNL A   1      47.201  28.660  38.584  1.00  0.00     0.022 A 
BRANCH  96  99
ATOM     99  S   UNL A   1      45.819  26.488  39.516  1.00  0.00     0.127 S 
ATOM    100  O   UNL A   1      44.512  26.714  40.134  1.00  0.00    -0.237 OA
ATOM    101  O   UNL A   1      45.848  25.410  38.528  1.00  0.00    -0.237 OA
ATOM    102  O   UNL A   1      46.949  26.502  40.435  1.00  0.00    -0.744 OA
ENDBRANCH  96  99
ENDBRANCH  69  92
ENDBRANCH  43  44
ENDBRANCH  35  38
ENDBRANCH  33  34
ENDBRANCH  32  33
ENDBRANCH  31  32
ENDBRANCH   1  31
TORSDOF 20
ENDMDL
