MODEL 1
REMARK VINA RESULT:     -13.9      0.000      0.000
REMARK SMILES CC[C@@]1(CC(=O)NCCCCNC(=O)c2ccc(-c3c4nc(c(-c5cccc(S(=O)(=O)[O-])c5F)c5ccc([nH]5)c(-c5cccc(S(=O)(=O)[O-])c5F)c5nc(c(-c6cccc(S(=O)(=O)[O-])c6F)c6ccc3[nH]6)C=C5)C=C4)cc2)OC[C@H](Cc2ccccc2)c2c1[nH]c1ccccc21
REMARK SMILES IDX 9 1 8 2 7 3 5 4 6 5 4 7 3 8 78 9 89 10 79 11 88 12 90 13
REMARK SMILES IDX 80 14 96 15 91 16 95 18 92 19 94 20 93 21 2 22 1 23 81 24
REMARK SMILES IDX 82 25 83 26 87 27 84 28 86 29 85 30 10 31 11 32 12 33 13 34
REMARK SMILES IDX 14 36 15 37 16 38 77 39 17 40 76 41 18 42 19 43 20 44 70 45
REMARK SMILES IDX 21 46 75 47 69 48 71 49 22 50 74 51 68 52 67 53 23 55 55 56
REMARK SMILES IDX 35 57 54 58 36 59 39 60 53 61 72 62 37 63 38 64 52 66 73 67
REMARK SMILES IDX 40 68 24 69 25 70 33 71 26 72 28 73 34 74 27 75 29 76 30 77
REMARK SMILES IDX 31 78 32 79 56 80 57 81 65 82 58 83 60 84 66 85 59 86 61 87
REMARK SMILES IDX 62 88 63 89 64 90 41 91 42 92 50 93 43 94 45 95 51 96 44 97
REMARK SMILES IDX 46 98 47 99 48 100 49 101
REMARK H PARENT 7 6 90 17 12 35 71 54 39 65
REMARK Flexibility Score: inf
ROOT
ATOM      1  C   UNL A   1      31.865  28.447  26.866  1.00  0.00     0.023 C 
ENDROOT
BRANCH   1   2
ATOM      2  C   UNL A   1      32.319  26.345  26.868  1.00  0.00     0.116 C 
BRANCH   2   3
ATOM      3  N   UNL A   1      31.517  25.086  26.699  1.00  0.00    -0.356 N 
ATOM      4  C   UNL A   1      31.253  24.657  25.438  1.00  0.00     0.223 C 
ATOM      5  O   UNL A   1      30.792  23.564  25.150  1.00  0.00    -0.275 OA
ATOM      6  H   UNL A   1      31.190  24.586  27.482  1.00  0.00     0.163 HD
BRANCH   4   7
ATOM      7  C   UNL A   1      31.634  25.712  24.464  1.00  0.00     0.142 C 
BRANCH   7   8
ATOM      8  C   UNL A   1      32.813  25.142  23.510  1.00  0.00     0.117 C 
ATOM      9  O   UNL A   1      31.906  24.194  22.211  1.00  0.00    -0.368 OA
ATOM     10  C   UNL A   1      34.058  24.092  24.476  1.00  0.00     0.052 A 
ATOM     11  C   UNL A   1      31.734  22.298  22.275  1.00  0.00     0.170 C 
ATOM     12  C   UNL A   1      34.098  22.488  24.590  1.00  0.00    -0.011 A 
ATOM     13  N   UNL A   1      35.221  24.547  25.009  1.00  0.00    -0.356 N 
ATOM     14  C   UNL A   1      32.890  21.351  23.615  1.00  0.00     0.052 C 
ATOM     15  C   UNL A   1      35.410  22.241  25.149  1.00  0.00     0.003 A 
ATOM     16  C   UNL A   1      36.065  23.488  25.299  1.00  0.00     0.046 A 
ATOM     17  H   UNL A   1      35.434  25.495  25.167  1.00  0.00     0.166 HD
ATOM     18  C   UNL A   1      36.179  21.078  25.383  1.00  0.00     0.010 A 
ATOM     19  C   UNL A   1      37.431  23.588  25.616  1.00  0.00     0.026 A 
ATOM     20  C   UNL A   1      37.552  21.179  25.664  1.00  0.00     0.001 A 
ATOM     21  C   UNL A   1      38.170  22.418  25.767  1.00  0.00     0.002 A 
BRANCH   8  22
ATOM     22  C   UNL A   1      33.448  26.527  23.109  1.00  0.00     0.039 C 
ATOM     23  C   UNL A   1      32.791  27.882  23.158  1.00  0.00     0.007 C 
ENDBRANCH   8  22
BRANCH  14  24
ATOM     24  C   UNL A   1      32.155  20.333  24.585  1.00  0.00     0.046 C 
BRANCH  24  25
ATOM     25  C   UNL A   1      32.644  18.908  24.441  1.00  0.00    -0.047 A 
ATOM     26  C   UNL A   1      32.855  18.135  25.582  1.00  0.00     0.004 A 
ATOM     27  C   UNL A   1      32.892  18.319  23.198  1.00  0.00     0.004 A 
ATOM     28  C   UNL A   1      33.366  16.840  25.517  1.00  0.00     0.000 A 
ATOM     29  C   UNL A   1      33.374  17.003  23.122  1.00  0.00     0.000 A 
ATOM     30  C   UNL A   1      33.628  16.271  24.281  1.00  0.00     0.000 A 
ENDBRANCH  24  25
ENDBRANCH  14  24
ENDBRANCH   7   8
ENDBRANCH   4   7
ENDBRANCH   2   3
ENDBRANCH   1   2
BRANCH   1  31
ATOM     31  C   UNL A   1      32.602  30.005  26.469  1.00  0.00     0.023 C 
BRANCH  31  32
ATOM     32  C   UNL A   1      33.369  31.090  27.302  1.00  0.00     0.116 C 
BRANCH  32  33
ATOM     33  N   UNL A   1      32.685  32.376  27.489  1.00  0.00    -0.352 N 
ATOM     34  C   UNL A   1      33.085  33.572  28.058  1.00  0.00     0.251 C 
ATOM     35  H   UNL A   1      31.764  32.390  27.141  1.00  0.00     0.163 HD
ATOM     36  O   UNL A   1      32.310  34.528  27.988  1.00  0.00    -0.269 OA
BRANCH  34  37
ATOM     37  C   UNL A   1      34.343  33.734  28.822  1.00  0.00     0.039 A 
ATOM     38  C   UNL A   1      35.439  34.446  28.353  1.00  0.00     0.014 A 
ATOM     39  C   UNL A   1      34.476  32.923  29.962  1.00  0.00     0.014 A 
ATOM     40  C   UNL A   1      36.699  34.025  28.720  1.00  0.00     0.010 A 
ATOM     41  C   UNL A   1      35.736  32.563  30.397  1.00  0.00     0.010 A 
ATOM     42  C   UNL A   1      36.825  32.992  29.652  1.00  0.00    -0.014 A 
BRANCH  42  43
ATOM     43  C   UNL A   1      38.138  32.391  29.816  1.00  0.00     0.031 A 
ATOM     44  C   UNL A   1      38.190  30.975  29.382  1.00  0.00     0.074 A 
ATOM     45  C   UNL A   1      39.190  33.085  30.297  1.00  0.00     0.049 A 
ATOM     46  N   UNL A   1      38.366  29.926  30.118  1.00  0.00    -0.248 NA
ATOM     47  C   UNL A   1      37.800  30.682  27.993  1.00  0.00     0.031 C 
ATOM     48  C   UNL A   1      39.295  34.528  30.541  1.00  0.00     0.029 A 
ATOM     49  N   UNL A   1      40.457  32.653  30.543  1.00  0.00    -0.354 N 
ATOM     50  C   UNL A   1      38.350  28.856  29.230  1.00  0.00     0.074 A 
ATOM     51  C   UNL A   1      37.806  29.350  27.991  1.00  0.00     0.031 C 
ATOM     52  C   UNL A   1      40.601  34.874  30.599  1.00  0.00     0.029 A 
ATOM     53  C   UNL A   1      41.411  33.672  30.536  1.00  0.00     0.049 A 
ATOM     54  H   UNL A   1      40.681  31.710  30.709  1.00  0.00     0.167 HD
ATOM     55  C   UNL A   1      39.034  27.710  29.481  1.00  0.00     0.034 A 
ATOM     56  C   UNL A   1      42.750  33.511  30.370  1.00  0.00     0.034 A 
ATOM     57  C   UNL A   1      39.390  27.576  30.865  1.00  0.00     0.049 A 
ATOM     58  C   UNL A   1      43.049  32.099  30.719  1.00  0.00     0.074 A 
ATOM     59  C   UNL A   1      38.678  27.512  32.047  1.00  0.00     0.029 A 
ATOM     60  N   UNL A   1      40.678  27.900  31.214  1.00  0.00    -0.354 N 
ATOM     61  N   UNL A   1      42.903  31.605  31.916  1.00  0.00    -0.248 NA
ATOM     62  C   UNL A   1      43.072  31.129  29.633  1.00  0.00     0.031 C 
ATOM     63  C   UNL A   1      39.444  28.274  32.975  1.00  0.00     0.029 A 
ATOM     64  C   UNL A   1      40.606  28.696  32.327  1.00  0.00     0.049 A 
ATOM     65  H   UNL A   1      41.499  27.614  30.752  1.00  0.00     0.167 HD
ATOM     66  C   UNL A   1      42.366  30.342  31.702  1.00  0.00     0.074 A 
ATOM     67  C   UNL A   1      42.572  30.073  30.280  1.00  0.00     0.031 C 
ATOM     68  C   UNL A   1      41.540  29.759  32.617  1.00  0.00     0.034 A 
BRANCH  55  69
ATOM     69  C   UNL A   1      39.704  26.910  28.399  1.00  0.00     0.023 A 
ATOM     70  C   UNL A   1      39.521  25.515  28.383  1.00  0.00     0.012 A 
ATOM     71  C   UNL A   1      40.709  27.447  27.562  1.00  0.00     0.148 A 
ATOM     72  C   UNL A   1      40.304  24.692  27.566  1.00  0.00     0.002 A 
ATOM     73  C   UNL A   1      41.428  26.638  26.696  1.00  0.00     0.091 A 
ATOM     74  F   UNL A   1      41.072  28.727  27.698  1.00  0.00    -0.205 F 
ATOM     75  C   UNL A   1      41.245  25.254  26.709  1.00  0.00     0.022 A 
BRANCH  73  76
ATOM     76  S   UNL A   1      42.632  27.325  25.554  1.00  0.00     0.127 S 
ATOM     77  O   UNL A   1      43.738  27.640  26.452  1.00  0.00    -0.237 OA
ATOM     78  O   UNL A   1      42.864  26.196  24.652  1.00  0.00    -0.237 OA
ATOM     79  O   UNL A   1      41.968  28.460  24.927  1.00  0.00    -0.744 OA
ENDBRANCH  73  76
ENDBRANCH  55  69
BRANCH  56  80
ATOM     80  C   UNL A   1      43.716  34.340  29.591  1.00  0.00     0.023 A 
ATOM     81  C   UNL A   1      44.629  35.162  30.292  1.00  0.00     0.012 A 
ATOM     82  C   UNL A   1      43.964  34.114  28.219  1.00  0.00     0.148 A 
ATOM     83  C   UNL A   1      45.773  35.679  29.670  1.00  0.00     0.002 A 
ATOM     84  C   UNL A   1      45.096  34.643  27.600  1.00  0.00     0.091 A 
ATOM     85  F   UNL A   1      43.151  33.303  27.533  1.00  0.00    -0.205 F 
ATOM     86  C   UNL A   1      46.014  35.409  28.327  1.00  0.00     0.022 A 
BRANCH  84  87
ATOM     87  S   UNL A   1      45.466  34.331  25.867  1.00  0.00     0.127 S 
ATOM     88  O   UNL A   1      44.181  34.608  25.224  1.00  0.00    -0.237 OA
ATOM     89  O   UNL A   1      46.511  35.314  25.597  1.00  0.00    -0.237 OA
ATOM     90  O   UNL A   1      45.875  32.933  25.797  1.00  0.00    -0.744 OA
ENDBRANCH  84  87
ENDBRANCH  56  80
BRANCH  68  91
ATOM     91  C   UNL A   1      41.392  30.412  33.966  1.00  0.00     0.023 A 
ATOM     92  C   UNL A   1      42.334  30.232  35.001  1.00  0.00     0.012 A 
ATOM     93  C   UNL A   1      40.404  31.399  34.106  1.00  0.00     0.148 A 
ATOM     94  C   UNL A   1      42.291  31.028  36.150  1.00  0.00     0.002 A 
ATOM     95  C   UNL A   1      40.387  32.213  35.230  1.00  0.00     0.091 A 
ATOM     96  F   UNL A   1      39.529  31.560  33.101  1.00  0.00    -0.205 F 
ATOM     97  C   UNL A   1      41.327  32.029  36.258  1.00  0.00     0.022 A 
BRANCH  95  98
ATOM     98  S   UNL A   1      39.249  33.590  35.381  1.00  0.00     0.127 S 
ATOM     99  O   UNL A   1      39.324  33.893  36.809  1.00  0.00    -0.237 OA
ATOM    100  O   UNL A   1      39.862  34.593  34.509  1.00  0.00    -0.237 OA
ATOM    101  O   UNL A   1      37.956  33.102  34.917  1.00  0.00    -0.744 OA
ENDBRANCH  95  98
ENDBRANCH  68  91
ENDBRANCH  42  43
ENDBRANCH  34  37
ENDBRANCH  32  33
ENDBRANCH  31  32
ENDBRANCH   1  31
TORSDOF 18
ENDMDL
MODEL 2
REMARK VINA RESULT:     -13.5      3.307      7.193
REMARK SMILES CC[C@@]1(CC(=O)NCCCCNC(=O)c2ccc(-c3c4nc(c(-c5cccc(S(=O)(=O)[O-])c5F)c5ccc([nH]5)c(-c5cccc(S(=O)(=O)[O-])c5F)c5nc(c(-c6cccc(S(=O)(=O)[O-])c6F)c6ccc3[nH]6)C=C5)C=C4)cc2)OC[C@H](Cc2ccccc2)c2c1[nH]c1ccccc21
REMARK SMILES IDX 9 1 8 2 7 3 5 4 6 5 4 7 3 8 78 9 89 10 79 11 88 12 90 13
REMARK SMILES IDX 80 14 96 15 91 16 95 18 92 19 94 20 93 21 2 22 1 23 81 24
REMARK SMILES IDX 82 25 83 26 87 27 84 28 86 29 85 30 10 31 11 32 12 33 13 34
REMARK SMILES IDX 14 36 15 37 16 38 77 39 17 40 76 41 18 42 19 43 20 44 70 45
REMARK SMILES IDX 21 46 75 47 69 48 71 49 22 50 74 51 68 52 67 53 23 55 55 56
REMARK SMILES IDX 35 57 54 58 36 59 39 60 53 61 72 62 37 63 38 64 52 66 73 67
REMARK SMILES IDX 40 68 24 69 25 70 33 71 26 72 28 73 34 74 27 75 29 76 30 77
REMARK SMILES IDX 31 78 32 79 56 80 57 81 65 82 58 83 60 84 66 85 59 86 61 87
REMARK SMILES IDX 62 88 63 89 64 90 41 91 42 92 50 93 43 94 45 95 51 96 44 97
REMARK SMILES IDX 46 98 47 99 48 100 49 101
REMARK H PARENT 7 6 90 17 12 35 71 54 39 65
REMARK Flexibility Score: inf
ROOT
ATOM      1  C   UNL A   1      31.677  28.500  27.331  1.00  0.00     0.023 C 
ENDROOT
BRANCH   1   2
ATOM      2  C   UNL A   1      32.250  26.475  26.891  1.00  0.00     0.116 C 
BRANCH   2   3
ATOM      3  N   UNL A   1      31.511  25.215  26.544  1.00  0.00    -0.356 N 
ATOM      4  C   UNL A   1      31.376  24.889  25.232  1.00  0.00     0.223 C 
ATOM      5  O   UNL A   1      30.981  23.814  24.813  1.00  0.00    -0.275 OA
ATOM      6  H   UNL A   1      31.133  24.640  27.249  1.00  0.00     0.163 HD
BRANCH   4   7
ATOM      7  C   UNL A   1      31.806  26.035  24.390  1.00  0.00     0.142 C 
BRANCH   7   8
ATOM      8  C   UNL A   1      33.094  25.587  23.516  1.00  0.00     0.117 C 
ATOM      9  O   UNL A   1      32.359  24.703  22.072  1.00  0.00    -0.368 OA
ATOM     10  C   UNL A   1      34.293  24.518  24.520  1.00  0.00     0.052 A 
ATOM     11  C   UNL A   1      32.273  22.803  21.984  1.00  0.00     0.170 C 
ATOM     12  C   UNL A   1      34.399  22.914  24.524  1.00  0.00    -0.011 A 
ATOM     13  N   UNL A   1      35.378  24.979  25.194  1.00  0.00    -0.356 N 
ATOM     14  C   UNL A   1      33.343  21.805  23.358  1.00  0.00     0.052 C 
ATOM     15  C   UNL A   1      35.662  22.679  25.188  1.00  0.00     0.003 A 
ATOM     16  C   UNL A   1      36.241  23.937  25.488  1.00  0.00     0.046 A 
ATOM     17  H   UNL A   1      35.530  25.921  25.439  1.00  0.00     0.166 HD
ATOM     18  C   UNL A   1      36.461  21.534  25.411  1.00  0.00     0.010 A 
ATOM     19  C   UNL A   1      37.565  24.068  25.941  1.00  0.00     0.026 A 
ATOM     20  C   UNL A   1      37.796  21.669  25.830  1.00  0.00     0.001 A 
ATOM     21  C   UNL A   1      38.342  22.921  26.079  1.00  0.00     0.002 A 
BRANCH   8  22
ATOM     22  C   UNL A   1      33.697  27.022  23.278  1.00  0.00     0.039 C 
ATOM     23  C   UNL A   1      33.683  28.189  24.230  1.00  0.00     0.007 C 
ENDBRANCH   8  22
BRANCH  14  24
ATOM     24  C   UNL A   1      32.569  20.688  24.178  1.00  0.00     0.046 C 
BRANCH  24  25
ATOM     25  C   UNL A   1      33.130  19.297  23.972  1.00  0.00    -0.047 A 
ATOM     26  C   UNL A   1      32.553  18.457  23.020  1.00  0.00     0.004 A 
ATOM     27  C   UNL A   1      34.222  18.811  24.696  1.00  0.00     0.004 A 
ATOM     28  C   UNL A   1      32.984  17.145  22.829  1.00  0.00     0.000 A 
ATOM     29  C   UNL A   1      34.684  17.502  24.487  1.00  0.00     0.000 A 
ATOM     30  C   UNL A   1      34.054  16.665  23.567  1.00  0.00     0.000 A 
ENDBRANCH  24  25
ENDBRANCH  14  24
ENDBRANCH   7   8
ENDBRANCH   4   7
ENDBRANCH   2   3
ENDBRANCH   1   2
BRANCH   1  31
ATOM     31  C   UNL A   1      32.308  30.150  27.238  1.00  0.00     0.023 C 
BRANCH  31  32
ATOM     32  C   UNL A   1      33.720  30.760  26.932  1.00  0.00     0.116 C 
BRANCH  32  33
ATOM     33  N   UNL A   1      34.287  31.645  27.957  1.00  0.00    -0.352 N 
ATOM     34  C   UNL A   1      35.369  31.513  28.810  1.00  0.00     0.251 C 
ATOM     35  H   UNL A   1      33.805  32.497  28.058  1.00  0.00     0.163 HD
ATOM     36  O   UNL A   1      35.666  32.479  29.514  1.00  0.00    -0.269 OA
BRANCH  34  37
ATOM     37  C   UNL A   1      36.122  30.249  28.986  1.00  0.00     0.039 A 
ATOM     38  C   UNL A   1      36.381  29.679  30.226  1.00  0.00     0.014 A 
ATOM     39  C   UNL A   1      36.781  29.764  27.845  1.00  0.00     0.014 A 
ATOM     40  C   UNL A   1      37.557  28.979  30.390  1.00  0.00     0.010 A 
ATOM     41  C   UNL A   1      37.912  28.986  27.993  1.00  0.00     0.010 A 
ATOM     42  C   UNL A   1      38.374  28.752  29.280  1.00  0.00    -0.014 A 
BRANCH  42  43
ATOM     43  C   UNL A   1      39.717  28.257  29.524  1.00  0.00     0.031 A 
ATOM     44  C   UNL A   1      40.162  28.443  30.926  1.00  0.00     0.074 A 
ATOM     45  C   UNL A   1      40.453  27.670  28.557  1.00  0.00     0.049 A 
ATOM     46  N   UNL A   1      41.100  29.219  31.363  1.00  0.00    -0.248 NA
ATOM     47  C   UNL A   1      39.330  27.844  31.981  1.00  0.00     0.031 C 
ATOM     48  C   UNL A   1      40.026  27.244  27.220  1.00  0.00     0.029 A 
ATOM     49  N   UNL A   1      41.727  27.197  28.623  1.00  0.00    -0.354 N 
ATOM     50  C   UNL A   1      41.128  29.011  32.738  1.00  0.00     0.074 A 
ATOM     51  C   UNL A   1      39.909  28.325  33.080  1.00  0.00     0.031 C 
ATOM     52  C   UNL A   1      40.905  26.335  26.743  1.00  0.00     0.029 A 
ATOM     53  C   UNL A   1      42.015  26.219  27.669  1.00  0.00     0.049 A 
ATOM     54  H   UNL A   1      42.385  27.515  29.281  1.00  0.00     0.167 HD
ATOM     55  C   UNL A   1      42.267  29.170  33.460  1.00  0.00     0.034 A 
ATOM     56  C   UNL A   1      43.032  25.321  27.729  1.00  0.00     0.034 A 
ATOM     57  C   UNL A   1      43.255  29.944  32.763  1.00  0.00     0.049 A 
ATOM     58  C   UNL A   1      44.038  25.886  28.665  1.00  0.00     0.074 A 
ATOM     59  C   UNL A   1      43.298  31.225  32.251  1.00  0.00     0.029 A 
ATOM     60  N   UNL A   1      44.269  29.252  32.146  1.00  0.00    -0.354 N 
ATOM     61  N   UNL A   1      44.707  26.979  28.430  1.00  0.00    -0.248 NA
ATOM     62  C   UNL A   1      43.958  25.482  30.061  1.00  0.00     0.031 C 
ATOM     63  C   UNL A   1      43.998  31.100  31.017  1.00  0.00     0.029 A 
ATOM     64  C   UNL A   1      44.399  29.769  30.883  1.00  0.00     0.049 A 
ATOM     65  H   UNL A   1      44.803  28.523  32.536  1.00  0.00     0.167 HD
ATOM     66  C   UNL A   1      44.740  27.631  29.655  1.00  0.00     0.074 A 
ATOM     67  C   UNL A   1      44.338  26.625  30.637  1.00  0.00     0.031 C 
ATOM     68  C   UNL A   1      44.793  28.991  29.732  1.00  0.00     0.034 A 
BRANCH  55  69
ATOM     69  C   UNL A   1      42.612  28.299  34.635  1.00  0.00     0.023 A 
ATOM     70  C   UNL A   1      42.838  28.910  35.883  1.00  0.00     0.012 A 
ATOM     71  C   UNL A   1      42.975  26.939  34.498  1.00  0.00     0.148 A 
ATOM     72  C   UNL A   1      43.398  28.195  36.947  1.00  0.00     0.002 A 
ATOM     73  C   UNL A   1      43.455  26.213  35.577  1.00  0.00     0.091 A 
ATOM     74  F   UNL A   1      42.986  26.374  33.286  1.00  0.00    -0.205 F 
ATOM     75  C   UNL A   1      43.691  26.842  36.801  1.00  0.00     0.022 A 
BRANCH  73  76
ATOM     76  S   UNL A   1      43.819  24.460  35.440  1.00  0.00     0.127 S 
ATOM     77  O   UNL A   1      44.892  24.462  34.450  1.00  0.00    -0.237 OA
ATOM     78  O   UNL A   1      44.232  24.134  36.805  1.00  0.00    -0.237 OA
ATOM     79  O   UNL A   1      42.568  23.836  35.032  1.00  0.00    -0.744 OA
ENDBRANCH  73  76
ENDBRANCH  55  69
BRANCH  56  80
ATOM     80  C   UNL A   1      43.045  23.876  27.357  1.00  0.00     0.023 A 
ATOM     81  C   UNL A   1      41.937  23.071  27.709  1.00  0.00     0.012 A 
ATOM     82  C   UNL A   1      43.961  23.350  26.418  1.00  0.00     0.148 A 
ATOM     83  C   UNL A   1      41.714  21.829  27.100  1.00  0.00     0.002 A 
ATOM     84  C   UNL A   1      43.742  22.106  25.826  1.00  0.00     0.091 A 
ATOM     85  F   UNL A   1      44.995  24.100  26.023  1.00  0.00    -0.205 F 
ATOM     86  C   UNL A   1      42.609  21.351  26.148  1.00  0.00     0.022 A 
BRANCH  84  87
ATOM     87  S   UNL A   1      44.861  21.433  24.588  1.00  0.00     0.127 S 
ATOM     88  O   UNL A   1      44.339  20.078  24.407  1.00  0.00    -0.237 OA
ATOM     89  O   UNL A   1      44.640  22.331  23.458  1.00  0.00    -0.237 OA
ATOM     90  O   UNL A   1      46.189  21.483  25.187  1.00  0.00    -0.744 OA
ENDBRANCH  84  87
ENDBRANCH  56  80
BRANCH  68  91
ATOM     91  C   UNL A   1      45.039  29.772  28.467  1.00  0.00     0.023 A 
ATOM     92  C   UNL A   1      43.988  30.210  27.633  1.00  0.00     0.012 A 
ATOM     93  C   UNL A   1      46.336  30.260  28.246  1.00  0.00     0.148 A 
ATOM     94  C   UNL A   1      44.231  31.122  26.601  1.00  0.00     0.002 A 
ATOM     95  C   UNL A   1      46.567  31.193  27.245  1.00  0.00     0.091 A 
ATOM     96  F   UNL A   1      47.314  29.838  29.062  1.00  0.00    -0.205 F 
ATOM     97  C   UNL A   1      45.518  31.626  26.417  1.00  0.00     0.022 A 
BRANCH  95  98
ATOM     98  S   UNL A   1      48.170  31.966  27.028  1.00  0.00     0.127 S 
ATOM     99  O   UNL A   1      47.875  33.013  26.052  1.00  0.00    -0.237 OA
ATOM    100  O   UNL A   1      48.464  32.451  28.378  1.00  0.00    -0.237 OA
ATOM    101  O   UNL A   1      49.068  30.917  26.560  1.00  0.00    -0.744 OA
ENDBRANCH  95  98
ENDBRANCH  68  91
ENDBRANCH  42  43
ENDBRANCH  34  37
ENDBRANCH  32  33
ENDBRANCH  31  32
ENDBRANCH   1  31
TORSDOF 18
ENDMDL
MODEL 3
REMARK VINA RESULT:     -13.5      2.939      9.085
REMARK SMILES CC[C@@]1(CC(=O)NCCCCNC(=O)c2ccc(-c3c4nc(c(-c5cccc(S(=O)(=O)[O-])c5F)c5ccc([nH]5)c(-c5cccc(S(=O)(=O)[O-])c5F)c5nc(c(-c6cccc(S(=O)(=O)[O-])c6F)c6ccc3[nH]6)C=C5)C=C4)cc2)OC[C@H](Cc2ccccc2)c2c1[nH]c1ccccc21
REMARK SMILES IDX 9 1 8 2 7 3 5 4 6 5 4 7 3 8 78 9 89 10 79 11 88 12 90 13
REMARK SMILES IDX 80 14 96 15 91 16 95 18 92 19 94 20 93 21 2 22 1 23 81 24
REMARK SMILES IDX 82 25 83 26 87 27 84 28 86 29 85 30 10 31 11 32 12 33 13 34
REMARK SMILES IDX 14 36 15 37 16 38 77 39 17 40 76 41 18 42 19 43 20 44 70 45
REMARK SMILES IDX 21 46 75 47 69 48 71 49 22 50 74 51 68 52 67 53 23 55 55 56
REMARK SMILES IDX 35 57 54 58 36 59 39 60 53 61 72 62 37 63 38 64 52 66 73 67
REMARK SMILES IDX 40 68 24 69 25 70 33 71 26 72 28 73 34 74 27 75 29 76 30 77
REMARK SMILES IDX 31 78 32 79 56 80 57 81 65 82 58 83 60 84 66 85 59 86 61 87
REMARK SMILES IDX 62 88 63 89 64 90 41 91 42 92 50 93 43 94 45 95 51 96 44 97
REMARK SMILES IDX 46 98 47 99 48 100 49 101
REMARK H PARENT 7 6 90 17 12 35 71 54 39 65
REMARK Flexibility Score: inf
ROOT
ATOM      1  C   UNL A   1      35.668  23.255  25.357  1.00  0.00     0.023 C 
ENDROOT
BRANCH   1   2
ATOM      2  C   UNL A   1      33.687  24.044  25.621  1.00  0.00     0.116 C 
BRANCH   2   3
ATOM      3  N   UNL A   1      33.090  25.170  26.417  1.00  0.00    -0.356 N 
ATOM      4  C   UNL A   1      31.952  25.750  25.956  1.00  0.00     0.223 C 
ATOM      5  O   UNL A   1      31.255  26.529  26.587  1.00  0.00    -0.275 OA
ATOM      6  H   UNL A   1      33.513  25.478  27.251  1.00  0.00     0.163 HD
BRANCH   4   7
ATOM      7  C   UNL A   1      31.676  25.274  24.576  1.00  0.00     0.142 C 
BRANCH   7   8
ATOM      8  C   UNL A   1      32.024  26.464  23.533  1.00  0.00     0.117 C 
ATOM      9  O   UNL A   1      33.722  26.996  24.023  1.00  0.00    -0.368 OA
ATOM     10  C   UNL A   1      30.748  27.862  23.605  1.00  0.00     0.052 A 
ATOM     11  C   UNL A   1      34.029  28.537  25.100  1.00  0.00     0.170 C 
ATOM     12  C   UNL A   1      30.867  29.249  24.409  1.00  0.00    -0.011 A 
ATOM     13  N   UNL A   1      29.663  27.976  22.796  1.00  0.00    -0.356 N 
ATOM     14  C   UNL A   1      32.457  29.756  25.368  1.00  0.00     0.052 C 
ATOM     15  C   UNL A   1      29.793  30.038  23.846  1.00  0.00     0.003 A 
ATOM     16  C   UNL A   1      29.166  29.268  22.836  1.00  0.00     0.046 A 
ATOM     17  H   UNL A   1      29.284  27.244  22.257  1.00  0.00     0.166 HD
ATOM     18  C   UNL A   1      29.396  31.390  23.964  1.00  0.00     0.010 A 
ATOM     19  C   UNL A   1      28.224  29.814  21.948  1.00  0.00     0.026 A 
ATOM     20  C   UNL A   1      28.482  31.943  23.052  1.00  0.00     0.001 A 
ATOM     21  C   UNL A   1      27.913  31.167  22.050  1.00  0.00     0.002 A 
BRANCH   8  22
ATOM     22  C   UNL A   1      31.862  25.633  22.205  1.00  0.00     0.039 C 
ATOM     23  C   UNL A   1      32.700  24.467  21.747  1.00  0.00     0.007 C 
ENDBRANCH   8  22
BRANCH  14  24
ATOM     24  C   UNL A   1      32.120  30.150  26.867  1.00  0.00     0.046 C 
BRANCH  24  25
ATOM     25  C   UNL A   1      32.986  31.271  27.401  1.00  0.00    -0.047 A 
ATOM     26  C   UNL A   1      32.490  32.574  27.419  1.00  0.00     0.004 A 
ATOM     27  C   UNL A   1      34.277  31.057  27.891  1.00  0.00     0.004 A 
ATOM     28  C   UNL A   1      33.262  33.656  27.838  1.00  0.00     0.000 A 
ATOM     29  C   UNL A   1      35.050  32.136  28.347  1.00  0.00     0.000 A 
ATOM     30  C   UNL A   1      34.549  33.436  28.303  1.00  0.00     0.000 A 
ENDBRANCH  24  25
ENDBRANCH  14  24
ENDBRANCH   7   8
ENDBRANCH   4   7
ENDBRANCH   2   3
ENDBRANCH   1   2
BRANCH   1  31
ATOM     31  C   UNL A   1      37.363  23.753  25.451  1.00  0.00     0.023 C 
BRANCH  31  32
ATOM     32  C   UNL A   1      38.489  23.583  26.529  1.00  0.00     0.116 C 
BRANCH  32  33
ATOM     33  N   UNL A   1      39.834  24.031  26.148  1.00  0.00    -0.352 N 
ATOM     34  C   UNL A   1      40.577  25.149  26.486  1.00  0.00     0.251 C 
ATOM     35  H   UNL A   1      40.298  23.418  25.533  1.00  0.00     0.163 HD
ATOM     36  O   UNL A   1      41.737  25.213  26.075  1.00  0.00    -0.269 OA
BRANCH  34  37
ATOM     37  C   UNL A   1      40.023  26.305  27.228  1.00  0.00     0.039 A 
ATOM     38  C   UNL A   1      40.071  27.611  26.759  1.00  0.00     0.014 A 
ATOM     39  C   UNL A   1      39.651  26.057  28.560  1.00  0.00     0.014 A 
ATOM     40  C   UNL A   1      40.187  28.632  27.677  1.00  0.00     0.010 A 
ATOM     41  C   UNL A   1      39.676  27.090  29.476  1.00  0.00     0.010 A 
ATOM     42  C   UNL A   1      40.114  28.332  29.039  1.00  0.00    -0.014 A 
BRANCH  42  43
ATOM     43  C   UNL A   1      40.504  29.370  29.978  1.00  0.00     0.031 A 
ATOM     44  C   UNL A   1      39.365  30.203  30.434  1.00  0.00     0.074 A 
ATOM     45  C   UNL A   1      41.779  29.521  30.393  1.00  0.00     0.049 A 
ATOM     46  N   UNL A   1      39.150  31.454  30.186  1.00  0.00    -0.248 NA
ATOM     47  C   UNL A   1      38.236  29.508  31.070  1.00  0.00     0.031 C 
ATOM     48  C   UNL A   1      42.919  28.623  30.178  1.00  0.00     0.029 A 
ATOM     49  N   UNL A   1      42.299  30.460  31.229  1.00  0.00    -0.354 N 
ATOM     50  C   UNL A   1      37.967  31.754  30.852  1.00  0.00     0.074 A 
ATOM     51  C   UNL A   1      37.355  30.498  31.202  1.00  0.00     0.031 C 
ATOM     52  C   UNL A   1      43.877  28.896  31.092  1.00  0.00     0.029 A 
ATOM     53  C   UNL A   1      43.481  30.064  31.856  1.00  0.00     0.049 A 
ATOM     54  H   UNL A   1      41.881  31.338  31.378  1.00  0.00     0.167 HD
ATOM     55  C   UNL A   1      37.705  33.005  31.313  1.00  0.00     0.034 A 
ATOM     56  C   UNL A   1      44.004  30.603  32.988  1.00  0.00     0.034 A 
ATOM     57  C   UNL A   1      38.531  34.002  30.693  1.00  0.00     0.049 A 
ATOM     58  C   UNL A   1      43.411  31.959  33.120  1.00  0.00     0.074 A 
ATOM     59  C   UNL A   1      38.728  34.427  29.394  1.00  0.00     0.029 A 
ATOM     60  N   UNL A   1      39.618  34.444  31.406  1.00  0.00    -0.354 N 
ATOM     61  N   UNL A   1      43.632  32.928  32.278  1.00  0.00    -0.248 NA
ATOM     62  C   UNL A   1      42.212  32.090  33.934  1.00  0.00     0.031 C 
ATOM     63  C   UNL A   1      40.128  34.664  29.296  1.00  0.00     0.029 A 
ATOM     64  C   UNL A   1      40.691  34.438  30.554  1.00  0.00     0.049 A 
ATOM     65  H   UNL A   1      39.626  34.717  32.353  1.00  0.00     0.167 HD
ATOM     66  C   UNL A   1      42.396  33.543  32.131  1.00  0.00     0.074 A 
ATOM     67  C   UNL A   1      41.582  33.040  33.237  1.00  0.00     0.031 C 
ATOM     68  C   UNL A   1      42.047  34.164  30.969  1.00  0.00     0.034 A 
BRANCH  55  69
ATOM     69  C   UNL A   1      36.967  33.260  32.596  1.00  0.00     0.023 A 
ATOM     70  C   UNL A   1      35.822  34.078  32.563  1.00  0.00     0.012 A 
ATOM     71  C   UNL A   1      37.504  32.940  33.865  1.00  0.00     0.148 A 
ATOM     72  C   UNL A   1      35.239  34.554  33.742  1.00  0.00     0.002 A 
ATOM     73  C   UNL A   1      36.877  33.346  35.032  1.00  0.00     0.091 A 
ATOM     74  F   UNL A   1      38.703  32.354  33.948  1.00  0.00    -0.205 F 
ATOM     75  C   UNL A   1      35.754  34.174  34.978  1.00  0.00     0.022 A 
BRANCH  73  76
ATOM     76  S   UNL A   1      37.493  32.856  36.647  1.00  0.00     0.127 S 
ATOM     77  O   UNL A   1      38.672  33.706  36.779  1.00  0.00    -0.237 OA
ATOM     78  O   UNL A   1      36.369  33.210  37.514  1.00  0.00    -0.237 OA
ATOM     79  O   UNL A   1      37.739  31.423  36.548  1.00  0.00    -0.744 OA
ENDBRANCH  73  76
ENDBRANCH  55  69
BRANCH  56  80
ATOM     80  C   UNL A   1      44.662  29.929  34.145  1.00  0.00     0.023 A 
ATOM     81  C   UNL A   1      45.786  30.544  34.743  1.00  0.00     0.012 A 
ATOM     82  C   UNL A   1      44.041  28.876  34.854  1.00  0.00     0.148 A 
ATOM     83  C   UNL A   1      46.229  30.172  36.020  1.00  0.00     0.002 A 
ATOM     84  C   UNL A   1      44.495  28.500  36.118  1.00  0.00     0.091 A 
ATOM     85  F   UNL A   1      42.946  28.302  34.344  1.00  0.00    -0.205 F 
ATOM     86  C   UNL A   1      45.575  29.159  36.714  1.00  0.00     0.022 A 
BRANCH  84  87
ATOM     87  S   UNL A   1      43.693  27.198  37.067  1.00  0.00     0.127 S 
ATOM     88  O   UNL A   1      44.109  25.994  36.348  1.00  0.00    -0.237 OA
ATOM     89  O   UNL A   1      44.298  27.365  38.385  1.00  0.00    -0.237 OA
ATOM     90  O   UNL A   1      42.263  27.475  36.986  1.00  0.00    -0.744 OA
ENDBRANCH  84  87
ENDBRANCH  56  80
BRANCH  68  91
ATOM     91  C   UNL A   1      43.107  34.364  29.917  1.00  0.00     0.023 A 
ATOM     92  C   UNL A   1      43.970  35.481  29.917  1.00  0.00     0.012 A 
ATOM     93  C   UNL A   1      43.378  33.292  29.054  1.00  0.00     0.148 A 
ATOM     94  C   UNL A   1      45.085  35.520  29.073  1.00  0.00     0.002 A 
ATOM     95  C   UNL A   1      44.505  33.317  28.244  1.00  0.00     0.091 A 
ATOM     96  F   UNL A   1      42.550  32.236  29.084  1.00  0.00    -0.205 F 
ATOM     97  C   UNL A   1      45.360  34.431  28.248  1.00  0.00     0.022 A 
BRANCH  95  98
ATOM     98  S   UNL A   1      44.981  31.905  27.246  1.00  0.00     0.127 S 
ATOM     99  O   UNL A   1      46.259  32.344  26.688  1.00  0.00    -0.237 OA
ATOM    100  O   UNL A   1      45.082  30.841  28.245  1.00  0.00    -0.237 OA
ATOM    101  O   UNL A   1      43.912  31.716  26.274  1.00  0.00    -0.744 OA
ENDBRANCH  95  98
ENDBRANCH  68  91
ENDBRANCH  42  43
ENDBRANCH  34  37
ENDBRANCH  32  33
ENDBRANCH  31  32
ENDBRANCH   1  31
TORSDOF 18
ENDMDL
