MODEL 1
REMARK VINA RESULT:     -12.2      0.000      0.000
REMARK SMILES O=C(NCCCCNC(=O)[C@@]1([NH2+]C2CC2)CC[C@@H]([N@@H+]2CC[N@@H+]3CCC[C@@H]3C2)C1)c1ccc(-c2c3nc(c(-c4cccc(S(=O)(=O)[O-])c4F)c4ccc([nH]4)c(-c4cccc(S(=O)(=O)[O-])c4F)c4nc(c(-c5cccc(S(=O)(=O)[O-])c5F)c5ccc2[nH]5)C=C4)C=C3)cc1
REMARK SMILES IDX 5 1 4 2 3 3 1 4 2 5 29 7 30 8 91 9 31 10 90 11 32 12 33 13
REMARK SMILES IDX 34 14 84 15 35 16 89 17 83 18 85 19 36 20 88 21 82 22 81 23
REMARK SMILES IDX 37 25 69 26 49 27 68 28 50 29 53 30 67 31 86 32 51 33 52 34
REMARK SMILES IDX 66 36 87 37 54 38 38 39 39 40 47 41 40 42 42 43 48 44 41 45
REMARK SMILES IDX 43 46 44 47 45 48 46 49 70 50 71 51 79 52 72 53 74 54 80 55
REMARK SMILES IDX 73 56 75 57 76 58 77 59 78 60 55 61 56 62 64 63 57 64 59 65
REMARK SMILES IDX 65 66 58 67 60 68 61 69 62 70 63 71 6 72 7 73 8 74 9 75
REMARK SMILES IDX 10 77 11 78 16 79 28 80 17 81 18 82 12 83 13 86 14 87 15 88
REMARK SMILES IDX 19 89 20 90 27 91 21 93 26 94 22 95 25 96 23 97 24 99
REMARK H PARENT 3 6 85 24 53 35 8 76 12 84 12 85 19 92 22 98
REMARK Flexibility Score: inf
ROOT
ATOM      1  C   UNL A   1      36.598  22.094  23.975  1.00  0.00     0.023 C 
ENDROOT
BRANCH   1   2
ATOM      2  C   UNL A   1      36.935  21.846  25.439  1.00  0.00     0.116 C 
BRANCH   2   3
ATOM      3  N   UNL A   1      37.897  20.771  25.640  1.00  0.00    -0.352 N 
ATOM      4  O   UNL A   1      39.904  19.863  26.132  1.00  0.00    -0.269 OA
ATOM      5  C   UNL A   1      39.188  20.852  26.121  1.00  0.00     0.251 C 
ATOM      6  H   UNL A   1      37.587  19.869  25.401  1.00  0.00     0.163 HD
BRANCH   5   7
ATOM      7  C   UNL A   1      39.686  22.167  26.581  1.00  0.00     0.039 A 
ATOM      8  C   UNL A   1      39.191  23.339  26.003  1.00  0.00     0.014 A 
ATOM      9  C   UNL A   1      40.708  22.220  27.530  1.00  0.00     0.014 A 
ATOM     10  C   UNL A   1      39.839  24.544  26.242  1.00  0.00     0.010 A 
ATOM     11  C   UNL A   1      41.290  23.451  27.844  1.00  0.00     0.010 A 
ATOM     12  C   UNL A   1      40.888  24.616  27.174  1.00  0.00    -0.014 A 
BRANCH  12  13
ATOM     13  C   UNL A   1      41.487  25.938  27.486  1.00  0.00     0.031 A 
ATOM     14  C   UNL A   1      42.874  26.303  27.033  1.00  0.00     0.074 A 
ATOM     15  C   UNL A   1      40.754  26.815  28.199  1.00  0.00     0.049 A 
ATOM     16  N   UNL A   1      43.534  27.415  27.231  1.00  0.00    -0.248 NA
ATOM     17  C   UNL A   1      43.626  25.292  26.270  1.00  0.00     0.031 C 
ATOM     18  C   UNL A   1      39.413  26.550  28.730  1.00  0.00     0.029 A 
ATOM     19  N   UNL A   1      41.025  28.094  28.610  1.00  0.00    -0.354 N 
ATOM     20  C   UNL A   1      44.788  27.227  26.663  1.00  0.00     0.074 A 
ATOM     21  C   UNL A   1      44.799  25.891  26.106  1.00  0.00     0.031 C 
ATOM     22  C   UNL A   1      38.971  27.638  29.374  1.00  0.00     0.029 A 
ATOM     23  C   UNL A   1      40.017  28.653  29.357  1.00  0.00     0.049 A 
ATOM     24  H   UNL A   1      41.861  28.566  28.389  1.00  0.00     0.167 HD
ATOM     25  C   UNL A   1      45.827  28.095  26.601  1.00  0.00     0.034 A 
ATOM     26  C   UNL A   1      39.945  29.840  29.987  1.00  0.00     0.034 A 
ATOM     27  C   UNL A   1      45.787  29.439  27.113  1.00  0.00     0.049 A 
ATOM     28  C   UNL A   1      41.102  30.787  29.877  1.00  0.00     0.074 A 
ATOM     29  C   UNL A   1      46.754  30.424  27.017  1.00  0.00     0.029 A 
ATOM     30  N   UNL A   1      44.731  29.987  27.826  1.00  0.00    -0.354 N 
ATOM     31  N   UNL A   1      42.222  30.642  29.213  1.00  0.00    -0.248 NA
ATOM     32  C   UNL A   1      40.980  32.069  30.584  1.00  0.00     0.031 C 
ATOM     33  C   UNL A   1      46.292  31.561  27.690  1.00  0.00     0.029 A 
ATOM     34  C   UNL A   1      45.029  31.289  28.192  1.00  0.00     0.049 A 
ATOM     35  H   UNL A   1      43.892  29.518  28.040  1.00  0.00     0.167 HD
ATOM     36  C   UNL A   1      42.935  31.818  29.408  1.00  0.00     0.074 A 
ATOM     37  C   UNL A   1      42.103  32.678  30.228  1.00  0.00     0.031 C 
ATOM     38  C   UNL A   1      44.174  32.146  28.971  1.00  0.00     0.034 A 
BRANCH  25  39
ATOM     39  C   UNL A   1      47.091  27.642  25.920  1.00  0.00     0.023 A 
ATOM     40  C   UNL A   1      48.048  26.905  26.647  1.00  0.00     0.012 A 
ATOM     41  C   UNL A   1      47.289  27.860  24.541  1.00  0.00     0.148 A 
ATOM     42  C   UNL A   1      49.192  26.411  26.019  1.00  0.00     0.002 A 
ATOM     43  C   UNL A   1      48.415  27.334  23.915  1.00  0.00     0.091 A 
ATOM     44  F   UNL A   1      46.379  28.580  23.870  1.00  0.00    -0.205 F 
ATOM     45  C   UNL A   1      49.369  26.616  24.653  1.00  0.00     0.022 A 
BRANCH  43  46
ATOM     46  S   UNL A   1      48.695  27.483  22.146  1.00  0.00     0.127 S 
ATOM     47  O   UNL A   1      48.900  26.088  21.762  1.00  0.00    -0.237 OA
ATOM     48  O   UNL A   1      47.436  28.064  21.680  1.00  0.00    -0.237 OA
ATOM     49  O   UNL A   1      49.854  28.353  21.998  1.00  0.00    -0.744 OA
ENDBRANCH  43  46
ENDBRANCH  25  39
BRANCH  26  50
ATOM     50  C   UNL A   1      38.714  30.193  30.745  1.00  0.00     0.023 A 
ATOM     51  C   UNL A   1      38.611  29.840  32.103  1.00  0.00     0.012 A 
ATOM     52  C   UNL A   1      37.680  30.941  30.148  1.00  0.00     0.148 A 
ATOM     53  C   UNL A   1      37.492  30.213  32.849  1.00  0.00     0.002 A 
ATOM     54  C   UNL A   1      36.598  31.361  30.912  1.00  0.00     0.091 A 
ATOM     55  F   UNL A   1      37.787  31.252  28.848  1.00  0.00    -0.205 F 
ATOM     56  C   UNL A   1      36.494  30.986  32.259  1.00  0.00     0.022 A 
BRANCH  54  57
ATOM     57  S   UNL A   1      35.363  32.491  30.260  1.00  0.00     0.127 S 
ATOM     58  O   UNL A   1      36.175  33.656  29.916  1.00  0.00    -0.237 OA
ATOM     59  O   UNL A   1      34.836  31.747  29.115  1.00  0.00    -0.237 OA
ATOM     60  O   UNL A   1      34.403  32.675  31.340  1.00  0.00    -0.744 OA
ENDBRANCH  54  57
ENDBRANCH  26  50
BRANCH  38  61
ATOM     61  C   UNL A   1      44.708  33.496  29.364  1.00  0.00     0.023 A 
ATOM     62  C   UNL A   1      45.397  33.638  30.584  1.00  0.00     0.012 A 
ATOM     63  C   UNL A   1      44.588  34.602  28.503  1.00  0.00     0.148 A 
ATOM     64  C   UNL A   1      45.936  34.869  30.954  1.00  0.00     0.002 A 
ATOM     65  C   UNL A   1      45.165  35.815  28.857  1.00  0.00     0.091 A 
ATOM     66  F   UNL A   1      43.910  34.450  27.356  1.00  0.00    -0.205 F 
ATOM     67  C   UNL A   1      45.831  35.953  30.086  1.00  0.00     0.022 A 
BRANCH  65  68
ATOM     68  S   UNL A   1      45.155  37.241  27.764  1.00  0.00     0.127 S 
ATOM     69  O   UNL A   1      43.722  37.488  27.612  1.00  0.00    -0.237 OA
ATOM     70  O   UNL A   1      45.868  38.246  28.554  1.00  0.00    -0.237 OA
ATOM     71  O   UNL A   1      45.849  36.821  26.554  1.00  0.00    -0.744 OA
ENDBRANCH  65  68
ENDBRANCH  38  61
ENDBRANCH  12  13
ENDBRANCH   5   7
ENDBRANCH   2   3
ENDBRANCH   1   2
BRANCH   1  72
ATOM     72  C   UNL A   1      36.234  23.530  23.635  1.00  0.00     0.023 C 
BRANCH  72  73
ATOM     73  C   UNL A   1      34.746  23.786  23.484  1.00  0.00     0.116 C 
BRANCH  73  74
ATOM     74  N   UNL A   1      34.004  22.722  22.872  1.00  0.00    -0.351 N 
ATOM     75  C   UNL A   1      32.865  22.116  23.328  1.00  0.00     0.281 C 
ATOM     76  H   UNL A   1      34.358  22.385  22.017  1.00  0.00     0.163 HD
ATOM     77  O   UNL A   1      32.205  21.546  22.451  1.00  0.00    -0.268 OA
BRANCH  75  78
ATOM     78  C   UNL A   1      32.415  22.182  24.847  1.00  0.00     0.181 C 
ATOM     79  C   UNL A   1      33.450  22.691  25.873  1.00  0.00     0.085 C 
ATOM     80  C   UNL A   1      31.243  23.201  25.011  1.00  0.00     0.144 C 
ATOM     81  C   UNL A   1      32.622  23.227  27.039  1.00  0.00     0.072 C 
ATOM     82  C   UNL A   1      31.364  23.852  26.413  1.00  0.00     0.191 C 
BRANCH  78  83
ATOM     83  N   UNL A   1      31.929  20.847  25.303  1.00  0.00    -0.331 N 
ATOM     84  H   UNL A   1      31.114  20.617  24.734  1.00  0.00     0.347 HD
ATOM     85  H   UNL A   1      31.773  20.979  26.302  1.00  0.00     0.347 HD
BRANCH  83  86
ATOM     86  C   UNL A   1      32.834  19.690  25.242  1.00  0.00     0.183 C 
ATOM     87  C   UNL A   1      32.531  18.306  25.750  1.00  0.00     0.071 C 
ATOM     88  C   UNL A   1      32.529  18.572  24.277  1.00  0.00     0.071 C 
ENDBRANCH  83  86
ENDBRANCH  78  83
BRANCH  82  89
ATOM     89  N   UNL A   1      31.311  25.320  26.503  1.00  0.00    -0.323 N 
ATOM     90  C   UNL A   1      30.278  25.965  25.668  1.00  0.00     0.324 C 
ATOM     91  C   UNL A   1      32.560  26.079  26.501  1.00  0.00     0.328 C 
ATOM     92  H   UNL A   1      31.017  25.383  27.477  1.00  0.00     0.348 HD
ATOM     93  C   UNL A   1      30.700  27.306  24.991  1.00  0.00     0.324 C 
ATOM     94  C   UNL A   1      32.344  27.578  26.798  1.00  0.00     0.240 C 
ATOM     95  N   UNL A   1      31.398  28.248  25.880  1.00  0.00    -0.323 N 
ATOM     96  C   UNL A   1      33.656  28.363  26.702  1.00  0.00     0.077 C 
ATOM     97  C   UNL A   1      32.137  29.278  25.139  1.00  0.00     0.263 C 
ATOM     98  H   UNL A   1      30.653  28.684  26.424  1.00  0.00     0.348 HD
ATOM     99  C   UNL A   1      33.245  29.687  26.090  1.00  0.00     0.068 C 
ENDBRANCH  82  89
ENDBRANCH  75  78
ENDBRANCH  73  74
ENDBRANCH  72  73
ENDBRANCH   1  72
TORSDOF 17
ENDMDL
MODEL 2
REMARK VINA RESULT:     -12.1      1.599      7.677
REMARK SMILES O=C(NCCCCNC(=O)[C@@]1([NH2+]C2CC2)CC[C@@H]([N@@H+]2CC[N@@H+]3CCC[C@@H]3C2)C1)c1ccc(-c2c3nc(c(-c4cccc(S(=O)(=O)[O-])c4F)c4ccc([nH]4)c(-c4cccc(S(=O)(=O)[O-])c4F)c4nc(c(-c5cccc(S(=O)(=O)[O-])c5F)c5ccc2[nH]5)C=C4)C=C3)cc1
REMARK SMILES IDX 5 1 4 2 3 3 1 4 2 5 29 7 30 8 91 9 31 10 90 11 32 12 33 13
REMARK SMILES IDX 34 14 84 15 35 16 89 17 83 18 85 19 36 20 88 21 82 22 81 23
REMARK SMILES IDX 37 25 69 26 49 27 68 28 50 29 53 30 67 31 86 32 51 33 52 34
REMARK SMILES IDX 66 36 87 37 54 38 38 39 39 40 47 41 40 42 42 43 48 44 41 45
REMARK SMILES IDX 43 46 44 47 45 48 46 49 70 50 71 51 79 52 72 53 74 54 80 55
REMARK SMILES IDX 73 56 75 57 76 58 77 59 78 60 55 61 56 62 64 63 57 64 59 65
REMARK SMILES IDX 65 66 58 67 60 68 61 69 62 70 63 71 6 72 7 73 8 74 9 75
REMARK SMILES IDX 10 77 11 78 16 79 28 80 17 81 18 82 12 83 13 86 14 87 15 88
REMARK SMILES IDX 19 89 20 90 27 91 21 93 26 94 22 95 25 96 23 97 24 99
REMARK H PARENT 3 6 85 24 53 35 8 76 12 84 12 85 19 92 22 98
REMARK Flexibility Score: inf
ROOT
ATOM      1  C   UNL A   1      38.496  20.496  25.000  1.00  0.00     0.023 C 
ENDROOT
BRANCH   1   2
ATOM      2  C   UNL A   1      39.252  20.187  26.284  1.00  0.00     0.116 C 
BRANCH   2   3
ATOM      3  N   UNL A   1      40.304  19.194  26.116  1.00  0.00    -0.352 N 
ATOM      4  O   UNL A   1      42.419  18.454  25.845  1.00  0.00    -0.269 OA
ATOM      5  C   UNL A   1      41.671  19.384  26.102  1.00  0.00     0.251 C 
ATOM      6  H   UNL A   1      40.002  18.266  25.996  1.00  0.00     0.163 HD
BRANCH   5   7
ATOM      7  C   UNL A   1      42.195  20.743  26.363  1.00  0.00     0.039 A 
ATOM      8  C   UNL A   1      42.475  21.141  27.673  1.00  0.00     0.014 A 
ATOM      9  C   UNL A   1      42.324  21.643  25.304  1.00  0.00     0.014 A 
ATOM     10  C   UNL A   1      42.711  22.482  27.943  1.00  0.00     0.010 A 
ATOM     11  C   UNL A   1      42.662  22.973  25.572  1.00  0.00     0.010 A 
ATOM     12  C   UNL A   1      42.819  23.411  26.895  1.00  0.00    -0.014 A 
BRANCH  12  13
ATOM     13  C   UNL A   1      43.179  24.817  27.211  1.00  0.00     0.031 A 
ATOM     14  C   UNL A   1      42.216  25.742  27.904  1.00  0.00     0.074 A 
ATOM     15  C   UNL A   1      44.401  25.255  26.852  1.00  0.00     0.049 A 
ATOM     16  N   UNL A   1      42.384  26.994  28.243  1.00  0.00    -0.248 NA
ATOM     17  C   UNL A   1      40.891  25.202  28.255  1.00  0.00     0.031 C 
ATOM     18  C   UNL A   1      45.400  24.457  26.134  1.00  0.00     0.029 A 
ATOM     19  N   UNL A   1      45.013  26.468  27.029  1.00  0.00    -0.354 N 
ATOM     20  C   UNL A   1      41.181  27.408  28.801  1.00  0.00     0.074 A 
ATOM     21  C   UNL A   1      40.287  26.271  28.761  1.00  0.00     0.031 C 
ATOM     22  C   UNL A   1      46.504  25.193  25.953  1.00  0.00     0.029 A 
ATOM     23  C   UNL A   1      46.272  26.531  26.483  1.00  0.00     0.049 A 
ATOM     24  H   UNL A   1      44.591  27.222  27.503  1.00  0.00     0.167 HD
ATOM     25  C   UNL A   1      40.859  28.621  29.312  1.00  0.00     0.034 A 
ATOM     26  C   UNL A   1      47.140  27.555  26.391  1.00  0.00     0.034 A 
ATOM     27  C   UNL A   1      41.773  29.730  29.394  1.00  0.00     0.049 A 
ATOM     28  C   UNL A   1      46.762  28.877  26.989  1.00  0.00     0.074 A 
ATOM     29  C   UNL A   1      41.570  30.969  29.977  1.00  0.00     0.029 A 
ATOM     30  N   UNL A   1      43.057  29.743  28.870  1.00  0.00    -0.354 N 
ATOM     31  N   UNL A   1      45.672  29.204  27.640  1.00  0.00    -0.248 NA
ATOM     32  C   UNL A   1      47.739  29.966  26.861  1.00  0.00     0.031 C 
ATOM     33  C   UNL A   1      42.724  31.738  29.787  1.00  0.00     0.029 A 
ATOM     34  C   UNL A   1      43.652  30.972  29.099  1.00  0.00     0.049 A 
ATOM     35  H   UNL A   1      43.483  28.987  28.404  1.00  0.00     0.167 HD
ATOM     36  C   UNL A   1      45.836  30.531  28.012  1.00  0.00     0.074 A 
ATOM     37  C   UNL A   1      47.146  30.938  27.541  1.00  0.00     0.031 C 
ATOM     38  C   UNL A   1      44.971  31.347  28.662  1.00  0.00     0.034 A 
BRANCH  25  39
ATOM     39  C   UNL A   1      39.472  28.814  29.866  1.00  0.00     0.023 A 
ATOM     40  C   UNL A   1      39.178  28.377  31.173  1.00  0.00     0.012 A 
ATOM     41  C   UNL A   1      38.490  29.509  29.132  1.00  0.00     0.148 A 
ATOM     42  C   UNL A   1      37.923  28.611  31.735  1.00  0.00     0.002 A 
ATOM     43  C   UNL A   1      37.252  29.770  29.713  1.00  0.00     0.091 A 
ATOM     44  F   UNL A   1      38.780  29.899  27.883  1.00  0.00    -0.205 F 
ATOM     45  C   UNL A   1      36.965  29.316  31.010  1.00  0.00     0.022 A 
BRANCH  43  46
ATOM     46  S   UNL A   1      35.980  30.732  28.884  1.00  0.00     0.127 S 
ATOM     47  O   UNL A   1      36.783  31.697  28.135  1.00  0.00    -0.237 OA
ATOM     48  O   UNL A   1      35.315  29.723  28.060  1.00  0.00    -0.237 OA
ATOM     49  O   UNL A   1      35.151  31.291  29.943  1.00  0.00    -0.744 OA
ENDBRANCH  43  46
ENDBRANCH  25  39
BRANCH  26  50
ATOM     50  C   UNL A   1      48.456  27.342  25.730  1.00  0.00     0.023 A 
ATOM     51  C   UNL A   1      49.544  26.872  26.487  1.00  0.00     0.012 A 
ATOM     52  C   UNL A   1      48.614  27.531  24.343  1.00  0.00     0.148 A 
ATOM     53  C   UNL A   1      50.772  26.609  25.877  1.00  0.00     0.002 A 
ATOM     54  C   UNL A   1      49.819  27.208  23.732  1.00  0.00     0.091 A 
ATOM     55  F   UNL A   1      47.570  27.998  23.641  1.00  0.00    -0.205 F 
ATOM     56  C   UNL A   1      50.904  26.761  24.499  1.00  0.00     0.022 A 
BRANCH  54  57
ATOM     57  S   UNL A   1      50.007  27.226  21.946  1.00  0.00     0.127 S 
ATOM     58  O   UNL A   1      48.938  26.326  21.522  1.00  0.00    -0.237 OA
ATOM     59  O   UNL A   1      49.788  28.638  21.625  1.00  0.00    -0.237 OA
ATOM     60  O   UNL A   1      51.367  26.767  21.699  1.00  0.00    -0.744 OA
ENDBRANCH  54  57
ENDBRANCH  26  50
BRANCH  38  61
ATOM     61  C   UNL A   1      45.414  32.764  28.909  1.00  0.00     0.023 A 
ATOM     62  C   UNL A   1      46.177  33.059  30.055  1.00  0.00     0.012 A 
ATOM     63  C   UNL A   1      45.135  33.783  27.979  1.00  0.00     0.148 A 
ATOM     64  C   UNL A   1      46.634  34.355  30.286  1.00  0.00     0.002 A 
ATOM     65  C   UNL A   1      45.630  35.063  28.194  1.00  0.00     0.091 A 
ATOM     66  F   UNL A   1      44.389  33.484  26.905  1.00  0.00    -0.205 F 
ATOM     67  C   UNL A   1      46.371  35.353  29.351  1.00  0.00     0.022 A 
BRANCH  65  68
ATOM     68  S   UNL A   1      45.415  36.389  27.002  1.00  0.00     0.127 S 
ATOM     69  O   UNL A   1      46.222  35.914  25.880  1.00  0.00    -0.237 OA
ATOM     70  O   UNL A   1      43.971  36.369  26.768  1.00  0.00    -0.237 OA
ATOM     71  O   UNL A   1      45.903  37.597  27.656  1.00  0.00    -0.744 OA
ENDBRANCH  65  68
ENDBRANCH  38  61
ENDBRANCH  12  13
ENDBRANCH   5   7
ENDBRANCH   2   3
ENDBRANCH   1   2
BRANCH   1  72
ATOM     72  C   UNL A   1      37.725  21.806  25.008  1.00  0.00     0.023 C 
BRANCH  72  73
ATOM     73  C   UNL A   1      36.215  21.649  25.012  1.00  0.00     0.116 C 
BRANCH  73  74
ATOM     74  N   UNL A   1      35.576  21.936  26.264  1.00  0.00    -0.351 N 
ATOM     75  C   UNL A   1      34.236  21.979  26.537  1.00  0.00     0.281 C 
ATOM     76  H   UNL A   1      36.176  22.126  27.021  1.00  0.00     0.163 HD
ATOM     77  O   UNL A   1      33.955  21.829  27.732  1.00  0.00    -0.268 OA
BRANCH  75  78
ATOM     78  C   UNL A   1      33.141  22.159  25.406  1.00  0.00     0.181 C 
ATOM     79  C   UNL A   1      31.674  22.327  25.857  1.00  0.00     0.085 C 
ATOM     80  C   UNL A   1      33.407  23.477  24.611  1.00  0.00     0.144 C 
ATOM     81  C   UNL A   1      30.991  23.072  24.712  1.00  0.00     0.072 C 
ATOM     82  C   UNL A   1      32.040  24.048  24.154  1.00  0.00     0.191 C 
BRANCH  78  83
ATOM     83  N   UNL A   1      33.200  21.023  24.440  1.00  0.00    -0.331 N 
ATOM     84  H   UNL A   1      34.118  21.056  23.997  1.00  0.00     0.347 HD
ATOM     85  H   UNL A   1      32.391  21.178  23.839  1.00  0.00     0.347 HD
BRANCH  83  86
ATOM     86  C   UNL A   1      33.010  19.649  24.929  1.00  0.00     0.183 C 
ATOM     87  C   UNL A   1      32.582  18.469  24.100  1.00  0.00     0.071 C 
ATOM     88  C   UNL A   1      34.008  18.588  24.537  1.00  0.00     0.071 C 
ENDBRANCH  83  86
ENDBRANCH  78  83
BRANCH  82  89
ATOM     89  N   UNL A   1      31.753  25.464  24.430  1.00  0.00    -0.323 N 
ATOM     90  C   UNL A   1      32.293  26.420  23.442  1.00  0.00     0.324 C 
ATOM     91  C   UNL A   1      31.885  25.965  25.797  1.00  0.00     0.328 C 
ATOM     92  H   UNL A   1      30.741  25.421  24.309  1.00  0.00     0.348 HD
ATOM     93  C   UNL A   1      32.857  27.750  24.032  1.00  0.00     0.324 C 
ATOM     94  C   UNL A   1      31.362  27.408  25.953  1.00  0.00     0.240 C 
ATOM     95  N   UNL A   1      31.996  28.386  25.043  1.00  0.00    -0.323 N 
ATOM     96  C   UNL A   1      31.595  27.938  27.372  1.00  0.00     0.077 C 
ATOM     97  C   UNL A   1      32.721  29.366  25.862  1.00  0.00     0.263 C 
ATOM     98  H   UNL A   1      31.273  28.859  24.501  1.00  0.00     0.348 HD
ATOM     99  C   UNL A   1      31.944  29.398  27.165  1.00  0.00     0.068 C 
ENDBRANCH  82  89
ENDBRANCH  75  78
ENDBRANCH  73  74
ENDBRANCH  72  73
ENDBRANCH   1  72
TORSDOF 17
ENDMDL
MODEL 3
REMARK VINA RESULT:     -11.7      5.252      8.798
REMARK SMILES O=C(NCCCCNC(=O)[C@@]1([NH2+]C2CC2)CC[C@@H]([N@@H+]2CC[N@@H+]3CCC[C@@H]3C2)C1)c1ccc(-c2c3nc(c(-c4cccc(S(=O)(=O)[O-])c4F)c4ccc([nH]4)c(-c4cccc(S(=O)(=O)[O-])c4F)c4nc(c(-c5cccc(S(=O)(=O)[O-])c5F)c5ccc2[nH]5)C=C4)C=C3)cc1
REMARK SMILES IDX 5 1 4 2 3 3 1 4 2 5 29 7 30 8 91 9 31 10 90 11 32 12 33 13
REMARK SMILES IDX 34 14 84 15 35 16 89 17 83 18 85 19 36 20 88 21 82 22 81 23
REMARK SMILES IDX 37 25 69 26 49 27 68 28 50 29 53 30 67 31 86 32 51 33 52 34
REMARK SMILES IDX 66 36 87 37 54 38 38 39 39 40 47 41 40 42 42 43 48 44 41 45
REMARK SMILES IDX 43 46 44 47 45 48 46 49 70 50 71 51 79 52 72 53 74 54 80 55
REMARK SMILES IDX 73 56 75 57 76 58 77 59 78 60 55 61 56 62 64 63 57 64 59 65
REMARK SMILES IDX 65 66 58 67 60 68 61 69 62 70 63 71 6 72 7 73 8 74 9 75
REMARK SMILES IDX 10 77 11 78 16 79 28 80 17 81 18 82 12 83 13 86 14 87 15 88
REMARK SMILES IDX 19 89 20 90 27 91 21 93 26 94 22 95 25 96 23 97 24 99
REMARK H PARENT 3 6 85 24 53 35 8 76 12 84 12 85 19 92 22 98
REMARK Flexibility Score: inf
ROOT
ATOM      1  C   UNL A   1      31.886  31.112  27.046  1.00  0.00     0.023 C 
ENDROOT
BRANCH   1   2
ATOM      2  C   UNL A   1      32.963  32.173  26.871  1.00  0.00     0.116 C 
BRANCH   2   3
ATOM      3  N   UNL A   1      32.557  33.496  27.327  1.00  0.00    -0.352 N 
ATOM      4  O   UNL A   1      32.545  35.294  28.691  1.00  0.00    -0.269 OA
ATOM      5  C   UNL A   1      33.069  34.239  28.371  1.00  0.00     0.251 C 
ATOM      6  H   UNL A   1      31.822  33.914  26.826  1.00  0.00     0.163 HD
BRANCH   5   7
ATOM      7  C   UNL A   1      34.234  33.705  29.110  1.00  0.00     0.039 A 
ATOM      8  C   UNL A   1      35.526  34.094  28.748  1.00  0.00     0.014 A 
ATOM      9  C   UNL A   1      34.034  32.750  30.108  1.00  0.00     0.014 A 
ATOM     10  C   UNL A   1      36.617  33.401  29.258  1.00  0.00     0.010 A 
ATOM     11  C   UNL A   1      35.140  32.126  30.693  1.00  0.00     0.010 A 
ATOM     12  C   UNL A   1      36.437  32.418  30.244  1.00  0.00    -0.014 A 
BRANCH  12  13
ATOM     13  C   UNL A   1      37.631  31.772  30.846  1.00  0.00     0.031 A 
ATOM     14  C   UNL A   1      38.446  30.760  30.089  1.00  0.00     0.074 A 
ATOM     15  C   UNL A   1      37.969  32.111  32.105  1.00  0.00     0.049 A 
ATOM     16  N   UNL A   1      39.511  30.109  30.481  1.00  0.00    -0.248 NA
ATOM     17  C   UNL A   1      38.013  30.425  28.722  1.00  0.00     0.031 C 
ATOM     18  C   UNL A   1      37.222  33.048  32.950  1.00  0.00     0.029 A 
ATOM     19  N   UNL A   1      39.011  31.709  32.899  1.00  0.00    -0.354 N 
ATOM     20  C   UNL A   1      39.849  29.256  29.437  1.00  0.00     0.074 A 
ATOM     21  C   UNL A   1      38.877  29.474  28.388  1.00  0.00     0.031 C 
ATOM     22  C   UNL A   1      37.841  33.166  34.132  1.00  0.00     0.029 A 
ATOM     23  C   UNL A   1      38.990  32.270  34.153  1.00  0.00     0.049 A 
ATOM     24  H   UNL A   1      39.708  31.082  32.598  1.00  0.00     0.167 HD
ATOM     25  C   UNL A   1      40.883  28.383  29.359  1.00  0.00     0.034 A 
ATOM     26  C   UNL A   1      39.788  32.069  35.219  1.00  0.00     0.034 A 
ATOM     27  C   UNL A   1      41.874  28.213  30.389  1.00  0.00     0.049 A 
ATOM     28  C   UNL A   1      40.938  31.115  35.089  1.00  0.00     0.074 A 
ATOM     29  C   UNL A   1      43.009  27.421  30.365  1.00  0.00     0.029 A 
ATOM     30  N   UNL A   1      41.846  28.831  31.630  1.00  0.00    -0.354 N 
ATOM     31  N   UNL A   1      41.321  30.426  34.043  1.00  0.00    -0.248 NA
ATOM     32  C   UNL A   1      41.778  30.925  36.279  1.00  0.00     0.031 C 
ATOM     33  C   UNL A   1      43.657  27.545  31.599  1.00  0.00     0.029 A 
ATOM     34  C   UNL A   1      42.932  28.426  32.387  1.00  0.00     0.049 A 
ATOM     35  H   UNL A   1      41.154  29.465  31.928  1.00  0.00     0.167 HD
ATOM     36  C   UNL A   1      42.455  29.731  34.440  1.00  0.00     0.074 A 
ATOM     37  C   UNL A   1      42.715  30.108  35.816  1.00  0.00     0.031 C 
ATOM     38  C   UNL A   1      43.199  28.842  33.738  1.00  0.00     0.034 A 
BRANCH  25  39
ATOM     39  C   UNL A   1      41.030  27.568  28.101  1.00  0.00     0.023 A 
ATOM     40  C   UNL A   1      41.560  28.168  26.941  1.00  0.00     0.012 A 
ATOM     41  C   UNL A   1      40.737  26.189  28.094  1.00  0.00     0.148 A 
ATOM     42  C   UNL A   1      41.775  27.415  25.787  1.00  0.00     0.002 A 
ATOM     43  C   UNL A   1      40.988  25.438  26.950  1.00  0.00     0.091 A 
ATOM     44  F   UNL A   1      40.216  25.640  29.200  1.00  0.00    -0.205 F 
ATOM     45  C   UNL A   1      41.500  26.050  25.795  1.00  0.00     0.022 A 
BRANCH  43  46
ATOM     46  S   UNL A   1      40.733  23.659  26.887  1.00  0.00     0.127 S 
ATOM     47  O   UNL A   1      41.289  23.237  28.172  1.00  0.00    -0.237 OA
ATOM     48  O   UNL A   1      39.277  23.557  26.790  1.00  0.00    -0.237 OA
ATOM     49  O   UNL A   1      41.452  23.195  25.709  1.00  0.00    -0.744 OA
ENDBRANCH  43  46
ENDBRANCH  25  39
BRANCH  26  50
ATOM     50  C   UNL A   1      39.529  32.817  36.478  1.00  0.00     0.023 A 
ATOM     51  C   UNL A   1      40.128  34.075  36.674  1.00  0.00     0.012 A 
ATOM     52  C   UNL A   1      38.635  32.323  37.448  1.00  0.00     0.148 A 
ATOM     53  C   UNL A   1      39.853  34.821  37.821  1.00  0.00     0.002 A 
ATOM     54  C   UNL A   1      38.317  33.097  38.557  1.00  0.00     0.091 A 
ATOM     55  F   UNL A   1      38.088  31.113  37.254  1.00  0.00    -0.205 F 
ATOM     56  C   UNL A   1      38.937  34.340  38.754  1.00  0.00     0.022 A 
BRANCH  54  57
ATOM     57  S   UNL A   1      37.028  32.612  39.711  1.00  0.00     0.127 S 
ATOM     58  O   UNL A   1      37.120  33.662  40.722  1.00  0.00    -0.237 OA
ATOM     59  O   UNL A   1      35.828  32.665  38.874  1.00  0.00    -0.237 OA
ATOM     60  O   UNL A   1      37.388  31.270  40.146  1.00  0.00    -0.744 OA
ENDBRANCH  54  57
ENDBRANCH  26  50
BRANCH  38  61
ATOM     61  C   UNL A   1      44.372  28.217  34.444  1.00  0.00     0.023 A 
ATOM     62  C   UNL A   1      45.608  28.892  34.460  1.00  0.00     0.012 A 
ATOM     63  C   UNL A   1      44.235  27.004  35.144  1.00  0.00     0.148 A 
ATOM     64  C   UNL A   1      46.699  28.355  35.141  1.00  0.00     0.002 A 
ATOM     65  C   UNL A   1      45.314  26.496  35.856  1.00  0.00     0.091 A 
ATOM     66  F   UNL A   1      43.055  26.369  35.098  1.00  0.00    -0.205 F 
ATOM     67  C   UNL A   1      46.549  27.164  35.848  1.00  0.00     0.022 A 
BRANCH  65  68
ATOM     68  S   UNL A   1      45.188  25.015  36.865  1.00  0.00     0.127 S 
ATOM     69  O   UNL A   1      45.086  23.970  35.849  1.00  0.00    -0.237 OA
ATOM     70  O   UNL A   1      46.453  25.030  37.601  1.00  0.00    -0.237 OA
ATOM     71  O   UNL A   1      44.005  25.198  37.696  1.00  0.00    -0.744 OA
ENDBRANCH  65  68
ENDBRANCH  38  61
ENDBRANCH  12  13
ENDBRANCH   5   7
ENDBRANCH   2   3
ENDBRANCH   1   2
BRANCH   1  72
ATOM     72  C   UNL A   1      32.405  29.695  27.225  1.00  0.00     0.023 C 
BRANCH  72  73
ATOM     73  C   UNL A   1      32.018  28.735  26.115  1.00  0.00     0.116 C 
BRANCH  73  74
ATOM     74  N   UNL A   1      31.028  27.760  26.470  1.00  0.00    -0.351 N 
ATOM     75  C   UNL A   1      30.694  26.614  25.801  1.00  0.00     0.281 C 
ATOM     76  H   UNL A   1      30.527  27.936  27.300  1.00  0.00     0.163 HD
ATOM     77  O   UNL A   1      30.138  25.759  26.501  1.00  0.00    -0.268 OA
BRANCH  75  78
ATOM     78  C   UNL A   1      31.034  26.393  24.269  1.00  0.00     0.181 C 
ATOM     79  C   UNL A   1      32.429  26.839  23.780  1.00  0.00     0.085 C 
ATOM     80  C   UNL A   1      31.029  24.866  23.937  1.00  0.00     0.144 C 
ATOM     81  C   UNL A   1      32.706  25.987  22.543  1.00  0.00     0.072 C 
ATOM     82  C   UNL A   1      32.079  24.612  22.825  1.00  0.00     0.191 C 
BRANCH  78  83
ATOM     83  N   UNL A   1      30.010  27.052  23.409  1.00  0.00    -0.331 N 
ATOM     84  H   UNL A   1      29.103  26.673  23.682  1.00  0.00     0.347 HD
ATOM     85  H   UNL A   1      30.328  26.850  22.461  1.00  0.00     0.347 HD
BRANCH  83  86
ATOM     86  C   UNL A   1      29.885  28.517  23.427  1.00  0.00     0.183 C 
ATOM     87  C   UNL A   1      30.090  29.435  22.252  1.00  0.00     0.071 C 
ATOM     88  C   UNL A   1      28.704  29.160  22.745  1.00  0.00     0.071 C 
ENDBRANCH  83  86
ENDBRANCH  78  83
BRANCH  82  89
ATOM     89  N   UNL A   1      33.059  23.533  23.032  1.00  0.00    -0.323 N 
ATOM     90  C   UNL A   1      32.537  22.330  23.710  1.00  0.00     0.324 C 
ATOM     91  C   UNL A   1      34.406  23.871  23.489  1.00  0.00     0.328 C 
ATOM     92  H   UNL A   1      33.212  23.303  22.051  1.00  0.00     0.348 HD
ATOM     93  C   UNL A   1      33.508  21.658  24.731  1.00  0.00     0.324 C 
ATOM     94  C   UNL A   1      35.362  22.661  23.466  1.00  0.00     0.240 C 
ATOM     95  N   UNL A   1      34.889  21.499  24.249  1.00  0.00    -0.323 N 
ATOM     96  C   UNL A   1      36.738  23.022  24.034  1.00  0.00     0.077 C 
ATOM     97  C   UNL A   1      35.843  21.269  25.343  1.00  0.00     0.263 C 
ATOM     98  H   UNL A   1      34.855  20.677  23.646  1.00  0.00     0.348 HD
ATOM     99  C   UNL A   1      37.160  21.779  24.790  1.00  0.00     0.068 C 
ENDBRANCH  82  89
ENDBRANCH  75  78
ENDBRANCH  73  74
ENDBRANCH  72  73
ENDBRANCH   1  72
TORSDOF 17
ENDMDL
