MODEL 1
REMARK VINA RESULT:     -11.4      0.000      0.000
REMARK SMILES O=C(CN(CC(=O)NCc1ccccc1)c1ccccc1)NCCCCNC(=O)c1ccc(-c2c3nc(c(-c4cccc(S(=O)(=O)[O-])c4F)c4ccc([nH]4)c(-c4cccc(S(=O)(=O)[O-])c4F)c4nc(c(-c5cccc(S(=O)(=O)[O-])c5F)c5ccc2[nH]5)C=C4)C=C3)cc1
REMARK SMILES IDX 23 1 22 2 1 3 2 4 3 6 4 7 5 8 6 9 7 10 8 11 9 13 10 14 11 15
REMARK SMILES IDX 15 16 12 17 14 18 13 19 16 20 17 21 21 22 18 23 20 24 19 25
REMARK SMILES IDX 24 26 25 27 26 28 27 29 28 30 29 32 30 33 31 34 92 35 32 36
REMARK SMILES IDX 91 37 33 38 34 39 35 40 85 41 36 42 90 43 84 44 86 45 37 46
REMARK SMILES IDX 89 47 83 48 82 49 38 51 70 52 50 53 69 54 51 55 54 56 68 57
REMARK SMILES IDX 87 58 52 59 53 60 67 62 88 63 55 64 39 65 40 66 48 67 41 68
REMARK SMILES IDX 43 69 49 70 42 71 44 72 45 73 46 74 47 75 71 76 72 77 80 78
REMARK SMILES IDX 73 79 75 80 81 81 74 82 76 83 77 84 78 85 79 86 56 87 57 88
REMARK SMILES IDX 65 89 58 90 60 91 66 92 59 93 61 94 62 95 63 96 64 97
REMARK H PARENT 22 5 8 12 27 31 86 50 54 61
REMARK Flexibility Score: inf
ROOT
ATOM      1  C   UNL A   1      36.327  21.510  25.141  1.00  0.00     0.116 C 
ENDROOT
BRANCH   1   2
ATOM      2  N   UNL A   1      35.134  22.008  25.789  1.00  0.00    -0.355 N 
ATOM      3  O   UNL A   1      35.716  24.215  25.601  1.00  0.00    -0.273 OA
ATOM      4  C   UNL A   1      34.887  23.357  25.902  1.00  0.00     0.239 C 
ATOM      5  H   UNL A   1      34.484  21.368  26.158  1.00  0.00     0.163 HD
BRANCH   4   6
ATOM      6  C   UNL A   1      33.521  23.739  26.465  1.00  0.00     0.217 C 
BRANCH   6   7
ATOM      7  N   UNL A   1      32.518  24.316  25.528  1.00  0.00    -0.353 N 
BRANCH   7   8
ATOM      8  C   UNL A   1      31.634  23.334  24.833  1.00  0.00     0.217 C 
BRANCH   8   9
ATOM      9  C   UNL A   1      32.262  22.458  23.731  1.00  0.00     0.239 C 
ATOM     10  O   UNL A   1      32.705  22.976  22.699  1.00  0.00    -0.273 OA
ATOM     11  N   UNL A   1      32.402  21.111  23.831  1.00  0.00    -0.350 N 
ATOM     12  H   UNL A   1      32.725  20.673  23.012  1.00  0.00     0.163 HD
BRANCH  11  13
ATOM     13  C   UNL A   1      32.159  20.212  24.931  1.00  0.00     0.151 C 
BRANCH  13  14
ATOM     14  C   UNL A   1      32.693  18.827  24.663  1.00  0.00    -0.029 A 
ATOM     15  C   UNL A   1      33.197  18.482  23.402  1.00  0.00     0.005 A 
ATOM     16  C   UNL A   1      32.736  17.862  25.678  1.00  0.00     0.005 A 
ATOM     17  C   UNL A   1      33.735  17.211  23.173  1.00  0.00     0.000 A 
ATOM     18  C   UNL A   1      33.287  16.600  25.458  1.00  0.00     0.000 A 
ATOM     19  C   UNL A   1      33.788  16.274  24.203  1.00  0.00     0.000 A 
ENDBRANCH  13  14
ENDBRANCH  11  13
ENDBRANCH   8   9
ENDBRANCH   7   8
BRANCH   7  20
ATOM     20  C   UNL A   1      32.291  25.692  25.447  1.00  0.00     0.038 A 
ATOM     21  C   UNL A   1      33.084  26.638  26.122  1.00  0.00     0.026 A 
ATOM     22  C   UNL A   1      31.259  26.248  24.671  1.00  0.00     0.026 A 
ATOM     23  C   UNL A   1      32.887  28.024  26.013  1.00  0.00     0.002 A 
ATOM     24  C   UNL A   1      31.019  27.630  24.590  1.00  0.00     0.002 A 
ATOM     25  C   UNL A   1      31.843  28.522  25.254  1.00  0.00     0.000 A 
ENDBRANCH   7  20
ENDBRANCH   6   7
ENDBRANCH   4   6
ENDBRANCH   1   2
BRANCH   1  26
ATOM     26  C   UNL A   1      36.325  19.996  24.971  1.00  0.00     0.023 C 
BRANCH  26  27
ATOM     27  C   UNL A   1      37.716  19.363  24.905  1.00  0.00     0.023 C 
BRANCH  27  28
ATOM     28  C   UNL A   1      38.808  20.111  25.662  1.00  0.00     0.116 C 
BRANCH  28  29
ATOM     29  N   UNL A   1      39.962  19.278  25.965  1.00  0.00    -0.352 N 
ATOM     30  C   UNL A   1      41.220  19.653  26.374  1.00  0.00     0.251 C 
ATOM     31  H   UNL A   1      39.823  18.309  25.863  1.00  0.00     0.163 HD
ATOM     32  O   UNL A   1      42.114  18.814  26.448  1.00  0.00    -0.269 OA
BRANCH  30  33
ATOM     33  C   UNL A   1      41.504  21.070  26.695  1.00  0.00     0.039 A 
ATOM     34  C   UNL A   1      41.936  21.396  27.982  1.00  0.00     0.014 A 
ATOM     35  C   UNL A   1      41.360  22.070  25.730  1.00  0.00     0.014 A 
ATOM     36  C   UNL A   1      42.290  22.715  28.282  1.00  0.00     0.010 A 
ATOM     37  C   UNL A   1      41.788  23.367  26.006  1.00  0.00     0.010 A 
ATOM     38  C   UNL A   1      42.256  23.705  27.285  1.00  0.00    -0.014 A 
BRANCH  38  39
ATOM     39  C   UNL A   1      42.724  25.091  27.557  1.00  0.00     0.031 A 
ATOM     40  C   UNL A   1      41.801  26.097  28.191  1.00  0.00     0.074 A 
ATOM     41  C   UNL A   1      43.954  25.469  27.156  1.00  0.00     0.049 A 
ATOM     42  N   UNL A   1      42.016  27.360  28.457  1.00  0.00    -0.248 NA
ATOM     43  C   UNL A   1      40.449  25.634  28.548  1.00  0.00     0.031 C 
ATOM     44  C   UNL A   1      44.920  24.611  26.464  1.00  0.00     0.029 A 
ATOM     45  N   UNL A   1      44.596  26.680  27.248  1.00  0.00    -0.354 N 
ATOM     46  C   UNL A   1      40.823  27.850  28.975  1.00  0.00     0.074 A 
ATOM     47  C   UNL A   1      39.876  26.756  28.957  1.00  0.00     0.031 C 
ATOM     48  C   UNL A   1      46.030  25.320  26.203  1.00  0.00     0.029 A 
ATOM     49  C   UNL A   1      45.846  26.689  26.674  1.00  0.00     0.049 A 
ATOM     50  H   UNL A   1      44.198  27.468  27.683  1.00  0.00     0.167 HD
ATOM     51  C   UNL A   1      40.546  29.090  29.445  1.00  0.00     0.034 A 
ATOM     52  C   UNL A   1      46.740  27.686  26.532  1.00  0.00     0.034 A 
ATOM     53  C   UNL A   1      41.499  30.165  29.496  1.00  0.00     0.049 A 
ATOM     54  C   UNL A   1      46.416  29.047  27.089  1.00  0.00     0.074 A 
ATOM     55  C   UNL A   1      41.342  31.427  30.042  1.00  0.00     0.029 A 
ATOM     56  N   UNL A   1      42.781  30.114  28.971  1.00  0.00    -0.354 N 
ATOM     57  N   UNL A   1      45.341  29.444  27.723  1.00  0.00    -0.248 NA
ATOM     58  C   UNL A   1      47.445  30.088  26.941  1.00  0.00     0.031 C 
ATOM     59  C   UNL A   1      42.516  32.152  29.813  1.00  0.00     0.029 A 
ATOM     60  C   UNL A   1      43.420  31.327  29.163  1.00  0.00     0.049 A 
ATOM     61  H   UNL A   1      43.178  29.331  28.527  1.00  0.00     0.167 HD
ATOM     62  C   UNL A   1      45.577  30.766  28.084  1.00  0.00     0.074 A 
ATOM     63  C   UNL A   1      46.906  31.095  27.615  1.00  0.00     0.031 C 
ATOM     64  C   UNL A   1      44.762  31.631  28.737  1.00  0.00     0.034 A 
BRANCH  51  65
ATOM     65  C   UNL A   1      39.159  29.344  29.981  1.00  0.00     0.023 A 
ATOM     66  C   UNL A   1      38.836  28.960  31.299  1.00  0.00     0.012 A 
ATOM     67  C   UNL A   1      38.199  30.020  29.204  1.00  0.00     0.148 A 
ATOM     68  C   UNL A   1      37.568  29.209  31.822  1.00  0.00     0.002 A 
ATOM     69  C   UNL A   1      36.953  30.309  29.749  1.00  0.00     0.091 A 
ATOM     70  F   UNL A   1      38.516  30.361  27.947  1.00  0.00    -0.205 F 
ATOM     71  C   UNL A   1      36.631  29.893  31.052  1.00  0.00     0.022 A 
BRANCH  69  72
ATOM     72  S   UNL A   1      35.707  31.260  28.870  1.00  0.00     0.127 S 
ATOM     73  O   UNL A   1      35.058  30.223  28.068  1.00  0.00    -0.237 OA
ATOM     74  O   UNL A   1      34.890  31.782  29.967  1.00  0.00    -0.237 OA
ATOM     75  O   UNL A   1      36.431  32.271  28.115  1.00  0.00    -0.744 OA
ENDBRANCH  69  72
ENDBRANCH  51  65
BRANCH  52  76
ATOM     76  C   UNL A   1      48.058  27.424  25.884  1.00  0.00     0.023 A 
ATOM     77  C   UNL A   1      49.142  26.987  26.672  1.00  0.00     0.012 A 
ATOM     78  C   UNL A   1      48.239  27.586  24.497  1.00  0.00     0.148 A 
ATOM     79  C   UNL A   1      50.390  26.753  26.097  1.00  0.00     0.002 A 
ATOM     80  C   UNL A   1      49.470  27.297  23.922  1.00  0.00     0.091 A 
ATOM     81  F   UNL A   1      47.199  28.011  23.767  1.00  0.00    -0.205 F 
ATOM     82  C   UNL A   1      50.553  26.898  24.721  1.00  0.00     0.022 A 
BRANCH  80  83
ATOM     83  S   UNL A   1      49.737  27.330  22.146  1.00  0.00     0.127 S 
ATOM     84  O   UNL A   1      51.135  26.920  22.045  1.00  0.00    -0.237 OA
ATOM     85  O   UNL A   1      48.768  26.338  21.677  1.00  0.00    -0.237 OA
ATOM     86  O   UNL A   1      49.449  28.695  21.729  1.00  0.00    -0.744 OA
ENDBRANCH  80  83
ENDBRANCH  52  76
BRANCH  64  87
ATOM     87  C   UNL A   1      45.294  33.011  29.029  1.00  0.00     0.023 A 
ATOM     88  C   UNL A   1      45.945  33.274  30.250  1.00  0.00     0.012 A 
ATOM     89  C   UNL A   1      45.210  34.029  28.057  1.00  0.00     0.148 A 
ATOM     90  C   UNL A   1      46.472  34.538  30.514  1.00  0.00     0.002 A 
ATOM     91  C   UNL A   1      45.784  35.269  28.306  1.00  0.00     0.091 A 
ATOM     92  F   UNL A   1      44.572  33.765  26.908  1.00  0.00    -0.205 F 
ATOM     93  C   UNL A   1      46.403  35.531  29.539  1.00  0.00     0.022 A 
BRANCH  91  94
ATOM     94  S   UNL A   1      45.833  36.575  27.073  1.00  0.00     0.127 S 
ATOM     95  O   UNL A   1      46.227  35.836  25.874  1.00  0.00    -0.237 OA
ATOM     96  O   UNL A   1      44.449  37.050  27.071  1.00  0.00    -0.237 OA
ATOM     97  O   UNL A   1      46.805  37.547  27.554  1.00  0.00    -0.744 OA
ENDBRANCH  91  94
ENDBRANCH  64  87
ENDBRANCH  38  39
ENDBRANCH  30  33
ENDBRANCH  28  29
ENDBRANCH  27  28
ENDBRANCH  26  27
ENDBRANCH   1  26
TORSDOF 20
ENDMDL
MODEL 2
REMARK VINA RESULT:     -11.2      5.433     10.561
REMARK SMILES O=C(CN(CC(=O)NCc1ccccc1)c1ccccc1)NCCCCNC(=O)c1ccc(-c2c3nc(c(-c4cccc(S(=O)(=O)[O-])c4F)c4ccc([nH]4)c(-c4cccc(S(=O)(=O)[O-])c4F)c4nc(c(-c5cccc(S(=O)(=O)[O-])c5F)c5ccc2[nH]5)C=C4)C=C3)cc1
REMARK SMILES IDX 23 1 22 2 1 3 2 4 3 6 4 7 5 8 6 9 7 10 8 11 9 13 10 14 11 15
REMARK SMILES IDX 15 16 12 17 14 18 13 19 16 20 17 21 21 22 18 23 20 24 19 25
REMARK SMILES IDX 24 26 25 27 26 28 27 29 28 30 29 32 30 33 31 34 92 35 32 36
REMARK SMILES IDX 91 37 33 38 34 39 35 40 85 41 36 42 90 43 84 44 86 45 37 46
REMARK SMILES IDX 89 47 83 48 82 49 38 51 70 52 50 53 69 54 51 55 54 56 68 57
REMARK SMILES IDX 87 58 52 59 53 60 67 62 88 63 55 64 39 65 40 66 48 67 41 68
REMARK SMILES IDX 43 69 49 70 42 71 44 72 45 73 46 74 47 75 71 76 72 77 80 78
REMARK SMILES IDX 73 79 75 80 81 81 74 82 76 83 77 84 78 85 79 86 56 87 57 88
REMARK SMILES IDX 65 89 58 90 60 91 66 92 59 93 61 94 62 95 63 96 64 97
REMARK H PARENT 22 5 8 12 27 31 86 50 54 61
REMARK Flexibility Score: inf
ROOT
ATOM      1  C   UNL A   1      33.535  27.877  26.442  1.00  0.00     0.116 C 
ENDROOT
BRANCH   1   2
ATOM      2  N   UNL A   1      32.598  26.855  26.029  1.00  0.00    -0.355 N 
ATOM      3  O   UNL A   1      31.024  27.388  27.605  1.00  0.00    -0.273 OA
ATOM      4  C   UNL A   1      31.358  26.741  26.612  1.00  0.00     0.239 C 
ATOM      5  H   UNL A   1      32.854  26.227  25.316  1.00  0.00     0.163 HD
BRANCH   4   6
ATOM      6  C   UNL A   1      30.414  25.724  25.976  1.00  0.00     0.217 C 
BRANCH   6   7
ATOM      7  N   UNL A   1      31.007  24.687  25.086  1.00  0.00    -0.353 N 
BRANCH   7   8
ATOM      8  C   UNL A   1      30.996  24.997  23.626  1.00  0.00     0.217 C 
BRANCH   8   9
ATOM      9  C   UNL A   1      32.175  25.809  23.056  1.00  0.00     0.239 C 
ATOM     10  O   UNL A   1      32.128  27.045  23.031  1.00  0.00    -0.273 OA
ATOM     11  N   UNL A   1      33.322  25.245  22.595  1.00  0.00    -0.350 N 
ATOM     12  H   UNL A   1      33.943  25.876  22.168  1.00  0.00     0.163 HD
BRANCH  11  13
ATOM     13  C   UNL A   1      33.784  23.881  22.623  1.00  0.00     0.151 C 
BRANCH  13  14
ATOM     14  C   UNL A   1      34.955  23.696  23.556  1.00  0.00    -0.029 A 
ATOM     15  C   UNL A   1      35.008  24.368  24.784  1.00  0.00     0.005 A 
ATOM     16  C   UNL A   1      36.000  22.818  23.236  1.00  0.00     0.005 A 
ATOM     17  C   UNL A   1      36.073  24.155  25.667  1.00  0.00     0.000 A 
ATOM     18  C   UNL A   1      37.054  22.591  24.121  1.00  0.00     0.000 A 
ATOM     19  C   UNL A   1      37.090  23.260  25.338  1.00  0.00     0.000 A 
ENDBRANCH  13  14
ENDBRANCH  11  13
ENDBRANCH   8   9
ENDBRANCH   7   8
BRANCH   7  20
ATOM     20  C   UNL A   1      31.698  23.585  25.597  1.00  0.00     0.038 A 
ATOM     21  C   UNL A   1      31.822  22.370  24.898  1.00  0.00     0.026 A 
ATOM     22  C   UNL A   1      32.342  23.604  26.846  1.00  0.00     0.026 A 
ATOM     23  C   UNL A   1      32.548  21.273  25.386  1.00  0.00     0.002 A 
ATOM     24  C   UNL A   1      33.034  22.498  27.370  1.00  0.00     0.002 A 
ATOM     25  C   UNL A   1      33.147  21.332  26.633  1.00  0.00     0.000 A 
ENDBRANCH   7  20
ENDBRANCH   6   7
ENDBRANCH   4   6
ENDBRANCH   1   2
BRANCH   1  26
ATOM     26  C   UNL A   1      33.720  28.972  25.398  1.00  0.00     0.023 C 
BRANCH  26  27
ATOM     27  C   UNL A   1      32.575  29.984  25.331  1.00  0.00     0.023 C 
BRANCH  27  28
ATOM     28  C   UNL A   1      32.029  30.440  26.679  1.00  0.00     0.116 C 
BRANCH  28  29
ATOM     29  N   UNL A   1      31.925  31.887  26.791  1.00  0.00    -0.352 N 
ATOM     30  C   UNL A   1      32.778  32.774  27.404  1.00  0.00     0.251 C 
ATOM     31  H   UNL A   1      31.132  32.288  26.368  1.00  0.00     0.163 HD
ATOM     32  O   UNL A   1      32.454  33.954  27.519  1.00  0.00    -0.269 OA
BRANCH  30  33
ATOM     33  C   UNL A   1      34.070  32.303  27.951  1.00  0.00     0.039 A 
ATOM     34  C   UNL A   1      35.139  33.198  28.022  1.00  0.00     0.014 A 
ATOM     35  C   UNL A   1      34.224  30.990  28.406  1.00  0.00     0.014 A 
ATOM     36  C   UNL A   1      36.342  32.798  28.611  1.00  0.00     0.010 A 
ATOM     37  C   UNL A   1      35.394  30.618  29.065  1.00  0.00     0.010 A 
ATOM     38  C   UNL A   1      36.467  31.516  29.173  1.00  0.00    -0.014 A 
BRANCH  38  39
ATOM     39  C   UNL A   1      37.703  31.107  29.894  1.00  0.00     0.031 A 
ATOM     40  C   UNL A   1      38.696  30.183  29.241  1.00  0.00     0.074 A 
ATOM     41  C   UNL A   1      37.889  31.498  31.171  1.00  0.00     0.049 A 
ATOM     42  N   UNL A   1      39.800  29.681  29.731  1.00  0.00    -0.248 NA
ATOM     43  C   UNL A   1      38.399  29.745  27.866  1.00  0.00     0.031 C 
ATOM     44  C   UNL A   1      36.966  32.332  31.944  1.00  0.00     0.029 A 
ATOM     45  N   UNL A   1      38.905  31.225  32.053  1.00  0.00    -0.354 N 
ATOM     46  C   UNL A   1      40.308  28.841  28.747  1.00  0.00     0.074 A 
ATOM     47  C   UNL A   1      39.375  28.877  27.642  1.00  0.00     0.031 C 
ATOM     48  C   UNL A   1      37.462  32.509  33.179  1.00  0.00     0.029 A 
ATOM     49  C   UNL A   1      38.717  31.775  33.301  1.00  0.00     0.049 A 
ATOM     50  H   UNL A   1      39.695  30.687  31.816  1.00  0.00     0.167 HD
ATOM     51  C   UNL A   1      41.457  28.123  28.751  1.00  0.00     0.034 A 
ATOM     52  C   UNL A   1      39.463  31.690  34.419  1.00  0.00     0.034 A 
ATOM     53  C   UNL A   1      42.401  28.118  29.836  1.00  0.00     0.049 A 
ATOM     54  C   UNL A   1      40.749  30.908  34.387  1.00  0.00     0.074 A 
ATOM     55  C   UNL A   1      43.637  27.500  29.895  1.00  0.00     0.029 A 
ATOM     56  N   UNL A   1      42.210  28.746  31.056  1.00  0.00    -0.354 N 
ATOM     57  N   UNL A   1      41.291  30.254  33.389  1.00  0.00    -0.248 NA
ATOM     58  C   UNL A   1      41.543  30.882  35.624  1.00  0.00     0.031 C 
ATOM     59  C   UNL A   1      44.177  27.723  31.166  1.00  0.00     0.029 A 
ATOM     60  C   UNL A   1      43.296  28.516  31.883  1.00  0.00     0.049 A 
ATOM     61  H   UNL A   1      41.418  29.278  31.300  1.00  0.00     0.167 HD
ATOM     62  C   UNL A   1      42.506  29.773  33.866  1.00  0.00     0.074 A 
ATOM     63  C   UNL A   1      42.627  30.227  35.234  1.00  0.00     0.031 C 
ATOM     64  C   UNL A   1      43.432  29.014  33.228  1.00  0.00     0.034 A 
BRANCH  51  65
ATOM     65  C   UNL A   1      41.781  27.309  27.524  1.00  0.00     0.023 A 
ATOM     66  C   UNL A   1      42.280  27.948  26.371  1.00  0.00     0.012 A 
ATOM     67  C   UNL A   1      41.652  25.906  27.535  1.00  0.00     0.148 A 
ATOM     68  C   UNL A   1      42.610  27.209  25.235  1.00  0.00     0.002 A 
ATOM     69  C   UNL A   1      42.028  25.172  26.417  1.00  0.00     0.091 A 
ATOM     70  F   UNL A   1      41.158  25.317  28.633  1.00  0.00    -0.205 F 
ATOM     71  C   UNL A   1      42.495  25.822  25.262  1.00  0.00     0.022 A 
BRANCH  69  72
ATOM     72  S   UNL A   1      42.000  23.376  26.380  1.00  0.00     0.127 S 
ATOM     73  O   UNL A   1      40.564  23.104  26.429  1.00  0.00    -0.237 OA
ATOM     74  O   UNL A   1      42.632  23.085  25.093  1.00  0.00    -0.237 OA
ATOM     75  O   UNL A   1      42.758  22.938  27.543  1.00  0.00    -0.744 OA
ENDBRANCH  69  72
ENDBRANCH  51  65
BRANCH  52  76
ATOM     76  C   UNL A   1      39.044  32.414  35.655  1.00  0.00     0.023 A 
ATOM     77  C   UNL A   1      39.362  33.779  35.798  1.00  0.00     0.012 A 
ATOM     78  C   UNL A   1      38.321  31.767  36.675  1.00  0.00     0.148 A 
ATOM     79  C   UNL A   1      39.001  34.476  36.950  1.00  0.00     0.002 A 
ATOM     80  C   UNL A   1      37.914  32.482  37.795  1.00  0.00     0.091 A 
ATOM     81  F   UNL A   1      38.035  30.466  36.524  1.00  0.00    -0.205 F 
ATOM     82  C   UNL A   1      38.269  33.832  37.945  1.00  0.00     0.022 A 
BRANCH  80  83
ATOM     83  S   UNL A   1      36.860  31.771  39.063  1.00  0.00     0.127 S 
ATOM     84  O   UNL A   1      37.522  32.215  40.288  1.00  0.00    -0.237 OA
ATOM     85  O   UNL A   1      35.577  32.418  38.786  1.00  0.00    -0.237 OA
ATOM     86  O   UNL A   1      36.871  30.334  38.826  1.00  0.00    -0.744 OA
ENDBRANCH  80  83
ENDBRANCH  52  76
BRANCH  64  87
ATOM     87  C   UNL A   1      44.688  28.659  33.982  1.00  0.00     0.023 A 
ATOM     88  C   UNL A   1      45.798  29.525  33.955  1.00  0.00     0.012 A 
ATOM     89  C   UNL A   1      44.737  27.497  34.779  1.00  0.00     0.148 A 
ATOM     90  C   UNL A   1      46.951  29.222  34.679  1.00  0.00     0.002 A 
ATOM     91  C   UNL A   1      45.869  27.229  35.540  1.00  0.00     0.091 A 
ATOM     92  F   UNL A   1      43.677  26.676  34.779  1.00  0.00    -0.205 F 
ATOM     93  C   UNL A   1      46.982  28.082  35.480  1.00  0.00     0.022 A 
BRANCH  91  94
ATOM     94  S   UNL A   1      45.961  25.841  36.676  1.00  0.00     0.127 S 
ATOM     95  O   UNL A   1      44.896  26.163  37.625  1.00  0.00    -0.237 OA
ATOM     96  O   UNL A   1      45.677  24.704  35.800  1.00  0.00    -0.237 OA
ATOM     97  O   UNL A   1      47.310  25.859  37.225  1.00  0.00    -0.744 OA
ENDBRANCH  91  94
ENDBRANCH  64  87
ENDBRANCH  38  39
ENDBRANCH  30  33
ENDBRANCH  28  29
ENDBRANCH  27  28
ENDBRANCH  26  27
ENDBRANCH   1  26
TORSDOF 20
ENDMDL
MODEL 3
REMARK VINA RESULT:     -11.1      6.244     11.815
REMARK SMILES O=C(CN(CC(=O)NCc1ccccc1)c1ccccc1)NCCCCNC(=O)c1ccc(-c2c3nc(c(-c4cccc(S(=O)(=O)[O-])c4F)c4ccc([nH]4)c(-c4cccc(S(=O)(=O)[O-])c4F)c4nc(c(-c5cccc(S(=O)(=O)[O-])c5F)c5ccc2[nH]5)C=C4)C=C3)cc1
REMARK SMILES IDX 23 1 22 2 1 3 2 4 3 6 4 7 5 8 6 9 7 10 8 11 9 13 10 14 11 15
REMARK SMILES IDX 15 16 12 17 14 18 13 19 16 20 17 21 21 22 18 23 20 24 19 25
REMARK SMILES IDX 24 26 25 27 26 28 27 29 28 30 29 32 30 33 31 34 92 35 32 36
REMARK SMILES IDX 91 37 33 38 34 39 35 40 85 41 36 42 90 43 84 44 86 45 37 46
REMARK SMILES IDX 89 47 83 48 82 49 38 51 70 52 50 53 69 54 51 55 54 56 68 57
REMARK SMILES IDX 87 58 52 59 53 60 67 62 88 63 55 64 39 65 40 66 48 67 41 68
REMARK SMILES IDX 43 69 49 70 42 71 44 72 45 73 46 74 47 75 71 76 72 77 80 78
REMARK SMILES IDX 73 79 75 80 81 81 74 82 76 83 77 84 78 85 79 86 56 87 57 88
REMARK SMILES IDX 65 89 58 90 60 91 66 92 59 93 61 94 62 95 63 96 64 97
REMARK H PARENT 22 5 8 12 27 31 86 50 54 61
REMARK Flexibility Score: inf
ROOT
ATOM      1  C   UNL A   1      32.680  29.493  27.039  1.00  0.00     0.116 C 
ENDROOT
BRANCH   1   2
ATOM      2  N   UNL A   1      33.438  28.596  26.195  1.00  0.00    -0.355 N 
ATOM      3  O   UNL A   1      31.946  26.867  26.359  1.00  0.00    -0.273 OA
ATOM      4  C   UNL A   1      32.959  27.352  25.856  1.00  0.00     0.239 C 
ATOM      5  H   UNL A   1      34.316  28.883  25.855  1.00  0.00     0.163 HD
BRANCH   4   6
ATOM      6  C   UNL A   1      33.786  26.576  24.835  1.00  0.00     0.217 C 
BRANCH   6   7
ATOM      7  N   UNL A   1      33.058  25.856  23.753  1.00  0.00    -0.353 N 
BRANCH   7   8
ATOM      8  C   UNL A   1      32.775  26.648  22.520  1.00  0.00     0.217 C 
BRANCH   8   9
ATOM      9  C   UNL A   1      32.915  28.181  22.604  1.00  0.00     0.239 C 
ATOM     10  O   UNL A   1      33.973  28.729  22.271  1.00  0.00    -0.273 OA
ATOM     11  N   UNL A   1      31.910  29.007  22.995  1.00  0.00    -0.350 N 
ATOM     12  H   UNL A   1      32.175  29.949  23.098  1.00  0.00     0.163 HD
BRANCH  11  13
ATOM     13  C   UNL A   1      30.525  28.742  23.287  1.00  0.00     0.151 C 
BRANCH  13  14
ATOM     14  C   UNL A   1      29.627  29.879  22.869  1.00  0.00    -0.029 A 
ATOM     15  C   UNL A   1      28.865  30.578  23.814  1.00  0.00     0.005 A 
ATOM     16  C   UNL A   1      29.561  30.291  21.531  1.00  0.00     0.005 A 
ATOM     17  C   UNL A   1      28.071  31.663  23.428  1.00  0.00     0.000 A 
ATOM     18  C   UNL A   1      28.784  31.383  21.145  1.00  0.00     0.000 A 
ATOM     19  C   UNL A   1      28.038  32.070  22.095  1.00  0.00     0.000 A 
ENDBRANCH  13  14
ENDBRANCH  11  13
ENDBRANCH   8   9
ENDBRANCH   7   8
BRANCH   7  20
ATOM     20  C   UNL A   1      32.824  24.480  23.811  1.00  0.00     0.038 A 
ATOM     21  C   UNL A   1      32.499  23.809  25.005  1.00  0.00     0.026 A 
ATOM     22  C   UNL A   1      32.880  23.652  22.677  1.00  0.00     0.026 A 
ATOM     23  C   UNL A   1      32.224  22.434  25.063  1.00  0.00     0.002 A 
ATOM     24  C   UNL A   1      32.653  22.266  22.726  1.00  0.00     0.002 A 
ATOM     25  C   UNL A   1      32.313  21.656  23.922  1.00  0.00     0.000 A 
ENDBRANCH   7  20
ENDBRANCH   6   7
ENDBRANCH   4   6
ENDBRANCH   1   2
BRANCH   1  26
ATOM     26  C   UNL A   1      31.792  30.447  26.250  1.00  0.00     0.023 C 
BRANCH  26  27
ATOM     27  C   UNL A   1      31.534  31.789  26.938  1.00  0.00     0.023 C 
BRANCH  27  28
ATOM     28  C   UNL A   1      32.782  32.568  27.336  1.00  0.00     0.116 C 
BRANCH  28  29
ATOM     29  N   UNL A   1      32.507  33.963  27.647  1.00  0.00    -0.352 N 
ATOM     30  C   UNL A   1      33.092  34.773  28.591  1.00  0.00     0.251 C 
ATOM     31  H   UNL A   1      31.803  34.386  27.105  1.00  0.00     0.163 HD
ATOM     32  O   UNL A   1      32.631  35.892  28.806  1.00  0.00    -0.269 OA
BRANCH  30  33
ATOM     33  C   UNL A   1      34.255  34.288  29.368  1.00  0.00     0.039 A 
ATOM     34  C   UNL A   1      34.028  33.548  30.531  1.00  0.00     0.014 A 
ATOM     35  C   UNL A   1      35.562  34.549  28.947  1.00  0.00     0.014 A 
ATOM     36  C   UNL A   1      35.111  33.011  31.233  1.00  0.00     0.010 A 
ATOM     37  C   UNL A   1      36.634  33.946  29.601  1.00  0.00     0.010 A 
ATOM     38  C   UNL A   1      36.422  33.173  30.753  1.00  0.00    -0.014 A 
BRANCH  38  39
ATOM     39  C   UNL A   1      37.577  32.524  31.429  1.00  0.00     0.031 A 
ATOM     40  C   UNL A   1      38.301  31.379  30.771  1.00  0.00     0.074 A 
ATOM     41  C   UNL A   1      37.922  32.908  32.674  1.00  0.00     0.049 A 
ATOM     42  N   UNL A   1      39.293  30.660  31.228  1.00  0.00    -0.248 NA
ATOM     43  C   UNL A   1      37.833  30.970  29.436  1.00  0.00     0.031 C 
ATOM     44  C   UNL A   1      37.254  33.954  33.452  1.00  0.00     0.029 A 
ATOM     45  N   UNL A   1      38.903  32.446  33.517  1.00  0.00    -0.354 N 
ATOM     46  C   UNL A   1      39.543  29.693  30.261  1.00  0.00     0.074 A 
ATOM     47  C   UNL A   1      38.577  29.898  29.204  1.00  0.00     0.031 C 
ATOM     48  C   UNL A   1      37.850  34.059  34.651  1.00  0.00     0.029 A 
ATOM     49  C   UNL A   1      38.916  33.068  34.744  1.00  0.00     0.049 A 
ATOM     50  H   UNL A   1      39.539  31.736  33.266  1.00  0.00     0.167 HD
ATOM     51  C   UNL A   1      40.502  28.737  30.242  1.00  0.00     0.034 A 
ATOM     52  C   UNL A   1      39.690  32.857  35.827  1.00  0.00     0.034 A 
ATOM     53  C   UNL A   1      41.485  28.560  31.276  1.00  0.00     0.049 A 
ATOM     54  C   UNL A   1      40.767  31.807  35.767  1.00  0.00     0.074 A 
ATOM     55  C   UNL A   1      42.555  27.683  31.302  1.00  0.00     0.029 A 
ATOM     56  N   UNL A   1      41.511  29.257  32.473  1.00  0.00    -0.354 N 
ATOM     57  N   UNL A   1      41.091  31.013  34.775  1.00  0.00    -0.248 NA
ATOM     58  C   UNL A   1      41.608  31.648  36.962  1.00  0.00     0.031 C 
ATOM     59  C   UNL A   1      43.206  27.824  32.532  1.00  0.00     0.029 A 
ATOM     60  C   UNL A   1      42.567  28.819  33.254  1.00  0.00     0.049 A 
ATOM     61  H   UNL A   1      40.873  29.961  32.731  1.00  0.00     0.167 HD
ATOM     62  C   UNL A   1      42.195  30.290  35.212  1.00  0.00     0.074 A 
ATOM     63  C   UNL A   1      42.496  30.753  36.549  1.00  0.00     0.031 C 
ATOM     64  C   UNL A   1      42.890  29.321  34.565  1.00  0.00     0.034 A 
BRANCH  51  65
ATOM     65  C   UNL A   1      40.564  27.828  29.040  1.00  0.00     0.023 A 
ATOM     66  C   UNL A   1      39.609  26.801  28.889  1.00  0.00     0.012 A 
ATOM     67  C   UNL A   1      41.526  28.030  28.031  1.00  0.00     0.148 A 
ATOM     68  C   UNL A   1      39.633  25.967  27.772  1.00  0.00     0.002 A 
ATOM     69  C   UNL A   1      41.514  27.226  26.898  1.00  0.00     0.091 A 
ATOM     70  F   UNL A   1      42.437  28.998  28.201  1.00  0.00    -0.205 F 
ATOM     71  C   UNL A   1      40.577  26.186  26.772  1.00  0.00     0.022 A 
BRANCH  69  72
ATOM     72  S   UNL A   1      42.632  27.481  25.515  1.00  0.00     0.127 S 
ATOM     73  O   UNL A   1      42.017  28.629  24.848  1.00  0.00    -0.237 OA
ATOM     74  O   UNL A   1      43.895  27.775  26.192  1.00  0.00    -0.237 OA
ATOM     75  O   UNL A   1      42.622  26.240  24.755  1.00  0.00    -0.744 OA
ENDBRANCH  69  72
ENDBRANCH  51  65
BRANCH  52  76
ATOM     76  C   UNL A   1      39.517  33.700  37.045  1.00  0.00     0.023 A 
ATOM     77  C   UNL A   1      40.027  35.013  37.057  1.00  0.00     0.012 A 
ATOM     78  C   UNL A   1      38.838  33.217  38.181  1.00  0.00     0.148 A 
ATOM     79  C   UNL A   1      39.897  35.817  38.189  1.00  0.00     0.002 A 
ATOM     80  C   UNL A   1      38.663  34.042  39.285  1.00  0.00     0.091 A 
ATOM     81  F   UNL A   1      38.369  31.962  38.154  1.00  0.00    -0.205 F 
ATOM     82  C   UNL A   1      39.207  35.336  39.300  1.00  0.00     0.022 A 
BRANCH  80  83
ATOM     83  S   UNL A   1      37.679  33.555  40.706  1.00  0.00     0.127 S 
ATOM     84  O   UNL A   1      36.400  33.220  40.085  1.00  0.00    -0.237 OA
ATOM     85  O   UNL A   1      38.434  32.412  41.219  1.00  0.00    -0.237 OA
ATOM     86  O   UNL A   1      37.665  34.712  41.592  1.00  0.00    -0.744 OA
ENDBRANCH  80  83
ENDBRANCH  52  76
BRANCH  64  87
ATOM     87  C   UNL A   1      44.079  28.721  35.271  1.00  0.00     0.023 A 
ATOM     88  C   UNL A   1      45.374  29.215  35.021  1.00  0.00     0.012 A 
ATOM     89  C   UNL A   1      43.899  27.712  36.239  1.00  0.00     0.148 A 
ATOM     90  C   UNL A   1      46.475  28.690  35.697  1.00  0.00     0.002 A 
ATOM     91  C   UNL A   1      44.994  27.231  36.947  1.00  0.00     0.091 A 
ATOM     92  F   UNL A   1      42.661  27.242  36.452  1.00  0.00    -0.205 F 
ATOM     93  C   UNL A   1      46.285  27.708  36.667  1.00  0.00     0.022 A 
BRANCH  91  94
ATOM     94  S   UNL A   1      44.833  26.042  38.283  1.00  0.00     0.127 S 
ATOM     95  O   UNL A   1      46.227  25.855  38.685  1.00  0.00    -0.237 OA
ATOM     96  O   UNL A   1      44.011  26.770  39.249  1.00  0.00    -0.237 OA
ATOM     97  O   UNL A   1      44.190  24.870  37.703  1.00  0.00    -0.744 OA
ENDBRANCH  91  94
ENDBRANCH  64  87
ENDBRANCH  38  39
ENDBRANCH  30  33
ENDBRANCH  28  29
ENDBRANCH  27  28
ENDBRANCH  26  27
ENDBRANCH   1  26
TORSDOF 20
ENDMDL
