MODEL 1
REMARK VINA RESULT:     -12.1      0.000      0.000
REMARK SMILES C[C@]1(C(=O)N2CCC(CC(=O)NCCCCNC(=O)c3ccc(-c4c5nc(c(-c6cccc(S(=O)(=O)[O-])c6F)c6ccc([nH]6)c(-c6cccc(S(=O)(=O)[O-])c6F)c6nc(c(-c7cccc(S(=O)(=O)[O-])c7F)c7ccc4[nH]7)C=C6)C=C5)cc3)CC2)CCC[NH2+]C1
REMARK SMILES IDX 15 1 14 2 13 3 12 4 10 5 11 6 9 8 8 9 3 10 4 11 5 12 6 13
REMARK SMILES IDX 84 14 7 15 83 16 2 17 1 18 85 19 89 20 86 21 88 22 87 23
REMARK SMILES IDX 16 26 17 27 18 28 19 30 20 31 21 32 82 33 22 34 81 35 23 36
REMARK SMILES IDX 24 37 25 38 75 39 26 40 80 41 74 42 76 43 27 44 79 45 73 46
REMARK SMILES IDX 72 47 28 49 60 50 40 51 59 52 41 53 44 54 58 55 77 56 42 57
REMARK SMILES IDX 43 58 57 60 78 61 45 62 29 63 30 64 38 65 31 66 33 67 39 68
REMARK SMILES IDX 32 69 34 70 35 71 36 72 37 73 61 74 62 75 70 76 63 77 65 78
REMARK SMILES IDX 71 79 64 80 66 81 67 82 68 83 69 84 46 85 47 86 55 87 48 88
REMARK SMILES IDX 50 89 56 90 49 91 51 92 52 93 53 94 54 95
REMARK H PARENT 12 7 88 24 88 25 17 29 76 48 44 59
REMARK Flexibility Score: inf
ROOT
ATOM      1  C   UNL A   1      32.288  29.364  24.911  1.00  0.00     0.023 C 
ENDROOT
BRANCH   1   2
ATOM      2  C   UNL A   1      33.436  28.948  24.010  1.00  0.00     0.023 C 
BRANCH   2   3
ATOM      3  C   UNL A   1      33.060  28.613  22.562  1.00  0.00     0.116 C 
BRANCH   3   4
ATOM      4  N   UNL A   1      33.593  27.323  22.155  1.00  0.00    -0.356 N 
ATOM      5  C   UNL A   1      33.001  26.095  22.073  1.00  0.00     0.220 C 
ATOM      6  O   UNL A   1      33.695  25.129  21.750  1.00  0.00    -0.275 OA
ATOM      7  H   UNL A   1      34.542  27.337  21.893  1.00  0.00     0.163 HD
BRANCH   5   8
ATOM      8  C   UNL A   1      31.520  25.911  22.368  1.00  0.00     0.103 C 
BRANCH   8   9
ATOM      9  C   UNL A   1      31.214  25.208  23.713  1.00  0.00     0.002 C 
ATOM     10  C   UNL A   1      33.416  22.478  26.072  1.00  0.00     0.234 C 
ATOM     11  O   UNL A   1      33.620  22.547  27.289  1.00  0.00    -0.274 OA
ATOM     12  N   UNL A   1      32.486  23.321  25.491  1.00  0.00    -0.342 N 
ATOM     13  C   UNL A   1      32.318  24.681  25.975  1.00  0.00     0.120 C 
ATOM     14  C   UNL A   1      31.341  22.837  24.754  1.00  0.00     0.120 C 
ATOM     15  C   UNL A   1      32.259  25.626  24.772  1.00  0.00     0.026 C 
ATOM     16  C   UNL A   1      31.167  23.690  23.516  1.00  0.00     0.026 C 
BRANCH  10  17
ATOM     17  C   UNL A   1      34.438  21.751  25.136  1.00  0.00     0.095 C 
ATOM     18  C   UNL A   1      33.673  20.514  24.605  1.00  0.00     0.028 C 
ATOM     19  C   UNL A   1      34.780  22.669  23.934  1.00  0.00     0.028 C 
ATOM     20  C   UNL A   1      35.767  21.248  25.735  1.00  0.00     0.277 C 
ATOM     21  C   UNL A   1      35.773  23.759  24.337  1.00  0.00     0.063 C 
ATOM     22  N   UNL A   1      36.710  22.308  26.100  1.00  0.00    -0.345 N 
ATOM     23  C   UNL A   1      37.031  23.155  24.951  1.00  0.00     0.260 C 
ATOM     24  H   UNL A   1      36.293  22.885  26.831  1.00  0.00     0.346 HD
ATOM     25  H   UNL A   1      37.572  21.873  26.430  1.00  0.00     0.346 HD
ENDBRANCH  10  17
ENDBRANCH   8   9
ENDBRANCH   5   8
ENDBRANCH   3   4
ENDBRANCH   2   3
ENDBRANCH   1   2
BRANCH   1  26
ATOM     26  C   UNL A   1      32.712  29.761  26.308  1.00  0.00     0.116 C 
BRANCH  26  27
ATOM     27  N   UNL A   1      32.500  31.175  26.597  1.00  0.00    -0.352 N 
ATOM     28  C   UNL A   1      33.276  32.021  27.357  1.00  0.00     0.251 C 
ATOM     29  H   UNL A   1      31.697  31.578  26.195  1.00  0.00     0.163 HD
ATOM     30  O   UNL A   1      32.893  33.157  27.603  1.00  0.00    -0.269 OA
BRANCH  28  31
ATOM     31  C   UNL A   1      34.558  31.517  27.894  1.00  0.00     0.039 A 
ATOM     32  C   UNL A   1      35.648  32.382  27.989  1.00  0.00     0.014 A 
ATOM     33  C   UNL A   1      34.649  30.207  28.370  1.00  0.00     0.014 A 
ATOM     34  C   UNL A   1      36.813  31.946  28.624  1.00  0.00     0.010 A 
ATOM     35  C   UNL A   1      35.755  29.821  29.106  1.00  0.00     0.010 A 
ATOM     36  C   UNL A   1      36.863  30.672  29.215  1.00  0.00    -0.014 A 
BRANCH  36  37
ATOM     37  C   UNL A   1      38.076  30.182  29.911  1.00  0.00     0.031 A 
ATOM     38  C   UNL A   1      38.391  30.687  31.296  1.00  0.00     0.074 A 
ATOM     39  C   UNL A   1      38.936  29.365  29.272  1.00  0.00     0.049 A 
ATOM     40  N   UNL A   1      39.424  30.429  32.053  1.00  0.00    -0.248 NA
ATOM     41  C   UNL A   1      37.440  31.644  31.892  1.00  0.00     0.031 C 
ATOM     42  C   UNL A   1      38.797  28.897  27.891  1.00  0.00     0.029 A 
ATOM     43  N   UNL A   1      40.112  28.801  29.696  1.00  0.00    -0.354 N 
ATOM     44  C   UNL A   1      39.271  31.223  33.182  1.00  0.00     0.074 A 
ATOM     45  C   UNL A   1      38.077  32.014  32.991  1.00  0.00     0.031 C 
ATOM     46  C   UNL A   1      39.837  28.100  27.589  1.00  0.00     0.029 A 
ATOM     47  C   UNL A   1      40.724  28.017  28.745  1.00  0.00     0.049 A 
ATOM     48  H   UNL A   1      40.484  28.942  30.596  1.00  0.00     0.167 HD
ATOM     49  C   UNL A   1      40.027  31.259  34.304  1.00  0.00     0.034 A 
ATOM     50  C   UNL A   1      41.866  27.304  28.807  1.00  0.00     0.034 A 
ATOM     51  C   UNL A   1      41.163  30.410  34.523  1.00  0.00     0.049 A 
ATOM     52  C   UNL A   1      42.636  27.283  30.101  1.00  0.00     0.074 A 
ATOM     53  C   UNL A   1      41.937  30.281  35.661  1.00  0.00     0.029 A 
ATOM     54  N   UNL A   1      41.683  29.534  33.582  1.00  0.00    -0.354 N 
ATOM     55  N   UNL A   1      42.378  27.909  31.225  1.00  0.00    -0.248 NA
ATOM     56  C   UNL A   1      43.826  26.423  30.153  1.00  0.00     0.031 C 
ATOM     57  C   UNL A   1      42.931  29.330  35.405  1.00  0.00     0.029 A 
ATOM     58  C   UNL A   1      42.766  28.858  34.112  1.00  0.00     0.049 A 
ATOM     59  H   UNL A   1      41.332  29.412  32.670  1.00  0.00     0.167 HD
ATOM     60  C   UNL A   1      43.349  27.491  32.126  1.00  0.00     0.074 A 
ATOM     61  C   UNL A   1      44.188  26.540  31.423  1.00  0.00     0.031 C 
ATOM     62  C   UNL A   1      43.545  27.870  33.413  1.00  0.00     0.034 A 
BRANCH  49  63
ATOM     63  C   UNL A   1      39.596  32.190  35.407  1.00  0.00     0.023 A 
ATOM     64  C   UNL A   1      38.771  31.702  36.443  1.00  0.00     0.012 A 
ATOM     65  C   UNL A   1      40.027  33.529  35.441  1.00  0.00     0.148 A 
ATOM     66  C   UNL A   1      38.348  32.542  37.472  1.00  0.00     0.002 A 
ATOM     67  C   UNL A   1      39.638  34.348  36.495  1.00  0.00     0.091 A 
ATOM     68  F   UNL A   1      40.788  33.983  34.434  1.00  0.00    -0.205 F 
ATOM     69  C   UNL A   1      38.790  33.861  37.504  1.00  0.00     0.022 A 
BRANCH  67  70
ATOM     70  S   UNL A   1      40.216  36.041  36.669  1.00  0.00     0.127 S 
ATOM     71  O   UNL A   1      41.664  35.851  36.745  1.00  0.00    -0.237 OA
ATOM     72  O   UNL A   1      39.746  36.656  35.427  1.00  0.00    -0.237 OA
ATOM     73  O   UNL A   1      39.587  36.555  37.877  1.00  0.00    -0.744 OA
ENDBRANCH  67  70
ENDBRANCH  49  63
BRANCH  50  74
ATOM     74  C   UNL A   1      42.290  26.472  27.646  1.00  0.00     0.023 A 
ATOM     75  C   UNL A   1      43.151  27.030  26.680  1.00  0.00     0.012 A 
ATOM     76  C   UNL A   1      41.879  25.133  27.507  1.00  0.00     0.148 A 
ATOM     77  C   UNL A   1      43.568  26.280  25.579  1.00  0.00     0.002 A 
ATOM     78  C   UNL A   1      42.340  24.376  26.435  1.00  0.00     0.091 A 
ATOM     79  F   UNL A   1      41.052  24.623  28.430  1.00  0.00    -0.205 F 
ATOM     80  C   UNL A   1      43.170  24.952  25.461  1.00  0.00     0.022 A 
BRANCH  78  81
ATOM     81  S   UNL A   1      41.984  22.622  26.275  1.00  0.00     0.127 S 
ATOM     82  O   UNL A   1      40.530  22.623  26.143  1.00  0.00    -0.237 OA
ATOM     83  O   UNL A   1      42.713  22.274  25.055  1.00  0.00    -0.237 OA
ATOM     84  O   UNL A   1      42.514  22.005  27.484  1.00  0.00    -0.744 OA
ENDBRANCH  78  81
ENDBRANCH  50  74
BRANCH  62  85
ATOM     85  C   UNL A   1      44.685  27.234  34.162  1.00  0.00     0.023 A 
ATOM     86  C   UNL A   1      45.957  27.837  34.141  1.00  0.00     0.012 A 
ATOM     87  C   UNL A   1      44.473  26.088  34.953  1.00  0.00     0.148 A 
ATOM     88  C   UNL A   1      47.011  27.291  34.871  1.00  0.00     0.002 A 
ATOM     89  C   UNL A   1      45.515  25.578  35.716  1.00  0.00     0.091 A 
ATOM     90  F   UNL A   1      43.259  25.518  34.944  1.00  0.00    -0.205 F 
ATOM     91  C   UNL A   1      46.787  26.170  35.667  1.00  0.00     0.022 A 
BRANCH  89  92
ATOM     92  S   UNL A   1      45.287  24.199  36.845  1.00  0.00     0.127 S 
ATOM     93  O   UNL A   1      44.267  24.722  37.751  1.00  0.00    -0.237 OA
ATOM     94  O   UNL A   1      44.822  23.136  35.951  1.00  0.00    -0.237 OA
ATOM     95  O   UNL A   1      46.593  23.953  37.440  1.00  0.00    -0.744 OA
ENDBRANCH  89  92
ENDBRANCH  62  85
ENDBRANCH  36  37
ENDBRANCH  28  31
ENDBRANCH  26  27
ENDBRANCH   1  26
TORSDOF 16
ENDMDL
MODEL 2
REMARK VINA RESULT:     -12.0      4.960     10.186
REMARK SMILES C[C@]1(C(=O)N2CCC(CC(=O)NCCCCNC(=O)c3ccc(-c4c5nc(c(-c6cccc(S(=O)(=O)[O-])c6F)c6ccc([nH]6)c(-c6cccc(S(=O)(=O)[O-])c6F)c6nc(c(-c7cccc(S(=O)(=O)[O-])c7F)c7ccc4[nH]7)C=C6)C=C5)cc3)CC2)CCC[NH2+]C1
REMARK SMILES IDX 15 1 14 2 13 3 12 4 10 5 11 6 9 8 8 9 3 10 4 11 5 12 6 13
REMARK SMILES IDX 84 14 7 15 83 16 2 17 1 18 85 19 89 20 86 21 88 22 87 23
REMARK SMILES IDX 16 26 17 27 18 28 19 30 20 31 21 32 82 33 22 34 81 35 23 36
REMARK SMILES IDX 24 37 25 38 75 39 26 40 80 41 74 42 76 43 27 44 79 45 73 46
REMARK SMILES IDX 72 47 28 49 60 50 40 51 59 52 41 53 44 54 58 55 77 56 42 57
REMARK SMILES IDX 43 58 57 60 78 61 45 62 29 63 30 64 38 65 31 66 33 67 39 68
REMARK SMILES IDX 32 69 34 70 35 71 36 72 37 73 61 74 62 75 70 76 63 77 65 78
REMARK SMILES IDX 71 79 64 80 66 81 67 82 68 83 69 84 46 85 47 86 55 87 48 88
REMARK SMILES IDX 50 89 56 90 49 91 51 92 52 93 53 94 54 95
REMARK H PARENT 12 7 88 24 88 25 17 29 76 48 44 59
REMARK Flexibility Score: inf
ROOT
ATOM      1  C   UNL A   1      35.571  21.587  25.685  1.00  0.00     0.023 C 
ENDROOT
BRANCH   1   2
ATOM      2  C   UNL A   1      34.920  22.235  26.893  1.00  0.00     0.023 C 
BRANCH   2   3
ATOM      3  C   UNL A   1      33.612  21.594  27.370  1.00  0.00     0.116 C 
BRANCH   3   4
ATOM      4  N   UNL A   1      32.584  22.592  27.617  1.00  0.00    -0.356 N 
ATOM      5  C   UNL A   1      31.567  23.044  26.826  1.00  0.00     0.220 C 
ATOM      6  O   UNL A   1      30.853  23.955  27.250  1.00  0.00    -0.275 OA
ATOM      7  H   UNL A   1      32.629  23.015  28.505  1.00  0.00     0.163 HD
BRANCH   5   8
ATOM      8  C   UNL A   1      31.308  22.443  25.452  1.00  0.00     0.103 C 
BRANCH   8   9
ATOM      9  C   UNL A   1      31.899  23.254  24.274  1.00  0.00     0.002 C 
ATOM     10  C   UNL A   1      32.234  27.405  23.549  1.00  0.00     0.234 C 
ATOM     11  O   UNL A   1      33.245  28.013  23.180  1.00  0.00    -0.274 OA
ATOM     12  N   UNL A   1      32.225  26.022  23.517  1.00  0.00    -0.342 N 
ATOM     13  C   UNL A   1      33.431  25.269  23.819  1.00  0.00     0.120 C 
ATOM     14  C   UNL A   1      31.256  25.261  22.762  1.00  0.00     0.120 C 
ATOM     15  C   UNL A   1      33.071  24.129  24.774  1.00  0.00     0.026 C 
ATOM     16  C   UNL A   1      30.802  24.087  23.604  1.00  0.00     0.026 C 
BRANCH  10  17
ATOM     17  C   UNL A   1      31.137  28.130  24.396  1.00  0.00     0.095 C 
ATOM     18  C   UNL A   1      29.892  28.170  23.476  1.00  0.00     0.028 C 
ATOM     19  C   UNL A   1      30.797  27.272  25.642  1.00  0.00     0.028 C 
ATOM     20  C   UNL A   1      31.400  29.571  24.878  1.00  0.00     0.277 C 
ATOM     21  C   UNL A   1      31.869  27.418  26.723  1.00  0.00     0.063 C 
ATOM     22  N   UNL A   1      32.421  29.687  25.923  1.00  0.00    -0.345 N 
ATOM     23  C   UNL A   1      32.076  28.882  27.095  1.00  0.00     0.260 C 
ATOM     24  H   UNL A   1      33.314  29.366  25.551  1.00  0.00     0.346 HD
ATOM     25  H   UNL A   1      32.478  30.664  26.209  1.00  0.00     0.346 HD
ENDBRANCH  10  17
ENDBRANCH   8   9
ENDBRANCH   5   8
ENDBRANCH   3   4
ENDBRANCH   2   3
ENDBRANCH   1   2
BRANCH   1  26
ATOM     26  C   UNL A   1      36.993  22.038  25.432  1.00  0.00     0.116 C 
BRANCH  26  27
ATOM     27  N   UNL A   1      37.979  20.983  25.633  1.00  0.00    -0.352 N 
ATOM     28  C   UNL A   1      39.259  21.089  26.129  1.00  0.00     0.251 C 
ATOM     29  H   UNL A   1      37.692  20.076  25.380  1.00  0.00     0.163 HD
ATOM     30  O   UNL A   1      40.007  20.120  26.121  1.00  0.00    -0.269 OA
BRANCH  28  31
ATOM     31  C   UNL A   1      39.717  22.399  26.638  1.00  0.00     0.039 A 
ATOM     32  C   UNL A   1      40.706  22.445  27.620  1.00  0.00     0.014 A 
ATOM     33  C   UNL A   1      39.213  23.578  26.083  1.00  0.00     0.014 A 
ATOM     34  C   UNL A   1      41.236  23.680  27.999  1.00  0.00     0.010 A 
ATOM     35  C   UNL A   1      39.826  24.786  26.370  1.00  0.00     0.010 A 
ATOM     36  C   UNL A   1      40.821  24.856  27.353  1.00  0.00    -0.014 A 
BRANCH  36  37
ATOM     37  C   UNL A   1      41.374  26.183  27.717  1.00  0.00     0.031 A 
ATOM     38  C   UNL A   1      42.784  26.534  27.316  1.00  0.00     0.074 A 
ATOM     39  C   UNL A   1      40.653  27.027  28.480  1.00  0.00     0.049 A 
ATOM     40  N   UNL A   1      43.473  27.612  27.581  1.00  0.00    -0.248 NA
ATOM     41  C   UNL A   1      43.535  25.520  26.552  1.00  0.00     0.031 C 
ATOM     42  C   UNL A   1      39.320  26.754  29.024  1.00  0.00     0.029 A 
ATOM     43  N   UNL A   1      40.951  28.281  28.949  1.00  0.00    -0.354 N 
ATOM     44  C   UNL A   1      44.742  27.384  27.063  1.00  0.00     0.074 A 
ATOM     45  C   UNL A   1      44.748  26.047  26.517  1.00  0.00     0.031 C 
ATOM     46  C   UNL A   1      38.908  27.818  29.735  1.00  0.00     0.029 A 
ATOM     47  C   UNL A   1      39.952  28.837  29.716  1.00  0.00     0.049 A 
ATOM     48  H   UNL A   1      41.800  28.741  28.757  1.00  0.00     0.167 HD
ATOM     49  C   UNL A   1      45.797  28.230  27.001  1.00  0.00     0.034 A 
ATOM     50  C   UNL A   1      39.885  30.039  30.321  1.00  0.00     0.034 A 
ATOM     51  C   UNL A   1      45.757  29.585  27.470  1.00  0.00     0.049 A 
ATOM     52  C   UNL A   1      41.034  30.999  30.151  1.00  0.00     0.074 A 
ATOM     53  C   UNL A   1      46.727  30.565  27.360  1.00  0.00     0.029 A 
ATOM     54  N   UNL A   1      44.680  30.157  28.131  1.00  0.00    -0.354 N 
ATOM     55  N   UNL A   1      42.163  30.828  29.506  1.00  0.00    -0.248 NA
ATOM     56  C   UNL A   1      40.882  32.330  30.754  1.00  0.00     0.031 C 
ATOM     57  C   UNL A   1      46.238  31.729  27.962  1.00  0.00     0.029 A 
ATOM     58  C   UNL A   1      44.959  31.477  28.433  1.00  0.00     0.049 A 
ATOM     59  H   UNL A   1      43.842  29.692  28.352  1.00  0.00     0.167 HD
ATOM     60  C   UNL A   1      42.838  32.040  29.591  1.00  0.00     0.074 A 
ATOM     61  C   UNL A   1      41.980  32.942  30.333  1.00  0.00     0.031 C 
ATOM     62  C   UNL A   1      44.064  32.373  29.117  1.00  0.00     0.034 A 
BRANCH  49  63
ATOM     63  C   UNL A   1      47.050  27.732  26.330  1.00  0.00     0.023 A 
ATOM     64  C   UNL A   1      48.031  27.067  27.098  1.00  0.00     0.012 A 
ATOM     65  C   UNL A   1      47.247  27.888  24.946  1.00  0.00     0.148 A 
ATOM     66  C   UNL A   1      49.205  26.604  26.507  1.00  0.00     0.002 A 
ATOM     67  C   UNL A   1      48.400  27.382  24.356  1.00  0.00     0.091 A 
ATOM     68  F   UNL A   1      46.319  28.545  24.236  1.00  0.00    -0.205 F 
ATOM     69  C   UNL A   1      49.384  26.751  25.135  1.00  0.00     0.022 A 
BRANCH  67  70
ATOM     70  S   UNL A   1      48.691  27.452  22.583  1.00  0.00     0.127 S 
ATOM     71  O   UNL A   1      47.585  28.298  22.137  1.00  0.00    -0.237 OA
ATOM     72  O   UNL A   1      50.009  28.083  22.513  1.00  0.00    -0.237 OA
ATOM     73  O   UNL A   1      48.653  26.073  22.118  1.00  0.00    -0.744 OA
ENDBRANCH  67  70
ENDBRANCH  49  63
BRANCH  50  74
ATOM     74  C   UNL A   1      38.649  30.440  31.050  1.00  0.00     0.023 A 
ATOM     75  C   UNL A   1      38.518  30.106  32.413  1.00  0.00     0.012 A 
ATOM     76  C   UNL A   1      37.625  31.172  30.421  1.00  0.00     0.148 A 
ATOM     77  C   UNL A   1      37.373  30.464  33.127  1.00  0.00     0.002 A 
ATOM     78  C   UNL A   1      36.510  31.571  31.152  1.00  0.00     0.091 A 
ATOM     79  F   UNL A   1      37.763  31.471  29.122  1.00  0.00    -0.205 F 
ATOM     80  C   UNL A   1      36.375  31.204  32.500  1.00  0.00     0.022 A 
BRANCH  78  81
ATOM     81  S   UNL A   1      35.239  32.635  30.460  1.00  0.00     0.127 S 
ATOM     82  O   UNL A   1      34.296  32.735  31.570  1.00  0.00    -0.237 OA
ATOM     83  O   UNL A   1      35.989  33.859  30.176  1.00  0.00    -0.237 OA
ATOM     84  O   UNL A   1      34.755  31.942  29.274  1.00  0.00    -0.744 OA
ENDBRANCH  78  81
ENDBRANCH  50  74
BRANCH  62  85
ATOM     85  C   UNL A   1      44.541  33.782  29.350  1.00  0.00     0.023 A 
ATOM     86  C   UNL A   1      45.185  34.109  30.558  1.00  0.00     0.012 A 
ATOM     87  C   UNL A   1      44.428  34.754  28.338  1.00  0.00     0.148 A 
ATOM     88  C   UNL A   1      45.680  35.395  30.770  1.00  0.00     0.002 A 
ATOM     89  C   UNL A   1      44.967  36.019  28.536  1.00  0.00     0.091 A 
ATOM     90  F   UNL A   1      43.794  34.427  27.202  1.00  0.00    -0.205 F 
ATOM     91  C   UNL A   1      45.583  36.344  29.755  1.00  0.00     0.022 A 
BRANCH  89  92
ATOM     92  S   UNL A   1      44.974  37.268  27.246  1.00  0.00     0.127 S 
ATOM     93  O   UNL A   1      45.829  36.649  26.235  1.00  0.00    -0.237 OA
ATOM     94  O   UNL A   1      43.558  37.349  26.881  1.00  0.00    -0.237 OA
ATOM     95  O   UNL A   1      45.503  38.476  27.865  1.00  0.00    -0.744 OA
ENDBRANCH  89  92
ENDBRANCH  62  85
ENDBRANCH  36  37
ENDBRANCH  28  31
ENDBRANCH  26  27
ENDBRANCH   1  26
TORSDOF 16
ENDMDL
MODEL 3
REMARK VINA RESULT:     -11.9      1.886      2.711
REMARK SMILES C[C@]1(C(=O)N2CCC(CC(=O)NCCCCNC(=O)c3ccc(-c4c5nc(c(-c6cccc(S(=O)(=O)[O-])c6F)c6ccc([nH]6)c(-c6cccc(S(=O)(=O)[O-])c6F)c6nc(c(-c7cccc(S(=O)(=O)[O-])c7F)c7ccc4[nH]7)C=C6)C=C5)cc3)CC2)CCC[NH2+]C1
REMARK SMILES IDX 15 1 14 2 13 3 12 4 10 5 11 6 9 8 8 9 3 10 4 11 5 12 6 13
REMARK SMILES IDX 84 14 7 15 83 16 2 17 1 18 85 19 89 20 86 21 88 22 87 23
REMARK SMILES IDX 16 26 17 27 18 28 19 30 20 31 21 32 82 33 22 34 81 35 23 36
REMARK SMILES IDX 24 37 25 38 75 39 26 40 80 41 74 42 76 43 27 44 79 45 73 46
REMARK SMILES IDX 72 47 28 49 60 50 40 51 59 52 41 53 44 54 58 55 77 56 42 57
REMARK SMILES IDX 43 58 57 60 78 61 45 62 29 63 30 64 38 65 31 66 33 67 39 68
REMARK SMILES IDX 32 69 34 70 35 71 36 72 37 73 61 74 62 75 70 76 63 77 65 78
REMARK SMILES IDX 71 79 64 80 66 81 67 82 68 83 69 84 46 85 47 86 55 87 48 88
REMARK SMILES IDX 50 89 56 90 49 91 51 92 52 93 53 94 54 95
REMARK H PARENT 12 7 88 24 88 25 17 29 76 48 44 59
REMARK Flexibility Score: inf
ROOT
ATOM      1  C   UNL A   1      31.853  29.512  27.052  1.00  0.00     0.023 C 
ENDROOT
BRANCH   1   2
ATOM      2  C   UNL A   1      31.589  28.274  26.216  1.00  0.00     0.023 C 
BRANCH   2   3
ATOM      3  C   UNL A   1      32.292  26.993  26.681  1.00  0.00     0.116 C 
BRANCH   3   4
ATOM      4  N   UNL A   1      31.344  25.917  26.919  1.00  0.00    -0.356 N 
ATOM      5  C   UNL A   1      31.175  24.717  26.289  1.00  0.00     0.220 C 
ATOM      6  O   UNL A   1      30.246  23.992  26.647  1.00  0.00    -0.275 OA
ATOM      7  H   UNL A   1      30.718  26.080  27.661  1.00  0.00     0.163 HD
BRANCH   5   8
ATOM      8  C   UNL A   1      32.108  24.275  25.171  1.00  0.00     0.103 C 
BRANCH   8   9
ATOM      9  C   UNL A   1      33.337  23.462  25.642  1.00  0.00     0.002 C 
ATOM     10  C   UNL A   1      34.607  19.504  24.875  1.00  0.00     0.234 C 
ATOM     11  O   UNL A   1      35.739  19.142  24.535  1.00  0.00    -0.274 OA
ATOM     12  N   UNL A   1      34.412  20.801  25.311  1.00  0.00    -0.342 N 
ATOM     13  C   UNL A   1      35.159  21.899  24.719  1.00  0.00     0.120 C 
ATOM     14  C   UNL A   1      33.878  21.120  26.616  1.00  0.00     0.120 C 
ATOM     15  C   UNL A   1      34.191  23.047  24.423  1.00  0.00     0.026 C 
ATOM     16  C   UNL A   1      32.885  22.253  26.468  1.00  0.00     0.026 C 
BRANCH  10  17
ATOM     17  C   UNL A   1      33.350  18.667  24.465  1.00  0.00     0.095 C 
ATOM     18  C   UNL A   1      32.433  19.672  23.726  1.00  0.00     0.028 C 
ATOM     19  C   UNL A   1      33.772  17.561  23.464  1.00  0.00     0.028 C 
ATOM     20  C   UNL A   1      32.507  18.001  25.571  1.00  0.00     0.277 C 
ATOM     21  C   UNL A   1      34.440  16.389  24.183  1.00  0.00     0.063 C 
ATOM     22  N   UNL A   1      33.160  16.872  26.238  1.00  0.00    -0.345 N 
ATOM     23  C   UNL A   1      33.538  15.833  25.280  1.00  0.00     0.260 C 
ATOM     24  H   UNL A   1      33.999  17.207  26.712  1.00  0.00     0.346 HD
ATOM     25  H   UNL A   1      32.503  16.469  26.907  1.00  0.00     0.346 HD
ENDBRANCH  10  17
ENDBRANCH   8   9
ENDBRANCH   5   8
ENDBRANCH   3   4
ENDBRANCH   2   3
ENDBRANCH   1   2
BRANCH   1  26
ATOM     26  C   UNL A   1      33.001  30.363  26.551  1.00  0.00     0.116 C 
BRANCH  26  27
ATOM     27  N   UNL A   1      32.881  31.769  26.916  1.00  0.00    -0.352 N 
ATOM     28  C   UNL A   1      33.721  32.527  27.700  1.00  0.00     0.251 C 
ATOM     29  H   UNL A   1      32.095  32.240  26.554  1.00  0.00     0.163 HD
ATOM     30  O   UNL A   1      33.413  33.669  28.012  1.00  0.00    -0.269 OA
BRANCH  28  31
ATOM     31  C   UNL A   1      34.981  31.920  28.181  1.00  0.00     0.039 A 
ATOM     32  C   UNL A   1      36.148  32.685  28.195  1.00  0.00     0.014 A 
ATOM     33  C   UNL A   1      34.980  30.618  28.686  1.00  0.00     0.014 A 
ATOM     34  C   UNL A   1      37.302  32.158  28.778  1.00  0.00     0.010 A 
ATOM     35  C   UNL A   1      36.087  30.148  29.372  1.00  0.00     0.010 A 
ATOM     36  C   UNL A   1      37.271  30.898  29.399  1.00  0.00    -0.014 A 
BRANCH  36  37
ATOM     37  C   UNL A   1      38.472  30.315  30.042  1.00  0.00     0.031 A 
ATOM     38  C   UNL A   1      38.866  30.768  31.424  1.00  0.00     0.074 A 
ATOM     39  C   UNL A   1      39.253  29.457  29.358  1.00  0.00     0.049 A 
ATOM     40  N   UNL A   1      39.905  30.427  32.139  1.00  0.00    -0.248 NA
ATOM     41  C   UNL A   1      38.002  31.772  32.072  1.00  0.00     0.031 C 
ATOM     42  C   UNL A   1      39.037  29.028  27.973  1.00  0.00     0.029 A 
ATOM     43  N   UNL A   1      40.403  28.808  29.728  1.00  0.00    -0.354 N 
ATOM     44  C   UNL A   1      39.844  31.205  33.288  1.00  0.00     0.074 A 
ATOM     45  C   UNL A   1      38.700  32.076  33.155  1.00  0.00     0.031 C 
ATOM     46  C   UNL A   1      40.011  28.172  27.620  1.00  0.00     0.029 A 
ATOM     47  C   UNL A   1      40.930  28.007  28.741  1.00  0.00     0.049 A 
ATOM     48  H   UNL A   1      40.815  28.905  30.617  1.00  0.00     0.167 HD
ATOM     49  C   UNL A   1      40.639  31.167  34.383  1.00  0.00     0.034 A 
ATOM     50  C   UNL A   1      42.023  27.219  28.749  1.00  0.00     0.034 A 
ATOM     51  C   UNL A   1      41.723  30.241  34.545  1.00  0.00     0.049 A 
ATOM     52  C   UNL A   1      42.833  27.119  30.015  1.00  0.00     0.074 A 
ATOM     53  C   UNL A   1      42.525  30.037  35.653  1.00  0.00     0.029 A 
ATOM     54  N   UNL A   1      42.151  29.353  33.569  1.00  0.00    -0.354 N 
ATOM     55  N   UNL A   1      42.657  27.738  31.159  1.00  0.00    -0.248 NA
ATOM     56  C   UNL A   1      43.965  26.183  30.007  1.00  0.00     0.031 C 
ATOM     57  C   UNL A   1      43.445  29.029  35.343  1.00  0.00     0.029 A 
ATOM     58  C   UNL A   1      43.204  28.596  34.048  1.00  0.00     0.049 A 
ATOM     59  H   UNL A   1      41.762  29.274  32.668  1.00  0.00     0.167 HD
ATOM     60  C   UNL A   1      43.628  27.237  32.016  1.00  0.00     0.074 A 
ATOM     61  C   UNL A   1      44.377  26.249  31.266  1.00  0.00     0.031 C 
ATOM     62  C   UNL A   1      43.892  27.575  33.303  1.00  0.00     0.034 A 
BRANCH  49  63
ATOM     63  C   UNL A   1      40.308  32.100  35.518  1.00  0.00     0.023 A 
ATOM     64  C   UNL A   1      41.075  33.270  35.701  1.00  0.00     0.012 A 
ATOM     65  C   UNL A   1      39.226  31.843  36.381  1.00  0.00     0.148 A 
ATOM     66  C   UNL A   1      40.799  34.147  36.747  1.00  0.00     0.002 A 
ATOM     67  C   UNL A   1      38.927  32.747  37.394  1.00  0.00     0.091 A 
ATOM     68  F   UNL A   1      38.523  30.714  36.210  1.00  0.00    -0.205 F 
ATOM     69  C   UNL A   1      39.719  33.892  37.587  1.00  0.00     0.022 A 
BRANCH  67  70
ATOM     70  S   UNL A   1      37.510  32.548  38.481  1.00  0.00     0.127 S 
ATOM     71  O   UNL A   1      36.415  32.998  37.622  1.00  0.00    -0.237 OA
ATOM     72  O   UNL A   1      37.525  31.110  38.747  1.00  0.00    -0.237 OA
ATOM     73  O   UNL A   1      37.778  33.384  39.643  1.00  0.00    -0.744 OA
ENDBRANCH  67  70
ENDBRANCH  49  63
BRANCH  50  74
ATOM     74  C   UNL A   1      42.352  26.386  27.558  1.00  0.00     0.023 A 
ATOM     75  C   UNL A   1      43.080  26.962  26.498  1.00  0.00     0.012 A 
ATOM     76  C   UNL A   1      41.981  25.030  27.480  1.00  0.00     0.148 A 
ATOM     77  C   UNL A   1      43.404  26.212  25.366  1.00  0.00     0.002 A 
ATOM     78  C   UNL A   1      42.353  24.275  26.372  1.00  0.00     0.091 A 
ATOM     79  F   UNL A   1      41.280  24.503  28.493  1.00  0.00    -0.205 F 
ATOM     80  C   UNL A   1      43.049  24.867  25.307  1.00  0.00     0.022 A 
BRANCH  78  81
ATOM     81  S   UNL A   1      42.051  22.506  26.271  1.00  0.00     0.127 S 
ATOM     82  O   UNL A   1      40.593  22.454  26.234  1.00  0.00    -0.237 OA
ATOM     83  O   UNL A   1      42.713  22.157  25.014  1.00  0.00    -0.237 OA
ATOM     84  O   UNL A   1      42.679  21.936  27.456  1.00  0.00    -0.744 OA
ENDBRANCH  78  81
ENDBRANCH  50  74
BRANCH  62  85
ATOM     85  C   UNL A   1      45.013  26.850  33.999  1.00  0.00     0.023 A 
ATOM     86  C   UNL A   1      46.334  27.320  33.871  1.00  0.00     0.012 A 
ATOM     87  C   UNL A   1      44.743  25.755  34.843  1.00  0.00     0.148 A 
ATOM     88  C   UNL A   1      47.377  26.692  34.550  1.00  0.00     0.002 A 
ATOM     89  C   UNL A   1      45.780  25.166  35.555  1.00  0.00     0.091 A 
ATOM     90  F   UNL A   1      43.481  25.312  34.935  1.00  0.00    -0.205 F 
ATOM     91  C   UNL A   1      47.098  25.625  35.401  1.00  0.00     0.022 A 
BRANCH  89  92
ATOM     92  S   UNL A   1      45.495  23.853  36.746  1.00  0.00     0.127 S 
ATOM     93  O   UNL A   1      44.502  24.461  37.630  1.00  0.00    -0.237 OA
ATOM     94  O   UNL A   1      44.981  22.771  35.904  1.00  0.00    -0.237 OA
ATOM     95  O   UNL A   1      46.791  23.576  37.351  1.00  0.00    -0.744 OA
ENDBRANCH  89  92
ENDBRANCH  62  85
ENDBRANCH  36  37
ENDBRANCH  28  31
ENDBRANCH  26  27
ENDBRANCH   1  26
TORSDOF 16
ENDMDL
