MODEL 1
REMARK VINA RESULT:     -11.6      0.000      0.000
REMARK SMILES Cn1c(SCC(=O)NCCCCNC(=O)c2ccc(-c3c4nc(c(-c5cccc(S(=O)(=O)[O-])c5F)c5ccc([nH]5)c(-c5cccc(S(=O)(=O)[O-])c5F)c5nc(c(-c6cccc(S(=O)(=O)[O-])c6F)c6ccc3[nH]6)C=C5)C=C4)cc2)nnc1-c1ccccc1Br
REMARK SMILES IDX 10 1 9 2 8 3 6 4 7 5 5 7 4 8 3 9 1 10 2 11 81 12 79 13 80 14
REMARK SMILES IDX 82 15 83 16 87 17 84 18 86 19 88 20 85 21 11 22 12 23 13 24
REMARK SMILES IDX 14 25 15 27 16 28 17 29 78 30 18 31 77 32 19 33 20 34 21 35
REMARK SMILES IDX 71 36 22 37 76 38 70 39 72 40 23 41 75 42 69 43 68 44 24 46
REMARK SMILES IDX 56 47 36 48 55 49 37 50 40 51 54 52 73 53 38 54 39 55 53 57
REMARK SMILES IDX 74 58 41 59 25 60 26 61 34 62 27 63 29 64 35 65 28 66 30 67
REMARK SMILES IDX 31 68 32 69 33 70 57 71 58 72 66 73 59 74 61 75 67 76 60 77
REMARK SMILES IDX 62 78 63 79 64 80 65 81 42 82 43 83 51 84 44 85 46 86 52 87
REMARK SMILES IDX 45 88 47 89 48 90 49 91 50 92
REMARK H PARENT 8 6 13 26 72 45 40 56
REMARK Flexibility Score: inf
ROOT
ATOM      1  C   UNL A   1      31.350  28.508  25.831  1.00  0.00     0.023 C 
ENDROOT
BRANCH   1   2
ATOM      2  C   UNL A   1      31.994  29.325  24.713  1.00  0.00     0.116 C 
BRANCH   2   3
ATOM      3  N   UNL A   1      31.050  29.642  23.660  1.00  0.00    -0.355 N 
ATOM      4  C   UNL A   1      30.491  28.832  22.724  1.00  0.00     0.230 C 
ATOM      5  O   UNL A   1      29.614  29.312  22.000  1.00  0.00    -0.274 OA
ATOM      6  H   UNL A   1      30.771  30.585  23.619  1.00  0.00     0.163 HD
BRANCH   4   7
ATOM      7  C   UNL A   1      30.831  27.364  22.626  1.00  0.00     0.178 C 
BRANCH   7   8
ATOM      8  S   UNL A   1      32.446  26.938  21.997  1.00  0.00    -0.076 SA
BRANCH   8   9
ATOM      9  C   UNL A   1      32.816  25.261  22.158  1.00  0.00     0.191 A 
ATOM     10  C   UNL A   1      32.509  24.699  24.624  1.00  0.00     0.154 C 
ATOM     11  N   UNL A   1      32.813  24.429  23.244  1.00  0.00    -0.305 N 
ATOM     12  C   UNL A   1      33.258  23.199  22.781  1.00  0.00     0.165 A 
ATOM     13  N   UNL A   1      33.292  24.600  21.122  1.00  0.00    -0.123 NA
ATOM     14  N   UNL A   1      33.584  23.322  21.512  1.00  0.00    -0.129 NA
BRANCH  12  15
ATOM     15  C   UNL A   1      33.445  21.999  23.593  1.00  0.00     0.034 A 
ATOM     16  C   UNL A   1      32.388  21.076  23.652  1.00  0.00     0.013 A 
ATOM     17  C   UNL A   1      34.630  21.716  24.289  1.00  0.00     0.029 A 
ATOM     18  C   UNL A   1      32.529  19.872  24.348  1.00  0.00     0.001 A 
ATOM     19  C   UNL A   1      34.770  20.507  24.979  1.00  0.00     0.016 A 
ATOM     20  Br  UNL A   1      36.085  22.938  24.368  1.00  0.00    -0.050 Br
ATOM     21  C   UNL A   1      33.725  19.583  25.000  1.00  0.00     0.001 A 
ENDBRANCH  12  15
ENDBRANCH   8   9
ENDBRANCH   7   8
ENDBRANCH   4   7
ENDBRANCH   2   3
ENDBRANCH   1   2
BRANCH   1  22
ATOM     22  C   UNL A   1      32.104  28.527  27.166  1.00  0.00     0.023 C 
BRANCH  22  23
ATOM     23  C   UNL A   1      33.487  29.172  27.142  1.00  0.00     0.116 C 
BRANCH  23  24
ATOM     24  N   UNL A   1      33.472  30.567  27.553  1.00  0.00    -0.352 N 
ATOM     25  C   UNL A   1      34.395  31.275  28.280  1.00  0.00     0.251 C 
ATOM     26  H   UNL A   1      32.682  31.080  27.267  1.00  0.00     0.163 HD
ATOM     27  O   UNL A   1      34.133  32.428  28.623  1.00  0.00    -0.269 OA
BRANCH  25  28
ATOM     28  C   UNL A   1      35.684  30.664  28.676  1.00  0.00     0.039 A 
ATOM     29  C   UNL A   1      36.809  30.912  27.886  1.00  0.00     0.014 A 
ATOM     30  C   UNL A   1      35.791  29.839  29.800  1.00  0.00     0.014 A 
ATOM     31  C   UNL A   1      38.047  30.375  28.249  1.00  0.00     0.010 A 
ATOM     32  C   UNL A   1      37.041  29.368  30.203  1.00  0.00     0.010 A 
ATOM     33  C   UNL A   1      38.181  29.622  29.428  1.00  0.00    -0.014 A 
BRANCH  33  34
ATOM     34  C   UNL A   1      39.514  29.117  29.856  1.00  0.00     0.031 A 
ATOM     35  C   UNL A   1      40.267  29.781  30.980  1.00  0.00     0.074 A 
ATOM     36  C   UNL A   1      40.072  28.082  29.197  1.00  0.00     0.049 A 
ATOM     37  N   UNL A   1      41.424  29.458  31.498  1.00  0.00    -0.248 NA
ATOM     38  C   UNL A   1      39.655  30.976  31.584  1.00  0.00     0.031 C 
ATOM     39  C   UNL A   1      39.489  27.406  28.036  1.00  0.00     0.029 A 
ATOM     40  N   UNL A   1      41.261  27.425  29.399  1.00  0.00    -0.354 N 
ATOM     41  C   UNL A   1      41.692  30.419  32.466  1.00  0.00     0.074 A 
ATOM     42  C   UNL A   1      40.594  31.361  32.437  1.00  0.00     0.031 C 
ATOM     43  C   UNL A   1      40.309  26.421  27.642  1.00  0.00     0.029 A 
ATOM     44  C   UNL A   1      41.488  26.409  28.500  1.00  0.00     0.049 A 
ATOM     45  H   UNL A   1      41.890  27.659  30.119  1.00  0.00     0.167 HD
ATOM     46  C   UNL A   1      42.737  30.496  33.325  1.00  0.00     0.034 A 
ATOM     47  C   UNL A   1      42.529  25.561  28.380  1.00  0.00     0.034 A 
ATOM     48  C   UNL A   1      43.812  29.540  33.375  1.00  0.00     0.049 A 
ATOM     49  C   UNL A   1      43.655  25.640  29.375  1.00  0.00     0.074 A 
ATOM     50  C   UNL A   1      44.874  29.485  34.262  1.00  0.00     0.029 A 
ATOM     51  N   UNL A   1      43.972  28.481  32.496  1.00  0.00    -0.354 N 
ATOM     52  N   UNL A   1      43.807  26.458  30.389  1.00  0.00    -0.248 NA
ATOM     53  C   UNL A   1      44.734  24.652  29.234  1.00  0.00     0.031 C 
ATOM     54  C   UNL A   1      45.692  28.409  33.900  1.00  0.00     0.029 A 
ATOM     55  C   UNL A   1      45.119  27.771  32.812  1.00  0.00     0.049 A 
ATOM     56  H   UNL A   1      43.360  28.263  31.756  1.00  0.00     0.167 HD
ATOM     57  C   UNL A   1      44.977  26.060  31.027  1.00  0.00     0.074 A 
ATOM     58  C   UNL A   1      45.477  24.911  30.300  1.00  0.00     0.031 C 
ATOM     59  C   UNL A   1      45.587  26.603  32.109  1.00  0.00     0.034 A 
BRANCH  46  60
ATOM     60  C   UNL A   1      42.746  31.632  34.319  1.00  0.00     0.023 A 
ATOM     61  C   UNL A   1      43.423  32.828  34.004  1.00  0.00     0.012 A 
ATOM     62  C   UNL A   1      42.036  31.541  35.533  1.00  0.00     0.148 A 
ATOM     63  C   UNL A   1      43.427  33.900  34.896  1.00  0.00     0.002 A 
ATOM     64  C   UNL A   1      42.005  32.630  36.396  1.00  0.00     0.091 A 
ATOM     65  F   UNL A   1      41.413  30.390  35.825  1.00  0.00    -0.205 F 
ATOM     66  C   UNL A   1      42.710  33.805  36.085  1.00  0.00     0.022 A 
BRANCH  64  67
ATOM     67  S   UNL A   1      41.044  32.640  37.912  1.00  0.00     0.127 S 
ATOM     68  O   UNL A   1      41.874  31.819  38.792  1.00  0.00    -0.237 OA
ATOM     69  O   UNL A   1      41.019  34.064  38.252  1.00  0.00    -0.237 OA
ATOM     70  O   UNL A   1      39.746  32.074  37.572  1.00  0.00    -0.744 OA
ENDBRANCH  64  67
ENDBRANCH  46  60
BRANCH  47  71
ATOM     71  C   UNL A   1      42.521  24.516  27.318  1.00  0.00     0.023 A 
ATOM     72  C   UNL A   1      43.354  24.663  26.191  1.00  0.00     0.012 A 
ATOM     73  C   UNL A   1      41.706  23.373  27.425  1.00  0.00     0.148 A 
ATOM     74  C   UNL A   1      43.351  23.708  25.174  1.00  0.00     0.002 A 
ATOM     75  C   UNL A   1      41.750  22.397  26.436  1.00  0.00     0.091 A 
ATOM     76  F   UNL A   1      40.912  23.258  28.498  1.00  0.00    -0.205 F 
ATOM     77  C   UNL A   1      42.556  22.571  25.301  1.00  0.00     0.022 A 
BRANCH  75  78
ATOM     78  S   UNL A   1      40.861  20.843  26.577  1.00  0.00     0.127 S 
ATOM     79  O   UNL A   1      39.534  21.213  26.091  1.00  0.00    -0.237 OA
ATOM     80  O   UNL A   1      41.627  19.976  25.682  1.00  0.00    -0.237 OA
ATOM     81  O   UNL A   1      40.937  20.473  27.983  1.00  0.00    -0.744 OA
ENDBRANCH  75  78
ENDBRANCH  47  71
BRANCH  59  82
ATOM     82  C   UNL A   1      46.849  25.942  32.600  1.00  0.00     0.023 A 
ATOM     83  C   UNL A   1      48.107  26.391  32.147  1.00  0.00     0.012 A 
ATOM     84  C   UNL A   1      46.791  24.898  33.545  1.00  0.00     0.148 A 
ATOM     85  C   UNL A   1      49.280  25.783  32.589  1.00  0.00     0.002 A 
ATOM     86  C   UNL A   1      47.967  24.332  34.022  1.00  0.00     0.091 A 
ATOM     87  F   UNL A   1      45.588  24.468  33.952  1.00  0.00    -0.205 F 
ATOM     88  C   UNL A   1      49.212  24.761  33.533  1.00  0.00     0.022 A 
BRANCH  86  89
ATOM     89  S   UNL A   1      47.977  23.080  35.310  1.00  0.00     0.127 S 
ATOM     90  O   UNL A   1      49.409  22.903  35.544  1.00  0.00    -0.237 OA
ATOM     91  O   UNL A   1      47.260  23.748  36.398  1.00  0.00    -0.237 OA
ATOM     92  O   UNL A   1      47.284  21.926  34.753  1.00  0.00    -0.744 OA
ENDBRANCH  86  89
ENDBRANCH  59  82
ENDBRANCH  33  34
ENDBRANCH  25  28
ENDBRANCH  23  24
ENDBRANCH  22  23
ENDBRANCH   1  22
TORSDOF 17
ENDMDL
MODEL 2
REMARK VINA RESULT:     -11.5      1.663      2.192
REMARK SMILES Cn1c(SCC(=O)NCCCCNC(=O)c2ccc(-c3c4nc(c(-c5cccc(S(=O)(=O)[O-])c5F)c5ccc([nH]5)c(-c5cccc(S(=O)(=O)[O-])c5F)c5nc(c(-c6cccc(S(=O)(=O)[O-])c6F)c6ccc3[nH]6)C=C5)C=C4)cc2)nnc1-c1ccccc1Br
REMARK SMILES IDX 10 1 9 2 8 3 6 4 7 5 5 7 4 8 3 9 1 10 2 11 81 12 79 13 80 14
REMARK SMILES IDX 82 15 83 16 87 17 84 18 86 19 88 20 85 21 11 22 12 23 13 24
REMARK SMILES IDX 14 25 15 27 16 28 17 29 78 30 18 31 77 32 19 33 20 34 21 35
REMARK SMILES IDX 71 36 22 37 76 38 70 39 72 40 23 41 75 42 69 43 68 44 24 46
REMARK SMILES IDX 56 47 36 48 55 49 37 50 40 51 54 52 73 53 38 54 39 55 53 57
REMARK SMILES IDX 74 58 41 59 25 60 26 61 34 62 27 63 29 64 35 65 28 66 30 67
REMARK SMILES IDX 31 68 32 69 33 70 57 71 58 72 66 73 59 74 61 75 67 76 60 77
REMARK SMILES IDX 62 78 63 79 64 80 65 81 42 82 43 83 51 84 44 85 46 86 52 87
REMARK SMILES IDX 45 88 47 89 48 90 49 91 50 92
REMARK H PARENT 8 6 13 26 72 45 40 56
REMARK Flexibility Score: inf
ROOT
ATOM      1  C   UNL A   1      33.736  28.539  24.363  1.00  0.00     0.023 C 
ENDROOT
BRANCH   1   2
ATOM      2  C   UNL A   1      33.485  27.889  23.005  1.00  0.00     0.116 C 
BRANCH   2   3
ATOM      3  N   UNL A   1      32.330  28.456  22.338  1.00  0.00    -0.355 N 
ATOM      4  C   UNL A   1      31.010  28.334  22.635  1.00  0.00     0.230 C 
ATOM      5  O   UNL A   1      30.210  29.013  21.985  1.00  0.00    -0.274 OA
ATOM      6  H   UNL A   1      32.532  29.014  21.553  1.00  0.00     0.163 HD
BRANCH   4   7
ATOM      7  C   UNL A   1      30.522  27.490  23.788  1.00  0.00     0.178 C 
BRANCH   7   8
ATOM      8  S   UNL A   1      30.542  25.718  23.573  1.00  0.00    -0.076 SA
BRANCH   8   9
ATOM      9  C   UNL A   1      31.821  24.945  24.434  1.00  0.00     0.191 A 
ATOM     10  C   UNL A   1      33.493  24.170  22.674  1.00  0.00     0.154 C 
ATOM     11  N   UNL A   1      32.978  24.353  24.004  1.00  0.00    -0.305 N 
ATOM     12  C   UNL A   1      33.589  23.846  25.143  1.00  0.00     0.165 A 
ATOM     13  N   UNL A   1      31.707  24.756  25.733  1.00  0.00    -0.123 NA
ATOM     14  N   UNL A   1      32.797  24.056  26.172  1.00  0.00    -0.129 NA
BRANCH  12  15
ATOM     15  C   UNL A   1      34.846  23.102  25.176  1.00  0.00     0.034 A 
ATOM     16  C   UNL A   1      36.033  23.826  25.374  1.00  0.00     0.013 A 
ATOM     17  C   UNL A   1      34.919  21.706  25.046  1.00  0.00     0.029 A 
ATOM     18  C   UNL A   1      37.260  23.169  25.492  1.00  0.00     0.001 A 
ATOM     19  C   UNL A   1      36.148  21.051  25.172  1.00  0.00     0.016 A 
ATOM     20  Br  UNL A   1      33.394  20.634  24.670  1.00  0.00    -0.050 Br
ATOM     21  C   UNL A   1      37.315  21.780  25.404  1.00  0.00     0.001 A 
ENDBRANCH  12  15
ENDBRANCH   8   9
ENDBRANCH   7   8
ENDBRANCH   4   7
ENDBRANCH   2   3
ENDBRANCH   1   2
BRANCH   1  22
ATOM     22  C   UNL A   1      33.937  27.558  25.525  1.00  0.00     0.023 C 
BRANCH  22  23
ATOM     23  C   UNL A   1      33.618  28.098  26.916  1.00  0.00     0.116 C 
BRANCH  23  24
ATOM     24  N   UNL A   1      33.490  29.546  26.949  1.00  0.00    -0.352 N 
ATOM     25  C   UNL A   1      34.352  30.490  27.447  1.00  0.00     0.251 C 
ATOM     26  H   UNL A   1      32.661  29.903  26.556  1.00  0.00     0.163 HD
ATOM     27  O   UNL A   1      33.997  31.669  27.483  1.00  0.00    -0.269 OA
BRANCH  25  28
ATOM     28  C   UNL A   1      35.686  30.107  27.962  1.00  0.00     0.039 A 
ATOM     29  C   UNL A   1      35.786  29.657  29.281  1.00  0.00     0.014 A 
ATOM     30  C   UNL A   1      36.835  30.205  27.172  1.00  0.00     0.014 A 
ATOM     31  C   UNL A   1      37.026  29.260  29.789  1.00  0.00     0.010 A 
ATOM     32  C   UNL A   1      38.057  29.736  27.655  1.00  0.00     0.010 A 
ATOM     33  C   UNL A   1      38.169  29.268  28.972  1.00  0.00    -0.014 A 
BRANCH  33  34
ATOM     34  C   UNL A   1      39.472  28.770  29.488  1.00  0.00     0.031 A 
ATOM     35  C   UNL A   1      40.158  29.454  30.643  1.00  0.00     0.074 A 
ATOM     36  C   UNL A   1      40.068  27.724  28.882  1.00  0.00     0.049 A 
ATOM     37  N   UNL A   1      41.281  29.139  31.236  1.00  0.00    -0.248 NA
ATOM     38  C   UNL A   1      39.512  30.659  31.189  1.00  0.00     0.031 C 
ATOM     39  C   UNL A   1      39.554  27.028  27.700  1.00  0.00     0.029 A 
ATOM     40  N   UNL A   1      41.241  27.070  29.166  1.00  0.00    -0.354 N 
ATOM     41  C   UNL A   1      41.491  30.117  32.202  1.00  0.00     0.074 A 
ATOM     42  C   UNL A   1      40.398  31.059  32.090  1.00  0.00     0.031 C 
ATOM     43  C   UNL A   1      40.396  26.036  27.373  1.00  0.00     0.029 A 
ATOM     44  C   UNL A   1      41.521  26.039  28.300  1.00  0.00     0.049 A 
ATOM     45  H   UNL A   1      41.827  27.317  29.918  1.00  0.00     0.167 HD
ATOM     46  C   UNL A   1      42.483  30.208  33.120  1.00  0.00     0.034 A 
ATOM     47  C   UNL A   1      42.567  25.189  28.258  1.00  0.00     0.034 A 
ATOM     48  C   UNL A   1      43.552  29.253  33.251  1.00  0.00     0.049 A 
ATOM     49  C   UNL A   1      43.631  25.285  29.317  1.00  0.00     0.074 A 
ATOM     50  C   UNL A   1      44.559  29.213  34.201  1.00  0.00     0.029 A 
ATOM     51  N   UNL A   1      43.763  28.179  32.402  1.00  0.00    -0.354 N 
ATOM     52  N   UNL A   1      43.722  26.120  30.323  1.00  0.00    -0.248 NA
ATOM     53  C   UNL A   1      44.715  24.294  29.257  1.00  0.00     0.031 C 
ATOM     54  C   UNL A   1      45.395  28.131  33.907  1.00  0.00     0.029 A 
ATOM     55  C   UNL A   1      44.889  27.474  32.798  1.00  0.00     0.049 A 
ATOM     56  H   UNL A   1      43.197  27.949  31.630  1.00  0.00     0.167 HD
ATOM     57  C   UNL A   1      44.851  25.732  31.037  1.00  0.00     0.074 A 
ATOM     58  C   UNL A   1      45.393  24.571  30.362  1.00  0.00     0.031 C 
ATOM     59  C   UNL A   1      45.396  26.294  32.145  1.00  0.00     0.034 A 
BRANCH  46  60
ATOM     60  C   UNL A   1      42.434  31.361  34.093  1.00  0.00     0.023 A 
ATOM     61  C   UNL A   1      43.240  32.496  33.870  1.00  0.00     0.012 A 
ATOM     62  C   UNL A   1      41.549  31.349  35.189  1.00  0.00     0.148 A 
ATOM     63  C   UNL A   1      43.196  33.583  34.742  1.00  0.00     0.002 A 
ATOM     64  C   UNL A   1      41.475  32.456  36.027  1.00  0.00     0.091 A 
ATOM     65  F   UNL A   1      40.802  30.255  35.397  1.00  0.00    -0.205 F 
ATOM     66  C   UNL A   1      42.307  33.568  35.813  1.00  0.00     0.022 A 
BRANCH  64  67
ATOM     67  S   UNL A   1      40.306  32.570  37.385  1.00  0.00     0.127 S 
ATOM     68  O   UNL A   1      41.166  32.306  38.538  1.00  0.00    -0.237 OA
ATOM     69  O   UNL A   1      39.842  33.954  37.276  1.00  0.00    -0.237 OA
ATOM     70  O   UNL A   1      39.286  31.565  37.125  1.00  0.00    -0.744 OA
ENDBRANCH  64  67
ENDBRANCH  46  60
BRANCH  47  71
ATOM     71  C   UNL A   1      42.620  24.126  27.215  1.00  0.00     0.023 A 
ATOM     72  C   UNL A   1      43.255  24.389  25.984  1.00  0.00     0.012 A 
ATOM     73  C   UNL A   1      42.063  22.853  27.440  1.00  0.00     0.148 A 
ATOM     74  C   UNL A   1      43.302  23.417  24.985  1.00  0.00     0.002 A 
ATOM     75  C   UNL A   1      42.164  21.870  26.462  1.00  0.00     0.091 A 
ATOM     76  F   UNL A   1      41.455  22.625  28.613  1.00  0.00    -0.205 F 
ATOM     77  C   UNL A   1      42.766  22.155  25.227  1.00  0.00     0.022 A 
BRANCH  75  78
ATOM     78  S   UNL A   1      41.618  20.181  26.736  1.00  0.00     0.127 S 
ATOM     79  O   UNL A   1      40.183  20.360  26.938  1.00  0.00    -0.237 OA
ATOM     80  O   UNL A   1      41.989  19.538  25.475  1.00  0.00    -0.237 OA
ATOM     81  O   UNL A   1      42.365  19.708  27.893  1.00  0.00    -0.744 OA
ENDBRANCH  75  78
ENDBRANCH  47  71
BRANCH  59  82
ATOM     82  C   UNL A   1      46.626  25.641  32.722  1.00  0.00     0.023 A 
ATOM     83  C   UNL A   1      46.509  24.735  33.796  1.00  0.00     0.012 A 
ATOM     84  C   UNL A   1      47.898  25.894  32.170  1.00  0.00     0.148 A 
ATOM     85  C   UNL A   1      47.640  24.130  34.341  1.00  0.00     0.002 A 
ATOM     86  C   UNL A   1      49.015  25.245  32.683  1.00  0.00     0.091 A 
ATOM     87  F   UNL A   1      47.996  26.772  31.161  1.00  0.00    -0.205 F 
ATOM     88  C   UNL A   1      48.891  24.376  33.780  1.00  0.00     0.022 A 
BRANCH  86  89
ATOM     89  S   UNL A   1      50.648  25.427  31.959  1.00  0.00     0.127 S 
ATOM     90  O   UNL A   1      51.433  24.481  32.750  1.00  0.00    -0.237 OA
ATOM     91  O   UNL A   1      50.420  25.019  30.572  1.00  0.00    -0.237 OA
ATOM     92  O   UNL A   1      51.005  26.830  32.123  1.00  0.00    -0.744 OA
ENDBRANCH  86  89
ENDBRANCH  59  82
ENDBRANCH  33  34
ENDBRANCH  25  28
ENDBRANCH  23  24
ENDBRANCH  22  23
ENDBRANCH   1  22
TORSDOF 17
ENDMDL
MODEL 3
REMARK VINA RESULT:     -11.5      1.677      2.243
REMARK SMILES Cn1c(SCC(=O)NCCCCNC(=O)c2ccc(-c3c4nc(c(-c5cccc(S(=O)(=O)[O-])c5F)c5ccc([nH]5)c(-c5cccc(S(=O)(=O)[O-])c5F)c5nc(c(-c6cccc(S(=O)(=O)[O-])c6F)c6ccc3[nH]6)C=C5)C=C4)cc2)nnc1-c1ccccc1Br
REMARK SMILES IDX 10 1 9 2 8 3 6 4 7 5 5 7 4 8 3 9 1 10 2 11 81 12 79 13 80 14
REMARK SMILES IDX 82 15 83 16 87 17 84 18 86 19 88 20 85 21 11 22 12 23 13 24
REMARK SMILES IDX 14 25 15 27 16 28 17 29 78 30 18 31 77 32 19 33 20 34 21 35
REMARK SMILES IDX 71 36 22 37 76 38 70 39 72 40 23 41 75 42 69 43 68 44 24 46
REMARK SMILES IDX 56 47 36 48 55 49 37 50 40 51 54 52 73 53 38 54 39 55 53 57
REMARK SMILES IDX 74 58 41 59 25 60 26 61 34 62 27 63 29 64 35 65 28 66 30 67
REMARK SMILES IDX 31 68 32 69 33 70 57 71 58 72 66 73 59 74 61 75 67 76 60 77
REMARK SMILES IDX 62 78 63 79 64 80 65 81 42 82 43 83 51 84 44 85 46 86 52 87
REMARK SMILES IDX 45 88 47 89 48 90 49 91 50 92
REMARK H PARENT 8 6 13 26 72 45 40 56
REMARK Flexibility Score: inf
ROOT
ATOM      1  C   UNL A   1      31.484  28.949  25.940  1.00  0.00     0.023 C 
ENDROOT
BRANCH   1   2
ATOM      2  C   UNL A   1      31.596  29.384  24.480  1.00  0.00     0.116 C 
BRANCH   2   3
ATOM      3  N   UNL A   1      30.353  29.938  23.982  1.00  0.00    -0.355 N 
ATOM      4  C   UNL A   1      29.369  29.347  23.257  1.00  0.00     0.230 C 
ATOM      5  O   UNL A   1      28.340  29.996  23.050  1.00  0.00    -0.274 OA
ATOM      6  H   UNL A   1      30.199  30.885  24.204  1.00  0.00     0.163 HD
BRANCH   4   7
ATOM      7  C   UNL A   1      29.459  27.909  22.805  1.00  0.00     0.178 C 
BRANCH   7   8
ATOM      8  S   UNL A   1      28.931  26.653  23.957  1.00  0.00    -0.076 SA
BRANCH   8   9
ATOM      9  C   UNL A   1      30.241  25.905  24.792  1.00  0.00     0.191 A 
ATOM     10  C   UNL A   1      31.874  25.124  22.998  1.00  0.00     0.154 C 
ATOM     11  N   UNL A   1      31.392  25.319  24.339  1.00  0.00    -0.305 N 
ATOM     12  C   UNL A   1      32.039  24.833  25.467  1.00  0.00     0.165 A 
ATOM     13  N   UNL A   1      30.164  25.731  26.096  1.00  0.00    -0.123 NA
ATOM     14  N   UNL A   1      31.274  25.049  26.515  1.00  0.00    -0.129 NA
BRANCH  12  15
ATOM     15  C   UNL A   1      33.305  24.103  25.476  1.00  0.00     0.034 A 
ATOM     16  C   UNL A   1      34.494  24.850  25.515  1.00  0.00     0.013 A 
ATOM     17  C   UNL A   1      33.387  22.702  25.472  1.00  0.00     0.029 A 
ATOM     18  C   UNL A   1      35.735  24.214  25.602  1.00  0.00     0.001 A 
ATOM     19  C   UNL A   1      34.630  22.068  25.567  1.00  0.00     0.016 A 
ATOM     20  Br  UNL A   1      31.852  21.590  25.314  1.00  0.00    -0.050 Br
ATOM     21  C   UNL A   1      35.801  22.823  25.641  1.00  0.00     0.001 A 
ENDBRANCH  12  15
ENDBRANCH   8   9
ENDBRANCH   7   8
ENDBRANCH   4   7
ENDBRANCH   2   3
ENDBRANCH   1   2
BRANCH   1  22
ATOM     22  C   UNL A   1      32.779  28.410  26.558  1.00  0.00     0.023 C 
BRANCH  22  23
ATOM     23  C   UNL A   1      34.036  29.235  26.299  1.00  0.00     0.116 C 
BRANCH  23  24
ATOM     24  N   UNL A   1      33.965  30.574  26.863  1.00  0.00    -0.352 N 
ATOM     25  C   UNL A   1      34.776  31.177  27.791  1.00  0.00     0.251 C 
ATOM     26  H   UNL A   1      33.225  31.130  26.530  1.00  0.00     0.163 HD
ATOM     27  O   UNL A   1      34.469  32.288  28.225  1.00  0.00    -0.269 OA
BRANCH  25  28
ATOM     28  C   UNL A   1      35.994  30.501  28.292  1.00  0.00     0.039 A 
ATOM     29  C   UNL A   1      37.187  30.668  27.585  1.00  0.00     0.014 A 
ATOM     30  C   UNL A   1      35.969  29.694  29.434  1.00  0.00     0.014 A 
ATOM     31  C   UNL A   1      38.361  30.069  28.048  1.00  0.00     0.010 A 
ATOM     32  C   UNL A   1      37.156  29.161  29.936  1.00  0.00     0.010 A 
ATOM     33  C   UNL A   1      38.364  29.333  29.245  1.00  0.00    -0.014 A 
BRANCH  33  34
ATOM     34  C   UNL A   1      39.629  28.761  29.780  1.00  0.00     0.031 A 
ATOM     35  C   UNL A   1      40.275  29.336  31.014  1.00  0.00     0.074 A 
ATOM     36  C   UNL A   1      40.227  27.748  29.122  1.00  0.00     0.049 A 
ATOM     37  N   UNL A   1      41.361  28.946  31.631  1.00  0.00    -0.248 NA
ATOM     38  C   UNL A   1      39.634  30.513  31.621  1.00  0.00     0.031 C 
ATOM     39  C   UNL A   1      39.753  27.159  27.867  1.00  0.00     0.029 A 
ATOM     40  N   UNL A   1      41.369  27.042  29.407  1.00  0.00    -0.354 N 
ATOM     41  C   UNL A   1      41.550  29.842  32.677  1.00  0.00     0.074 A 
ATOM     42  C   UNL A   1      40.486  30.819  32.589  1.00  0.00     0.031 C 
ATOM     43  C   UNL A   1      40.585  26.171  27.503  1.00  0.00     0.029 A 
ATOM     44  C   UNL A   1      41.665  26.072  28.478  1.00  0.00     0.049 A 
ATOM     45  H   UNL A   1      41.924  27.215  30.202  1.00  0.00     0.167 HD
ATOM     46  C   UNL A   1      42.499  29.835  33.644  1.00  0.00     0.034 A 
ATOM     47  C   UNL A   1      42.690  25.200  28.417  1.00  0.00     0.034 A 
ATOM     48  C   UNL A   1      43.537  28.844  33.749  1.00  0.00     0.049 A 
ATOM     49  C   UNL A   1      43.705  25.185  29.528  1.00  0.00     0.074 A 
ATOM     50  C   UNL A   1      44.496  28.703  34.738  1.00  0.00     0.029 A 
ATOM     51  N   UNL A   1      43.761  27.831  32.830  1.00  0.00    -0.354 N 
ATOM     52  N   UNL A   1      43.769  25.938  30.599  1.00  0.00    -0.248 NA
ATOM     53  C   UNL A   1      44.767  24.171  29.441  1.00  0.00     0.031 C 
ATOM     54  C   UNL A   1      45.319  27.624  34.400  1.00  0.00     0.029 A 
ATOM     55  C   UNL A   1      44.850  27.067  33.221  1.00  0.00     0.049 A 
ATOM     56  H   UNL A   1      43.227  27.676  32.018  1.00  0.00     0.167 HD
ATOM     57  C   UNL A   1      44.854  25.466  31.331  1.00  0.00     0.074 A 
ATOM     58  C   UNL A   1      45.398  24.345  30.594  1.00  0.00     0.031 C 
ATOM     59  C   UNL A   1      45.359  25.927  32.503  1.00  0.00     0.034 A 
BRANCH  46  60
ATOM     60  C   UNL A   1      42.432  30.911  34.700  1.00  0.00     0.023 A 
ATOM     61  C   UNL A   1      41.771  30.652  35.918  1.00  0.00     0.012 A 
ATOM     62  C   UNL A   1      43.072  32.153  34.514  1.00  0.00     0.148 A 
ATOM     63  C   UNL A   1      41.713  31.621  36.918  1.00  0.00     0.002 A 
ATOM     64  C   UNL A   1      43.052  33.097  35.535  1.00  0.00     0.091 A 
ATOM     65  F   UNL A   1      43.680  32.390  33.344  1.00  0.00    -0.205 F 
ATOM     66  C   UNL A   1      42.362  32.838  36.731  1.00  0.00     0.022 A 
BRANCH  64  67
ATOM     67  S   UNL A   1      43.925  34.662  35.426  1.00  0.00     0.127 S 
ATOM     68  O   UNL A   1      43.640  35.250  36.735  1.00  0.00    -0.237 OA
ATOM     69  O   UNL A   1      45.311  34.229  35.242  1.00  0.00    -0.237 OA
ATOM     70  O   UNL A   1      43.352  35.367  34.288  1.00  0.00    -0.744 OA
ENDBRANCH  64  67
ENDBRANCH  46  60
BRANCH  47  71
ATOM     71  C   UNL A   1      42.767  24.218  27.299  1.00  0.00     0.023 A 
ATOM     72  C   UNL A   1      43.502  24.539  26.140  1.00  0.00     0.012 A 
ATOM     73  C   UNL A   1      42.133  22.964  27.383  1.00  0.00     0.148 A 
ATOM     74  C   UNL A   1      43.574  23.645  25.072  1.00  0.00     0.002 A 
ATOM     75  C   UNL A   1      42.257  22.054  26.339  1.00  0.00     0.091 A 
ATOM     76  F   UNL A   1      41.431  22.681  28.489  1.00  0.00    -0.205 F 
ATOM     77  C   UNL A   1      42.960  22.399  25.175  1.00  0.00     0.022 A 
BRANCH  75  78
ATOM     78  S   UNL A   1      41.610  20.381  26.439  1.00  0.00     0.127 S 
ATOM     79  O   UNL A   1      42.244  19.747  25.286  1.00  0.00    -0.237 OA
ATOM     80  O   UNL A   1      42.114  19.942  27.740  1.00  0.00    -0.237 OA
ATOM     81  O   UNL A   1      40.162  20.514  26.369  1.00  0.00    -0.744 OA
ENDBRANCH  75  78
ENDBRANCH  47  71
BRANCH  59  82
ATOM     82  C   UNL A   1      46.544  25.198  33.082  1.00  0.00     0.023 A 
ATOM     83  C   UNL A   1      47.854  25.627  32.786  1.00  0.00     0.012 A 
ATOM     84  C   UNL A   1      46.357  24.108  33.957  1.00  0.00     0.148 A 
ATOM     85  C   UNL A   1      48.957  24.956  33.312  1.00  0.00     0.002 A 
ATOM     86  C   UNL A   1      47.461  23.479  34.520  1.00  0.00     0.091 A 
ATOM     87  F   UNL A   1      45.106  23.700  34.214  1.00  0.00    -0.205 F 
ATOM     88  C   UNL A   1      48.762  23.889  34.186  1.00  0.00     0.022 A 
BRANCH  86  89
ATOM     89  S   UNL A   1      47.301  22.162  35.731  1.00  0.00     0.127 S 
ATOM     90  O   UNL A   1      46.371  22.752  36.693  1.00  0.00    -0.237 OA
ATOM     91  O   UNL A   1      46.741  21.071  34.932  1.00  0.00    -0.237 OA
ATOM     92  O   UNL A   1      48.646  21.911  36.231  1.00  0.00    -0.744 OA
ENDBRANCH  86  89
ENDBRANCH  59  82
ENDBRANCH  33  34
ENDBRANCH  25  28
ENDBRANCH  23  24
ENDBRANCH  22  23
ENDBRANCH   1  22
TORSDOF 17
ENDMDL
