MODEL 1
REMARK VINA RESULT:     -11.9      0.000      0.000
REMARK SMILES O=C(Cc1csc(Sc2ncnc3c2CCCC3)n1)NCCCCNC(=O)c1ccc(-c2c3nc(c(-c4cccc(S(=O)(=O)[O-])c4F)c4ccc([nH]4)c(-c4cccc(S(=O)(=O)[O-])c4F)c4nc(c(-c5cccc(S(=O)(=O)[O-])c5F)c5ccc2[nH]5)C=C4)C=C3)cc1
REMARK SMILES IDX 22 1 21 2 20 3 1 4 2 5 3 7 4 8 5 9 19 10 6 11 7 12 8 13 9 14
REMARK SMILES IDX 10 15 14 16 11 17 13 18 15 19 12 20 18 21 16 22 17 23 23 24
REMARK SMILES IDX 24 25 25 26 26 27 27 29 28 30 29 31 90 32 30 33 89 34 31 35
REMARK SMILES IDX 32 36 33 37 83 38 34 39 88 40 82 41 84 42 35 43 87 44 81 45
REMARK SMILES IDX 80 46 36 48 68 49 48 50 67 51 49 52 52 53 66 54 85 55 50 56
REMARK SMILES IDX 51 57 65 59 86 60 53 61 37 62 38 63 46 64 39 65 41 66 47 67
REMARK SMILES IDX 40 68 42 69 43 70 44 71 45 72 69 73 70 74 78 75 71 76 73 77
REMARK SMILES IDX 79 78 72 79 74 80 75 81 76 82 77 83 54 84 55 85 63 86 56 87
REMARK SMILES IDX 58 88 64 89 57 90 59 91 60 92 61 93 62 94
REMARK H PARENT 20 6 25 28 84 47 52 58
REMARK Flexibility Score: inf
ROOT
ATOM      1  C   UNL A   1      32.113  27.590  27.264  1.00  0.00     0.023 C 
ENDROOT
BRANCH   1   2
ATOM      2  C   UNL A   1      31.278  26.486  26.618  1.00  0.00     0.116 C 
BRANCH   2   3
ATOM      3  N   UNL A   1      32.040  25.270  26.427  1.00  0.00    -0.356 N 
ATOM      4  O   UNL A   1      30.429  23.822  27.201  1.00  0.00    -0.275 OA
ATOM      5  C   UNL A   1      31.551  24.021  26.741  1.00  0.00     0.226 C 
ATOM      6  H   UNL A   1      32.949  25.339  26.055  1.00  0.00     0.163 HD
BRANCH   5   7
ATOM      7  C   UNL A   1      32.529  22.891  26.483  1.00  0.00     0.157 C 
BRANCH   7   8
ATOM      8  C   UNL A   1      33.213  23.052  25.165  1.00  0.00     0.062 A 
ATOM      9  C   UNL A   1      34.490  22.632  24.845  1.00  0.00     0.092 A 
ATOM     10  N   UNL A   1      32.541  23.697  24.134  1.00  0.00    -0.234 NA
ATOM     11  S   UNL A   1      34.881  23.107  23.250  1.00  0.00    -0.116 S 
ATOM     12  C   UNL A   1      33.333  23.848  23.095  1.00  0.00     0.156 A 
BRANCH  12  13
ATOM     13  S   UNL A   1      32.914  24.697  21.623  1.00  0.00    -0.039 SA
BRANCH  13  14
ATOM     14  C   UNL A   1      32.873  26.394  22.180  1.00  0.00     0.110 A 
ATOM     15  N   UNL A   1      33.997  27.107  21.951  1.00  0.00    -0.229 NA
ATOM     16  C   UNL A   1      31.697  26.962  22.672  1.00  0.00     0.006 A 
ATOM     17  C   UNL A   1      33.937  28.406  22.253  1.00  0.00     0.223 A 
ATOM     18  C   UNL A   1      31.744  28.333  22.901  1.00  0.00     0.048 A 
ATOM     19  C   UNL A   1      30.419  26.184  22.852  1.00  0.00     0.040 C 
ATOM     20  N   UNL A   1      32.866  29.057  22.715  1.00  0.00    -0.241 NA
ATOM     21  C   UNL A   1      30.544  29.100  23.402  1.00  0.00     0.056 C 
ATOM     22  C   UNL A   1      29.356  26.922  23.665  1.00  0.00     0.005 C 
ATOM     23  C   UNL A   1      29.226  28.361  23.188  1.00  0.00     0.007 C 
ENDBRANCH  13  14
ENDBRANCH  12  13
ENDBRANCH   7   8
ENDBRANCH   5   7
ENDBRANCH   2   3
ENDBRANCH   1   2
BRANCH   1  24
ATOM     24  C   UNL A   1      31.690  29.018  26.904  1.00  0.00     0.023 C 
BRANCH  24  25
ATOM     25  C   UNL A   1      32.775  29.885  26.274  1.00  0.00     0.116 C 
BRANCH  25  26
ATOM     26  N   UNL A   1      32.635  31.294  26.609  1.00  0.00    -0.352 N 
ATOM     27  C   UNL A   1      33.432  32.079  27.406  1.00  0.00     0.251 C 
ATOM     28  H   UNL A   1      31.860  31.749  26.207  1.00  0.00     0.163 HD
ATOM     29  O   UNL A   1      33.077  33.220  27.692  1.00  0.00    -0.269 OA
BRANCH  27  30
ATOM     30  C   UNL A   1      34.703  31.545  27.943  1.00  0.00     0.039 A 
ATOM     31  C   UNL A   1      35.807  32.398  28.037  1.00  0.00     0.014 A 
ATOM     32  C   UNL A   1      34.811  30.212  28.350  1.00  0.00     0.014 A 
ATOM     33  C   UNL A   1      36.998  31.932  28.601  1.00  0.00     0.010 A 
ATOM     34  C   UNL A   1      35.977  29.768  28.970  1.00  0.00     0.010 A 
ATOM     35  C   UNL A   1      37.082  30.622  29.102  1.00  0.00    -0.014 A 
BRANCH  35  36
ATOM     36  C   UNL A   1      38.312  30.134  29.777  1.00  0.00     0.031 A 
ATOM     37  C   UNL A   1      38.679  30.635  31.146  1.00  0.00     0.074 A 
ATOM     38  C   UNL A   1      39.138  29.290  29.127  1.00  0.00     0.049 A 
ATOM     39  N   UNL A   1      39.730  30.351  31.871  1.00  0.00    -0.248 NA
ATOM     40  C   UNL A   1      37.758  31.596  31.775  1.00  0.00     0.031 C 
ATOM     41  C   UNL A   1      38.926  28.780  27.772  1.00  0.00     0.029 A 
ATOM     42  N   UNL A   1      40.327  28.723  29.513  1.00  0.00    -0.354 N 
ATOM     43  C   UNL A   1      39.609  31.110  33.028  1.00  0.00     0.074 A 
ATOM     44  C   UNL A   1      38.406  31.900  32.891  1.00  0.00     0.031 C 
ATOM     45  C   UNL A   1      39.939  27.961  27.446  1.00  0.00     0.029 A 
ATOM     46  C   UNL A   1      40.887  27.907  28.556  1.00  0.00     0.049 A 
ATOM     47  H   UNL A   1      40.741  28.884  30.392  1.00  0.00     0.167 HD
ATOM     48  C   UNL A   1      40.406  31.121  34.122  1.00  0.00     0.034 A 
ATOM     49  C   UNL A   1      42.030  27.192  28.571  1.00  0.00     0.034 A 
ATOM     50  C   UNL A   1      41.576  30.300  34.278  1.00  0.00     0.049 A 
ATOM     51  C   UNL A   1      42.890  27.208  29.806  1.00  0.00     0.074 A 
ATOM     52  C   UNL A   1      42.406  30.190  35.380  1.00  0.00     0.029 A 
ATOM     53  N   UNL A   1      42.082  29.447  33.310  1.00  0.00    -0.354 N 
ATOM     54  N   UNL A   1      42.686  27.827  30.944  1.00  0.00    -0.248 NA
ATOM     55  C   UNL A   1      44.122  26.405  29.773  1.00  0.00     0.031 C 
ATOM     56  C   UNL A   1      43.423  29.282  35.072  1.00  0.00     0.029 A 
ATOM     57  C   UNL A   1      43.218  28.814  33.783  1.00  0.00     0.049 A 
ATOM     58  H   UNL A   1      41.691  29.311  32.417  1.00  0.00     0.167 HD
ATOM     59  C   UNL A   1      43.747  27.470  31.770  1.00  0.00     0.074 A 
ATOM     60  C   UNL A   1      44.579  26.561  31.009  1.00  0.00     0.031 C 
ATOM     61  C   UNL A   1      44.015  27.874  33.035  1.00  0.00     0.034 A 
BRANCH  48  62
ATOM     62  C   UNL A   1      40.000  32.001  35.275  1.00  0.00     0.023 A 
ATOM     63  C   UNL A   1      40.460  33.333  35.319  1.00  0.00     0.012 A 
ATOM     64  C   UNL A   1      39.115  31.541  36.271  1.00  0.00     0.148 A 
ATOM     65  C   UNL A   1      40.068  34.186  36.350  1.00  0.00     0.002 A 
ATOM     66  C   UNL A   1      38.696  32.411  37.270  1.00  0.00     0.091 A 
ATOM     67  F   UNL A   1      38.708  30.264  36.225  1.00  0.00    -0.205 F 
ATOM     68  C   UNL A   1      39.178  33.729  37.317  1.00  0.00     0.022 A 
BRANCH  66  69
ATOM     69  S   UNL A   1      37.492  31.941  38.519  1.00  0.00     0.127 S 
ATOM     70  O   UNL A   1      37.178  30.569  38.122  1.00  0.00    -0.237 OA
ATOM     71  O   UNL A   1      38.267  32.056  39.755  1.00  0.00    -0.237 OA
ATOM     72  O   UNL A   1      36.398  32.893  38.398  1.00  0.00    -0.744 OA
ENDBRANCH  66  69
ENDBRANCH  48  62
BRANCH  49  73
ATOM     73  C   UNL A   1      42.372  26.329  27.405  1.00  0.00     0.023 A 
ATOM     74  C   UNL A   1      43.168  26.860  26.371  1.00  0.00     0.012 A 
ATOM     75  C   UNL A   1      41.978  24.979  27.345  1.00  0.00     0.148 A 
ATOM     76  C   UNL A   1      43.553  26.066  25.291  1.00  0.00     0.002 A 
ATOM     77  C   UNL A   1      42.413  24.178  26.295  1.00  0.00     0.091 A 
ATOM     78  F   UNL A   1      41.211  24.498  28.333  1.00  0.00    -0.205 F 
ATOM     79  C   UNL A   1      43.187  24.723  25.259  1.00  0.00     0.022 A 
BRANCH  77  80
ATOM     80  S   UNL A   1      42.114  22.407  26.242  1.00  0.00     0.127 S 
ATOM     81  O   UNL A   1      42.823  22.021  25.024  1.00  0.00    -0.237 OA
ATOM     82  O   UNL A   1      42.738  21.960  27.488  1.00  0.00    -0.237 OA
ATOM     83  O   UNL A   1      40.666  22.254  26.206  1.00  0.00    -0.744 OA
ENDBRANCH  77  80
ENDBRANCH  49  73
BRANCH  61  84
ATOM     84  C   UNL A   1      45.260  27.346  33.699  1.00  0.00     0.023 A 
ATOM     85  C   UNL A   1      46.448  28.102  33.641  1.00  0.00     0.012 A 
ATOM     86  C   UNL A   1      45.225  26.171  34.477  1.00  0.00     0.148 A 
ATOM     87  C   UNL A   1      47.586  27.689  34.333  1.00  0.00     0.002 A 
ATOM     88  C   UNL A   1      46.349  25.790  35.201  1.00  0.00     0.091 A 
ATOM     89  F   UNL A   1      44.091  25.457  34.505  1.00  0.00    -0.205 F 
ATOM     90  C   UNL A   1      47.533  26.543  35.123  1.00  0.00     0.022 A 
BRANCH  88  91
ATOM     91  S   UNL A   1      46.344  24.388  36.325  1.00  0.00     0.127 S 
ATOM     92  O   UNL A   1      45.226  24.719  37.207  1.00  0.00    -0.237 OA
ATOM     93  O   UNL A   1      46.095  23.266  35.420  1.00  0.00    -0.237 OA
ATOM     94  O   UNL A   1      47.656  24.376  36.957  1.00  0.00    -0.744 OA
ENDBRANCH  88  91
ENDBRANCH  61  84
ENDBRANCH  35  36
ENDBRANCH  27  30
ENDBRANCH  25  26
ENDBRANCH  24  25
ENDBRANCH   1  24
TORSDOF 17
ENDMDL
MODEL 2
REMARK VINA RESULT:     -11.6      4.985      9.813
REMARK SMILES O=C(Cc1csc(Sc2ncnc3c2CCCC3)n1)NCCCCNC(=O)c1ccc(-c2c3nc(c(-c4cccc(S(=O)(=O)[O-])c4F)c4ccc([nH]4)c(-c4cccc(S(=O)(=O)[O-])c4F)c4nc(c(-c5cccc(S(=O)(=O)[O-])c5F)c5ccc2[nH]5)C=C4)C=C3)cc1
REMARK SMILES IDX 22 1 21 2 20 3 1 4 2 5 3 7 4 8 5 9 19 10 6 11 7 12 8 13 9 14
REMARK SMILES IDX 10 15 14 16 11 17 13 18 15 19 12 20 18 21 16 22 17 23 23 24
REMARK SMILES IDX 24 25 25 26 26 27 27 29 28 30 29 31 90 32 30 33 89 34 31 35
REMARK SMILES IDX 32 36 33 37 83 38 34 39 88 40 82 41 84 42 35 43 87 44 81 45
REMARK SMILES IDX 80 46 36 48 68 49 48 50 67 51 49 52 52 53 66 54 85 55 50 56
REMARK SMILES IDX 51 57 65 59 86 60 53 61 37 62 38 63 46 64 39 65 41 66 47 67
REMARK SMILES IDX 40 68 42 69 43 70 44 71 45 72 69 73 70 74 78 75 71 76 73 77
REMARK SMILES IDX 79 78 72 79 74 80 75 81 76 82 77 83 54 84 55 85 63 86 56 87
REMARK SMILES IDX 58 88 64 89 57 90 59 91 60 92 61 93 62 94
REMARK H PARENT 20 6 25 28 84 47 52 58
REMARK Flexibility Score: inf
ROOT
ATOM      1  C   UNL A   1      35.558  22.809  26.611  1.00  0.00     0.023 C 
ENDROOT
BRANCH   1   2
ATOM      2  C   UNL A   1      34.164  22.793  27.234  1.00  0.00     0.116 C 
BRANCH   2   3
ATOM      3  N   UNL A   1      33.121  22.796  26.231  1.00  0.00    -0.356 N 
ATOM      4  O   UNL A   1      31.377  23.243  27.663  1.00  0.00    -0.275 OA
ATOM      5  C   UNL A   1      31.794  23.019  26.529  1.00  0.00     0.226 C 
ATOM      6  H   UNL A   1      33.370  22.631  25.293  1.00  0.00     0.163 HD
BRANCH   5   7
ATOM      7  C   UNL A   1      30.871  22.951  25.328  1.00  0.00     0.157 C 
BRANCH   7   8
ATOM      8  C   UNL A   1      31.601  23.254  24.062  1.00  0.00     0.062 A 
ATOM      9  C   UNL A   1      32.092  22.333  23.155  1.00  0.00     0.092 A 
ATOM     10  N   UNL A   1      31.846  24.580  23.729  1.00  0.00    -0.234 NA
ATOM     11  S   UNL A   1      32.930  23.136  21.900  1.00  0.00    -0.116 S 
ATOM     12  C   UNL A   1      32.594  24.651  22.649  1.00  0.00     0.156 A 
BRANCH  12  13
ATOM     13  S   UNL A   1      33.216  26.129  21.948  1.00  0.00    -0.039 SA
BRANCH  13  14
ATOM     14  C   UNL A   1      32.133  27.356  22.665  1.00  0.00     0.110 A 
ATOM     15  N   UNL A   1      30.944  27.515  22.043  1.00  0.00    -0.229 NA
ATOM     16  C   UNL A   1      32.452  27.981  23.871  1.00  0.00     0.006 A 
ATOM     17  C   UNL A   1      30.080  28.341  22.636  1.00  0.00     0.223 A 
ATOM     18  C   UNL A   1      31.450  28.778  24.415  1.00  0.00     0.048 A 
ATOM     19  C   UNL A   1      33.745  27.743  24.605  1.00  0.00     0.040 C 
ATOM     20  N   UNL A   1      30.271  28.980  23.794  1.00  0.00    -0.241 NA
ATOM     21  C   UNL A   1      31.628  29.495  25.732  1.00  0.00     0.056 C 
ATOM     22  C   UNL A   1      34.005  28.736  25.737  1.00  0.00     0.005 C 
ATOM     23  C   UNL A   1      32.754  28.916  26.585  1.00  0.00     0.007 C 
ENDBRANCH  13  14
ENDBRANCH  12  13
ENDBRANCH   7   8
ENDBRANCH   5   7
ENDBRANCH   2   3
ENDBRANCH   1   2
BRANCH   1  24
ATOM     24  C   UNL A   1      35.814  21.717  25.566  1.00  0.00     0.023 C 
BRANCH  24  25
ATOM     25  C   UNL A   1      37.183  21.758  24.895  1.00  0.00     0.116 C 
BRANCH  25  26
ATOM     26  N   UNL A   1      38.072  20.707  25.366  1.00  0.00    -0.352 N 
ATOM     27  C   UNL A   1      39.268  20.817  26.034  1.00  0.00     0.251 C 
ATOM     28  H   UNL A   1      37.775  19.787  25.179  1.00  0.00     0.163 HD
ATOM     29  O   UNL A   1      39.956  19.817  26.225  1.00  0.00    -0.269 OA
BRANCH  27  30
ATOM     30  C   UNL A   1      39.742  22.139  26.498  1.00  0.00     0.039 A 
ATOM     31  C   UNL A   1      40.796  22.195  27.414  1.00  0.00     0.014 A 
ATOM     32  C   UNL A   1      39.152  23.320  26.036  1.00  0.00     0.014 A 
ATOM     33  C   UNL A   1      41.302  23.434  27.816  1.00  0.00     0.010 A 
ATOM     34  C   UNL A   1      39.698  24.552  26.388  1.00  0.00     0.010 A 
ATOM     35  C   UNL A   1      40.778  24.623  27.280  1.00  0.00    -0.014 A 
BRANCH  35  36
ATOM     36  C   UNL A   1      41.355  25.946  27.634  1.00  0.00     0.031 A 
ATOM     37  C   UNL A   1      42.765  26.291  27.243  1.00  0.00     0.074 A 
ATOM     38  C   UNL A   1      40.631  26.813  28.369  1.00  0.00     0.049 A 
ATOM     39  N   UNL A   1      43.446  27.378  27.498  1.00  0.00    -0.248 NA
ATOM     40  C   UNL A   1      43.515  25.275  26.486  1.00  0.00     0.031 C 
ATOM     41  C   UNL A   1      39.275  26.571  28.863  1.00  0.00     0.029 A 
ATOM     42  N   UNL A   1      40.938  28.065  28.840  1.00  0.00    -0.354 N 
ATOM     43  C   UNL A   1      44.707  27.170  26.953  1.00  0.00     0.074 A 
ATOM     44  C   UNL A   1      44.712  25.837  26.392  1.00  0.00     0.031 C 
ATOM     45  C   UNL A   1      38.859  27.647  29.551  1.00  0.00     0.029 A 
ATOM     46  C   UNL A   1      39.926  28.644  29.571  1.00  0.00     0.049 A 
ATOM     47  H   UNL A   1      41.801  28.508  28.671  1.00  0.00     0.167 HD
ATOM     48  C   UNL A   1      45.755  28.026  26.892  1.00  0.00     0.034 A 
ATOM     49  C   UNL A   1      39.861  29.844  30.184  1.00  0.00     0.034 A 
ATOM     50  C   UNL A   1      45.734  29.367  27.407  1.00  0.00     0.049 A 
ATOM     51  C   UNL A   1      41.032  30.783  30.086  1.00  0.00     0.074 A 
ATOM     52  C   UNL A   1      46.723  30.332  27.327  1.00  0.00     0.029 A 
ATOM     53  N   UNL A   1      44.674  29.938  28.094  1.00  0.00    -0.354 N 
ATOM     54  N   UNL A   1      42.167  30.621  29.448  1.00  0.00    -0.248 NA
ATOM     55  C   UNL A   1      40.907  32.081  30.765  1.00  0.00     0.031 C 
ATOM     56  C   UNL A   1      46.266  31.481  27.980  1.00  0.00     0.029 A 
ATOM     57  C   UNL A   1      44.986  31.237  28.453  1.00  0.00     0.049 A 
ATOM     58  H   UNL A   1      43.823  29.485  28.296  1.00  0.00     0.167 HD
ATOM     59  C   UNL A   1      42.879  31.802  29.627  1.00  0.00     0.074 A 
ATOM     60  C   UNL A   1      42.037  32.681  30.414  1.00  0.00     0.031 C 
ATOM     61  C   UNL A   1      44.124  32.121  29.195  1.00  0.00     0.034 A 
BRANCH  48  62
ATOM     62  C   UNL A   1      46.997  27.561  26.177  1.00  0.00     0.023 A 
ATOM     63  C   UNL A   1      47.932  26.765  26.869  1.00  0.00     0.012 A 
ATOM     64  C   UNL A   1      47.207  27.847  24.813  1.00  0.00     0.148 A 
ATOM     65  C   UNL A   1      49.070  26.283  26.225  1.00  0.00     0.002 A 
ATOM     66  C   UNL A   1      48.322  27.327  24.168  1.00  0.00     0.091 A 
ATOM     67  F   UNL A   1      46.319  28.626  24.178  1.00  0.00    -0.205 F 
ATOM     68  C   UNL A   1      49.259  26.554  24.873  1.00  0.00     0.022 A 
BRANCH  66  69
ATOM     69  S   UNL A   1      48.616  27.555  22.410  1.00  0.00     0.127 S 
ATOM     70  O   UNL A   1      49.888  28.277  22.416  1.00  0.00    -0.237 OA
ATOM     71  O   UNL A   1      48.700  26.176  21.928  1.00  0.00    -0.237 OA
ATOM     72  O   UNL A   1      47.474  28.304  21.907  1.00  0.00    -0.744 OA
ENDBRANCH  66  69
ENDBRANCH  48  62
BRANCH  49  73
ATOM     73  C   UNL A   1      38.600  30.254  30.864  1.00  0.00     0.023 A 
ATOM     74  C   UNL A   1      38.441  29.977  32.236  1.00  0.00     0.012 A 
ATOM     75  C   UNL A   1      37.594  30.970  30.187  1.00  0.00     0.148 A 
ATOM     76  C   UNL A   1      37.298  30.394  32.919  1.00  0.00     0.002 A 
ATOM     77  C   UNL A   1      36.484  31.431  30.886  1.00  0.00     0.091 A 
ATOM     78  F   UNL A   1      37.759  31.211  28.879  1.00  0.00    -0.205 F 
ATOM     79  C   UNL A   1      36.327  31.131  32.247  1.00  0.00     0.022 A 
BRANCH  77  80
ATOM     80  S   UNL A   1      35.254  32.509  30.142  1.00  0.00     0.127 S 
ATOM     81  O   UNL A   1      34.311  32.690  31.244  1.00  0.00    -0.237 OA
ATOM     82  O   UNL A   1      36.051  33.691  29.812  1.00  0.00    -0.237 OA
ATOM     83  O   UNL A   1      34.745  31.784  28.986  1.00  0.00    -0.744 OA
ENDBRANCH  77  80
ENDBRANCH  49  73
BRANCH  61  84
ATOM     84  C   UNL A   1      44.672  33.478  29.554  1.00  0.00     0.023 A 
ATOM     85  C   UNL A   1      45.436  33.626  30.729  1.00  0.00     0.012 A 
ATOM     86  C   UNL A   1      44.537  34.571  28.675  1.00  0.00     0.148 A 
ATOM     87  C   UNL A   1      46.043  34.844  31.031  1.00  0.00     0.002 A 
ATOM     88  C   UNL A   1      45.182  35.769  28.960  1.00  0.00     0.091 A 
ATOM     89  F   UNL A   1      43.792  34.415  27.571  1.00  0.00    -0.205 F 
ATOM     90  C   UNL A   1      45.928  35.910  30.142  1.00  0.00     0.022 A 
BRANCH  88  91
ATOM     91  S   UNL A   1      45.177  37.162  27.825  1.00  0.00     0.127 S 
ATOM     92  O   UNL A   1      45.690  36.550  26.600  1.00  0.00    -0.237 OA
ATOM     93  O   UNL A   1      43.760  37.521  27.779  1.00  0.00    -0.237 OA
ATOM     94  O   UNL A   1      46.038  38.172  28.426  1.00  0.00    -0.744 OA
ENDBRANCH  88  91
ENDBRANCH  61  84
ENDBRANCH  35  36
ENDBRANCH  27  30
ENDBRANCH  25  26
ENDBRANCH  24  25
ENDBRANCH   1  24
TORSDOF 17
ENDMDL
MODEL 3
REMARK VINA RESULT:     -11.6      5.008      7.170
REMARK SMILES O=C(Cc1csc(Sc2ncnc3c2CCCC3)n1)NCCCCNC(=O)c1ccc(-c2c3nc(c(-c4cccc(S(=O)(=O)[O-])c4F)c4ccc([nH]4)c(-c4cccc(S(=O)(=O)[O-])c4F)c4nc(c(-c5cccc(S(=O)(=O)[O-])c5F)c5ccc2[nH]5)C=C4)C=C3)cc1
REMARK SMILES IDX 22 1 21 2 20 3 1 4 2 5 3 7 4 8 5 9 19 10 6 11 7 12 8 13 9 14
REMARK SMILES IDX 10 15 14 16 11 17 13 18 15 19 12 20 18 21 16 22 17 23 23 24
REMARK SMILES IDX 24 25 25 26 26 27 27 29 28 30 29 31 90 32 30 33 89 34 31 35
REMARK SMILES IDX 32 36 33 37 83 38 34 39 88 40 82 41 84 42 35 43 87 44 81 45
REMARK SMILES IDX 80 46 36 48 68 49 48 50 67 51 49 52 52 53 66 54 85 55 50 56
REMARK SMILES IDX 51 57 65 59 86 60 53 61 37 62 38 63 46 64 39 65 41 66 47 67
REMARK SMILES IDX 40 68 42 69 43 70 44 71 45 72 69 73 70 74 78 75 71 76 73 77
REMARK SMILES IDX 79 78 72 79 74 80 75 81 76 82 77 83 54 84 55 85 63 86 56 87
REMARK SMILES IDX 58 88 64 89 57 90 59 91 60 92 61 93 62 94
REMARK H PARENT 20 6 25 28 84 47 52 58
REMARK Flexibility Score: inf
ROOT
ATOM      1  C   UNL A   1      34.623  22.041  27.556  1.00  0.00     0.023 C 
ENDROOT
BRANCH   1   2
ATOM      2  C   UNL A   1      33.150  22.111  27.953  1.00  0.00     0.116 C 
BRANCH   2   3
ATOM      3  N   UNL A   1      32.280  22.194  26.800  1.00  0.00    -0.356 N 
ATOM      4  O   UNL A   1      31.463  24.300  27.234  1.00  0.00    -0.275 OA
ATOM      5  C   UNL A   1      31.493  23.293  26.531  1.00  0.00     0.226 C 
ATOM      6  H   UNL A   1      32.248  21.430  26.179  1.00  0.00     0.163 HD
BRANCH   5   7
ATOM      7  C   UNL A   1      30.642  23.153  25.285  1.00  0.00     0.157 C 
BRANCH   7   8
ATOM      8  C   UNL A   1      31.439  23.407  24.048  1.00  0.00     0.062 A 
ATOM      9  C   UNL A   1      32.024  22.453  23.236  1.00  0.00     0.092 A 
ATOM     10  N   UNL A   1      31.652  24.718  23.644  1.00  0.00    -0.234 NA
ATOM     11  S   UNL A   1      32.909  23.210  21.985  1.00  0.00    -0.116 S 
ATOM     12  C   UNL A   1      32.465  24.754  22.610  1.00  0.00     0.156 A 
BRANCH  12  13
ATOM     13  S   UNL A   1      33.071  26.210  21.853  1.00  0.00    -0.039 SA
BRANCH  13  14
ATOM     14  C   UNL A   1      32.032  27.463  22.589  1.00  0.00     0.110 A 
ATOM     15  N   UNL A   1      30.846  27.667  21.974  1.00  0.00    -0.229 NA
ATOM     16  C   UNL A   1      32.376  28.063  23.800  1.00  0.00     0.006 A 
ATOM     17  C   UNL A   1      30.011  28.514  22.581  1.00  0.00     0.223 A 
ATOM     18  C   UNL A   1      31.403  28.886  24.359  1.00  0.00     0.048 A 
ATOM     19  C   UNL A   1      33.663  27.775  24.527  1.00  0.00     0.040 C 
ATOM     20  N   UNL A   1      30.228  29.133  23.744  1.00  0.00    -0.241 NA
ATOM     21  C   UNL A   1      31.609  29.581  25.682  1.00  0.00     0.056 C 
ATOM     22  C   UNL A   1      33.960  28.746  25.669  1.00  0.00     0.005 C 
ATOM     23  C   UNL A   1      32.719  28.956  26.523  1.00  0.00     0.007 C 
ENDBRANCH  13  14
ENDBRANCH  12  13
ENDBRANCH   7   8
ENDBRANCH   5   7
ENDBRANCH   2   3
ENDBRANCH   1   2
BRANCH   1  24
ATOM     24  C   UNL A   1      34.882  21.751  26.074  1.00  0.00     0.023 C 
BRANCH  24  25
ATOM     25  C   UNL A   1      36.255  22.165  25.554  1.00  0.00     0.116 C 
BRANCH  25  26
ATOM     26  N   UNL A   1      37.213  21.071  25.559  1.00  0.00    -0.352 N 
ATOM     27  C   UNL A   1      38.557  21.096  25.842  1.00  0.00     0.251 C 
ATOM     28  H   UNL A   1      36.846  20.186  25.329  1.00  0.00     0.163 HD
ATOM     29  O   UNL A   1      39.241  20.092  25.655  1.00  0.00    -0.269 OA
BRANCH  27  30
ATOM     30  C   UNL A   1      39.189  22.337  26.343  1.00  0.00     0.039 A 
ATOM     31  C   UNL A   1      40.373  22.241  27.080  1.00  0.00     0.014 A 
ATOM     32  C   UNL A   1      38.618  23.589  26.093  1.00  0.00     0.014 A 
ATOM     33  C   UNL A   1      41.020  23.403  27.507  1.00  0.00     0.010 A 
ATOM     34  C   UNL A   1      39.297  24.747  26.465  1.00  0.00     0.010 A 
ATOM     35  C   UNL A   1      40.504  24.667  27.174  1.00  0.00    -0.014 A 
BRANCH  35  36
ATOM     36  C   UNL A   1      41.220  25.913  27.551  1.00  0.00     0.031 A 
ATOM     37  C   UNL A   1      40.523  26.980  28.350  1.00  0.00     0.074 A 
ATOM     38  C   UNL A   1      42.479  26.116  27.116  1.00  0.00     0.049 A 
ATOM     39  N   UNL A   1      40.975  28.145  28.737  1.00  0.00    -0.248 NA
ATOM     40  C   UNL A   1      39.131  26.714  28.747  1.00  0.00     0.031 C 
ATOM     41  C   UNL A   1      43.242  25.187  26.282  1.00  0.00     0.029 A 
ATOM     42  N   UNL A   1      43.334  27.175  27.301  1.00  0.00    -0.354 N 
ATOM     43  C   UNL A   1      39.921  28.757  29.403  1.00  0.00     0.074 A 
ATOM     44  C   UNL A   1      38.793  27.855  29.330  1.00  0.00     0.031 C 
ATOM     45  C   UNL A   1      44.458  25.706  26.044  1.00  0.00     0.029 A 
ATOM     46  C   UNL A   1      44.553  27.016  26.684  1.00  0.00     0.049 A 
ATOM     47  H   UNL A   1      43.096  27.973  27.827  1.00  0.00     0.167 HD
ATOM     48  C   UNL A   1      39.904  29.947  30.049  1.00  0.00     0.034 A 
ATOM     49  C   UNL A   1      45.629  27.828  26.641  1.00  0.00     0.034 A 
ATOM     50  C   UNL A   1      41.039  30.821  30.162  1.00  0.00     0.049 A 
ATOM     51  C   UNL A   1      45.590  29.137  27.382  1.00  0.00     0.074 A 
ATOM     52  C   UNL A   1      41.136  32.013  30.858  1.00  0.00     0.029 A 
ATOM     53  N   UNL A   1      42.272  30.603  29.570  1.00  0.00    -0.354 N 
ATOM     54  N   UNL A   1      44.629  29.637  28.122  1.00  0.00    -0.248 NA
ATOM     55  C   UNL A   1      46.792  29.982  27.310  1.00  0.00     0.031 C 
ATOM     56  C   UNL A   1      42.425  32.523  30.673  1.00  0.00     0.029 A 
ATOM     57  C   UNL A   1      43.135  31.640  29.875  1.00  0.00     0.049 A 
ATOM     58  H   UNL A   1      42.501  29.823  29.014  1.00  0.00     0.167 HD
ATOM     59  C   UNL A   1      45.118  30.839  28.622  1.00  0.00     0.074 A 
ATOM     60  C   UNL A   1      46.469  30.981  28.120  1.00  0.00     0.031 C 
ATOM     61  C   UNL A   1      44.495  31.750  29.409  1.00  0.00     0.034 A 
BRANCH  48  62
ATOM     62  C   UNL A   1      38.631  30.343  30.752  1.00  0.00     0.023 A 
ATOM     63  C   UNL A   1      38.459  29.999  32.108  1.00  0.00     0.012 A 
ATOM     64  C   UNL A   1      37.643  31.108  30.101  1.00  0.00     0.148 A 
ATOM     65  C   UNL A   1      37.312  30.386  32.799  1.00  0.00     0.002 A 
ATOM     66  C   UNL A   1      36.523  31.527  30.810  1.00  0.00     0.091 A 
ATOM     67  F   UNL A   1      37.814  31.405  28.804  1.00  0.00    -0.205 F 
ATOM     68  C   UNL A   1      36.352  31.159  32.154  1.00  0.00     0.022 A 
BRANCH  66  69
ATOM     69  S   UNL A   1      35.266  32.590  30.091  1.00  0.00     0.127 S 
ATOM     70  O   UNL A   1      34.743  31.743  29.020  1.00  0.00    -0.237 OA
ATOM     71  O   UNL A   1      34.349  32.789  31.214  1.00  0.00    -0.237 OA
ATOM     72  O   UNL A   1      35.960  33.792  29.654  1.00  0.00    -0.744 OA
ENDBRANCH  66  69
ENDBRANCH  48  62
BRANCH  49  73
ATOM     73  C   UNL A   1      46.864  27.374  25.942  1.00  0.00     0.023 A 
ATOM     74  C   UNL A   1      47.738  26.488  26.602  1.00  0.00     0.012 A 
ATOM     75  C   UNL A   1      47.144  27.753  24.615  1.00  0.00     0.148 A 
ATOM     76  C   UNL A   1      48.875  25.999  25.960  1.00  0.00     0.002 A 
ATOM     77  C   UNL A   1      48.249  27.218  23.961  1.00  0.00     0.091 A 
ATOM     78  F   UNL A   1      46.307  28.607  24.010  1.00  0.00    -0.205 F 
ATOM     79  C   UNL A   1      49.123  26.353  24.636  1.00  0.00     0.022 A 
BRANCH  77  80
ATOM     80  S   UNL A   1      48.569  27.500  22.217  1.00  0.00     0.127 S 
ATOM     81  O   UNL A   1      49.809  28.273  22.263  1.00  0.00    -0.237 OA
ATOM     82  O   UNL A   1      48.712  26.134  21.712  1.00  0.00    -0.237 OA
ATOM     83  O   UNL A   1      47.401  28.209  21.713  1.00  0.00    -0.744 OA
ENDBRANCH  77  80
ENDBRANCH  49  73
BRANCH  61  84
ATOM     84  C   UNL A   1      45.254  32.995  29.790  1.00  0.00     0.023 A 
ATOM     85  C   UNL A   1      46.105  32.968  30.914  1.00  0.00     0.012 A 
ATOM     86  C   UNL A   1      45.221  34.143  28.974  1.00  0.00     0.148 A 
ATOM     87  C   UNL A   1      46.898  34.071  31.229  1.00  0.00     0.002 A 
ATOM     88  C   UNL A   1      46.049  35.221  29.268  1.00  0.00     0.091 A 
ATOM     89  F   UNL A   1      44.393  34.154  27.920  1.00  0.00    -0.205 F 
ATOM     90  C   UNL A   1      46.881  35.190  30.399  1.00  0.00     0.022 A 
BRANCH  88  91
ATOM     91  S   UNL A   1      46.172  36.662  28.201  1.00  0.00     0.127 S 
ATOM     92  O   UNL A   1      44.775  37.085  28.111  1.00  0.00    -0.237 OA
ATOM     93  O   UNL A   1      47.030  37.554  28.982  1.00  0.00    -0.237 OA
ATOM     94  O   UNL A   1      46.763  36.191  26.957  1.00  0.00    -0.744 OA
ENDBRANCH  88  91
ENDBRANCH  61  84
ENDBRANCH  35  36
ENDBRANCH  27  30
ENDBRANCH  25  26
ENDBRANCH  24  25
ENDBRANCH   1  24
TORSDOF 17
ENDMDL
