MODEL 1
REMARK VINA RESULT:     -12.5      0.000      0.000
REMARK SMILES COc1ccc2c(c1)[C@H]([NH2+][C@H]1CCC[C@H](C(=O)NCCCCNC(=O)c3ccc(-c4c5nc(c(-c6cccc(S(=O)(=O)[O-])c6F)c6ccc([nH]6)c(-c6cccc(S(=O)(=O)[O-])c6F)c6nc(c(-c7cccc(S(=O)(=O)[O-])c7F)c7ccc4[nH]7)C=C6)C=C5)cc3)C1)CC2
REMARK SMILES IDX 20 1 19 2 18 3 16 4 17 5 15 7 11 8 12 9 89 10 13 11 14 12
REMARK SMILES IDX 10 13 9 16 3 17 4 18 8 19 5 20 7 21 6 22 91 23 90 24 2 25
REMARK SMILES IDX 1 26 21 27 22 28 23 29 24 30 25 32 26 33 27 34 88 35 28 36
REMARK SMILES IDX 87 37 29 38 30 39 31 40 81 41 32 42 86 43 80 44 82 45 33 46
REMARK SMILES IDX 85 47 79 48 78 49 34 51 66 52 46 53 65 54 47 55 50 56 64 57
REMARK SMILES IDX 83 58 48 59 49 60 63 62 84 63 51 64 35 65 36 66 44 67 37 68
REMARK SMILES IDX 39 69 45 70 38 71 40 72 41 73 42 74 43 75 67 76 68 77 76 78
REMARK SMILES IDX 69 79 71 80 77 81 70 82 72 83 73 84 74 85 75 86 52 87 53 88
REMARK SMILES IDX 61 89 54 90 56 91 62 92 55 93 57 94 58 95 59 96 60 97
REMARK H PARENT 18 6 10 14 10 15 23 31 82 50 50 61
REMARK Flexibility Score: inf
ROOT
ATOM      1  C   UNL A   1      32.246  29.297  23.410  1.00  0.00     0.023 C 
ENDROOT
BRANCH   1   2
ATOM      2  C   UNL A   1      33.601  28.707  23.013  1.00  0.00     0.116 C 
BRANCH   2   3
ATOM      3  N   UNL A   1      33.528  27.808  21.883  1.00  0.00    -0.356 N 
ATOM      4  C   UNL A   1      33.274  26.472  21.828  1.00  0.00     0.223 C 
ATOM      5  O   UNL A   1      33.168  25.958  20.711  1.00  0.00    -0.275 OA
ATOM      6  H   UNL A   1      33.689  28.232  21.009  1.00  0.00     0.163 HD
BRANCH   4   7
ATOM      7  C   UNL A   1      33.105  25.615  23.086  1.00  0.00     0.084 C 
ATOM      8  C   UNL A   1      33.208  23.078  23.738  1.00  0.00     0.183 C 
ATOM      9  C   UNL A   1      31.725  22.990  23.374  1.00  0.00     0.065 C 
ATOM     10  C   UNL A   1      33.830  24.265  22.975  1.00  0.00     0.078 C 
ATOM     11  C   UNL A   1      30.907  24.269  23.541  1.00  0.00     0.007 C 
ATOM     12  C   UNL A   1      31.659  25.598  23.587  1.00  0.00     0.014 C 
BRANCH   8  13
ATOM     13  N   UNL A   1      33.570  22.913  25.162  1.00  0.00    -0.338 N 
ATOM     14  H   UNL A   1      33.718  23.846  25.546  1.00  0.00     0.347 HD
ATOM     15  H   UNL A   1      32.793  22.383  25.558  1.00  0.00     0.347 HD
BRANCH  13  16
ATOM     16  C   UNL A   1      34.738  22.126  25.487  1.00  0.00     0.214 C 
ATOM     17  C   UNL A   1      34.208  18.470  24.532  1.00  0.00     0.119 A 
ATOM     18  C   UNL A   1      35.528  18.046  24.712  1.00  0.00     0.047 A 
ATOM     19  C   UNL A   1      33.877  19.822  24.549  1.00  0.00     0.056 A 
ATOM     20  C   UNL A   1      36.542  18.988  24.908  1.00  0.00     0.008 A 
ATOM     21  C   UNL A   1      34.849  20.727  24.931  1.00  0.00     0.016 A 
ATOM     22  C   UNL A   1      36.190  20.325  25.000  1.00  0.00    -0.038 A 
ATOM     23  C   UNL A   1      37.072  21.513  25.258  1.00  0.00     0.042 C 
ATOM     24  C   UNL A   1      36.088  22.679  25.000  1.00  0.00     0.075 C 
BRANCH  17  25
ATOM     25  O   UNL A   1      33.182  17.572  24.391  1.00  0.00    -0.497 OA
ATOM     26  C   UNL A   1      33.641  16.393  23.719  1.00  0.00     0.278 C 
ENDBRANCH  17  25
ENDBRANCH  13  16
ENDBRANCH   8  13
ENDBRANCH   4   7
ENDBRANCH   2   3
ENDBRANCH   1   2
BRANCH   1  27
ATOM     27  C   UNL A   1      31.859  29.102  24.871  1.00  0.00     0.023 C 
BRANCH  27  28
ATOM     28  C   UNL A   1      32.854  29.670  25.869  1.00  0.00     0.116 C 
BRANCH  28  29
ATOM     29  N   UNL A   1      32.522  31.020  26.303  1.00  0.00    -0.352 N 
ATOM     30  C   UNL A   1      33.205  31.820  27.190  1.00  0.00     0.251 C 
ATOM     31  H   UNL A   1      31.706  31.409  25.913  1.00  0.00     0.163 HD
ATOM     32  O   UNL A   1      32.738  32.893  27.542  1.00  0.00    -0.269 OA
BRANCH  30  33
ATOM     33  C   UNL A   1      34.491  31.338  27.735  1.00  0.00     0.039 A 
ATOM     34  C   UNL A   1      35.504  32.263  27.987  1.00  0.00     0.014 A 
ATOM     35  C   UNL A   1      34.664  29.988  28.051  1.00  0.00     0.014 A 
ATOM     36  C   UNL A   1      36.676  31.838  28.615  1.00  0.00     0.010 A 
ATOM     37  C   UNL A   1      35.790  29.587  28.758  1.00  0.00     0.010 A 
ATOM     38  C   UNL A   1      36.814  30.504  29.034  1.00  0.00    -0.014 A 
BRANCH  38  39
ATOM     39  C   UNL A   1      38.025  30.052  29.763  1.00  0.00     0.031 A 
ATOM     40  C   UNL A   1      38.287  30.532  31.164  1.00  0.00     0.074 A 
ATOM     41  C   UNL A   1      38.924  29.269  29.135  1.00  0.00     0.049 A 
ATOM     42  N   UNL A   1      39.279  30.237  31.963  1.00  0.00    -0.248 NA
ATOM     43  C   UNL A   1      37.327  31.494  31.731  1.00  0.00     0.031 C 
ATOM     44  C   UNL A   1      38.828  28.814  27.745  1.00  0.00     0.029 A 
ATOM     45  N   UNL A   1      40.100  28.725  29.581  1.00  0.00    -0.354 N 
ATOM     46  C   UNL A   1      39.083  31.000  33.108  1.00  0.00     0.074 A 
ATOM     47  C   UNL A   1      37.905  31.807  32.880  1.00  0.00     0.031 C 
ATOM     48  C   UNL A   1      39.883  28.034  27.465  1.00  0.00     0.029 A 
ATOM     49  C   UNL A   1      40.742  27.952  28.641  1.00  0.00     0.049 A 
ATOM     50  H   UNL A   1      40.454  28.873  30.488  1.00  0.00     0.167 HD
ATOM     51  C   UNL A   1      39.794  31.003  34.260  1.00  0.00     0.034 A 
ATOM     52  C   UNL A   1      41.884  27.244  28.727  1.00  0.00     0.034 A 
ATOM     53  C   UNL A   1      40.938  30.163  34.495  1.00  0.00     0.049 A 
ATOM     54  C   UNL A   1      42.631  27.222  30.034  1.00  0.00     0.074 A 
ATOM     55  C   UNL A   1      41.672  30.013  35.657  1.00  0.00     0.029 A 
ATOM     56  N   UNL A   1      41.521  29.340  33.544  1.00  0.00    -0.354 N 
ATOM     57  N   UNL A   1      42.330  27.811  31.167  1.00  0.00    -0.248 NA
ATOM     58  C   UNL A   1      43.851  26.407  30.084  1.00  0.00     0.031 C 
ATOM     59  C   UNL A   1      42.715  29.114  35.401  1.00  0.00     0.029 A 
ATOM     60  C   UNL A   1      42.614  28.686  34.087  1.00  0.00     0.049 A 
ATOM     61  H   UNL A   1      41.203  29.235  32.618  1.00  0.00     0.167 HD
ATOM     62  C   UNL A   1      43.302  27.407  32.075  1.00  0.00     0.074 A 
ATOM     63  C   UNL A   1      44.186  26.506  31.363  1.00  0.00     0.031 C 
ATOM     64  C   UNL A   1      43.458  27.758  33.376  1.00  0.00     0.034 A 
BRANCH  51  65
ATOM     65  C   UNL A   1      39.315  31.908  35.367  1.00  0.00     0.023 A 
ATOM     66  C   UNL A   1      38.364  31.432  36.294  1.00  0.00     0.012 A 
ATOM     67  C   UNL A   1      39.813  33.218  35.502  1.00  0.00     0.148 A 
ATOM     68  C   UNL A   1      37.878  32.260  37.306  1.00  0.00     0.002 A 
ATOM     69  C   UNL A   1      39.360  34.022  36.543  1.00  0.00     0.091 A 
ATOM     70  F   UNL A   1      40.697  33.666  34.599  1.00  0.00    -0.205 F 
ATOM     71  C   UNL A   1      38.382  33.550  37.435  1.00  0.00     0.022 A 
BRANCH  69  72
ATOM     72  S   UNL A   1      40.010  35.669  36.840  1.00  0.00     0.127 S 
ATOM     73  O   UNL A   1      39.328  36.037  38.079  1.00  0.00    -0.237 OA
ATOM     74  O   UNL A   1      41.445  35.415  36.987  1.00  0.00    -0.237 OA
ATOM     75  O   UNL A   1      39.655  36.454  35.666  1.00  0.00    -0.744 OA
ENDBRANCH  69  72
ENDBRANCH  51  65
BRANCH  52  76
ATOM     76  C   UNL A   1      42.328  26.406  27.577  1.00  0.00     0.023 A 
ATOM     77  C   UNL A   1      43.185  26.971  26.611  1.00  0.00     0.012 A 
ATOM     78  C   UNL A   1      41.945  25.058  27.451  1.00  0.00     0.148 A 
ATOM     79  C   UNL A   1      43.629  26.217  25.525  1.00  0.00     0.002 A 
ATOM     80  C   UNL A   1      42.434  24.297  26.394  1.00  0.00     0.091 A 
ATOM     81  F   UNL A   1      41.126  24.542  28.377  1.00  0.00    -0.205 F 
ATOM     82  C   UNL A   1      43.262  24.878  25.421  1.00  0.00     0.022 A 
BRANCH  80  83
ATOM     83  S   UNL A   1      42.119  22.535  26.244  1.00  0.00     0.127 S 
ATOM     84  O   UNL A   1      40.666  22.501  26.099  1.00  0.00    -0.237 OA
ATOM     85  O   UNL A   1      42.868  22.198  25.032  1.00  0.00    -0.237 OA
ATOM     86  O   UNL A   1      42.645  21.935  27.462  1.00  0.00    -0.744 OA
ENDBRANCH  80  83
ENDBRANCH  52  76
BRANCH  64  87
ATOM     87  C   UNL A   1      44.611  27.143  34.126  1.00  0.00     0.023 A 
ATOM     88  C   UNL A   1      45.883  27.746  34.072  1.00  0.00     0.012 A 
ATOM     89  C   UNL A   1      44.423  25.998  34.924  1.00  0.00     0.148 A 
ATOM     90  C   UNL A   1      46.960  27.194  34.766  1.00  0.00     0.002 A 
ATOM     91  C   UNL A   1      45.487  25.483  35.654  1.00  0.00     0.091 A 
ATOM     92  F   UNL A   1      43.210  25.424  34.947  1.00  0.00    -0.205 F 
ATOM     93  C   UNL A   1      46.759  26.070  35.565  1.00  0.00     0.022 A 
BRANCH  91  94
ATOM     94  S   UNL A   1      45.292  24.100  36.785  1.00  0.00     0.127 S 
ATOM     95  O   UNL A   1      44.156  24.536  37.595  1.00  0.00    -0.237 OA
ATOM     96  O   UNL A   1      45.003  22.990  35.876  1.00  0.00    -0.237 OA
ATOM     97  O   UNL A   1      46.562  23.984  37.490  1.00  0.00    -0.744 OA
ENDBRANCH  91  94
ENDBRANCH  64  87
ENDBRANCH  38  39
ENDBRANCH  30  33
ENDBRANCH  28  29
ENDBRANCH  27  28
ENDBRANCH   1  27
TORSDOF 17
ENDMDL
MODEL 2
REMARK VINA RESULT:     -12.5      1.119      1.985
REMARK SMILES COc1ccc2c(c1)[C@H]([NH2+][C@H]1CCC[C@H](C(=O)NCCCCNC(=O)c3ccc(-c4c5nc(c(-c6cccc(S(=O)(=O)[O-])c6F)c6ccc([nH]6)c(-c6cccc(S(=O)(=O)[O-])c6F)c6nc(c(-c7cccc(S(=O)(=O)[O-])c7F)c7ccc4[nH]7)C=C6)C=C5)cc3)C1)CC2
REMARK SMILES IDX 20 1 19 2 18 3 16 4 17 5 15 7 11 8 12 9 89 10 13 11 14 12
REMARK SMILES IDX 10 13 9 16 3 17 4 18 8 19 5 20 7 21 6 22 91 23 90 24 2 25
REMARK SMILES IDX 1 26 21 27 22 28 23 29 24 30 25 32 26 33 27 34 88 35 28 36
REMARK SMILES IDX 87 37 29 38 30 39 31 40 81 41 32 42 86 43 80 44 82 45 33 46
REMARK SMILES IDX 85 47 79 48 78 49 34 51 66 52 46 53 65 54 47 55 50 56 64 57
REMARK SMILES IDX 83 58 48 59 49 60 63 62 84 63 51 64 35 65 36 66 44 67 37 68
REMARK SMILES IDX 39 69 45 70 38 71 40 72 41 73 42 74 43 75 67 76 68 77 76 78
REMARK SMILES IDX 69 79 71 80 77 81 70 82 72 83 73 84 74 85 75 86 52 87 53 88
REMARK SMILES IDX 61 89 54 90 56 91 62 92 55 93 57 94 58 95 59 96 60 97
REMARK H PARENT 18 6 10 14 10 15 23 31 82 50 50 61
REMARK Flexibility Score: inf
ROOT
ATOM      1  C   UNL A   1      31.352  29.210  23.857  1.00  0.00     0.023 C 
ENDROOT
BRANCH   1   2
ATOM      2  C   UNL A   1      31.088  27.799  23.325  1.00  0.00     0.116 C 
BRANCH   2   3
ATOM      3  N   UNL A   1      32.100  27.334  22.403  1.00  0.00    -0.356 N 
ATOM      4  C   UNL A   1      32.976  26.296  22.500  1.00  0.00     0.223 C 
ATOM      5  O   UNL A   1      33.676  26.050  21.514  1.00  0.00    -0.275 OA
ATOM      6  H   UNL A   1      32.167  27.852  21.570  1.00  0.00     0.163 HD
BRANCH   4   7
ATOM      7  C   UNL A   1      33.100  25.439  23.763  1.00  0.00     0.084 C 
ATOM      8  C   UNL A   1      31.581  24.699  25.767  1.00  0.00     0.183 C 
ATOM      9  C   UNL A   1      32.016  25.977  26.486  1.00  0.00     0.065 C 
ATOM     10  C   UNL A   1      31.741  24.913  24.249  1.00  0.00     0.078 C 
ATOM     11  C   UNL A   1      33.397  26.522  26.127  1.00  0.00     0.007 C 
ATOM     12  C   UNL A   1      34.022  26.075  24.807  1.00  0.00     0.014 C 
BRANCH   8  13
ATOM     13  N   UNL A   1      32.040  23.411  26.331  1.00  0.00    -0.338 N 
ATOM     14  H   UNL A   1      32.802  23.620  26.977  1.00  0.00     0.347 HD
ATOM     15  H   UNL A   1      31.201  23.005  26.743  1.00  0.00     0.347 HD
BRANCH  13  16
ATOM     16  C   UNL A   1      32.518  22.394  25.422  1.00  0.00     0.214 C 
ATOM     17  C   UNL A   1      36.279  21.892  25.816  1.00  0.00     0.119 A 
ATOM     18  C   UNL A   1      36.386  20.732  25.043  1.00  0.00     0.047 A 
ATOM     19  C   UNL A   1      35.037  22.401  26.184  1.00  0.00     0.056 A 
ATOM     20  C   UNL A   1      35.232  20.060  24.630  1.00  0.00     0.008 A 
ATOM     21  C   UNL A   1      33.908  21.841  25.617  1.00  0.00     0.016 A 
ATOM     22  C   UNL A   1      34.000  20.618  24.937  1.00  0.00    -0.038 A 
ATOM     23  C   UNL A   1      32.629  20.127  24.569  1.00  0.00     0.042 C 
ATOM     24  C   UNL A   1      31.737  21.068  25.414  1.00  0.00     0.075 C 
BRANCH  17  25
ATOM     25  O   UNL A   1      37.388  22.605  26.191  1.00  0.00    -0.497 OA
ATOM     26  C   UNL A   1      37.275  23.966  25.759  1.00  0.00     0.278 C 
ENDBRANCH  17  25
ENDBRANCH  13  16
ENDBRANCH   8  13
ENDBRANCH   4   7
ENDBRANCH   2   3
ENDBRANCH   1   2
BRANCH   1  27
ATOM     27  C   UNL A   1      31.486  29.313  25.372  1.00  0.00     0.023 C 
BRANCH  27  28
ATOM     28  C   UNL A   1      32.708  30.080  25.849  1.00  0.00     0.116 C 
BRANCH  28  29
ATOM     29  N   UNL A   1      32.393  31.420  26.322  1.00  0.00    -0.352 N 
ATOM     30  C   UNL A   1      33.086  32.185  27.232  1.00  0.00     0.251 C 
ATOM     31  H   UNL A   1      31.584  31.832  25.942  1.00  0.00     0.163 HD
ATOM     32  O   UNL A   1      32.633  33.254  27.615  1.00  0.00    -0.269 OA
BRANCH  30  33
ATOM     33  C   UNL A   1      34.365  31.670  27.763  1.00  0.00     0.039 A 
ATOM     34  C   UNL A   1      35.421  32.561  27.959  1.00  0.00     0.014 A 
ATOM     35  C   UNL A   1      34.493  30.326  28.122  1.00  0.00     0.014 A 
ATOM     36  C   UNL A   1      36.590  32.110  28.574  1.00  0.00     0.010 A 
ATOM     37  C   UNL A   1      35.618  29.904  28.816  1.00  0.00     0.010 A 
ATOM     38  C   UNL A   1      36.685  30.786  29.036  1.00  0.00    -0.014 A 
BRANCH  38  39
ATOM     39  C   UNL A   1      37.894  30.310  29.751  1.00  0.00     0.031 A 
ATOM     40  C   UNL A   1      38.175  30.775  31.154  1.00  0.00     0.074 A 
ATOM     41  C   UNL A   1      38.776  29.519  29.110  1.00  0.00     0.049 A 
ATOM     42  N   UNL A   1      39.168  30.460  31.943  1.00  0.00    -0.248 NA
ATOM     43  C   UNL A   1      37.234  31.747  31.736  1.00  0.00     0.031 C 
ATOM     44  C   UNL A   1      38.663  29.077  27.718  1.00  0.00     0.029 A 
ATOM     45  N   UNL A   1      39.948  28.954  29.543  1.00  0.00    -0.354 N 
ATOM     46  C   UNL A   1      38.993  31.216  33.095  1.00  0.00     0.074 A 
ATOM     47  C   UNL A   1      37.826  32.043  32.883  1.00  0.00     0.031 C 
ATOM     48  C   UNL A   1      39.704  28.283  27.423  1.00  0.00     0.029 A 
ATOM     49  C   UNL A   1      40.571  28.179  28.592  1.00  0.00     0.049 A 
ATOM     50  H   UNL A   1      40.311  29.089  30.448  1.00  0.00     0.167 HD
ATOM     51  C   UNL A   1      39.713  31.199  34.242  1.00  0.00     0.034 A 
ATOM     52  C   UNL A   1      41.703  27.453  28.663  1.00  0.00     0.034 A 
ATOM     53  C   UNL A   1      40.846  30.341  34.461  1.00  0.00     0.049 A 
ATOM     54  C   UNL A   1      42.459  27.410  29.964  1.00  0.00     0.074 A 
ATOM     55  C   UNL A   1      41.587  30.170  35.616  1.00  0.00     0.029 A 
ATOM     56  N   UNL A   1      41.409  29.516  33.499  1.00  0.00    -0.354 N 
ATOM     57  N   UNL A   1      42.176  27.994  31.104  1.00  0.00    -0.248 NA
ATOM     58  C   UNL A   1      43.668  26.576  29.998  1.00  0.00     0.031 C 
ATOM     59  C   UNL A   1      42.614  29.258  35.345  1.00  0.00     0.029 A 
ATOM     60  C   UNL A   1      42.496  28.842  34.028  1.00  0.00     0.049 A 
ATOM     61  H   UNL A   1      41.082  29.424  32.575  1.00  0.00     0.167 HD
ATOM     62  C   UNL A   1      43.149  27.569  32.001  1.00  0.00     0.074 A 
ATOM     63  C   UNL A   1      44.014  26.660  31.275  1.00  0.00     0.031 C 
ATOM     64  C   UNL A   1      43.320  27.906  33.304  1.00  0.00     0.034 A 
BRANCH  51  65
ATOM     65  C   UNL A   1      39.257  32.103  35.359  1.00  0.00     0.023 A 
ATOM     66  C   UNL A   1      38.326  31.624  36.307  1.00  0.00     0.012 A 
ATOM     67  C   UNL A   1      39.755  33.413  35.485  1.00  0.00     0.148 A 
ATOM     68  C   UNL A   1      37.861  32.451  37.329  1.00  0.00     0.002 A 
ATOM     69  C   UNL A   1      39.323  34.216  36.535  1.00  0.00     0.091 A 
ATOM     70  F   UNL A   1      40.618  33.864  34.563  1.00  0.00    -0.205 F 
ATOM     71  C   UNL A   1      38.365  33.742  37.449  1.00  0.00     0.022 A 
BRANCH  69  72
ATOM     72  S   UNL A   1      39.976  35.864  36.819  1.00  0.00     0.127 S 
ATOM     73  O   UNL A   1      41.398  35.588  37.020  1.00  0.00    -0.237 OA
ATOM     74  O   UNL A   1      39.660  36.545  35.562  1.00  0.00    -0.237 OA
ATOM     75  O   UNL A   1      39.264  36.379  37.979  1.00  0.00    -0.744 OA
ENDBRANCH  69  72
ENDBRANCH  51  65
BRANCH  52  76
ATOM     76  C   UNL A   1      42.125  26.618  27.504  1.00  0.00     0.023 A 
ATOM     77  C   UNL A   1      42.870  27.215  26.467  1.00  0.00     0.012 A 
ATOM     78  C   UNL A   1      41.832  25.243  27.434  1.00  0.00     0.148 A 
ATOM     79  C   UNL A   1      43.291  26.465  25.369  1.00  0.00     0.002 A 
ATOM     80  C   UNL A   1      42.299  24.490  26.362  1.00  0.00     0.091 A 
ATOM     81  F   UNL A   1      41.117  24.696  28.427  1.00  0.00    -0.205 F 
ATOM     82  C   UNL A   1      43.014  25.102  25.321  1.00  0.00     0.022 A 
BRANCH  80  83
ATOM     83  S   UNL A   1      42.102  22.707  26.274  1.00  0.00     0.127 S 
ATOM     84  O   UNL A   1      42.805  22.268  27.477  1.00  0.00    -0.237 OA
ATOM     85  O   UNL A   1      40.646  22.563  26.324  1.00  0.00    -0.237 OA
ATOM     86  O   UNL A   1      42.703  22.305  25.010  1.00  0.00    -0.744 OA
ENDBRANCH  80  83
ENDBRANCH  52  76
BRANCH  64  87
ATOM     87  C   UNL A   1      44.470  27.269  34.039  1.00  0.00     0.023 A 
ATOM     88  C   UNL A   1      45.703  27.943  34.132  1.00  0.00     0.012 A 
ATOM     89  C   UNL A   1      44.313  26.025  34.681  1.00  0.00     0.148 A 
ATOM     90  C   UNL A   1      46.776  27.370  34.815  1.00  0.00     0.002 A 
ATOM     91  C   UNL A   1      45.369  25.484  35.404  1.00  0.00     0.091 A 
ATOM     92  F   UNL A   1      43.139  25.387  34.566  1.00  0.00    -0.205 F 
ATOM     93  C   UNL A   1      46.605  26.147  35.461  1.00  0.00     0.022 A 
BRANCH  91  94
ATOM     94  S   UNL A   1      45.203  23.963  36.347  1.00  0.00     0.127 S 
ATOM     95  O   UNL A   1      46.586  23.492  36.398  1.00  0.00    -0.237 OA
ATOM     96  O   UNL A   1      44.676  24.444  37.625  1.00  0.00    -0.237 OA
ATOM     97  O   UNL A   1      44.279  23.127  35.592  1.00  0.00    -0.744 OA
ENDBRANCH  91  94
ENDBRANCH  64  87
ENDBRANCH  38  39
ENDBRANCH  30  33
ENDBRANCH  28  29
ENDBRANCH  27  28
ENDBRANCH   1  27
TORSDOF 17
ENDMDL
MODEL 3
REMARK VINA RESULT:     -12.1      4.689     10.472
REMARK SMILES COc1ccc2c(c1)[C@H]([NH2+][C@H]1CCC[C@H](C(=O)NCCCCNC(=O)c3ccc(-c4c5nc(c(-c6cccc(S(=O)(=O)[O-])c6F)c6ccc([nH]6)c(-c6cccc(S(=O)(=O)[O-])c6F)c6nc(c(-c7cccc(S(=O)(=O)[O-])c7F)c7ccc4[nH]7)C=C6)C=C5)cc3)C1)CC2
REMARK SMILES IDX 20 1 19 2 18 3 16 4 17 5 15 7 11 8 12 9 89 10 13 11 14 12
REMARK SMILES IDX 10 13 9 16 3 17 4 18 8 19 5 20 7 21 6 22 91 23 90 24 2 25
REMARK SMILES IDX 1 26 21 27 22 28 23 29 24 30 25 32 26 33 27 34 88 35 28 36
REMARK SMILES IDX 87 37 29 38 30 39 31 40 81 41 32 42 86 43 80 44 82 45 33 46
REMARK SMILES IDX 85 47 79 48 78 49 34 51 66 52 46 53 65 54 47 55 50 56 64 57
REMARK SMILES IDX 83 58 48 59 49 60 63 62 84 63 51 64 35 65 36 66 44 67 37 68
REMARK SMILES IDX 39 69 45 70 38 71 40 72 41 73 42 74 43 75 67 76 68 77 76 78
REMARK SMILES IDX 69 79 71 80 77 81 70 82 72 83 73 84 74 85 75 86 52 87 53 88
REMARK SMILES IDX 61 89 54 90 56 91 62 92 55 93 57 94 58 95 59 96 60 97
REMARK H PARENT 18 6 10 14 10 15 23 31 82 50 50 61
REMARK Flexibility Score: inf
ROOT
ATOM      1  C   UNL A   1      34.618  20.845  25.414  1.00  0.00     0.023 C 
ENDROOT
BRANCH   1   2
ATOM      2  C   UNL A   1      33.313  20.515  24.685  1.00  0.00     0.116 C 
BRANCH   2   3
ATOM      3  N   UNL A   1      32.130  20.817  25.459  1.00  0.00    -0.356 N 
ATOM      4  C   UNL A   1      31.418  21.971  25.574  1.00  0.00     0.223 C 
ATOM      5  O   UNL A   1      30.374  21.933  26.232  1.00  0.00    -0.275 OA
ATOM      6  H   UNL A   1      31.783  20.065  25.990  1.00  0.00     0.163 HD
BRANCH   4   7
ATOM      7  C   UNL A   1      31.859  23.280  24.913  1.00  0.00     0.084 C 
ATOM      8  C   UNL A   1      31.397  25.846  25.180  1.00  0.00     0.183 C 
ATOM      9  C   UNL A   1      30.210  25.666  24.232  1.00  0.00     0.065 C 
ATOM     10  C   UNL A   1      31.702  24.490  25.847  1.00  0.00     0.078 C 
ATOM     11  C   UNL A   1      30.324  24.538  23.208  1.00  0.00     0.007 C 
ATOM     12  C   UNL A   1      31.324  23.418  23.485  1.00  0.00     0.014 C 
BRANCH   8  13
ATOM     13  N   UNL A   1      32.543  26.643  24.691  1.00  0.00    -0.338 N 
ATOM     14  H   UNL A   1      33.382  26.080  24.830  1.00  0.00     0.347 HD
ATOM     15  H   UNL A   1      32.303  26.860  23.724  1.00  0.00     0.347 HD
BRANCH  13  16
ATOM     16  C   UNL A   1      32.789  27.934  25.294  1.00  0.00     0.214 C 
ATOM     17  C   UNL A   1      30.153  30.461  24.186  1.00  0.00     0.119 A 
ATOM     18  C   UNL A   1      30.486  31.474  25.090  1.00  0.00     0.047 A 
ATOM     19  C   UNL A   1      30.695  29.184  24.303  1.00  0.00     0.056 A 
ATOM     20  C   UNL A   1      31.375  31.210  26.137  1.00  0.00     0.008 A 
ATOM     21  C   UNL A   1      31.710  28.986  25.220  1.00  0.00     0.016 A 
ATOM     22  C   UNL A   1      31.967  29.957  26.198  1.00  0.00    -0.038 A 
ATOM     23  C   UNL A   1      32.981  29.445  27.180  1.00  0.00     0.042 C 
ATOM     24  C   UNL A   1      33.019  27.942  26.815  1.00  0.00     0.075 C 
BRANCH  17  25
ATOM     25  O   UNL A   1      29.328  30.700  23.118  1.00  0.00    -0.497 OA
ATOM     26  C   UNL A   1      28.714  29.482  22.680  1.00  0.00     0.278 C 
ENDBRANCH  17  25
ENDBRANCH  13  16
ENDBRANCH   8  13
ENDBRANCH   4   7
ENDBRANCH   2   3
ENDBRANCH   1   2
BRANCH   1  27
ATOM     27  C   UNL A   1      35.625  21.650  24.601  1.00  0.00     0.023 C 
BRANCH  27  28
ATOM     28  C   UNL A   1      36.861  22.080  25.373  1.00  0.00     0.116 C 
BRANCH  28  29
ATOM     29  N   UNL A   1      37.823  21.003  25.557  1.00  0.00    -0.352 N 
ATOM     30  C   UNL A   1      39.102  21.082  26.061  1.00  0.00     0.251 C 
ATOM     31  H   UNL A   1      37.522  20.106  25.288  1.00  0.00     0.163 HD
ATOM     32  O   UNL A   1      39.833  20.103  26.049  1.00  0.00    -0.269 OA
BRANCH  30  33
ATOM     33  C   UNL A   1      39.581  22.380  26.578  1.00  0.00     0.039 A 
ATOM     34  C   UNL A   1      40.595  22.390  27.537  1.00  0.00     0.014 A 
ATOM     35  C   UNL A   1      39.073  23.577  26.068  1.00  0.00     0.014 A 
ATOM     36  C   UNL A   1      41.140  23.609  27.942  1.00  0.00     0.010 A 
ATOM     37  C   UNL A   1      39.679  24.780  26.403  1.00  0.00     0.010 A 
ATOM     38  C   UNL A   1      40.708  24.811  27.355  1.00  0.00    -0.014 A 
BRANCH  38  39
ATOM     39  C   UNL A   1      41.325  26.108  27.724  1.00  0.00     0.031 A 
ATOM     40  C   UNL A   1      42.735  26.422  27.306  1.00  0.00     0.074 A 
ATOM     41  C   UNL A   1      40.640  26.971  28.500  1.00  0.00     0.049 A 
ATOM     42  N   UNL A   1      43.437  27.504  27.521  1.00  0.00    -0.248 NA
ATOM     43  C   UNL A   1      43.465  25.372  26.575  1.00  0.00     0.031 C 
ATOM     44  C   UNL A   1      39.301  26.740  29.049  1.00  0.00     0.029 A 
ATOM     45  N   UNL A   1      40.981  28.213  28.971  1.00  0.00    -0.354 N 
ATOM     46  C   UNL A   1      44.695  27.253  26.988  1.00  0.00     0.074 A 
ATOM     47  C   UNL A   1      44.676  25.898  26.483  1.00  0.00     0.031 C 
ATOM     48  C   UNL A   1      38.922  27.818  29.752  1.00  0.00     0.029 A 
ATOM     49  C   UNL A   1      39.997  28.805  29.727  1.00  0.00     0.049 A 
ATOM     50  H   UNL A   1      41.848  28.641  28.786  1.00  0.00     0.167 HD
ATOM     51  C   UNL A   1      45.760  28.084  26.893  1.00  0.00     0.034 A 
ATOM     52  C   UNL A   1      39.959  30.015  30.318  1.00  0.00     0.034 A 
ATOM     53  C   UNL A   1      45.756  29.445  27.358  1.00  0.00     0.049 A 
ATOM     54  C   UNL A   1      41.134  30.941  30.155  1.00  0.00     0.074 A 
ATOM     55  C   UNL A   1      46.742  30.404  27.223  1.00  0.00     0.029 A 
ATOM     56  N   UNL A   1      44.715  30.035  28.059  1.00  0.00    -0.354 N 
ATOM     57  N   UNL A   1      42.250  30.751  29.491  1.00  0.00    -0.248 NA
ATOM     58  C   UNL A   1      41.028  32.262  30.789  1.00  0.00     0.031 C 
ATOM     59  C   UNL A   1      46.306  31.570  27.864  1.00  0.00     0.029 A 
ATOM     60  C   UNL A   1      45.038  31.344  28.375  1.00  0.00     0.049 A 
ATOM     61  H   UNL A   1      43.870  29.589  28.296  1.00  0.00     0.167 HD
ATOM     62  C   UNL A   1      42.962  31.940  29.595  1.00  0.00     0.074 A 
ATOM     63  C   UNL A   1      42.139  32.850  30.368  1.00  0.00     0.031 C 
ATOM     64  C   UNL A   1      44.189  32.251  29.107  1.00  0.00     0.034 A 
BRANCH  51  65
ATOM     65  C   UNL A   1      46.995  27.550  26.212  1.00  0.00     0.023 A 
ATOM     66  C   UNL A   1      47.196  27.800  24.837  1.00  0.00     0.012 A 
ATOM     67  C   UNL A   1      47.963  26.820  26.927  1.00  0.00     0.148 A 
ATOM     68  C   UNL A   1      48.312  27.288  24.176  1.00  0.00     0.002 A 
ATOM     69  C   UNL A   1      49.097  26.354  26.272  1.00  0.00     0.091 A 
ATOM     70  F   UNL A   1      47.747  26.569  28.226  1.00  0.00    -0.205 F 
ATOM     71  C   UNL A   1      49.266  26.574  24.894  1.00  0.00     0.022 A 
BRANCH  69  72
ATOM     72  S   UNL A   1      50.420  25.495  27.130  1.00  0.00     0.127 S 
ATOM     73  O   UNL A   1      51.378  25.272  26.048  1.00  0.00    -0.237 OA
ATOM     74  O   UNL A   1      50.842  26.486  28.121  1.00  0.00    -0.237 OA
ATOM     75  O   UNL A   1      49.815  24.298  27.694  1.00  0.00    -0.744 OA
ENDBRANCH  69  72
ENDBRANCH  51  65
BRANCH  52  76
ATOM     76  C   UNL A   1      38.722  30.463  31.018  1.00  0.00     0.023 A 
ATOM     77  C   UNL A   1      38.607  30.247  32.406  1.00  0.00     0.012 A 
ATOM     78  C   UNL A   1      37.685  31.128  30.338  1.00  0.00     0.148 A 
ATOM     79  C   UNL A   1      37.469  30.659  33.099  1.00  0.00     0.002 A 
ATOM     80  C   UNL A   1      36.576  31.583  31.044  1.00  0.00     0.091 A 
ATOM     81  F   UNL A   1      37.812  31.319  29.017  1.00  0.00    -0.205 F 
ATOM     82  C   UNL A   1      36.458  31.336  32.421  1.00  0.00     0.022 A 
BRANCH  80  83
ATOM     83  S   UNL A   1      35.284  32.572  30.284  1.00  0.00     0.127 S 
ATOM     84  O   UNL A   1      36.017  33.777  29.899  1.00  0.00    -0.237 OA
ATOM     85  O   UNL A   1      34.871  31.720  29.168  1.00  0.00    -0.237 OA
ATOM     86  O   UNL A   1      34.269  32.753  31.311  1.00  0.00    -0.744 OA
ENDBRANCH  80  83
ENDBRANCH  52  76
BRANCH  64  87
ATOM     87  C   UNL A   1      44.708  33.640  29.368  1.00  0.00     0.023 A 
ATOM     88  C   UNL A   1      45.405  33.916  30.561  1.00  0.00     0.012 A 
ATOM     89  C   UNL A   1      44.547  34.661  28.411  1.00  0.00     0.148 A 
ATOM     90  C   UNL A   1      45.898  35.197  30.815  1.00  0.00     0.002 A 
ATOM     91  C   UNL A   1      45.085  35.920  28.647  1.00  0.00     0.091 A 
ATOM     92  F   UNL A   1      43.862  34.387  27.290  1.00  0.00    -0.205 F 
ATOM     93  C   UNL A   1      45.748  36.194  29.854  1.00  0.00     0.022 A 
BRANCH  91  94
ATOM     94  S   UNL A   1      45.026  37.232  27.421  1.00  0.00     0.127 S 
ATOM     95  O   UNL A   1      43.620  37.201  27.019  1.00  0.00    -0.237 OA
ATOM     96  O   UNL A   1      45.411  38.408  28.201  1.00  0.00    -0.237 OA
ATOM     97  O   UNL A   1      45.984  36.854  26.390  1.00  0.00    -0.744 OA
ENDBRANCH  91  94
ENDBRANCH  64  87
ENDBRANCH  38  39
ENDBRANCH  30  33
ENDBRANCH  28  29
ENDBRANCH  27  28
ENDBRANCH   1  27
TORSDOF 17
ENDMDL
