MODEL 1
REMARK VINA RESULT:     -13.3      0.000      0.000
REMARK SMILES C[C@H]1N=N[C@H](S/C(=C/c2ccc(-c3cccc(Cl)c3)o2)C(=O)NCCCCNC(=O)c2ccc(-c3c4nc(c(-c5cccc(S(=O)(=O)[O-])c5F)c5ccc([nH]5)c(-c5cccc(S(=O)(=O)[O-])c5F)c5nc(c(-c6cccc(S(=O)(=O)[O-])c6F)c6ccc3[nH]6)C=C5)C=C4)cc2)[NH2+]1
REMARK SMILES IDX 26 1 25 2 24 3 23 4 21 5 22 6 7 8 8 9 6 10 5 11 1 12 2 13
REMARK SMILES IDX 3 14 94 15 4 16 9 19 10 20 20 21 11 22 12 23 13 24 14 25
REMARK SMILES IDX 19 26 15 27 17 28 16 29 18 30 27 31 28 32 29 33 30 35 31 36
REMARK SMILES IDX 32 37 93 38 33 39 92 40 34 41 35 42 36 43 86 44 37 45 91 46
REMARK SMILES IDX 85 47 87 48 38 49 90 50 84 51 83 52 39 54 71 55 51 56 70 57
REMARK SMILES IDX 52 58 55 59 69 60 88 61 53 62 54 63 68 65 89 66 56 67 40 68
REMARK SMILES IDX 41 69 49 70 42 71 44 72 50 73 43 74 45 75 46 76 47 77 48 78
REMARK SMILES IDX 72 79 73 80 81 81 74 82 76 83 82 84 75 85 77 86 78 87 79 88
REMARK SMILES IDX 80 89 57 90 58 91 66 92 59 93 61 94 67 95 60 96 62 97 63 98
REMARK SMILES IDX 64 99 65 100
REMARK H PARENT 23 7 94 17 94 18 28 34 87 53 55 64
REMARK Flexibility Score: inf
ROOT
ATOM      1  C   UNL A   1      36.614  21.999  23.936  1.00  0.00     0.023 C 
ENDROOT
BRANCH   1   2
ATOM      2  C   UNL A   1      35.999  23.393  23.792  1.00  0.00     0.023 C 
BRANCH   2   3
ATOM      3  C   UNL A   1      34.490  23.496  23.962  1.00  0.00     0.116 C 
BRANCH   3   4
ATOM      4  N   UNL A   1      33.690  22.772  23.006  1.00  0.00    -0.352 N 
ATOM      5  C   UNL A   1      32.789  21.769  23.228  1.00  0.00     0.258 C 
ATOM      6  O   UNL A   1      32.061  21.432  22.289  1.00  0.00    -0.269 OA
ATOM      7  H   UNL A   1      33.808  23.036  22.065  1.00  0.00     0.163 HD
BRANCH   5   8
ATOM      8  C   UNL A   1      32.704  21.010  24.535  1.00  0.00     0.084 C 
ATOM      9  C   UNL A   1      31.912  21.321  25.577  1.00  0.00     0.068 C 
BRANCH   8  10
ATOM     10  S   UNL A   1      33.706  19.558  24.481  1.00  0.00    -0.030 SA
BRANCH  10  11
ATOM     11  C   UNL A   1      32.687  18.177  23.870  1.00  0.00     0.393 C 
ATOM     12  C   UNL A   1      32.598  14.926  25.323  1.00  0.00     0.106 C 
ATOM     13  C   UNL A   1      33.194  16.254  24.886  1.00  0.00     0.324 C 
ATOM     14  N   UNL A   1      33.647  16.180  23.488  1.00  0.00    -0.126 NA
ATOM     15  N   UNL A   1      32.195  17.313  24.947  1.00  0.00    -0.293 N 
ATOM     16  N   UNL A   1      33.374  17.269  22.916  1.00  0.00    -0.115 NA
ATOM     17  H   UNL A   1      32.200  17.789  25.849  1.00  0.00     0.350 HD
ATOM     18  H   UNL A   1      31.229  17.003  24.844  1.00  0.00     0.350 HD
ENDBRANCH  10  11
ENDBRANCH   8  10
BRANCH   9  19
ATOM     19  C   UNL A   1      31.240  22.545  25.790  1.00  0.00     0.128 A 
ATOM     20  C   UNL A   1      30.287  22.938  26.716  1.00  0.00     0.051 A 
ATOM     21  O   UNL A   1      31.543  23.640  25.012  1.00  0.00    -0.457 OA
ATOM     22  C   UNL A   1      29.978  24.302  26.456  1.00  0.00     0.051 A 
ATOM     23  C   UNL A   1      30.738  24.677  25.368  1.00  0.00     0.134 A 
BRANCH  23  24
ATOM     24  C   UNL A   1      30.787  25.848  24.498  1.00  0.00     0.019 A 
ATOM     25  C   UNL A   1      29.612  26.508  24.122  1.00  0.00     0.012 A 
ATOM     26  C   UNL A   1      32.001  26.260  23.921  1.00  0.00     0.032 A 
ATOM     27  C   UNL A   1      29.641  27.536  23.172  1.00  0.00     0.002 A 
ATOM     28  C   UNL A   1      32.022  27.271  22.959  1.00  0.00     0.041 A 
ATOM     29  C   UNL A   1      30.846  27.909  22.579  1.00  0.00     0.020 A 
ATOM     30  Cl  UNL A   1      33.510  27.707  22.209  1.00  0.00    -0.084 Cl
ENDBRANCH  23  24
ENDBRANCH   9  19
ENDBRANCH   5   8
ENDBRANCH   3   4
ENDBRANCH   2   3
ENDBRANCH   1   2
BRANCH   1  31
ATOM     31  C   UNL A   1      37.066  21.553  25.326  1.00  0.00     0.116 C 
BRANCH  31  32
ATOM     32  N   UNL A   1      38.172  20.601  25.350  1.00  0.00    -0.352 N 
ATOM     33  C   UNL A   1      39.389  20.683  25.998  1.00  0.00     0.251 C 
ATOM     34  H   UNL A   1      38.029  19.779  24.828  1.00  0.00     0.163 HD
ATOM     35  O   UNL A   1      40.188  19.758  25.974  1.00  0.00    -0.269 OA
BRANCH  33  36
ATOM     36  C   UNL A   1      39.756  21.934  26.681  1.00  0.00     0.039 A 
ATOM     37  C   UNL A   1      40.682  21.873  27.727  1.00  0.00     0.014 A 
ATOM     38  C   UNL A   1      39.269  23.157  26.226  1.00  0.00     0.014 A 
ATOM     39  C   UNL A   1      41.225  23.055  28.230  1.00  0.00     0.010 A 
ATOM     40  C   UNL A   1      39.871  24.326  26.670  1.00  0.00     0.010 A 
ATOM     41  C   UNL A   1      40.875  24.284  27.652  1.00  0.00    -0.014 A 
BRANCH  41  42
ATOM     42  C   UNL A   1      41.575  25.545  28.000  1.00  0.00     0.031 A 
ATOM     43  C   UNL A   1      40.823  26.635  28.704  1.00  0.00     0.074 A 
ATOM     44  C   UNL A   1      42.822  25.764  27.533  1.00  0.00     0.049 A 
ATOM     45  N   UNL A   1      41.162  27.882  28.896  1.00  0.00    -0.248 NA
ATOM     46  C   UNL A   1      39.488  26.288  29.221  1.00  0.00     0.031 C 
ATOM     47  C   UNL A   1      43.625  24.804  26.770  1.00  0.00     0.029 A 
ATOM     48  N   UNL A   1      43.616  26.882  27.591  1.00  0.00    -0.354 N 
ATOM     49  C   UNL A   1      40.062  28.483  29.493  1.00  0.00     0.074 A 
ATOM     50  C   UNL A   1      39.039  27.468  29.618  1.00  0.00     0.031 C 
ATOM     51  C   UNL A   1      44.790  25.376  26.426  1.00  0.00     0.029 A 
ATOM     52  C   UNL A   1      44.803  26.754  26.906  1.00  0.00     0.049 A 
ATOM     53  H   UNL A   1      43.360  27.700  28.077  1.00  0.00     0.167 HD
ATOM     54  C   UNL A   1      39.926  29.760  29.920  1.00  0.00     0.034 A 
ATOM     55  C   UNL A   1      45.782  27.649  26.675  1.00  0.00     0.034 A 
ATOM     56  C   UNL A   1      40.976  30.739  29.856  1.00  0.00     0.049 A 
ATOM     57  C   UNL A   1      45.641  29.038  27.238  1.00  0.00     0.074 A 
ATOM     58  C   UNL A   1      40.974  32.035  30.338  1.00  0.00     0.029 A 
ATOM     59  N   UNL A   1      42.221  30.523  29.287  1.00  0.00    -0.354 N 
ATOM     60  N   UNL A   1      44.645  29.552  27.918  1.00  0.00    -0.248 NA
ATOM     61  C   UNL A   1      46.768  29.960  27.036  1.00  0.00     0.031 C 
ATOM     62  C   UNL A   1      42.221  32.604  30.061  1.00  0.00     0.029 A 
ATOM     63  C   UNL A   1      43.003  31.656  29.417  1.00  0.00     0.049 A 
ATOM     64  H   UNL A   1      42.507  29.687  28.854  1.00  0.00     0.167 HD
ATOM     65  C   UNL A   1      45.041  30.839  28.262  1.00  0.00     0.074 A 
ATOM     66  C   UNL A   1      46.373  31.024  27.724  1.00  0.00     0.031 C 
ATOM     67  C   UNL A   1      44.357  31.787  28.948  1.00  0.00     0.034 A 
BRANCH  54  68
ATOM     68  C   UNL A   1      38.616  30.150  30.548  1.00  0.00     0.023 A 
ATOM     69  C   UNL A   1      38.361  29.799  31.890  1.00  0.00     0.012 A 
ATOM     70  C   UNL A   1      37.656  30.891  29.832  1.00  0.00     0.148 A 
ATOM     71  C   UNL A   1      37.155  30.147  32.498  1.00  0.00     0.002 A 
ATOM     72  C   UNL A   1      36.474  31.271  30.459  1.00  0.00     0.091 A 
ATOM     73  F   UNL A   1      37.904  31.193  28.550  1.00  0.00    -0.205 F 
ATOM     74  C   UNL A   1      36.218  30.891  31.787  1.00  0.00     0.022 A 
BRANCH  72  75
ATOM     75  S   UNL A   1      35.239  32.293  29.650  1.00  0.00     0.127 S 
ATOM     76  O   UNL A   1      34.322  32.578  30.753  1.00  0.00    -0.237 OA
ATOM     77  O   UNL A   1      36.030  33.442  29.205  1.00  0.00    -0.237 OA
ATOM     78  O   UNL A   1      34.694  31.481  28.571  1.00  0.00    -0.744 OA
ENDBRANCH  72  75
ENDBRANCH  54  68
BRANCH  55  79
ATOM     79  C   UNL A   1      47.017  27.237  25.947  1.00  0.00     0.023 A 
ATOM     80  C   UNL A   1      47.115  27.499  24.566  1.00  0.00     0.012 A 
ATOM     81  C   UNL A   1      48.102  26.629  26.607  1.00  0.00     0.148 A 
ATOM     82  C   UNL A   1      48.255  27.135  23.850  1.00  0.00     0.002 A 
ATOM     83  C   UNL A   1      49.257  26.315  25.898  1.00  0.00     0.091 A 
ATOM     84  F   UNL A   1      47.988  26.377  27.919  1.00  0.00    -0.205 F 
ATOM     85  C   UNL A   1      49.329  26.552  24.517  1.00  0.00     0.022 A 
BRANCH  83  86
ATOM     86  S   UNL A   1      50.735  25.682  26.700  1.00  0.00     0.127 S 
ATOM     87  O   UNL A   1      50.237  24.459  27.323  1.00  0.00    -0.237 OA
ATOM     88  O   UNL A   1      51.635  25.474  25.565  1.00  0.00    -0.237 OA
ATOM     89  O   UNL A   1      51.160  26.735  27.613  1.00  0.00    -0.744 OA
ENDBRANCH  83  86
ENDBRANCH  55  79
BRANCH  67  90
ATOM     90  C   UNL A   1      45.049  33.095  29.219  1.00  0.00     0.023 A 
ATOM     91  C   UNL A   1      45.799  33.259  30.399  1.00  0.00     0.012 A 
ATOM     92  C   UNL A   1      45.048  34.115  28.246  1.00  0.00     0.148 A 
ATOM     93  C   UNL A   1      46.527  34.428  30.615  1.00  0.00     0.002 A 
ATOM     94  C   UNL A   1      45.812  35.257  28.448  1.00  0.00     0.091 A 
ATOM     95  F   UNL A   1      44.310  33.942  27.140  1.00  0.00    -0.205 F 
ATOM     96  C   UNL A   1      46.547  35.419  29.634  1.00  0.00     0.022 A 
BRANCH  94  97
ATOM     97  S   UNL A   1      45.970  36.538  27.198  1.00  0.00     0.127 S 
ATOM     98  O   UNL A   1      44.646  37.155  27.235  1.00  0.00    -0.237 OA
ATOM     99  O   UNL A   1      47.047  37.369  27.739  1.00  0.00    -0.237 OA
ATOM    100  O   UNL A   1      46.306  35.849  25.959  1.00  0.00    -0.744 OA
ENDBRANCH  94  97
ENDBRANCH  67  90
ENDBRANCH  41  42
ENDBRANCH  33  36
ENDBRANCH  31  32
ENDBRANCH   1  31
TORSDOF 18
ENDMDL
MODEL 2
REMARK VINA RESULT:     -13.2      0.949      7.628
REMARK SMILES C[C@H]1N=N[C@H](S/C(=C/c2ccc(-c3cccc(Cl)c3)o2)C(=O)NCCCCNC(=O)c2ccc(-c3c4nc(c(-c5cccc(S(=O)(=O)[O-])c5F)c5ccc([nH]5)c(-c5cccc(S(=O)(=O)[O-])c5F)c5nc(c(-c6cccc(S(=O)(=O)[O-])c6F)c6ccc3[nH]6)C=C5)C=C4)cc2)[NH2+]1
REMARK SMILES IDX 26 1 25 2 24 3 23 4 21 5 22 6 7 8 8 9 6 10 5 11 1 12 2 13
REMARK SMILES IDX 3 14 94 15 4 16 9 19 10 20 20 21 11 22 12 23 13 24 14 25
REMARK SMILES IDX 19 26 15 27 17 28 16 29 18 30 27 31 28 32 29 33 30 35 31 36
REMARK SMILES IDX 32 37 93 38 33 39 92 40 34 41 35 42 36 43 86 44 37 45 91 46
REMARK SMILES IDX 85 47 87 48 38 49 90 50 84 51 83 52 39 54 71 55 51 56 70 57
REMARK SMILES IDX 52 58 55 59 69 60 88 61 53 62 54 63 68 65 89 66 56 67 40 68
REMARK SMILES IDX 41 69 49 70 42 71 44 72 50 73 43 74 45 75 46 76 47 77 48 78
REMARK SMILES IDX 72 79 73 80 81 81 74 82 76 83 82 84 75 85 77 86 78 87 79 88
REMARK SMILES IDX 80 89 57 90 58 91 66 92 59 93 61 94 67 95 60 96 62 97 63 98
REMARK SMILES IDX 64 99 65 100
REMARK H PARENT 23 7 94 17 94 18 28 34 87 53 55 64
REMARK Flexibility Score: inf
ROOT
ATOM      1  C   UNL A   1      36.675  21.894  23.902  1.00  0.00     0.023 C 
ENDROOT
BRANCH   1   2
ATOM      2  C   UNL A   1      36.167  23.291  23.538  1.00  0.00     0.023 C 
BRANCH   2   3
ATOM      3  C   UNL A   1      34.677  23.545  23.712  1.00  0.00     0.116 C 
BRANCH   3   4
ATOM      4  N   UNL A   1      33.796  22.761  22.885  1.00  0.00    -0.352 N 
ATOM      5  C   UNL A   1      32.905  21.794  23.257  1.00  0.00     0.258 C 
ATOM      6  O   UNL A   1      32.101  21.396  22.408  1.00  0.00    -0.269 OA
ATOM      7  H   UNL A   1      33.841  22.947  21.919  1.00  0.00     0.163 HD
BRANCH   5   8
ATOM      8  C   UNL A   1      32.917  21.143  24.624  1.00  0.00     0.084 C 
ATOM      9  C   UNL A   1      32.264  21.585  25.714  1.00  0.00     0.068 C 
BRANCH   8  10
ATOM     10  S   UNL A   1      33.817  19.626  24.584  1.00  0.00    -0.030 SA
BRANCH  10  11
ATOM     11  C   UNL A   1      32.698  18.306  24.015  1.00  0.00     0.393 C 
ATOM     12  C   UNL A   1      32.668  14.981  25.293  1.00  0.00     0.106 C 
ATOM     13  C   UNL A   1      33.254  16.317  24.865  1.00  0.00     0.324 C 
ATOM     14  N   UNL A   1      33.551  16.311  23.425  1.00  0.00    -0.126 NA
ATOM     15  N   UNL A   1      32.299  17.394  25.091  1.00  0.00    -0.293 N 
ATOM     16  N   UNL A   1      33.251  17.437  22.944  1.00  0.00    -0.115 NA
ATOM     17  H   UNL A   1      32.414  17.819  26.011  1.00  0.00     0.350 HD
ATOM     18  H   UNL A   1      31.318  17.114  25.078  1.00  0.00     0.350 HD
ENDBRANCH  10  11
ENDBRANCH   8  10
BRANCH   9  19
ATOM     19  C   UNL A   1      31.694  22.865  25.894  1.00  0.00     0.128 A 
ATOM     20  C   UNL A   1      30.388  23.288  26.075  1.00  0.00     0.051 A 
ATOM     21  O   UNL A   1      32.506  23.976  25.963  1.00  0.00    -0.457 OA
ATOM     22  C   UNL A   1      30.413  24.704  26.212  1.00  0.00     0.051 A 
ATOM     23  C   UNL A   1      31.732  25.087  26.087  1.00  0.00     0.134 A 
BRANCH  23  24
ATOM     24  C   UNL A   1      32.429  26.364  25.962  1.00  0.00     0.019 A 
ATOM     25  C   UNL A   1      32.397  27.299  27.002  1.00  0.00     0.012 A 
ATOM     26  C   UNL A   1      33.039  26.730  24.750  1.00  0.00     0.032 A 
ATOM     27  C   UNL A   1      32.935  28.579  26.830  1.00  0.00     0.002 A 
ATOM     28  C   UNL A   1      33.556  28.015  24.575  1.00  0.00     0.041 A 
ATOM     29  C   UNL A   1      33.503  28.944  25.610  1.00  0.00     0.020 A 
ATOM     30  Cl  UNL A   1      34.229  28.467  23.057  1.00  0.00    -0.084 Cl
ENDBRANCH  23  24
ENDBRANCH   9  19
ENDBRANCH   5   8
ENDBRANCH   3   4
ENDBRANCH   2   3
ENDBRANCH   1   2
BRANCH   1  31
ATOM     31  C   UNL A   1      37.118  21.643  25.343  1.00  0.00     0.116 C 
BRANCH  31  32
ATOM     32  N   UNL A   1      38.282  20.777  25.499  1.00  0.00    -0.352 N 
ATOM     33  C   UNL A   1      39.467  21.009  26.169  1.00  0.00     0.251 C 
ATOM     34  H   UNL A   1      38.212  19.898  25.063  1.00  0.00     0.163 HD
ATOM     35  O   UNL A   1      40.325  20.144  26.267  1.00  0.00    -0.269 OA
BRANCH  33  36
ATOM     36  C   UNL A   1      39.727  22.347  26.727  1.00  0.00     0.039 A 
ATOM     37  C   UNL A   1      40.742  22.485  27.678  1.00  0.00     0.014 A 
ATOM     38  C   UNL A   1      39.045  23.460  26.240  1.00  0.00     0.014 A 
ATOM     39  C   UNL A   1      41.169  23.761  28.044  1.00  0.00     0.010 A 
ATOM     40  C   UNL A   1      39.527  24.726  26.542  1.00  0.00     0.010 A 
ATOM     41  C   UNL A   1      40.611  24.887  27.421  1.00  0.00    -0.014 A 
BRANCH  41  42
ATOM     42  C   UNL A   1      41.168  26.250  27.612  1.00  0.00     0.031 A 
ATOM     43  C   UNL A   1      42.579  26.535  27.188  1.00  0.00     0.074 A 
ATOM     44  C   UNL A   1      40.465  27.163  28.313  1.00  0.00     0.049 A 
ATOM     45  N   UNL A   1      43.331  27.567  27.463  1.00  0.00    -0.248 NA
ATOM     46  C   UNL A   1      43.249  25.497  26.386  1.00  0.00     0.031 C 
ATOM     47  C   UNL A   1      39.111  26.971  28.841  1.00  0.00     0.029 A 
ATOM     48  N   UNL A   1      40.809  28.420  28.743  1.00  0.00    -0.354 N 
ATOM     49  C   UNL A   1      44.578  27.275  26.928  1.00  0.00     0.074 A 
ATOM     50  C   UNL A   1      44.487  25.964  26.325  1.00  0.00     0.031 C 
ATOM     51  C   UNL A   1      38.745  28.065  29.528  1.00  0.00     0.029 A 
ATOM     52  C   UNL A   1      39.849  29.019  29.526  1.00  0.00     0.049 A 
ATOM     53  H   UNL A   1      41.664  28.853  28.513  1.00  0.00     0.167 HD
ATOM     54  C   UNL A   1      45.694  28.042  26.920  1.00  0.00     0.034 A 
ATOM     55  C   UNL A   1      39.863  30.195  30.183  1.00  0.00     0.034 A 
ATOM     56  C   UNL A   1      45.751  29.373  27.458  1.00  0.00     0.049 A 
ATOM     57  C   UNL A   1      41.086  31.066  30.082  1.00  0.00     0.074 A 
ATOM     58  C   UNL A   1      46.803  30.269  27.426  1.00  0.00     0.029 A 
ATOM     59  N   UNL A   1      44.705  30.004  28.115  1.00  0.00    -0.354 N 
ATOM     60  N   UNL A   1      42.215  30.830  29.458  1.00  0.00    -0.248 NA
ATOM     61  C   UNL A   1      41.030  32.378  30.744  1.00  0.00     0.031 C 
ATOM     62  C   UNL A   1      46.392  31.446  28.062  1.00  0.00     0.029 A 
ATOM     63  C   UNL A   1      45.080  31.283  28.480  1.00  0.00     0.049 A 
ATOM     64  H   UNL A   1      43.826  29.600  28.294  1.00  0.00     0.167 HD
ATOM     65  C   UNL A   1      42.984  31.976  29.613  1.00  0.00     0.074 A 
ATOM     66  C   UNL A   1      42.190  32.912  30.382  1.00  0.00     0.031 C 
ATOM     67  C   UNL A   1      44.241  32.227  29.171  1.00  0.00     0.034 A 
BRANCH  54  68
ATOM     68  C   UNL A   1      46.921  27.481  26.255  1.00  0.00     0.023 A 
ATOM     69  C   UNL A   1      47.138  27.728  24.883  1.00  0.00     0.012 A 
ATOM     70  C   UNL A   1      47.875  26.747  26.985  1.00  0.00     0.148 A 
ATOM     71  C   UNL A   1      48.267  27.221  24.240  1.00  0.00     0.002 A 
ATOM     72  C   UNL A   1      49.020  26.281  26.347  1.00  0.00     0.091 A 
ATOM     73  F   UNL A   1      47.640  26.501  28.282  1.00  0.00    -0.205 F 
ATOM     74  C   UNL A   1      49.211  26.507  24.974  1.00  0.00     0.022 A 
BRANCH  72  75
ATOM     75  S   UNL A   1      50.329  25.418  27.222  1.00  0.00     0.127 S 
ATOM     76  O   UNL A   1      50.736  26.418  28.207  1.00  0.00    -0.237 OA
ATOM     77  O   UNL A   1      49.620  24.266  27.781  1.00  0.00    -0.237 OA
ATOM     78  O   UNL A   1      51.327  25.082  26.216  1.00  0.00    -0.744 OA
ENDBRANCH  72  75
ENDBRANCH  54  68
BRANCH  55  79
ATOM     79  C   UNL A   1      38.652  30.654  30.922  1.00  0.00     0.023 A 
ATOM     80  C   UNL A   1      38.567  30.417  32.308  1.00  0.00     0.012 A 
ATOM     81  C   UNL A   1      37.608  31.350  30.282  1.00  0.00     0.148 A 
ATOM     82  C   UNL A   1      37.455  30.835  33.037  1.00  0.00     0.002 A 
ATOM     83  C   UNL A   1      36.525  31.810  31.023  1.00  0.00     0.091 A 
ATOM     84  F   UNL A   1      37.699  31.558  28.960  1.00  0.00    -0.205 F 
ATOM     85  C   UNL A   1      36.438  31.539  32.398  1.00  0.00     0.022 A 
BRANCH  83  86
ATOM     86  S   UNL A   1      35.236  32.836  30.307  1.00  0.00     0.127 S 
ATOM     87  O   UNL A   1      36.008  33.954  29.770  1.00  0.00    -0.237 OA
ATOM     88  O   UNL A   1      34.659  31.946  29.298  1.00  0.00    -0.237 OA
ATOM     89  O   UNL A   1      34.336  33.153  31.408  1.00  0.00    -0.744 OA
ENDBRANCH  83  86
ENDBRANCH  55  79
BRANCH  67  90
ATOM     90  C   UNL A   1      44.826  33.585  29.448  1.00  0.00     0.023 A 
ATOM     91  C   UNL A   1      45.544  33.809  30.638  1.00  0.00     0.012 A 
ATOM     92  C   UNL A   1      44.759  34.600  28.472  1.00  0.00     0.148 A 
ATOM     93  C   UNL A   1      46.177  35.031  30.860  1.00  0.00     0.002 A 
ATOM     94  C   UNL A   1      45.429  35.798  28.681  1.00  0.00     0.091 A 
ATOM     95  F   UNL A   1      44.051  34.369  27.357  1.00  0.00    -0.205 F 
ATOM     96  C   UNL A   1      46.133  36.019  29.877  1.00  0.00     0.022 A 
BRANCH  94  97
ATOM     97  S   UNL A   1      45.504  37.086  27.430  1.00  0.00     0.127 S 
ATOM     98  O   UNL A   1      44.097  37.462  27.306  1.00  0.00    -0.237 OA
ATOM     99  O   UNL A   1      46.351  38.093  28.071  1.00  0.00    -0.237 OA
ATOM    100  O   UNL A   1      46.093  36.464  26.252  1.00  0.00    -0.744 OA
ENDBRANCH  94  97
ENDBRANCH  67  90
ENDBRANCH  41  42
ENDBRANCH  33  36
ENDBRANCH  31  32
ENDBRANCH   1  31
TORSDOF 18
ENDMDL
MODEL 3
REMARK VINA RESULT:     -13.1      2.440      4.487
REMARK SMILES C[C@H]1N=N[C@H](S/C(=C/c2ccc(-c3cccc(Cl)c3)o2)C(=O)NCCCCNC(=O)c2ccc(-c3c4nc(c(-c5cccc(S(=O)(=O)[O-])c5F)c5ccc([nH]5)c(-c5cccc(S(=O)(=O)[O-])c5F)c5nc(c(-c6cccc(S(=O)(=O)[O-])c6F)c6ccc3[nH]6)C=C5)C=C4)cc2)[NH2+]1
REMARK SMILES IDX 26 1 25 2 24 3 23 4 21 5 22 6 7 8 8 9 6 10 5 11 1 12 2 13
REMARK SMILES IDX 3 14 94 15 4 16 9 19 10 20 20 21 11 22 12 23 13 24 14 25
REMARK SMILES IDX 19 26 15 27 17 28 16 29 18 30 27 31 28 32 29 33 30 35 31 36
REMARK SMILES IDX 32 37 93 38 33 39 92 40 34 41 35 42 36 43 86 44 37 45 91 46
REMARK SMILES IDX 85 47 87 48 38 49 90 50 84 51 83 52 39 54 71 55 51 56 70 57
REMARK SMILES IDX 52 58 55 59 69 60 88 61 53 62 54 63 68 65 89 66 56 67 40 68
REMARK SMILES IDX 41 69 49 70 42 71 44 72 50 73 43 74 45 75 46 76 47 77 48 78
REMARK SMILES IDX 72 79 73 80 81 81 74 82 76 83 82 84 75 85 77 86 78 87 79 88
REMARK SMILES IDX 80 89 57 90 58 91 66 92 59 93 61 94 67 95 60 96 62 97 63 98
REMARK SMILES IDX 64 99 65 100
REMARK H PARENT 23 7 94 17 94 18 28 34 87 53 55 64
REMARK Flexibility Score: inf
ROOT
ATOM      1  C   UNL A   1      35.638  22.233  23.993  1.00  0.00     0.023 C 
ENDROOT
BRANCH   1   2
ATOM      2  C   UNL A   1      35.320  23.532  23.248  1.00  0.00     0.023 C 
BRANCH   2   3
ATOM      3  C   UNL A   1      34.125  24.332  23.746  1.00  0.00     0.116 C 
BRANCH   3   4
ATOM      4  N   UNL A   1      32.825  23.846  23.355  1.00  0.00    -0.352 N 
ATOM      5  C   UNL A   1      31.608  24.107  23.917  1.00  0.00     0.258 C 
ATOM      6  O   UNL A   1      30.600  23.755  23.296  1.00  0.00    -0.269 OA
ATOM      7  H   UNL A   1      32.812  23.245  22.575  1.00  0.00     0.163 HD
BRANCH   5   8
ATOM      8  C   UNL A   1      31.449  24.730  25.288  1.00  0.00     0.084 C 
ATOM      9  C   UNL A   1      32.030  24.298  26.423  1.00  0.00     0.068 C 
BRANCH   8  10
ATOM     10  S   UNL A   1      30.483  26.204  25.196  1.00  0.00    -0.030 SA
BRANCH  10  11
ATOM     11  C   UNL A   1      31.349  27.395  24.124  1.00  0.00     0.393 C 
ATOM     12  C   UNL A   1      29.740  29.850  22.106  1.00  0.00     0.106 C 
ATOM     13  C   UNL A   1      29.934  28.517  22.811  1.00  0.00     0.324 C 
ATOM     14  N   UNL A   1      30.725  27.603  21.974  1.00  0.00    -0.126 NA
ATOM     15  N   UNL A   1      30.674  28.694  24.053  1.00  0.00    -0.293 N 
ATOM     16  N   UNL A   1      31.516  26.958  22.713  1.00  0.00    -0.115 NA
ATOM     17  H   UNL A   1      30.052  28.843  24.848  1.00  0.00     0.350 HD
ATOM     18  H   UNL A   1      31.293  29.504  24.077  1.00  0.00     0.350 HD
ENDBRANCH  10  11
ENDBRANCH   8  10
BRANCH   9  19
ATOM     19  C   UNL A   1      32.644  23.043  26.631  1.00  0.00     0.128 A 
ATOM     20  C   UNL A   1      33.576  22.602  27.556  1.00  0.00     0.051 A 
ATOM     21  O   UNL A   1      32.291  21.966  25.848  1.00  0.00    -0.457 OA
ATOM     22  C   UNL A   1      33.822  21.226  27.290  1.00  0.00     0.051 A 
ATOM     23  C   UNL A   1      33.046  20.892  26.200  1.00  0.00     0.134 A 
BRANCH  23  24
ATOM     24  C   UNL A   1      32.943  19.728  25.325  1.00  0.00     0.019 A 
ATOM     25  C   UNL A   1      32.749  19.885  23.948  1.00  0.00     0.012 A 
ATOM     26  C   UNL A   1      32.912  18.429  25.862  1.00  0.00     0.032 A 
ATOM     27  C   UNL A   1      32.501  18.778  23.130  1.00  0.00     0.002 A 
ATOM     28  C   UNL A   1      32.644  17.330  25.046  1.00  0.00     0.041 A 
ATOM     29  C   UNL A   1      32.434  17.499  23.681  1.00  0.00     0.020 A 
ATOM     30  Cl  UNL A   1      32.533  15.757  25.737  1.00  0.00    -0.084 Cl
ENDBRANCH  23  24
ENDBRANCH   9  19
ENDBRANCH   5   8
ENDBRANCH   3   4
ENDBRANCH   2   3
ENDBRANCH   1   2
BRANCH   1  31
ATOM     31  C   UNL A   1      36.646  22.290  25.140  1.00  0.00     0.116 C 
BRANCH  31  32
ATOM     32  N   UNL A   1      37.674  21.255  25.123  1.00  0.00    -0.352 N 
ATOM     33  C   UNL A   1      38.889  21.212  25.776  1.00  0.00     0.251 C 
ATOM     34  H   UNL A   1      37.471  20.472  24.564  1.00  0.00     0.163 HD
ATOM     35  O   UNL A   1      39.614  20.229  25.712  1.00  0.00    -0.269 OA
BRANCH  33  36
ATOM     36  C   UNL A   1      39.350  22.399  26.517  1.00  0.00     0.039 A 
ATOM     37  C   UNL A   1      40.353  22.235  27.477  1.00  0.00     0.014 A 
ATOM     38  C   UNL A   1      38.867  23.664  26.193  1.00  0.00     0.014 A 
ATOM     39  C   UNL A   1      40.972  23.361  28.019  1.00  0.00     0.010 A 
ATOM     40  C   UNL A   1      39.540  24.781  26.671  1.00  0.00     0.010 A 
ATOM     41  C   UNL A   1      40.616  24.639  27.563  1.00  0.00    -0.014 A 
BRANCH  41  42
ATOM     42  C   UNL A   1      41.381  25.852  27.943  1.00  0.00     0.031 A 
ATOM     43  C   UNL A   1      40.692  26.952  28.695  1.00  0.00     0.074 A 
ATOM     44  C   UNL A   1      42.631  26.027  27.466  1.00  0.00     0.049 A 
ATOM     45  N   UNL A   1      41.095  28.173  28.925  1.00  0.00    -0.248 NA
ATOM     46  C   UNL A   1      39.349  26.652  29.219  1.00  0.00     0.031 C 
ATOM     47  C   UNL A   1      43.377  25.056  26.660  1.00  0.00     0.029 A 
ATOM     48  N   UNL A   1      43.480  27.102  27.551  1.00  0.00    -0.354 N 
ATOM     49  C   UNL A   1      40.033  28.806  29.558  1.00  0.00     0.074 A 
ATOM     50  C   UNL A   1      38.962  27.838  29.663  1.00  0.00     0.031 C 
ATOM     51  C   UNL A   1      44.564  25.582  26.319  1.00  0.00     0.029 A 
ATOM     52  C   UNL A   1      44.651  26.940  26.845  1.00  0.00     0.049 A 
ATOM     53  H   UNL A   1      43.270  27.914  28.068  1.00  0.00     0.167 HD
ATOM     54  C   UNL A   1      39.964  30.072  30.030  1.00  0.00     0.034 A 
ATOM     55  C   UNL A   1      45.669  27.795  26.631  1.00  0.00     0.034 A 
ATOM     56  C   UNL A   1      41.060  31.001  29.985  1.00  0.00     0.049 A 
ATOM     57  C   UNL A   1      45.603  29.168  27.244  1.00  0.00     0.074 A 
ATOM     58  C   UNL A   1      41.127  32.278  30.511  1.00  0.00     0.029 A 
ATOM     59  N   UNL A   1      42.286  30.745  29.390  1.00  0.00    -0.354 N 
ATOM     60  N   UNL A   1      44.642  29.706  27.954  1.00  0.00    -0.248 NA
ATOM     61  C   UNL A   1      46.771  30.042  27.057  1.00  0.00     0.031 C 
ATOM     62  C   UNL A   1      42.398  32.795  30.236  1.00  0.00     0.029 A 
ATOM     63  C   UNL A   1      43.124  31.834  29.548  1.00  0.00     0.049 A 
ATOM     64  H   UNL A   1      42.525  29.911  28.925  1.00  0.00     0.167 HD
ATOM     65  C   UNL A   1      45.105  30.959  28.337  1.00  0.00     0.074 A 
ATOM     66  C   UNL A   1      46.437  31.098  27.787  1.00  0.00     0.031 C 
ATOM     67  C   UNL A   1      44.477  31.915  29.065  1.00  0.00     0.034 A 
BRANCH  54  68
ATOM     68  C   UNL A   1      38.683  30.503  30.690  1.00  0.00     0.023 A 
ATOM     69  C   UNL A   1      38.499  30.263  32.067  1.00  0.00     0.012 A 
ATOM     70  C   UNL A   1      37.679  31.174  29.964  1.00  0.00     0.148 A 
ATOM     71  C   UNL A   1      37.322  30.651  32.705  1.00  0.00     0.002 A 
ATOM     72  C   UNL A   1      36.526  31.596  30.617  1.00  0.00     0.091 A 
ATOM     73  F   UNL A   1      37.859  31.371  28.651  1.00  0.00    -0.205 F 
ATOM     74  C   UNL A   1      36.341  31.326  31.983  1.00  0.00     0.022 A 
BRANCH  72  75
ATOM     75  S   UNL A   1      35.240  32.538  29.791  1.00  0.00     0.127 S 
ATOM     76  O   UNL A   1      34.770  31.582  28.789  1.00  0.00    -0.237 OA
ATOM     77  O   UNL A   1      34.295  32.794  30.879  1.00  0.00    -0.237 OA
ATOM     78  O   UNL A   1      35.892  33.730  29.266  1.00  0.00    -0.744 OA
ENDBRANCH  72  75
ENDBRANCH  54  68
BRANCH  55  79
ATOM     79  C   UNL A   1      46.873  27.349  25.872  1.00  0.00     0.023 A 
ATOM     80  C   UNL A   1      47.804  26.501  26.505  1.00  0.00     0.012 A 
ATOM     81  C   UNL A   1      47.087  27.721  24.531  1.00  0.00     0.148 A 
ATOM     82  C   UNL A   1      48.940  26.057  25.828  1.00  0.00     0.002 A 
ATOM     83  C   UNL A   1      48.195  27.233  23.845  1.00  0.00     0.091 A 
ATOM     84  F   UNL A   1      46.197  28.537  23.947  1.00  0.00    -0.205 F 
ATOM     85  C   UNL A   1      49.130  26.415  24.497  1.00  0.00     0.022 A 
BRANCH  83  86
ATOM     86  S   UNL A   1      48.449  27.536  22.093  1.00  0.00     0.127 S 
ATOM     87  O   UNL A   1      49.602  28.433  22.109  1.00  0.00    -0.237 OA
ATOM     88  O   UNL A   1      48.722  26.191  21.585  1.00  0.00    -0.237 OA
ATOM     89  O   UNL A   1      47.199  28.112  21.614  1.00  0.00    -0.744 OA
ENDBRANCH  83  86
ENDBRANCH  55  79
BRANCH  67  90
ATOM     90  C   UNL A   1      45.235  33.178  29.370  1.00  0.00     0.023 A 
ATOM     91  C   UNL A   1      46.055  33.243  30.513  1.00  0.00     0.012 A 
ATOM     92  C   UNL A   1      45.222  34.254  28.460  1.00  0.00     0.148 A 
ATOM     93  C   UNL A   1      46.842  34.368  30.753  1.00  0.00     0.002 A 
ATOM     94  C   UNL A   1      46.041  35.353  28.683  1.00  0.00     0.091 A 
ATOM     95  F   UNL A   1      44.416  34.176  27.390  1.00  0.00    -0.205 F 
ATOM     96  C   UNL A   1      46.846  35.415  29.832  1.00  0.00     0.022 A 
BRANCH  94  97
ATOM     97  S   UNL A   1      46.181  36.700  27.502  1.00  0.00     0.127 S 
ATOM     98  O   UNL A   1      47.154  37.571  28.160  1.00  0.00    -0.237 OA
ATOM     99  O   UNL A   1      46.682  36.017  26.309  1.00  0.00    -0.237 OA
ATOM    100  O   UNL A   1      44.840  37.251  27.363  1.00  0.00    -0.744 OA
ENDBRANCH  94  97
ENDBRANCH  67  90
ENDBRANCH  41  42
ENDBRANCH  33  36
ENDBRANCH  31  32
ENDBRANCH   1  31
TORSDOF 18
ENDMDL
