MODEL 1
REMARK VINA RESULT:     -13.4      0.000      0.000
REMARK SMILES O=C(NCCCCNC(=O)c1cc(N2C(=O)[C@H]3[C@@H]4C=C[C@@H]([C@@H]5C[C@H]45)[C@@H]3C2=O)ccc1Cl)c1ccc(-c2c3nc(c(-c4cccc(S(=O)(=O)[O-])c4F)c4ccc([nH]4)c(-c4cccc(S(=O)(=O)[O-])c4F)c4nc(c(-c5cccc(S(=O)(=O)[O-])c5F)c5ccc2[nH]5)C=C4)C=C3)cc1
REMARK SMILES IDX 4 1 3 2 1 3 2 4 32 6 33 7 94 8 34 9 93 10 35 11 36 12 37 13
REMARK SMILES IDX 87 14 38 15 92 16 86 17 88 18 39 19 91 20 85 21 84 22 40 24
REMARK SMILES IDX 72 25 52 26 71 27 53 28 56 29 70 30 89 31 54 32 55 33 69 35
REMARK SMILES IDX 90 36 57 37 41 38 42 39 50 40 43 41 45 42 51 43 44 44 46 45
REMARK SMILES IDX 47 46 48 47 49 48 73 49 74 50 82 51 75 52 77 53 83 54 76 55
REMARK SMILES IDX 78 56 79 57 80 58 81 59 58 60 59 61 67 62 60 63 62 64 68 65
REMARK SMILES IDX 61 66 63 67 64 68 65 69 66 70 5 71 6 72 7 73 8 74 9 75 10 77
REMARK SMILES IDX 11 78 12 79 30 80 13 81 29 82 31 83 28 84 14 85 15 86 26 87
REMARK SMILES IDX 16 88 17 89 25 90 27 91 18 92 21 93 19 94 24 95 20 96 22 97
REMARK SMILES IDX 23 98
REMARK H PARENT 3 5 88 23 56 34 8 76
REMARK Flexibility Score: inf
ROOT
ATOM      1  C   UNL A   1      39.068  20.235  25.752  1.00  0.00     0.116 C 
ENDROOT
BRANCH   1   2
ATOM      2  N   UNL A   1      40.086  19.224  26.008  1.00  0.00    -0.352 N 
ATOM      3  O   UNL A   1      42.177  18.431  26.344  1.00  0.00    -0.269 OA
ATOM      4  C   UNL A   1      41.427  19.399  26.276  1.00  0.00     0.251 C 
ATOM      5  H   UNL A   1      39.774  18.290  25.987  1.00  0.00     0.163 HD
BRANCH   4   6
ATOM      6  C   UNL A   1      41.948  20.774  26.440  1.00  0.00     0.039 A 
ATOM      7  C   UNL A   1      42.017  21.335  27.714  1.00  0.00     0.014 A 
ATOM      8  C   UNL A   1      42.290  21.532  25.318  1.00  0.00     0.014 A 
ATOM      9  C   UNL A   1      42.206  22.701  27.846  1.00  0.00     0.010 A 
ATOM     10  C   UNL A   1      42.624  22.884  25.473  1.00  0.00     0.010 A 
ATOM     11  C   UNL A   1      42.543  23.491  26.734  1.00  0.00    -0.014 A 
BRANCH  11  12
ATOM     12  C   UNL A   1      42.893  24.918  26.971  1.00  0.00     0.031 A 
ATOM     13  C   UNL A   1      41.958  25.873  27.663  1.00  0.00     0.074 A 
ATOM     14  C   UNL A   1      44.120  25.330  26.592  1.00  0.00     0.049 A 
ATOM     15  N   UNL A   1      42.171  27.119  28.003  1.00  0.00    -0.248 NA
ATOM     16  C   UNL A   1      40.615  25.384  28.009  1.00  0.00     0.031 C 
ATOM     17  C   UNL A   1      45.093  24.507  25.863  1.00  0.00     0.029 A 
ATOM     18  N   UNL A   1      44.773  26.519  26.780  1.00  0.00    -0.354 N 
ATOM     19  C   UNL A   1      40.988  27.573  28.576  1.00  0.00     0.074 A 
ATOM     20  C   UNL A   1      40.051  26.470  28.522  1.00  0.00     0.031 C 
ATOM     21  C   UNL A   1      46.232  25.194  25.714  1.00  0.00     0.029 A 
ATOM     22  C   UNL A   1      46.046  26.532  26.260  1.00  0.00     0.049 A 
ATOM     23  H   UNL A   1      44.370  27.290  27.241  1.00  0.00     0.167 HD
ATOM     24  C   UNL A   1      40.716  28.790  29.110  1.00  0.00     0.034 A 
ATOM     25  C   UNL A   1      46.961  27.515  26.197  1.00  0.00     0.034 A 
ATOM     26  C   UNL A   1      41.662  29.876  29.175  1.00  0.00     0.049 A 
ATOM     27  C   UNL A   1      46.634  28.842  26.814  1.00  0.00     0.074 A 
ATOM     28  C   UNL A   1      41.491  31.133  29.730  1.00  0.00     0.029 A 
ATOM     29  N   UNL A   1      42.951  29.841  28.666  1.00  0.00    -0.354 N 
ATOM     30  N   UNL A   1      45.547  29.209  27.447  1.00  0.00    -0.248 NA
ATOM     31  C   UNL A   1      47.668  29.879  26.734  1.00  0.00     0.031 C 
ATOM     32  C   UNL A   1      42.666  31.866  29.532  1.00  0.00     0.029 A 
ATOM     33  C   UNL A   1      43.584  31.054  28.886  1.00  0.00     0.049 A 
ATOM     34  H   UNL A   1      43.357  29.067  28.212  1.00  0.00     0.167 HD
ATOM     35  C   UNL A   1      45.773  30.517  27.856  1.00  0.00     0.074 A 
ATOM     36  C   UNL A   1      47.118  30.856  27.438  1.00  0.00     0.031 C 
ATOM     37  C   UNL A   1      44.935  31.368  28.495  1.00  0.00     0.034 A 
BRANCH  24  38
ATOM     38  C   UNL A   1      39.348  29.012  29.711  1.00  0.00     0.023 A 
ATOM     39  C   UNL A   1      39.098  28.607  31.038  1.00  0.00     0.012 A 
ATOM     40  C   UNL A   1      38.344  29.704  29.002  1.00  0.00     0.148 A 
ATOM     41  C   UNL A   1      37.868  28.865  31.642  1.00  0.00     0.002 A 
ATOM     42  C   UNL A   1      37.135  29.995  29.625  1.00  0.00     0.091 A 
ATOM     43  F   UNL A   1      38.595  30.071  27.738  1.00  0.00    -0.205 F 
ATOM     44  C   UNL A   1      36.892  29.567  30.941  1.00  0.00     0.022 A 
BRANCH  42  45
ATOM     45  S   UNL A   1      35.841  30.963  28.841  1.00  0.00     0.127 S 
ATOM     46  O   UNL A   1      35.105  29.933  28.109  1.00  0.00    -0.237 OA
ATOM     47  O   UNL A   1      35.131  31.516  29.994  1.00  0.00    -0.237 OA
ATOM     48  O   UNL A   1      36.519  31.948  28.011  1.00  0.00    -0.744 OA
ENDBRANCH  42  45
ENDBRANCH  24  38
BRANCH  25  49
ATOM     49  C   UNL A   1      48.266  27.273  25.523  1.00  0.00     0.023 A 
ATOM     50  C   UNL A   1      49.377  26.834  26.268  1.00  0.00     0.012 A 
ATOM     51  C   UNL A   1      48.401  27.452  24.132  1.00  0.00     0.148 A 
ATOM     52  C   UNL A   1      50.606  26.617  25.646  1.00  0.00     0.002 A 
ATOM     53  C   UNL A   1      49.607  27.167  23.509  1.00  0.00     0.091 A 
ATOM     54  F   UNL A   1      47.336  27.885  23.440  1.00  0.00    -0.205 F 
ATOM     55  C   UNL A   1      50.719  26.771  24.266  1.00  0.00     0.022 A 
BRANCH  53  56
ATOM     56  S   UNL A   1      49.785  27.191  21.723  1.00  0.00     0.127 S 
ATOM     57  O   UNL A   1      48.768  26.228  21.309  1.00  0.00    -0.237 OA
ATOM     58  O   UNL A   1      49.481  28.586  21.404  1.00  0.00    -0.237 OA
ATOM     59  O   UNL A   1      51.167  26.809  21.463  1.00  0.00    -0.744 OA
ENDBRANCH  53  56
ENDBRANCH  25  49
BRANCH  37  60
ATOM     60  C   UNL A   1      45.466  32.744  28.804  1.00  0.00     0.023 A 
ATOM     61  C   UNL A   1      46.165  32.973  30.006  1.00  0.00     0.012 A 
ATOM     62  C   UNL A   1      45.288  33.804  27.896  1.00  0.00     0.148 A 
ATOM     63  C   UNL A   1      46.631  34.248  30.324  1.00  0.00     0.002 A 
ATOM     64  C   UNL A   1      45.803  35.060  28.194  1.00  0.00     0.091 A 
ATOM     65  F   UNL A   1      44.604  33.573  26.766  1.00  0.00    -0.205 F 
ATOM     66  C   UNL A   1      46.458  35.288  29.415  1.00  0.00     0.022 A 
BRANCH  64  67
ATOM     67  S   UNL A   1      45.711  36.436  27.043  1.00  0.00     0.127 S 
ATOM     68  O   UNL A   1      46.480  37.462  27.744  1.00  0.00    -0.237 OA
ATOM     69  O   UNL A   1      46.365  35.889  25.854  1.00  0.00    -0.237 OA
ATOM     70  O   UNL A   1      44.293  36.723  26.874  1.00  0.00    -0.744 OA
ENDBRANCH  64  67
ENDBRANCH  37  60
ENDBRANCH  11  12
ENDBRANCH   4   6
ENDBRANCH   1   2
BRANCH   1  71
ATOM     71  C   UNL A   1      37.846  19.695  25.030  1.00  0.00     0.023 C 
BRANCH  71  72
ATOM     72  C   UNL A   1      36.930  20.756  24.433  1.00  0.00     0.023 C 
BRANCH  72  73
ATOM     73  C   UNL A   1      36.726  21.988  25.305  1.00  0.00     0.116 C 
BRANCH  73  74
ATOM     74  N   UNL A   1      35.903  21.723  26.474  1.00  0.00    -0.352 N 
ATOM     75  C   UNL A   1      34.540  21.626  26.554  1.00  0.00     0.252 C 
ATOM     76  H   UNL A   1      36.391  21.598  27.319  1.00  0.00     0.163 HD
ATOM     77  O   UNL A   1      33.975  21.442  27.627  1.00  0.00    -0.269 OA
BRANCH  75  78
ATOM     78  C   UNL A   1      33.727  21.815  25.346  1.00  0.00     0.060 A 
ATOM     79  C   UNL A   1      33.346  23.132  25.050  1.00  0.00     0.042 A 
ATOM     80  C   UNL A   1      33.323  20.751  24.533  1.00  0.00     0.053 A 
ATOM     81  C   UNL A   1      32.537  23.382  23.944  1.00  0.00     0.053 A 
ATOM     82  C   UNL A   1      32.573  21.015  23.387  1.00  0.00     0.023 A 
ATOM     83  Cl  UNL A   1      33.697  19.101  24.877  1.00  0.00    -0.083 Cl
ATOM     84  C   UNL A   1      32.164  22.319  23.108  1.00  0.00     0.028 A 
BRANCH  81  85
ATOM     85  N   UNL A   1      32.170  24.695  23.595  1.00  0.00    -0.250 N 
ATOM     86  C   UNL A   1      31.143  25.391  24.256  1.00  0.00     0.238 C 
ATOM     87  C   UNL A   1      33.000  25.553  22.845  1.00  0.00     0.238 C 
ATOM     88  O   UNL A   1      30.382  25.019  25.133  1.00  0.00    -0.274 OA
ATOM     89  C   UNL A   1      31.196  26.756  23.655  1.00  0.00     0.100 C 
ATOM     90  C   UNL A   1      32.711  26.869  23.467  1.00  0.00     0.100 C 
ATOM     91  O   UNL A   1      33.882  25.299  22.047  1.00  0.00    -0.274 OA
ATOM     92  C   UNL A   1      30.654  28.087  24.201  1.00  0.00     0.028 C 
ATOM     93  C   UNL A   1      33.084  28.324  23.227  1.00  0.00     0.028 C 
ATOM     94  C   UNL A   1      30.751  28.956  22.922  1.00  0.00    -0.026 C 
ATOM     95  C   UNL A   1      31.560  28.808  25.217  1.00  0.00     0.001 C 
ATOM     96  C   UNL A   1      31.996  29.022  22.395  1.00  0.00    -0.026 C 
ATOM     97  C   UNL A   1      32.985  28.969  24.660  1.00  0.00     0.001 C 
ATOM     98  C   UNL A   1      32.720  28.245  25.985  1.00  0.00     0.009 C 
ENDBRANCH  81  85
ENDBRANCH  75  78
ENDBRANCH  73  74
ENDBRANCH  72  73
ENDBRANCH  71  72
ENDBRANCH   1  71
TORSDOF 15
ENDMDL
MODEL 2
REMARK VINA RESULT:     -13.3      6.182     11.515
REMARK SMILES O=C(NCCCCNC(=O)c1cc(N2C(=O)[C@H]3[C@@H]4C=C[C@@H]([C@@H]5C[C@H]45)[C@@H]3C2=O)ccc1Cl)c1ccc(-c2c3nc(c(-c4cccc(S(=O)(=O)[O-])c4F)c4ccc([nH]4)c(-c4cccc(S(=O)(=O)[O-])c4F)c4nc(c(-c5cccc(S(=O)(=O)[O-])c5F)c5ccc2[nH]5)C=C4)C=C3)cc1
REMARK SMILES IDX 4 1 3 2 1 3 2 4 32 6 33 7 94 8 34 9 93 10 35 11 36 12 37 13
REMARK SMILES IDX 87 14 38 15 92 16 86 17 88 18 39 19 91 20 85 21 84 22 40 24
REMARK SMILES IDX 72 25 52 26 71 27 53 28 56 29 70 30 89 31 54 32 55 33 69 35
REMARK SMILES IDX 90 36 57 37 41 38 42 39 50 40 43 41 45 42 51 43 44 44 46 45
REMARK SMILES IDX 47 46 48 47 49 48 73 49 74 50 82 51 75 52 77 53 83 54 76 55
REMARK SMILES IDX 78 56 79 57 80 58 81 59 58 60 59 61 67 62 60 63 62 64 68 65
REMARK SMILES IDX 61 66 63 67 64 68 65 69 66 70 5 71 6 72 7 73 8 74 9 75 10 77
REMARK SMILES IDX 11 78 12 79 30 80 13 81 29 82 31 83 28 84 14 85 15 86 26 87
REMARK SMILES IDX 16 88 17 89 25 90 27 91 18 92 21 93 19 94 24 95 20 96 22 97
REMARK SMILES IDX 23 98
REMARK H PARENT 3 5 88 23 56 34 8 76
REMARK Flexibility Score: inf
ROOT
ATOM      1  C   UNL A   1      32.895  32.568  27.342  1.00  0.00     0.116 C 
ENDROOT
BRANCH   1   2
ATOM      2  N   UNL A   1      32.636  33.963  27.673  1.00  0.00    -0.352 N 
ATOM      3  O   UNL A   1      32.768  35.858  28.901  1.00  0.00    -0.269 OA
ATOM      4  C   UNL A   1      33.192  34.729  28.677  1.00  0.00     0.251 C 
ATOM      5  H   UNL A   1      31.975  34.420  27.106  1.00  0.00     0.163 HD
BRANCH   4   6
ATOM      6  C   UNL A   1      34.277  34.149  29.498  1.00  0.00     0.039 A 
ATOM      7  C   UNL A   1      35.600  34.283  29.082  1.00  0.00     0.014 A 
ATOM      8  C   UNL A   1      33.970  33.403  30.638  1.00  0.00     0.014 A 
ATOM      9  C   UNL A   1      36.580  33.496  29.665  1.00  0.00     0.010 A 
ATOM     10  C   UNL A   1      34.991  32.723  31.314  1.00  0.00     0.010 A 
ATOM     11  C   UNL A   1      36.299  32.728  30.808  1.00  0.00    -0.014 A 
BRANCH  11  12
ATOM     12  C   UNL A   1      37.432  32.036  31.480  1.00  0.00     0.031 A 
ATOM     13  C   UNL A   1      38.210  30.933  30.817  1.00  0.00     0.074 A 
ATOM     14  C   UNL A   1      37.789  32.471  32.706  1.00  0.00     0.049 A 
ATOM     15  N   UNL A   1      39.269  30.301  31.258  1.00  0.00    -0.248 NA
ATOM     16  C   UNL A   1      37.746  30.465  29.502  1.00  0.00     0.031 C 
ATOM     17  C   UNL A   1      37.074  33.499  33.473  1.00  0.00     0.029 A 
ATOM     18  N   UNL A   1      38.842  32.134  33.514  1.00  0.00    -0.354 N 
ATOM     19  C   UNL A   1      39.583  29.347  30.297  1.00  0.00     0.074 A 
ATOM     20  C   UNL A   1      38.589  29.471  29.251  1.00  0.00     0.031 C 
ATOM     21  C   UNL A   1      37.736  33.745  34.609  1.00  0.00     0.029 A 
ATOM     22  C   UNL A   1      38.872  32.838  34.695  1.00  0.00     0.049 A 
ATOM     23  H   UNL A   1      39.511  31.453  33.275  1.00  0.00     0.167 HD
ATOM     24  C   UNL A   1      40.612  28.464  30.282  1.00  0.00     0.034 A 
ATOM     25  C   UNL A   1      39.702  32.753  35.750  1.00  0.00     0.034 A 
ATOM     26  C   UNL A   1      41.606  28.361  31.321  1.00  0.00     0.049 A 
ATOM     27  C   UNL A   1      40.839  31.778  35.691  1.00  0.00     0.074 A 
ATOM     28  C   UNL A   1      42.707  27.523  31.377  1.00  0.00     0.029 A 
ATOM     29  N   UNL A   1      41.621  29.113  32.486  1.00  0.00    -0.354 N 
ATOM     30  N   UNL A   1      41.177  30.964  34.722  1.00  0.00    -0.248 NA
ATOM     31  C   UNL A   1      41.726  31.730  36.860  1.00  0.00     0.031 C 
ATOM     32  C   UNL A   1      43.371  27.749  32.588  1.00  0.00     0.029 A 
ATOM     33  C   UNL A   1      42.706  28.754  33.271  1.00  0.00     0.049 A 
ATOM     34  H   UNL A   1      40.958  29.800  32.722  1.00  0.00     0.167 HD
ATOM     35  C   UNL A   1      42.327  30.318  35.156  1.00  0.00     0.074 A 
ATOM     36  C   UNL A   1      42.650  30.871  36.455  1.00  0.00     0.031 C 
ATOM     37  C   UNL A   1      43.036  29.336  34.547  1.00  0.00     0.034 A 
BRANCH  24  38
ATOM     38  C   UNL A   1      40.750  27.555  29.084  1.00  0.00     0.023 A 
ATOM     39  C   UNL A   1      39.913  26.427  28.968  1.00  0.00     0.012 A 
ATOM     40  C   UNL A   1      41.636  27.865  28.032  1.00  0.00     0.148 A 
ATOM     41  C   UNL A   1      39.970  25.610  27.838  1.00  0.00     0.002 A 
ATOM     42  C   UNL A   1      41.657  27.072  26.890  1.00  0.00     0.091 A 
ATOM     43  F   UNL A   1      42.433  28.935  28.164  1.00  0.00    -0.205 F 
ATOM     44  C   UNL A   1      40.832  25.938  26.796  1.00  0.00     0.022 A 
BRANCH  42  45
ATOM     45  S   UNL A   1      42.671  27.449  25.457  1.00  0.00     0.127 S 
ATOM     46  O   UNL A   1      43.977  27.683  26.073  1.00  0.00    -0.237 OA
ATOM     47  O   UNL A   1      42.577  26.213  24.679  1.00  0.00    -0.237 OA
ATOM     48  O   UNL A   1      42.065  28.614  24.828  1.00  0.00    -0.744 OA
ENDBRANCH  42  45
ENDBRANCH  24  38
BRANCH  25  49
ATOM     49  C   UNL A   1      39.477  33.614  36.943  1.00  0.00     0.023 A 
ATOM     50  C   UNL A   1      39.883  34.962  36.928  1.00  0.00     0.012 A 
ATOM     51  C   UNL A   1      38.834  33.104  38.088  1.00  0.00     0.148 A 
ATOM     52  C   UNL A   1      39.688  35.773  38.047  1.00  0.00     0.002 A 
ATOM     53  C   UNL A   1      38.581  33.934  39.169  1.00  0.00     0.091 A 
ATOM     54  F   UNL A   1      38.468  31.814  38.089  1.00  0.00    -0.205 F 
ATOM     55  C   UNL A   1      39.026  35.264  39.161  1.00  0.00     0.022 A 
BRANCH  53  56
ATOM     56  S   UNL A   1      37.598  33.396  40.573  1.00  0.00     0.127 S 
ATOM     57  O   UNL A   1      37.516  34.620  41.365  1.00  0.00    -0.237 OA
ATOM     58  O   UNL A   1      36.347  32.990  39.931  1.00  0.00    -0.237 OA
ATOM     59  O   UNL A   1      38.345  32.298  41.172  1.00  0.00    -0.744 OA
ENDBRANCH  53  56
ENDBRANCH  25  49
BRANCH  37  60
ATOM     60  C   UNL A   1      44.249  28.820  35.275  1.00  0.00     0.023 A 
ATOM     61  C   UNL A   1      45.525  29.334  34.966  1.00  0.00     0.012 A 
ATOM     62  C   UNL A   1      44.124  27.839  36.277  1.00  0.00     0.148 A 
ATOM     63  C   UNL A   1      46.662  28.842  35.605  1.00  0.00     0.002 A 
ATOM     64  C   UNL A   1      45.256  27.392  36.947  1.00  0.00     0.091 A 
ATOM     65  F   UNL A   1      42.906  27.347  36.544  1.00  0.00    -0.205 F 
ATOM     66  C   UNL A   1      46.527  27.878  36.601  1.00  0.00     0.022 A 
BRANCH  64  67
ATOM     67  S   UNL A   1      45.169  26.223  38.308  1.00  0.00     0.127 S 
ATOM     68  O   UNL A   1      44.324  26.938  39.262  1.00  0.00    -0.237 OA
ATOM     69  O   UNL A   1      44.534  25.064  37.680  1.00  0.00    -0.237 OA
ATOM     70  O   UNL A   1      46.544  26.001  38.735  1.00  0.00    -0.744 OA
ENDBRANCH  64  67
ENDBRANCH  37  60
ENDBRANCH  11  12
ENDBRANCH   4   6
ENDBRANCH   1   2
BRANCH   1  71
ATOM     71  C   UNL A   1      31.770  31.911  26.562  1.00  0.00     0.023 C 
BRANCH  71  72
ATOM     72  C   UNL A   1      31.569  30.428  26.848  1.00  0.00     0.023 C 
BRANCH  72  73
ATOM     73  C   UNL A   1      32.783  29.553  26.566  1.00  0.00     0.116 C 
BRANCH  73  74
ATOM     74  N   UNL A   1      33.301  29.721  25.218  1.00  0.00    -0.352 N 
ATOM     75  C   UNL A   1      32.939  29.058  24.076  1.00  0.00     0.252 C 
ATOM     76  H   UNL A   1      34.005  30.401  25.113  1.00  0.00     0.163 HD
ATOM     77  O   UNL A   1      33.500  29.275  23.008  1.00  0.00    -0.269 OA
BRANCH  75  78
ATOM     78  C   UNL A   1      31.909  28.014  24.139  1.00  0.00     0.060 A 
ATOM     79  C   UNL A   1      32.351  26.717  24.437  1.00  0.00     0.042 A 
ATOM     80  C   UNL A   1      30.556  28.272  23.894  1.00  0.00     0.053 A 
ATOM     81  C   UNL A   1      31.436  25.668  24.470  1.00  0.00     0.053 A 
ATOM     82  C   UNL A   1      29.634  27.231  23.997  1.00  0.00     0.023 A 
ATOM     83  Cl  UNL A   1      29.954  29.828  23.452  1.00  0.00    -0.083 Cl
ATOM     84  C   UNL A   1      30.075  25.934  24.261  1.00  0.00     0.028 A 
BRANCH  81  85
ATOM     85  N   UNL A   1      31.839  24.363  24.806  1.00  0.00    -0.250 N 
ATOM     86  C   UNL A   1      32.433  23.494  23.874  1.00  0.00     0.238 C 
ATOM     87  C   UNL A   1      32.037  23.935  26.135  1.00  0.00     0.238 C 
ATOM     88  O   UNL A   1      32.638  23.644  22.681  1.00  0.00    -0.274 OA
ATOM     89  C   UNL A   1      32.806  22.300  24.688  1.00  0.00     0.100 C 
ATOM     90  C   UNL A   1      33.192  23.016  25.986  1.00  0.00     0.100 C 
ATOM     91  O   UNL A   1      31.559  24.346  27.175  1.00  0.00    -0.274 OA
ATOM     92  C   UNL A   1      33.836  21.198  24.394  1.00  0.00     0.028 C 
ATOM     93  C   UNL A   1      33.986  22.066  26.870  1.00  0.00     0.028 C 
ATOM     94  C   UNL A   1      33.423  20.157  25.465  1.00  0.00    -0.026 C 
ATOM     95  C   UNL A   1      35.297  21.541  24.744  1.00  0.00     0.001 C 
ATOM     96  C   UNL A   1      33.445  20.633  26.731  1.00  0.00    -0.026 C 
ATOM     97  C   UNL A   1      35.408  22.039  26.195  1.00  0.00     0.001 C 
ATOM     98  C   UNL A   1      35.890  22.892  25.017  1.00  0.00     0.009 C 
ENDBRANCH  81  85
ENDBRANCH  75  78
ENDBRANCH  73  74
ENDBRANCH  72  73
ENDBRANCH  71  72
ENDBRANCH   1  71
TORSDOF 15
ENDMDL
MODEL 3
REMARK VINA RESULT:     -13.2      6.118      9.892
REMARK SMILES O=C(NCCCCNC(=O)c1cc(N2C(=O)[C@H]3[C@@H]4C=C[C@@H]([C@@H]5C[C@H]45)[C@@H]3C2=O)ccc1Cl)c1ccc(-c2c3nc(c(-c4cccc(S(=O)(=O)[O-])c4F)c4ccc([nH]4)c(-c4cccc(S(=O)(=O)[O-])c4F)c4nc(c(-c5cccc(S(=O)(=O)[O-])c5F)c5ccc2[nH]5)C=C4)C=C3)cc1
REMARK SMILES IDX 4 1 3 2 1 3 2 4 32 6 33 7 94 8 34 9 93 10 35 11 36 12 37 13
REMARK SMILES IDX 87 14 38 15 92 16 86 17 88 18 39 19 91 20 85 21 84 22 40 24
REMARK SMILES IDX 72 25 52 26 71 27 53 28 56 29 70 30 89 31 54 32 55 33 69 35
REMARK SMILES IDX 90 36 57 37 41 38 42 39 50 40 43 41 45 42 51 43 44 44 46 45
REMARK SMILES IDX 47 46 48 47 49 48 73 49 74 50 82 51 75 52 77 53 83 54 76 55
REMARK SMILES IDX 78 56 79 57 80 58 81 59 58 60 59 61 67 62 60 63 62 64 68 65
REMARK SMILES IDX 61 66 63 67 64 68 65 69 66 70 5 71 6 72 7 73 8 74 9 75 10 77
REMARK SMILES IDX 11 78 12 79 30 80 13 81 29 82 31 83 28 84 14 85 15 86 26 87
REMARK SMILES IDX 16 88 17 89 25 90 27 91 18 92 21 93 19 94 24 95 20 96 22 97
REMARK SMILES IDX 23 98
REMARK H PARENT 3 5 88 23 56 34 8 76
REMARK Flexibility Score: inf
ROOT
ATOM      1  C   UNL A   1      32.952  32.464  27.406  1.00  0.00     0.116 C 
ENDROOT
BRANCH   1   2
ATOM      2  N   UNL A   1      32.604  33.842  27.726  1.00  0.00    -0.352 N 
ATOM      3  O   UNL A   1      32.654  35.768  28.912  1.00  0.00    -0.269 OA
ATOM      4  C   UNL A   1      33.150  34.670  28.685  1.00  0.00     0.251 C 
ATOM      5  H   UNL A   1      31.882  34.236  27.185  1.00  0.00     0.163 HD
BRANCH   4   6
ATOM      6  C   UNL A   1      34.317  34.191  29.458  1.00  0.00     0.039 A 
ATOM      7  C   UNL A   1      35.604  34.488  29.014  1.00  0.00     0.014 A 
ATOM      8  C   UNL A   1      34.129  33.379  30.579  1.00  0.00     0.014 A 
ATOM      9  C   UNL A   1      36.682  33.799  29.545  1.00  0.00     0.010 A 
ATOM     10  C   UNL A   1      35.239  32.797  31.206  1.00  0.00     0.010 A 
ATOM     11  C   UNL A   1      36.523  32.968  30.668  1.00  0.00    -0.014 A 
BRANCH  11  12
ATOM     12  C   UNL A   1      37.745  32.387  31.287  1.00  0.00     0.031 A 
ATOM     13  C   UNL A   1      38.299  32.884  32.595  1.00  0.00     0.074 A 
ATOM     14  C   UNL A   1      38.325  31.343  30.662  1.00  0.00     0.049 A 
ATOM     15  N   UNL A   1      39.308  32.414  33.285  1.00  0.00    -0.248 NA
ATOM     16  C   UNL A   1      37.657  34.057  33.208  1.00  0.00     0.031 C 
ATOM     17  C   UNL A   1      37.909  30.808  29.359  1.00  0.00     0.029 A 
ATOM     18  N   UNL A   1      39.362  30.529  31.032  1.00  0.00    -0.354 N 
ATOM     19  C   UNL A   1      39.442  33.243  34.393  1.00  0.00     0.074 A 
ATOM     20  C   UNL A   1      38.418  34.260  34.276  1.00  0.00     0.031 C 
ATOM     21  C   UNL A   1      38.643  29.729  29.067  1.00  0.00     0.029 A 
ATOM     22  C   UNL A   1      39.637  29.542  30.115  1.00  0.00     0.049 A 
ATOM     23  H   UNL A   1      39.863  30.640  31.872  1.00  0.00     0.167 HD
ATOM     24  C   UNL A   1      40.326  33.154  35.417  1.00  0.00     0.034 A 
ATOM     25  C   UNL A   1      40.598  28.601  30.096  1.00  0.00     0.034 A 
ATOM     26  C   UNL A   1      41.331  32.127  35.533  1.00  0.00     0.049 A 
ATOM     27  C   UNL A   1      41.547  28.520  31.254  1.00  0.00     0.074 A 
ATOM     28  C   UNL A   1      42.248  31.932  36.552  1.00  0.00     0.029 A 
ATOM     29  N   UNL A   1      41.559  31.126  34.600  1.00  0.00    -0.354 N 
ATOM     30  N   UNL A   1      41.581  29.249  32.342  1.00  0.00    -0.248 NA
ATOM     31  C   UNL A   1      42.569  27.470  31.195  1.00  0.00     0.031 C 
ATOM     32  C   UNL A   1      43.046  30.831  36.222  1.00  0.00     0.029 A 
ATOM     33  C   UNL A   1      42.604  30.316  35.015  1.00  0.00     0.049 A 
ATOM     34  H   UNL A   1      41.052  31.009  33.764  1.00  0.00     0.167 HD
ATOM     35  C   UNL A   1      42.620  28.735  33.107  1.00  0.00     0.074 A 
ATOM     36  C   UNL A   1      43.155  27.604  32.375  1.00  0.00     0.031 C 
ATOM     37  C   UNL A   1      43.105  29.173  34.294  1.00  0.00     0.034 A 
BRANCH  24  38
ATOM     38  C   UNL A   1      40.230  34.171  36.529  1.00  0.00     0.023 A 
ATOM     39  C   UNL A   1      40.588  35.511  36.278  1.00  0.00     0.012 A 
ATOM     40  C   UNL A   1      39.697  33.825  37.789  1.00  0.00     0.148 A 
ATOM     41  C   UNL A   1      40.441  36.485  37.266  1.00  0.00     0.002 A 
ATOM     42  C   UNL A   1      39.513  34.809  38.754  1.00  0.00     0.091 A 
ATOM     43  F   UNL A   1      39.372  32.545  38.014  1.00  0.00    -0.205 F 
ATOM     44  C   UNL A   1      39.894  36.138  38.498  1.00  0.00     0.022 A 
BRANCH  42  45
ATOM     45  S   UNL A   1      38.743  34.486  40.344  1.00  0.00     0.127 S 
ATOM     46  O   UNL A   1      39.796  33.741  41.035  1.00  0.00    -0.237 OA
ATOM     47  O   UNL A   1      38.517  35.837  40.857  1.00  0.00    -0.237 OA
ATOM     48  O   UNL A   1      37.532  33.729  40.061  1.00  0.00    -0.744 OA
ENDBRANCH  42  45
ENDBRANCH  24  38
BRANCH  25  49
ATOM     49  C   UNL A   1      40.704  27.671  28.938  1.00  0.00     0.023 A 
ATOM     50  C   UNL A   1      39.822  26.580  28.825  1.00  0.00     0.012 A 
ATOM     51  C   UNL A   1      41.665  27.884  27.930  1.00  0.00     0.148 A 
ATOM     52  C   UNL A   1      39.922  25.696  27.750  1.00  0.00     0.002 A 
ATOM     53  C   UNL A   1      41.713  27.043  26.828  1.00  0.00     0.091 A 
ATOM     54  F   UNL A   1      42.505  28.921  28.062  1.00  0.00    -0.205 F 
ATOM     55  C   UNL A   1      40.857  25.934  26.746  1.00  0.00     0.022 A 
BRANCH  53  56
ATOM     56  S   UNL A   1      42.781  27.374  25.424  1.00  0.00     0.127 S 
ATOM     57  O   UNL A   1      44.063  27.620  26.076  1.00  0.00    -0.237 OA
ATOM     58  O   UNL A   1      42.698  26.118  24.676  1.00  0.00    -0.237 OA
ATOM     59  O   UNL A   1      42.183  28.514  24.740  1.00  0.00    -0.744 OA
ENDBRANCH  53  56
ENDBRANCH  25  49
BRANCH  37  60
ATOM     60  C   UNL A   1      44.258  28.406  34.885  1.00  0.00     0.023 A 
ATOM     61  C   UNL A   1      45.581  28.814  34.622  1.00  0.00     0.012 A 
ATOM     62  C   UNL A   1      44.032  27.290  35.713  1.00  0.00     0.148 A 
ATOM     63  C   UNL A   1      46.661  28.094  35.130  1.00  0.00     0.002 A 
ATOM     64  C   UNL A   1      45.112  26.610  36.260  1.00  0.00     0.091 A 
ATOM     65  F   UNL A   1      42.768  26.904  35.936  1.00  0.00    -0.205 F 
ATOM     66  C   UNL A   1      46.427  26.998  35.956  1.00  0.00     0.022 A 
BRANCH  64  67
ATOM     67  S   UNL A   1      44.907  25.245  37.410  1.00  0.00     0.127 S 
ATOM     68  O   UNL A   1      44.127  25.869  38.477  1.00  0.00    -0.237 OA
ATOM     69  O   UNL A   1      44.170  24.270  36.605  1.00  0.00    -0.237 OA
ATOM     70  O   UNL A   1      46.252  24.827  37.782  1.00  0.00    -0.744 OA
ENDBRANCH  64  67
ENDBRANCH  37  60
ENDBRANCH  11  12
ENDBRANCH   4   6
ENDBRANCH   1   2
BRANCH   1  71
ATOM     71  C   UNL A   1      31.878  31.736  26.617  1.00  0.00     0.023 C 
BRANCH  71  72
ATOM     72  C   UNL A   1      31.771  30.243  26.902  1.00  0.00     0.023 C 
BRANCH  72  73
ATOM     73  C   UNL A   1      33.017  29.436  26.561  1.00  0.00     0.116 C 
BRANCH  73  74
ATOM     74  N   UNL A   1      33.451  29.621  25.185  1.00  0.00    -0.352 N 
ATOM     75  C   UNL A   1      33.002  28.990  24.056  1.00  0.00     0.252 C 
ATOM     76  H   UNL A   1      34.162  30.288  25.049  1.00  0.00     0.163 HD
ATOM     77  O   UNL A   1      33.498  29.217  22.959  1.00  0.00    -0.269 OA
BRANCH  75  78
ATOM     78  C   UNL A   1      31.955  27.968  24.165  1.00  0.00     0.060 A 
ATOM     79  C   UNL A   1      32.384  26.659  24.432  1.00  0.00     0.042 A 
ATOM     80  C   UNL A   1      30.596  28.255  23.992  1.00  0.00     0.053 A 
ATOM     81  C   UNL A   1      31.450  25.629  24.505  1.00  0.00     0.053 A 
ATOM     82  C   UNL A   1      29.659  27.233  24.136  1.00  0.00     0.023 A 
ATOM     83  Cl  UNL A   1      30.005  29.827  23.592  1.00  0.00    -0.083 Cl
ATOM     84  C   UNL A   1      30.085  25.925  24.369  1.00  0.00     0.028 A 
BRANCH  81  85
ATOM     85  N   UNL A   1      31.842  24.313  24.812  1.00  0.00    -0.250 N 
ATOM     86  C   UNL A   1      32.435  23.464  23.861  1.00  0.00     0.238 C 
ATOM     87  C   UNL A   1      32.029  23.852  26.130  1.00  0.00     0.238 C 
ATOM     88  O   UNL A   1      32.647  23.641  22.674  1.00  0.00    -0.274 OA
ATOM     89  C   UNL A   1      32.795  22.248  24.649  1.00  0.00     0.100 C 
ATOM     90  C   UNL A   1      33.179  22.928  25.965  1.00  0.00     0.100 C 
ATOM     91  O   UNL A   1      31.548  24.241  27.178  1.00  0.00    -0.274 OA
ATOM     92  C   UNL A   1      33.819  21.145  24.333  1.00  0.00     0.028 C 
ATOM     93  C   UNL A   1      33.961  21.952  26.830  1.00  0.00     0.028 C 
ATOM     94  C   UNL A   1      33.393  20.082  25.376  1.00  0.00    -0.026 C 
ATOM     95  C   UNL A   1      35.280  21.470  24.699  1.00  0.00     0.001 C 
ATOM     96  C   UNL A   1      33.412  20.527  26.654  1.00  0.00    -0.026 C 
ATOM     97  C   UNL A   1      35.387  21.931  26.162  1.00  0.00     0.001 C 
ATOM     98  C   UNL A   1      35.881  22.809  25.008  1.00  0.00     0.009 C 
ENDBRANCH  81  85
ENDBRANCH  75  78
ENDBRANCH  73  74
ENDBRANCH  72  73
ENDBRANCH  71  72
ENDBRANCH   1  71
TORSDOF 15
ENDMDL
