MODEL 1
REMARK VINA RESULT:     -11.8      0.000      0.000
REMARK SMILES O=C(NCCCCNC(=O)[C@@H]1CC[C@@H](CS(=O)(=O)c2cccc(F)c2)O1)c1ccc(-c2c3nc(c(-c4cccc(S(=O)(=O)[O-])c4F)c4ccc([nH]4)c(-c4cccc(S(=O)(=O)[O-])c4F)c4nc(c(-c5cccc(S(=O)(=O)[O-])c5F)c5ccc2[nH]5)C=C4)C=C3)cc1
REMARK SMILES IDX 5 1 4 2 3 3 1 4 2 5 27 7 28 8 89 9 29 10 88 11 30 12 31 13
REMARK SMILES IDX 32 14 82 15 33 16 87 17 81 18 83 19 34 20 86 21 80 22 79 23
REMARK SMILES IDX 35 25 67 26 47 27 66 28 48 29 51 30 65 31 84 32 49 33 50 34
REMARK SMILES IDX 64 36 85 37 52 38 36 39 37 40 45 41 38 42 40 43 46 44 39 45
REMARK SMILES IDX 41 46 42 47 43 48 44 49 68 50 69 51 77 52 70 53 72 54 78 55
REMARK SMILES IDX 71 56 73 57 74 58 75 59 76 60 53 61 54 62 62 63 55 64 57 65
REMARK SMILES IDX 63 66 56 67 58 68 59 69 60 70 61 71 6 72 7 73 8 74 9 75
REMARK SMILES IDX 10 77 11 78 12 79 26 80 13 81 14 82 15 83 16 84 17 85 18 86
REMARK SMILES IDX 19 87 20 88 25 89 21 90 23 91 22 92 24 93
REMARK H PARENT 3 6 83 24 51 35 8 76
REMARK Flexibility Score: inf
ROOT
ATOM      1  C   UNL A   1      31.685  28.549  26.655  1.00  0.00     0.023 C 
ENDROOT
BRANCH   1   2
ATOM      2  C   UNL A   1      32.924  29.408  26.431  1.00  0.00     0.116 C 
BRANCH   2   3
ATOM      3  N   UNL A   1      32.677  30.830  26.614  1.00  0.00    -0.352 N 
ATOM      4  O   UNL A   1      33.020  32.885  27.478  1.00  0.00    -0.269 OA
ATOM      5  C   UNL A   1      33.431  31.741  27.315  1.00  0.00     0.251 C 
ATOM      6  H   UNL A   1      31.866  31.184  26.181  1.00  0.00     0.163 HD
BRANCH   5   7
ATOM      7  C   UNL A   1      34.720  31.311  27.901  1.00  0.00     0.039 A 
ATOM      8  C   UNL A   1      34.874  30.014  28.393  1.00  0.00     0.014 A 
ATOM      9  C   UNL A   1      35.773  32.227  27.984  1.00  0.00     0.014 A 
ATOM     10  C   UNL A   1      36.027  29.674  29.090  1.00  0.00     0.010 A 
ATOM     11  C   UNL A   1      36.965  31.856  28.613  1.00  0.00     0.010 A 
ATOM     12  C   UNL A   1      37.090  30.587  29.198  1.00  0.00    -0.014 A 
BRANCH  12  13
ATOM     13  C   UNL A   1      38.350  30.152  29.850  1.00  0.00     0.031 A 
ATOM     14  C   UNL A   1      38.723  30.605  31.232  1.00  0.00     0.074 A 
ATOM     15  C   UNL A   1      39.158  29.312  29.172  1.00  0.00     0.049 A 
ATOM     16  N   UNL A   1      39.755  30.258  31.956  1.00  0.00    -0.248 NA
ATOM     17  C   UNL A   1      37.834  31.578  31.887  1.00  0.00     0.031 C 
ATOM     18  C   UNL A   1      38.916  28.847  27.804  1.00  0.00     0.029 A 
ATOM     19  N   UNL A   1      40.326  28.694  29.533  1.00  0.00    -0.354 N 
ATOM     20  C   UNL A   1      39.664  30.990  33.132  1.00  0.00     0.074 A 
ATOM     21  C   UNL A   1      38.477  31.810  33.027  1.00  0.00     0.031 C 
ATOM     22  C   UNL A   1      39.880  27.984  27.457  1.00  0.00     0.029 A 
ATOM     23  C   UNL A   1      40.834  27.872  28.555  1.00  0.00     0.049 A 
ATOM     24  H   UNL A   1      40.758  28.826  30.407  1.00  0.00     0.167 HD
ATOM     25  C   UNL A   1      40.488  30.964  34.207  1.00  0.00     0.034 A 
ATOM     26  C   UNL A   1      41.945  27.111  28.537  1.00  0.00     0.034 A 
ATOM     27  C   UNL A   1      41.642  30.111  34.319  1.00  0.00     0.049 A 
ATOM     28  C   UNL A   1      42.816  27.069  29.757  1.00  0.00     0.074 A 
ATOM     29  C   UNL A   1      42.498  29.964  35.397  1.00  0.00     0.029 A 
ATOM     30  N   UNL A   1      42.107  29.266  33.323  1.00  0.00    -0.354 N 
ATOM     31  N   UNL A   1      42.645  27.674  30.908  1.00  0.00    -0.248 NA
ATOM     32  C   UNL A   1      44.017  26.226  29.693  1.00  0.00     0.031 C 
ATOM     33  C   UNL A   1      43.490  29.043  35.046  1.00  0.00     0.029 A 
ATOM     34  C   UNL A   1      43.242  28.602  33.756  1.00  0.00     0.049 A 
ATOM     35  H   UNL A   1      41.691  29.155  32.438  1.00  0.00     0.167 HD
ATOM     36  C   UNL A   1      43.706  27.277  31.710  1.00  0.00     0.074 A 
ATOM     37  C   UNL A   1      44.503  26.359  30.921  1.00  0.00     0.031 C 
ATOM     38  C   UNL A   1      44.002  27.657  32.977  1.00  0.00     0.034 A 
BRANCH  25  39
ATOM     39  C   UNL A   1      40.151  31.844  35.383  1.00  0.00     0.023 A 
ATOM     40  C   UNL A   1      40.741  33.120  35.484  1.00  0.00     0.012 A 
ATOM     41  C   UNL A   1      39.180  31.456  36.327  1.00  0.00     0.148 A 
ATOM     42  C   UNL A   1      40.383  33.989  36.515  1.00  0.00     0.002 A 
ATOM     43  C   UNL A   1      38.801  32.341  37.330  1.00  0.00     0.091 A 
ATOM     44  F   UNL A   1      38.645  30.229  36.229  1.00  0.00    -0.205 F 
ATOM     45  C   UNL A   1      39.406  33.605  37.428  1.00  0.00     0.022 A 
BRANCH  43  46
ATOM     46  S   UNL A   1      37.494  31.967  38.506  1.00  0.00     0.127 S 
ATOM     47  O   UNL A   1      38.165  32.215  39.781  1.00  0.00    -0.237 OA
ATOM     48  O   UNL A   1      36.467  32.950  38.156  1.00  0.00    -0.237 OA
ATOM     49  O   UNL A   1      37.116  30.584  38.252  1.00  0.00    -0.744 OA
ENDBRANCH  43  46
ENDBRANCH  25  39
BRANCH  26  50
ATOM     50  C   UNL A   1      42.226  26.279  27.334  1.00  0.00     0.023 A 
ATOM     51  C   UNL A   1      42.976  26.825  26.277  1.00  0.00     0.012 A 
ATOM     52  C   UNL A   1      41.869  24.916  27.295  1.00  0.00     0.148 A 
ATOM     53  C   UNL A   1      43.369  26.029  25.202  1.00  0.00     0.002 A 
ATOM     54  C   UNL A   1      42.317  24.114  26.251  1.00  0.00     0.091 A 
ATOM     55  F   UNL A   1      41.142  24.421  28.306  1.00  0.00    -0.205 F 
ATOM     56  C   UNL A   1      43.056  24.672  25.198  1.00  0.00     0.022 A 
BRANCH  54  57
ATOM     57  S   UNL A   1      42.107  22.330  26.252  1.00  0.00     0.127 S 
ATOM     58  O   UNL A   1      42.718  21.958  27.527  1.00  0.00    -0.237 OA
ATOM     59  O   UNL A   1      40.651  22.197  26.203  1.00  0.00    -0.237 OA
ATOM     60  O   UNL A   1      42.793  21.853  25.059  1.00  0.00    -0.744 OA
ENDBRANCH  54  57
ENDBRANCH  26  50
BRANCH  38  61
ATOM     61  C   UNL A   1      45.240  27.084  33.610  1.00  0.00     0.023 A 
ATOM     62  C   UNL A   1      46.443  27.816  33.558  1.00  0.00     0.012 A 
ATOM     63  C   UNL A   1      45.186  25.889  34.353  1.00  0.00     0.148 A 
ATOM     64  C   UNL A   1      47.578  27.359  34.225  1.00  0.00     0.002 A 
ATOM     65  C   UNL A   1      46.310  25.463  35.052  1.00  0.00     0.091 A 
ATOM     66  F   UNL A   1      44.036  25.201  34.374  1.00  0.00    -0.205 F 
ATOM     67  C   UNL A   1      47.508  26.192  34.983  1.00  0.00     0.022 A 
BRANCH  65  68
ATOM     68  S   UNL A   1      46.286  24.025  36.130  1.00  0.00     0.127 S 
ATOM     69  O   UNL A   1      46.160  22.933  35.165  1.00  0.00    -0.237 OA
ATOM     70  O   UNL A   1      47.588  24.109  36.790  1.00  0.00    -0.237 OA
ATOM     71  O   UNL A   1      45.144  24.207  37.017  1.00  0.00    -0.744 OA
ENDBRANCH  65  68
ENDBRANCH  38  61
ENDBRANCH  12  13
ENDBRANCH   5   7
ENDBRANCH   2   3
ENDBRANCH   1   2
BRANCH   1  72
ATOM     72  C   UNL A   1      31.913  27.038  26.546  1.00  0.00     0.023 C 
BRANCH  72  73
ATOM     73  C   UNL A   1      30.849  26.293  25.738  1.00  0.00     0.116 C 
BRANCH  73  74
ATOM     74  N   UNL A   1      30.140  25.325  26.554  1.00  0.00    -0.354 N 
ATOM     75  C   UNL A   1      30.396  23.989  26.699  1.00  0.00     0.249 C 
ATOM     76  H   UNL A   1      29.377  25.675  27.070  1.00  0.00     0.163 HD
ATOM     77  O   UNL A   1      29.647  23.310  27.404  1.00  0.00    -0.272 OA
BRANCH  75  78
ATOM     78  C   UNL A   1      31.616  23.397  25.989  1.00  0.00     0.207 C 
ATOM     79  C   UNL A   1      31.511  21.899  25.755  1.00  0.00     0.045 C 
ATOM     80  O   UNL A   1      32.819  23.586  26.757  1.00  0.00    -0.364 OA
ATOM     81  C   UNL A   1      32.968  21.545  25.573  1.00  0.00     0.036 C 
ATOM     82  C   UNL A   1      33.614  22.401  26.648  1.00  0.00     0.134 C 
BRANCH  82  83
ATOM     83  C   UNL A   1      35.096  22.708  26.549  1.00  0.00     0.174 C 
BRANCH  83  84
ATOM     84  S   UNL A   1      35.820  22.862  24.936  1.00  0.00     0.181 S 
ATOM     85  O   UNL A   1      37.020  23.670  25.021  1.00  0.00    -0.224 OA
ATOM     86  O   UNL A   1      35.881  21.525  24.368  1.00  0.00    -0.224 OA
BRANCH  84  87
ATOM     87  C   UNL A   1      34.689  23.742  23.888  1.00  0.00     0.070 A 
ATOM     88  C   UNL A   1      34.033  23.093  22.836  1.00  0.00     0.020 A 
ATOM     89  C   UNL A   1      34.465  25.097  24.142  1.00  0.00     0.059 A 
ATOM     90  C   UNL A   1      33.103  23.798  22.068  1.00  0.00     0.004 A 
ATOM     91  C   UNL A   1      33.556  25.788  23.353  1.00  0.00     0.124 A 
ATOM     92  C   UNL A   1      32.863  25.148  22.331  1.00  0.00     0.039 A 
ATOM     93  F   UNL A   1      33.336  27.088  23.583  1.00  0.00    -0.207 F 
ENDBRANCH  84  87
ENDBRANCH  83  84
ENDBRANCH  82  83
ENDBRANCH  75  78
ENDBRANCH  73  74
ENDBRANCH  72  73
ENDBRANCH   1  72
TORSDOF 17
ENDMDL
MODEL 2
REMARK VINA RESULT:     -11.6      2.115      2.985
REMARK SMILES O=C(NCCCCNC(=O)[C@@H]1CC[C@@H](CS(=O)(=O)c2cccc(F)c2)O1)c1ccc(-c2c3nc(c(-c4cccc(S(=O)(=O)[O-])c4F)c4ccc([nH]4)c(-c4cccc(S(=O)(=O)[O-])c4F)c4nc(c(-c5cccc(S(=O)(=O)[O-])c5F)c5ccc2[nH]5)C=C4)C=C3)cc1
REMARK SMILES IDX 5 1 4 2 3 3 1 4 2 5 27 7 28 8 89 9 29 10 88 11 30 12 31 13
REMARK SMILES IDX 32 14 82 15 33 16 87 17 81 18 83 19 34 20 86 21 80 22 79 23
REMARK SMILES IDX 35 25 67 26 47 27 66 28 48 29 51 30 65 31 84 32 49 33 50 34
REMARK SMILES IDX 64 36 85 37 52 38 36 39 37 40 45 41 38 42 40 43 46 44 39 45
REMARK SMILES IDX 41 46 42 47 43 48 44 49 68 50 69 51 77 52 70 53 72 54 78 55
REMARK SMILES IDX 71 56 73 57 74 58 75 59 76 60 53 61 54 62 62 63 55 64 57 65
REMARK SMILES IDX 63 66 56 67 58 68 59 69 60 70 61 71 6 72 7 73 8 74 9 75
REMARK SMILES IDX 10 77 11 78 12 79 26 80 13 81 14 82 15 83 16 84 17 85 18 86
REMARK SMILES IDX 19 87 20 88 25 89 21 90 23 91 22 92 24 93
REMARK H PARENT 3 6 83 24 51 35 8 76
REMARK Flexibility Score: inf
ROOT
ATOM      1  C   UNL A   1      31.561  31.440  26.373  1.00  0.00     0.023 C 
ENDROOT
BRANCH   1   2
ATOM      2  C   UNL A   1      32.785  32.085  27.012  1.00  0.00     0.116 C 
BRANCH   2   3
ATOM      3  N   UNL A   1      32.568  33.471  27.397  1.00  0.00    -0.352 N 
ATOM      4  O   UNL A   1      32.864  35.335  28.633  1.00  0.00    -0.269 OA
ATOM      5  C   UNL A   1      33.250  34.209  28.335  1.00  0.00     0.251 C 
ATOM      6  H   UNL A   1      31.841  33.939  26.926  1.00  0.00     0.163 HD
BRANCH   5   7
ATOM      7  C   UNL A   1      34.427  33.614  29.006  1.00  0.00     0.039 A 
ATOM      8  C   UNL A   1      35.716  34.031  28.671  1.00  0.00     0.014 A 
ATOM      9  C   UNL A   1      34.236  32.608  29.957  1.00  0.00     0.014 A 
ATOM     10  C   UNL A   1      36.815  33.350  29.182  1.00  0.00     0.010 A 
ATOM     11  C   UNL A   1      35.344  31.980  30.533  1.00  0.00     0.010 A 
ATOM     12  C   UNL A   1      36.642  32.325  30.128  1.00  0.00    -0.014 A 
BRANCH  12  13
ATOM     13  C   UNL A   1      37.840  31.697  30.737  1.00  0.00     0.031 A 
ATOM     14  C   UNL A   1      38.265  32.006  32.144  1.00  0.00     0.074 A 
ATOM     15  C   UNL A   1      38.540  30.815  29.998  1.00  0.00     0.049 A 
ATOM     16  N   UNL A   1      39.247  31.488  32.834  1.00  0.00    -0.248 NA
ATOM     17  C   UNL A   1      37.500  33.032  32.872  1.00  0.00     0.031 C 
ATOM     18  C   UNL A   1      38.244  30.477  28.603  1.00  0.00     0.029 A 
ATOM     19  N   UNL A   1      39.626  30.037  30.306  1.00  0.00    -0.354 N 
ATOM     20  C   UNL A   1      39.245  32.143  34.058  1.00  0.00     0.074 A 
ATOM     21  C   UNL A   1      38.165  33.105  34.019  1.00  0.00     0.031 C 
ATOM     22  C   UNL A   1      39.097  29.530  28.190  1.00  0.00     0.029 A 
ATOM     23  C   UNL A   1      40.030  29.228  29.270  1.00  0.00     0.049 A 
ATOM     24  H   UNL A   1      40.070  30.055  31.184  1.00  0.00     0.167 HD
ATOM     25  C   UNL A   1      40.060  31.945  35.122  1.00  0.00     0.034 A 
ATOM     26  C   UNL A   1      41.042  28.343  29.191  1.00  0.00     0.034 A 
ATOM     27  C   UNL A   1      41.103  30.954  35.166  1.00  0.00     0.049 A 
ATOM     28  C   UNL A   1      41.901  28.112  30.398  1.00  0.00     0.074 A 
ATOM     29  C   UNL A   1      41.934  30.631  36.224  1.00  0.00     0.029 A 
ATOM     30  N   UNL A   1      41.462  30.129  34.111  1.00  0.00    -0.354 N 
ATOM     31  N   UNL A   1      41.804  28.653  31.589  1.00  0.00    -0.248 NA
ATOM     32  C   UNL A   1      42.992  27.138  30.267  1.00  0.00     0.031 C 
ATOM     33  C   UNL A   1      42.808  29.623  35.804  1.00  0.00     0.029 A 
ATOM     34  C   UNL A   1      42.508  29.305  34.489  1.00  0.00     0.049 A 
ATOM     35  H   UNL A   1      41.036  30.130  33.224  1.00  0.00     0.167 HD
ATOM     36  C   UNL A   1      42.810  28.077  32.353  1.00  0.00     0.074 A 
ATOM     37  C   UNL A   1      43.490  27.126  31.497  1.00  0.00     0.031 C 
ATOM     38  C   UNL A   1      43.149  28.331  33.641  1.00  0.00     0.034 A 
BRANCH  25  39
ATOM     39  C   UNL A   1      39.831  32.776  36.359  1.00  0.00     0.023 A 
ATOM     40  C   UNL A   1      40.455  34.035  36.470  1.00  0.00     0.012 A 
ATOM     41  C   UNL A   1      38.925  32.363  37.355  1.00  0.00     0.148 A 
ATOM     42  C   UNL A   1      40.195  34.862  37.562  1.00  0.00     0.002 A 
ATOM     43  C   UNL A   1      38.642  33.209  38.422  1.00  0.00     0.091 A 
ATOM     44  F   UNL A   1      38.358  31.153  37.244  1.00  0.00    -0.205 F 
ATOM     45  C   UNL A   1      39.281  34.456  38.530  1.00  0.00     0.022 A 
BRANCH  43  46
ATOM     46  S   UNL A   1      37.419  32.805  39.676  1.00  0.00     0.127 S 
ATOM     47  O   UNL A   1      37.505  33.970  40.556  1.00  0.00    -0.237 OA
ATOM     48  O   UNL A   1      36.185  32.723  38.894  1.00  0.00    -0.237 OA
ATOM     49  O   UNL A   1      37.849  31.543  40.258  1.00  0.00    -0.744 OA
ENDBRANCH  43  46
ENDBRANCH  25  39
BRANCH  26  50
ATOM     50  C   UNL A   1      41.220  27.567  27.932  1.00  0.00     0.023 A 
ATOM     51  C   UNL A   1      41.842  28.178  26.828  1.00  0.00     0.012 A 
ATOM     52  C   UNL A   1      40.897  26.196  27.871  1.00  0.00     0.148 A 
ATOM     53  C   UNL A   1      42.145  27.437  25.686  1.00  0.00     0.002 A 
ATOM     54  C   UNL A   1      41.258  25.451  26.756  1.00  0.00     0.091 A 
ATOM     55  F   UNL A   1      40.292  25.640  28.930  1.00  0.00    -0.205 F 
ATOM     56  C   UNL A   1      41.870  26.072  25.657  1.00  0.00     0.022 A 
BRANCH  54  57
ATOM     57  S   UNL A   1      41.098  23.662  26.703  1.00  0.00     0.127 S 
ATOM     58  O   UNL A   1      41.560  23.281  28.035  1.00  0.00    -0.237 OA
ATOM     59  O   UNL A   1      39.663  23.494  26.476  1.00  0.00    -0.237 OA
ATOM     60  O   UNL A   1      41.935  23.225  25.593  1.00  0.00    -0.744 OA
ENDBRANCH  54  57
ENDBRANCH  26  50
BRANCH  38  61
ATOM     61  C   UNL A   1      44.309  27.571  34.223  1.00  0.00     0.023 A 
ATOM     62  C   UNL A   1      45.603  28.123  34.146  1.00  0.00     0.012 A 
ATOM     63  C   UNL A   1      44.104  26.379  34.945  1.00  0.00     0.148 A 
ATOM     64  C   UNL A   1      46.679  27.491  34.769  1.00  0.00     0.002 A 
ATOM     65  C   UNL A   1      45.173  25.779  35.599  1.00  0.00     0.091 A 
ATOM     66  F   UNL A   1      42.867  25.864  34.989  1.00  0.00    -0.205 F 
ATOM     67  C   UNL A   1      46.462  26.330  35.506  1.00  0.00     0.022 A 
BRANCH  65  68
ATOM     68  S   UNL A   1      44.973  24.335  36.650  1.00  0.00     0.127 S 
ATOM     69  O   UNL A   1      46.353  24.060  37.043  1.00  0.00    -0.237 OA
ATOM     70  O   UNL A   1      44.122  24.847  37.724  1.00  0.00    -0.237 OA
ATOM     71  O   UNL A   1      44.347  23.316  35.816  1.00  0.00    -0.744 OA
ENDBRANCH  65  68
ENDBRANCH  38  61
ENDBRANCH  12  13
ENDBRANCH   5   7
ENDBRANCH   2   3
ENDBRANCH   1   2
BRANCH   1  72
ATOM     72  C   UNL A   1      31.718  29.959  26.015  1.00  0.00     0.023 C 
BRANCH  72  73
ATOM     73  C   UNL A   1      31.125  29.568  24.660  1.00  0.00     0.116 C 
BRANCH  73  74
ATOM     74  N   UNL A   1      32.158  29.408  23.653  1.00  0.00    -0.354 N 
ATOM     75  C   UNL A   1      33.005  28.350  23.468  1.00  0.00     0.249 C 
ATOM     76  H   UNL A   1      32.262  30.157  23.022  1.00  0.00     0.163 HD
ATOM     77  O   UNL A   1      33.859  28.416  22.583  1.00  0.00    -0.272 OA
BRANCH  75  78
ATOM     78  C   UNL A   1      32.843  27.118  24.364  1.00  0.00     0.207 C 
ATOM     79  C   UNL A   1      33.782  27.112  25.558  1.00  0.00     0.045 C 
ATOM     80  O   UNL A   1      33.120  25.902  23.646  1.00  0.00    -0.364 OA
ATOM     81  C   UNL A   1      33.785  25.641  25.900  1.00  0.00     0.036 C 
ATOM     82  C   UNL A   1      33.836  25.019  24.515  1.00  0.00     0.134 C 
BRANCH  82  83
ATOM     83  C   UNL A   1      33.412  23.572  24.344  1.00  0.00     0.174 C 
BRANCH  83  84
ATOM     84  S   UNL A   1      34.458  22.301  25.007  1.00  0.00     0.181 S 
ATOM     85  O   UNL A   1      35.790  22.435  24.452  1.00  0.00    -0.224 OA
ATOM     86  O   UNL A   1      34.266  22.300  26.448  1.00  0.00    -0.224 OA
BRANCH  84  87
ATOM     87  C   UNL A   1      33.842  20.724  24.473  1.00  0.00     0.070 A 
ATOM     88  C   UNL A   1      32.648  20.628  23.749  1.00  0.00     0.020 A 
ATOM     89  C   UNL A   1      34.581  19.581  24.788  1.00  0.00     0.059 A 
ATOM     90  C   UNL A   1      32.222  19.379  23.291  1.00  0.00     0.004 A 
ATOM     91  C   UNL A   1      34.129  18.345  24.345  1.00  0.00     0.124 A 
ATOM     92  C   UNL A   1      32.967  18.237  23.588  1.00  0.00     0.039 A 
ATOM     93  F   UNL A   1      34.825  17.242  24.644  1.00  0.00    -0.207 F 
ENDBRANCH  84  87
ENDBRANCH  83  84
ENDBRANCH  82  83
ENDBRANCH  75  78
ENDBRANCH  73  74
ENDBRANCH  72  73
ENDBRANCH   1  72
TORSDOF 17
ENDMDL
MODEL 3
REMARK VINA RESULT:     -11.6      4.031      6.842
REMARK SMILES O=C(NCCCCNC(=O)[C@@H]1CC[C@@H](CS(=O)(=O)c2cccc(F)c2)O1)c1ccc(-c2c3nc(c(-c4cccc(S(=O)(=O)[O-])c4F)c4ccc([nH]4)c(-c4cccc(S(=O)(=O)[O-])c4F)c4nc(c(-c5cccc(S(=O)(=O)[O-])c5F)c5ccc2[nH]5)C=C4)C=C3)cc1
REMARK SMILES IDX 5 1 4 2 3 3 1 4 2 5 27 7 28 8 89 9 29 10 88 11 30 12 31 13
REMARK SMILES IDX 32 14 82 15 33 16 87 17 81 18 83 19 34 20 86 21 80 22 79 23
REMARK SMILES IDX 35 25 67 26 47 27 66 28 48 29 51 30 65 31 84 32 49 33 50 34
REMARK SMILES IDX 64 36 85 37 52 38 36 39 37 40 45 41 38 42 40 43 46 44 39 45
REMARK SMILES IDX 41 46 42 47 43 48 44 49 68 50 69 51 77 52 70 53 72 54 78 55
REMARK SMILES IDX 71 56 73 57 74 58 75 59 76 60 53 61 54 62 62 63 55 64 57 65
REMARK SMILES IDX 63 66 56 67 58 68 59 69 60 70 61 71 6 72 7 73 8 74 9 75
REMARK SMILES IDX 10 77 11 78 12 79 26 80 13 81 14 82 15 83 16 84 17 85 18 86
REMARK SMILES IDX 19 87 20 88 25 89 21 90 23 91 22 92 24 93
REMARK H PARENT 3 6 83 24 51 35 8 76
REMARK Flexibility Score: inf
ROOT
ATOM      1  C   UNL A   1      34.621  33.936  28.963  1.00  0.00     0.023 C 
ENDROOT
BRANCH   1   2
ATOM      2  C   UNL A   1      34.720  32.464  29.344  1.00  0.00     0.116 C 
BRANCH   2   3
ATOM      3  N   UNL A   1      34.062  31.580  28.394  1.00  0.00    -0.352 N 
ATOM      4  O   UNL A   1      33.929  29.891  26.904  1.00  0.00    -0.269 OA
ATOM      5  C   UNL A   1      34.573  30.462  27.778  1.00  0.00     0.251 C 
ATOM      6  H   UNL A   1      33.134  31.813  28.162  1.00  0.00     0.163 HD
BRANCH   5   7
ATOM      7  C   UNL A   1      35.920  29.983  28.156  1.00  0.00     0.039 A 
ATOM      8  C   UNL A   1      36.126  29.347  29.382  1.00  0.00     0.014 A 
ATOM      9  C   UNL A   1      36.992  30.198  27.285  1.00  0.00     0.014 A 
ATOM     10  C   UNL A   1      37.419  29.053  29.797  1.00  0.00     0.010 A 
ATOM     11  C   UNL A   1      38.283  29.825  27.671  1.00  0.00     0.010 A 
ATOM     12  C   UNL A   1      38.511  29.278  28.942  1.00  0.00    -0.014 A 
BRANCH  12  13
ATOM     13  C   UNL A   1      39.864  28.847  29.373  1.00  0.00     0.031 A 
ATOM     14  C   UNL A   1      40.585  29.521  30.505  1.00  0.00     0.074 A 
ATOM     15  C   UNL A   1      40.434  27.809  28.729  1.00  0.00     0.049 A 
ATOM     16  N   UNL A   1      41.740  29.213  31.036  1.00  0.00    -0.248 NA
ATOM     17  C   UNL A   1      39.939  30.693  31.116  1.00  0.00     0.031 C 
ATOM     18  C   UNL A   1      39.842  27.112  27.584  1.00  0.00     0.029 A 
ATOM     19  N   UNL A   1      41.617  27.152  28.944  1.00  0.00    -0.354 N 
ATOM     20  C   UNL A   1      41.979  30.167  32.016  1.00  0.00     0.074 A 
ATOM     21  C   UNL A   1      40.851  31.073  32.005  1.00  0.00     0.031 C 
ATOM     22  C   UNL A   1      40.642  26.099  27.226  1.00  0.00     0.029 A 
ATOM     23  C   UNL A   1      41.825  26.104  28.079  1.00  0.00     0.049 A 
ATOM     24  H   UNL A   1      42.255  27.406  29.649  1.00  0.00     0.167 HD
ATOM     25  C   UNL A   1      43.035  30.265  32.858  1.00  0.00     0.034 A 
ATOM     26  C   UNL A   1      42.853  25.240  27.977  1.00  0.00     0.034 A 
ATOM     27  C   UNL A   1      44.131  29.333  32.890  1.00  0.00     0.049 A 
ATOM     28  C   UNL A   1      43.989  25.345  28.950  1.00  0.00     0.074 A 
ATOM     29  C   UNL A   1      45.212  29.309  33.754  1.00  0.00     0.029 A 
ATOM     30  N   UNL A   1      44.292  28.263  32.022  1.00  0.00    -0.354 N 
ATOM     31  N   UNL A   1      44.136  26.179  29.951  1.00  0.00    -0.248 NA
ATOM     32  C   UNL A   1      45.088  24.382  28.801  1.00  0.00     0.031 C 
ATOM     33  C   UNL A   1      46.035  28.236  33.397  1.00  0.00     0.029 A 
ATOM     34  C   UNL A   1      45.457  27.580  32.323  1.00  0.00     0.049 A 
ATOM     35  H   UNL A   1      43.668  28.026  31.298  1.00  0.00     0.167 HD
ATOM     36  C   UNL A   1      45.336  25.836  30.561  1.00  0.00     0.074 A 
ATOM     37  C   UNL A   1      45.864  24.701  29.831  1.00  0.00     0.031 C 
ATOM     38  C   UNL A   1      45.950  26.424  31.617  1.00  0.00     0.034 A 
BRANCH  25  39
ATOM     39  C   UNL A   1      43.044  31.390  33.861  1.00  0.00     0.023 A 
ATOM     40  C   UNL A   1      43.689  32.600  33.537  1.00  0.00     0.012 A 
ATOM     41  C   UNL A   1      42.332  31.290  35.073  1.00  0.00     0.148 A 
ATOM     42  C   UNL A   1      43.640  33.687  34.410  1.00  0.00     0.002 A 
ATOM     43  C   UNL A   1      42.256  32.390  35.920  1.00  0.00     0.091 A 
ATOM     44  F   UNL A   1      41.743  30.123  35.375  1.00  0.00    -0.205 F 
ATOM     45  C   UNL A   1      42.915  33.587  35.593  1.00  0.00     0.022 A 
BRANCH  43  46
ATOM     46  S   UNL A   1      41.279  32.380  37.429  1.00  0.00     0.127 S 
ATOM     47  O   UNL A   1      42.132  31.604  38.327  1.00  0.00    -0.237 OA
ATOM     48  O   UNL A   1      41.191  33.805  37.754  1.00  0.00    -0.237 OA
ATOM     49  O   UNL A   1      40.009  31.762  37.076  1.00  0.00    -0.744 OA
ENDBRANCH  43  46
ENDBRANCH  25  39
BRANCH  26  50
ATOM     50  C   UNL A   1      42.786  24.162  26.951  1.00  0.00     0.023 A 
ATOM     51  C   UNL A   1      43.534  24.290  25.767  1.00  0.00     0.012 A 
ATOM     52  C   UNL A   1      42.094  22.960  27.204  1.00  0.00     0.148 A 
ATOM     53  C   UNL A   1      43.598  23.239  24.852  1.00  0.00     0.002 A 
ATOM     54  C   UNL A   1      42.212  21.896  26.319  1.00  0.00     0.091 A 
ATOM     55  F   UNL A   1      41.376  22.867  28.332  1.00  0.00    -0.205 F 
ATOM     56  C   UNL A   1      42.954  22.037  25.136  1.00  0.00     0.022 A 
BRANCH  54  57
ATOM     57  S   UNL A   1      41.560  20.262  26.688  1.00  0.00     0.127 S 
ATOM     58  O   UNL A   1      42.422  19.839  27.788  1.00  0.00    -0.237 OA
ATOM     59  O   UNL A   1      40.181  20.567  27.066  1.00  0.00    -0.237 OA
ATOM     60  O   UNL A   1      41.689  19.500  25.453  1.00  0.00    -0.744 OA
ENDBRANCH  54  57
ENDBRANCH  26  50
BRANCH  38  61
ATOM     61  C   UNL A   1      47.270  25.858  32.064  1.00  0.00     0.023 A 
ATOM     62  C   UNL A   1      48.456  26.301  31.447  1.00  0.00     0.012 A 
ATOM     63  C   UNL A   1      47.345  24.983  33.166  1.00  0.00     0.148 A 
ATOM     64  C   UNL A   1      49.698  25.872  31.912  1.00  0.00     0.002 A 
ATOM     65  C   UNL A   1      48.588  24.595  33.651  1.00  0.00     0.091 A 
ATOM     66  F   UNL A   1      46.203  24.561  33.726  1.00  0.00    -0.205 F 
ATOM     67  C   UNL A   1      49.765  25.032  33.021  1.00  0.00     0.022 A 
BRANCH  65  68
ATOM     68  S   UNL A   1      48.775  23.593  35.131  1.00  0.00     0.127 S 
ATOM     69  O   UNL A   1      50.227  23.440  35.205  1.00  0.00    -0.237 OA
ATOM     70  O   UNL A   1      48.197  24.452  36.164  1.00  0.00    -0.237 OA
ATOM     71  O   UNL A   1      48.031  22.365  34.881  1.00  0.00    -0.744 OA
ENDBRANCH  65  68
ENDBRANCH  38  61
ENDBRANCH  12  13
ENDBRANCH   5   7
ENDBRANCH   2   3
ENDBRANCH   1   2
BRANCH   1  72
ATOM     72  C   UNL A   1      33.289  34.609  29.307  1.00  0.00     0.023 C 
BRANCH  72  73
ATOM     73  C   UNL A   1      33.425  35.958  30.016  1.00  0.00     0.116 C 
BRANCH  73  74
ATOM     74  N   UNL A   1      32.230  36.285  30.773  1.00  0.00    -0.354 N 
ATOM     75  C   UNL A   1      32.005  36.125  32.113  1.00  0.00     0.249 C 
ATOM     76  H   UNL A   1      31.487  36.672  30.255  1.00  0.00     0.163 HD
ATOM     77  O   UNL A   1      30.899  36.416  32.571  1.00  0.00    -0.272 OA
BRANCH  75  78
ATOM     78  C   UNL A   1      33.147  35.605  32.990  1.00  0.00     0.207 C 
ATOM     79  C   UNL A   1      34.444  36.378  32.814  1.00  0.00     0.045 C 
ATOM     80  O   UNL A   1      33.467  34.235  32.685  1.00  0.00    -0.364 OA
ATOM     81  C   UNL A   1      35.440  35.367  33.332  1.00  0.00     0.036 C 
ATOM     82  C   UNL A   1      34.890  34.083  32.737  1.00  0.00     0.134 C 
BRANCH  82  83
ATOM     83  C   UNL A   1      35.305  32.757  33.345  1.00  0.00     0.174 C 
BRANCH  83  84
ATOM     84  S   UNL A   1      37.037  32.420  33.537  1.00  0.00     0.181 S 
ATOM     85  O   UNL A   1      37.513  33.026  34.764  1.00  0.00    -0.224 OA
ATOM     86  O   UNL A   1      37.221  30.997  33.308  1.00  0.00    -0.224 OA
BRANCH  84  87
ATOM     87  C   UNL A   1      37.917  33.204  32.209  1.00  0.00     0.070 A 
ATOM     88  C   UNL A   1      38.961  34.098  32.469  1.00  0.00     0.020 A 
ATOM     89  C   UNL A   1      37.546  32.901  30.896  1.00  0.00     0.059 A 
ATOM     90  C   UNL A   1      39.673  34.651  31.402  1.00  0.00     0.004 A 
ATOM     91  C   UNL A   1      38.249  33.479  29.849  1.00  0.00     0.124 A 
ATOM     92  C   UNL A   1      39.317  34.337  30.090  1.00  0.00     0.039 A 
ATOM     93  F   UNL A   1      37.901  33.202  28.587  1.00  0.00    -0.207 F 
ENDBRANCH  84  87
ENDBRANCH  83  84
ENDBRANCH  82  83
ENDBRANCH  75  78
ENDBRANCH  73  74
ENDBRANCH  72  73
ENDBRANCH   1  72
TORSDOF 17
ENDMDL
