MODEL 1
REMARK VINA RESULT:     -11.7      0.000      0.000
REMARK SMILES O=C(NCCCCNC(=O)[C@H]1CC[C@@H](CNc2cccc(F)c2[N+](=O)[O-])O1)c1ccc(-c2c3nc(c(-c4cccc(S(=O)(=O)[O-])c4F)c4ccc([nH]4)c(-c4cccc(S(=O)(=O)[O-])c4F)c4nc(c(-c5cccc(S(=O)(=O)[O-])c5F)c5ccc2[nH]5)C=C4)C=C3)cc1
REMARK SMILES IDX 6 1 5 2 4 3 3 4 1 5 2 6 28 8 29 9 90 10 30 11 89 12 31 13
REMARK SMILES IDX 32 14 33 15 83 16 34 17 88 18 82 19 84 20 35 21 87 22 81 23
REMARK SMILES IDX 80 24 36 26 68 27 48 28 67 29 49 30 52 31 66 32 85 33 50 34
REMARK SMILES IDX 51 35 65 37 86 38 53 39 37 40 38 41 46 42 39 43 41 44 47 45
REMARK SMILES IDX 40 46 42 47 43 48 44 49 45 50 69 51 70 52 78 53 71 54 73 55
REMARK SMILES IDX 79 56 72 57 74 58 75 59 76 60 77 61 54 62 55 63 63 64 56 65
REMARK SMILES IDX 58 66 64 67 57 68 59 69 60 70 61 71 62 72 7 73 8 74 9 75
REMARK SMILES IDX 10 77 11 78 12 79 27 80 13 81 14 82 15 83 16 84 17 86 18 87
REMARK SMILES IDX 23 88 19 89 21 90 20 91 22 92 24 93 25 94 26 95
REMARK H PARENT 3 7 84 25 52 36 8 76 16 85
REMARK Flexibility Score: inf
ROOT
ATOM      1  C   UNL A   1      35.683  22.058  26.256  1.00  0.00     0.023 C 
ENDROOT
BRANCH   1   2
ATOM      2  C   UNL A   1      36.079  21.005  25.221  1.00  0.00     0.023 C 
BRANCH   2   3
ATOM      3  C   UNL A   1      37.491  21.145  24.664  1.00  0.00     0.116 C 
BRANCH   3   4
ATOM      4  N   UNL A   1      38.385  20.066  25.070  1.00  0.00    -0.352 N 
ATOM      5  O   UNL A   1      40.211  19.142  26.025  1.00  0.00    -0.269 OA
ATOM      6  C   UNL A   1      39.515  20.137  25.852  1.00  0.00     0.251 C 
ATOM      7  H   UNL A   1      38.148  19.170  24.742  1.00  0.00     0.163 HD
BRANCH   6   8
ATOM      8  C   UNL A   1      39.893  21.439  26.435  1.00  0.00     0.039 A 
ATOM      9  C   UNL A   1      39.392  22.620  25.884  1.00  0.00     0.014 A 
ATOM     10  C   UNL A   1      40.825  21.477  27.474  1.00  0.00     0.014 A 
ATOM     11  C   UNL A   1      39.960  23.834  26.248  1.00  0.00     0.010 A 
ATOM     12  C   UNL A   1      41.330  22.709  27.898  1.00  0.00     0.010 A 
ATOM     13  C   UNL A   1      40.943  23.892  27.250  1.00  0.00    -0.014 A 
BRANCH  13  14
ATOM     14  C   UNL A   1      41.537  25.207  27.604  1.00  0.00     0.031 A 
ATOM     15  C   UNL A   1      42.934  25.570  27.176  1.00  0.00     0.074 A 
ATOM     16  C   UNL A   1      40.785  26.095  28.281  1.00  0.00     0.049 A 
ATOM     17  N   UNL A   1      43.580  26.694  27.359  1.00  0.00    -0.248 NA
ATOM     18  C   UNL A   1      43.714  24.549  26.455  1.00  0.00     0.031 C 
ATOM     19  C   UNL A   1      39.429  25.839  28.774  1.00  0.00     0.029 A 
ATOM     20  N   UNL A   1      41.039  27.388  28.660  1.00  0.00    -0.354 N 
ATOM     21  C   UNL A   1      44.847  26.503  26.820  1.00  0.00     0.074 A 
ATOM     22  C   UNL A   1      44.886  25.153  26.304  1.00  0.00     0.031 C 
ATOM     23  C   UNL A   1      38.954  26.953  29.349  1.00  0.00     0.029 A 
ATOM     24  C   UNL A   1      39.986  27.983  29.314  1.00  0.00     0.049 A 
ATOM     25  H   UNL A   1      41.892  27.845  28.482  1.00  0.00     0.167 HD
ATOM     26  C   UNL A   1      45.873  27.382  26.745  1.00  0.00     0.034 A 
ATOM     27  C   UNL A   1      39.863  29.219  29.836  1.00  0.00     0.034 A 
ATOM     28  C   UNL A   1      45.805  28.745  27.199  1.00  0.00     0.049 A 
ATOM     29  C   UNL A   1      41.009  30.181  29.710  1.00  0.00     0.074 A 
ATOM     30  C   UNL A   1      46.770  29.732  27.092  1.00  0.00     0.029 A 
ATOM     31  N   UNL A   1      44.718  29.315  27.841  1.00  0.00    -0.354 N 
ATOM     32  N   UNL A   1      42.155  30.015  29.093  1.00  0.00    -0.248 NA
ATOM     33  C   UNL A   1      40.845  31.499  30.336  1.00  0.00     0.031 C 
ATOM     34  C   UNL A   1      46.269  30.897  27.680  1.00  0.00     0.029 A 
ATOM     35  C   UNL A   1      44.991  30.636  28.148  1.00  0.00     0.049 A 
ATOM     36  H   UNL A   1      43.876  28.849  28.048  1.00  0.00     0.167 HD
ATOM     37  C   UNL A   1      42.848  31.208  29.254  1.00  0.00     0.074 A 
ATOM     38  C   UNL A   1      41.979  32.100  29.994  1.00  0.00     0.031 C 
ATOM     39  C   UNL A   1      44.101  31.525  28.850  1.00  0.00     0.034 A 
BRANCH  26  40
ATOM     40  C   UNL A   1      47.153  26.934  26.091  1.00  0.00     0.023 A 
ATOM     41  C   UNL A   1      47.385  27.254  24.739  1.00  0.00     0.012 A 
ATOM     42  C   UNL A   1      48.171  26.309  26.841  1.00  0.00     0.148 A 
ATOM     43  C   UNL A   1      48.607  26.953  24.139  1.00  0.00     0.002 A 
ATOM     44  C   UNL A   1      49.398  26.043  26.245  1.00  0.00     0.091 A 
ATOM     45  F   UNL A   1      47.921  25.999  28.120  1.00  0.00    -0.205 F 
ATOM     46  C   UNL A   1      49.616  26.359  24.894  1.00  0.00     0.022 A 
BRANCH  44  47
ATOM     47  S   UNL A   1      50.787  25.343  27.146  1.00  0.00     0.127 S 
ATOM     48  O   UNL A   1      51.164  26.458  28.014  1.00  0.00    -0.237 OA
ATOM     49  O   UNL A   1      50.168  24.214  27.839  1.00  0.00    -0.237 OA
ATOM     50  O   UNL A   1      51.775  24.976  26.141  1.00  0.00    -0.744 OA
ENDBRANCH  44  47
ENDBRANCH  26  40
BRANCH  27  51
ATOM     51  C   UNL A   1      38.576  29.616  30.473  1.00  0.00     0.023 A 
ATOM     52  C   UNL A   1      38.331  29.261  31.813  1.00  0.00     0.012 A 
ATOM     53  C   UNL A   1      37.638  30.416  29.792  1.00  0.00     0.148 A 
ATOM     54  C   UNL A   1      37.172  29.693  32.460  1.00  0.00     0.002 A 
ATOM     55  C   UNL A   1      36.518  30.894  30.460  1.00  0.00     0.091 A 
ATOM     56  F   UNL A   1      37.874  30.721  28.508  1.00  0.00    -0.205 F 
ATOM     57  C   UNL A   1      36.275  30.523  31.791  1.00  0.00     0.022 A 
BRANCH  55  58
ATOM     58  S   UNL A   1      35.416  32.099  29.712  1.00  0.00     0.127 S 
ATOM     59  O   UNL A   1      36.347  33.145  29.301  1.00  0.00    -0.237 OA
ATOM     60  O   UNL A   1      34.820  31.337  28.614  1.00  0.00    -0.237 OA
ATOM     61  O   UNL A   1      34.472  32.456  30.764  1.00  0.00    -0.744 OA
ENDBRANCH  55  58
ENDBRANCH  27  51
BRANCH  39  62
ATOM     62  C   UNL A   1      44.632  32.884  29.212  1.00  0.00     0.023 A 
ATOM     63  C   UNL A   1      45.323  33.045  30.428  1.00  0.00     0.012 A 
ATOM     64  C   UNL A   1      44.552  33.962  28.309  1.00  0.00     0.148 A 
ATOM     65  C   UNL A   1      45.918  34.264  30.748  1.00  0.00     0.002 A 
ATOM     66  C   UNL A   1      45.180  35.162  28.617  1.00  0.00     0.091 A 
ATOM     67  F   UNL A   1      43.874  33.788  27.165  1.00  0.00    -0.205 F 
ATOM     68  C   UNL A   1      45.857  35.317  29.838  1.00  0.00     0.022 A 
BRANCH  66  69
ATOM     69  S   UNL A   1      45.233  36.546  27.471  1.00  0.00     0.127 S 
ATOM     70  O   UNL A   1      45.998  37.532  28.233  1.00  0.00    -0.237 OA
ATOM     71  O   UNL A   1      45.944  35.974  26.326  1.00  0.00    -0.237 OA
ATOM     72  O   UNL A   1      43.847  36.901  27.206  1.00  0.00    -0.744 OA
ENDBRANCH  66  69
ENDBRANCH  39  62
ENDBRANCH  13  14
ENDBRANCH   6   8
ENDBRANCH   3   4
ENDBRANCH   2   3
ENDBRANCH   1   2
BRANCH   1  73
ATOM     73  C   UNL A   1      34.215  22.003  26.672  1.00  0.00     0.116 C 
BRANCH  73  74
ATOM     74  N   UNL A   1      33.492  21.046  25.871  1.00  0.00    -0.354 N 
ATOM     75  C   UNL A   1      32.205  20.992  25.446  1.00  0.00     0.249 C 
ATOM     76  H   UNL A   1      34.038  20.283  25.576  1.00  0.00     0.163 HD
ATOM     77  O   UNL A   1      31.842  19.907  24.973  1.00  0.00    -0.272 OA
BRANCH  75  78
ATOM     78  C   UNL A   1      31.242  22.196  25.407  1.00  0.00     0.207 C 
ATOM     79  C   UNL A   1      30.797  22.923  26.659  1.00  0.00     0.045 C 
ATOM     80  O   UNL A   1      31.793  23.169  24.519  1.00  0.00    -0.363 OA
ATOM     81  C   UNL A   1      31.471  24.282  26.598  1.00  0.00     0.037 C 
ATOM     82  C   UNL A   1      31.826  24.465  25.134  1.00  0.00     0.138 C 
BRANCH  82  83
ATOM     83  C   UNL A   1      33.226  25.071  24.901  1.00  0.00     0.145 C 
BRANCH  83  84
ATOM     84  N   UNL A   1      33.086  26.414  24.340  1.00  0.00    -0.377 N 
ATOM     85  H   UNL A   1      33.229  26.535  23.373  1.00  0.00     0.160 HD
BRANCH  84  86
ATOM     86  C   UNL A   1      32.763  27.524  25.102  1.00  0.00     0.116 A 
ATOM     87  C   UNL A   1      33.334  27.693  26.373  1.00  0.00     0.033 A 
ATOM     88  C   UNL A   1      31.865  28.523  24.677  1.00  0.00     0.327 A 
ATOM     89  C   UNL A   1      33.050  28.812  27.166  1.00  0.00     0.006 A 
ATOM     90  C   UNL A   1      31.575  29.639  25.459  1.00  0.00     0.202 A 
ATOM     91  C   UNL A   1      32.170  29.789  26.705  1.00  0.00     0.047 A 
ATOM     92  F   UNL A   1      30.740  30.596  25.032  1.00  0.00    -0.199 F 
BRANCH  88  93
ATOM     93  N   UNL A   1      31.177  28.410  23.412  1.00  0.00     0.068 N 
ATOM     94  O   UNL A   1      30.304  27.536  23.316  1.00  0.00    -0.258 OA
ATOM     95  O   UNL A   1      31.510  29.196  22.513  1.00  0.00    -0.258 OA
ENDBRANCH  88  93
ENDBRANCH  84  86
ENDBRANCH  83  84
ENDBRANCH  82  83
ENDBRANCH  75  78
ENDBRANCH  73  74
ENDBRANCH   1  73
TORSDOF 18
ENDMDL
MODEL 2
REMARK VINA RESULT:     -11.7      4.918     10.227
REMARK SMILES O=C(NCCCCNC(=O)[C@H]1CC[C@@H](CNc2cccc(F)c2[N+](=O)[O-])O1)c1ccc(-c2c3nc(c(-c4cccc(S(=O)(=O)[O-])c4F)c4ccc([nH]4)c(-c4cccc(S(=O)(=O)[O-])c4F)c4nc(c(-c5cccc(S(=O)(=O)[O-])c5F)c5ccc2[nH]5)C=C4)C=C3)cc1
REMARK SMILES IDX 6 1 5 2 4 3 3 4 1 5 2 6 28 8 29 9 90 10 30 11 89 12 31 13
REMARK SMILES IDX 32 14 33 15 83 16 34 17 88 18 82 19 84 20 35 21 87 22 81 23
REMARK SMILES IDX 80 24 36 26 68 27 48 28 67 29 49 30 52 31 66 32 85 33 50 34
REMARK SMILES IDX 51 35 65 37 86 38 53 39 37 40 38 41 46 42 39 43 41 44 47 45
REMARK SMILES IDX 40 46 42 47 43 48 44 49 45 50 69 51 70 52 78 53 71 54 73 55
REMARK SMILES IDX 79 56 72 57 74 58 75 59 76 60 77 61 54 62 55 63 63 64 56 65
REMARK SMILES IDX 58 66 64 67 57 68 59 69 60 70 61 71 62 72 7 73 8 74 9 75
REMARK SMILES IDX 10 77 11 78 12 79 27 80 13 81 14 82 15 83 16 84 17 86 18 87
REMARK SMILES IDX 23 88 19 89 21 90 20 91 22 92 24 93 25 94 26 95
REMARK H PARENT 3 7 84 25 52 36 8 76 16 85
REMARK Flexibility Score: inf
ROOT
ATOM      1  C   UNL A   1      31.422  27.864  26.331  1.00  0.00     0.023 C 
ENDROOT
BRANCH   1   2
ATOM      2  C   UNL A   1      31.715  29.169  27.072  1.00  0.00     0.023 C 
BRANCH   2   3
ATOM      3  C   UNL A   1      32.566  30.173  26.302  1.00  0.00     0.116 C 
BRANCH   3   4
ATOM      4  N   UNL A   1      32.329  31.557  26.693  1.00  0.00    -0.352 N 
ATOM      5  O   UNL A   1      32.752  33.512  27.743  1.00  0.00    -0.269 OA
ATOM      6  C   UNL A   1      33.144  32.395  27.419  1.00  0.00     0.251 C 
ATOM      7  H   UNL A   1      31.473  31.943  26.399  1.00  0.00     0.163 HD
BRANCH   6   8
ATOM      8  C   UNL A   1      34.472  31.905  27.836  1.00  0.00     0.039 A 
ATOM      9  C   UNL A   1      34.637  30.569  28.204  1.00  0.00     0.014 A 
ATOM     10  C   UNL A   1      35.529  32.811  27.949  1.00  0.00     0.014 A 
ATOM     11  C   UNL A   1      35.802  30.182  28.854  1.00  0.00     0.010 A 
ATOM     12  C   UNL A   1      36.731  32.394  28.525  1.00  0.00     0.010 A 
ATOM     13  C   UNL A   1      36.857  31.092  29.032  1.00  0.00    -0.014 A 
BRANCH  13  14
ATOM     14  C   UNL A   1      38.083  30.646  29.744  1.00  0.00     0.031 A 
ATOM     15  C   UNL A   1      38.366  31.085  31.156  1.00  0.00     0.074 A 
ATOM     16  C   UNL A   1      38.922  29.799  29.118  1.00  0.00     0.049 A 
ATOM     17  N   UNL A   1      39.362  30.745  31.934  1.00  0.00    -0.248 NA
ATOM     18  C   UNL A   1      37.421  32.027  31.780  1.00  0.00     0.031 C 
ATOM     19  C   UNL A   1      38.764  29.332  27.738  1.00  0.00     0.029 A 
ATOM     20  N   UNL A   1      40.060  29.171  29.554  1.00  0.00    -0.354 N 
ATOM     21  C   UNL A   1      39.191  31.459  33.114  1.00  0.00     0.074 A 
ATOM     22  C   UNL A   1      37.996  32.257  32.955  1.00  0.00     0.031 C 
ATOM     23  C   UNL A   1      39.740  28.458  27.456  1.00  0.00     0.029 A 
ATOM     24  C   UNL A   1      40.622  28.341  28.612  1.00  0.00     0.049 A 
ATOM     25  H   UNL A   1      40.438  29.301  30.453  1.00  0.00     0.167 HD
ATOM     26  C   UNL A   1      39.949  31.432  34.235  1.00  0.00     0.034 A 
ATOM     27  C   UNL A   1      41.730  27.575  28.666  1.00  0.00     0.034 A 
ATOM     28  C   UNL A   1      41.097  30.585  34.414  1.00  0.00     0.049 A 
ATOM     29  C   UNL A   1      42.533  27.545  29.934  1.00  0.00     0.074 A 
ATOM     30  C   UNL A   1      41.881  30.433  35.545  1.00  0.00     0.029 A 
ATOM     31  N   UNL A   1      41.626  29.749  33.444  1.00  0.00    -0.354 N 
ATOM     32  N   UNL A   1      42.286  28.139  31.077  1.00  0.00    -0.248 NA
ATOM     33  C   UNL A   1      43.757  26.733  29.929  1.00  0.00     0.031 C 
ATOM     34  C   UNL A   1      42.891  29.512  35.255  1.00  0.00     0.029 A 
ATOM     35  C   UNL A   1      42.733  29.086  33.945  1.00  0.00     0.049 A 
ATOM     36  H   UNL A   1      41.267  29.641  32.534  1.00  0.00     0.167 HD
ATOM     37  C   UNL A   1      43.320  27.771  31.927  1.00  0.00     0.074 A 
ATOM     38  C   UNL A   1      44.177  26.873  31.180  1.00  0.00     0.031 C 
ATOM     39  C   UNL A   1      43.553  28.165  33.202  1.00  0.00     0.034 A 
BRANCH  26  40
ATOM     40  C   UNL A   1      39.539  32.296  35.398  1.00  0.00     0.023 A 
ATOM     41  C   UNL A   1      38.820  31.719  36.464  1.00  0.00     0.012 A 
ATOM     42  C   UNL A   1      39.967  33.635  35.494  1.00  0.00     0.148 A 
ATOM     43  C   UNL A   1      38.526  32.464  37.606  1.00  0.00     0.002 A 
ATOM     44  C   UNL A   1      39.699  34.361  36.649  1.00  0.00     0.091 A 
ATOM     45  F   UNL A   1      40.635  34.167  34.461  1.00  0.00    -0.205 F 
ATOM     46  C   UNL A   1      38.974  33.779  37.702  1.00  0.00     0.022 A 
BRANCH  44  47
ATOM     47  S   UNL A   1      40.291  36.039  36.904  1.00  0.00     0.127 S 
ATOM     48  O   UNL A   1      39.743  36.725  35.735  1.00  0.00    -0.237 OA
ATOM     49  O   UNL A   1      39.659  36.399  38.173  1.00  0.00    -0.237 OA
ATOM     50  O   UNL A   1      41.744  35.951  36.949  1.00  0.00    -0.744 OA
ENDBRANCH  44  47
ENDBRANCH  26  40
BRANCH  27  51
ATOM     51  C   UNL A   1      42.094  26.738  27.489  1.00  0.00     0.023 A 
ATOM     52  C   UNL A   1      42.896  27.289  26.473  1.00  0.00     0.012 A 
ATOM     53  C   UNL A   1      41.728  25.380  27.415  1.00  0.00     0.148 A 
ATOM     54  C   UNL A   1      43.324  26.502  25.402  1.00  0.00     0.002 A 
ATOM     55  C   UNL A   1      42.208  24.587  26.380  1.00  0.00     0.091 A 
ATOM     56  F   UNL A   1      40.941  24.879  28.378  1.00  0.00    -0.205 F 
ATOM     57  C   UNL A   1      42.995  25.150  25.364  1.00  0.00     0.022 A 
BRANCH  55  58
ATOM     58  S   UNL A   1      41.965  22.808  26.364  1.00  0.00     0.127 S 
ATOM     59  O   UNL A   1      42.638  22.400  27.593  1.00  0.00    -0.237 OA
ATOM     60  O   UNL A   1      40.505  22.693  26.393  1.00  0.00    -0.237 OA
ATOM     61  O   UNL A   1      42.569  22.352  25.118  1.00  0.00    -0.744 OA
ENDBRANCH  55  58
ENDBRANCH  27  51
BRANCH  39  62
ATOM     62  C   UNL A   1      44.795  27.651  33.878  1.00  0.00     0.023 A 
ATOM     63  C   UNL A   1      45.994  28.375  33.742  1.00  0.00     0.012 A 
ATOM     64  C   UNL A   1      44.750  26.533  34.733  1.00  0.00     0.148 A 
ATOM     65  C   UNL A   1      47.139  27.987  34.437  1.00  0.00     0.002 A 
ATOM     66  C   UNL A   1      45.883  26.175  35.453  1.00  0.00     0.091 A 
ATOM     67  F   UNL A   1      43.600  25.851  34.834  1.00  0.00    -0.205 F 
ATOM     68  C   UNL A   1      47.079  26.896  35.301  1.00  0.00     0.022 A 
BRANCH  66  69
ATOM     69  S   UNL A   1      45.880  24.841  36.657  1.00  0.00     0.127 S 
ATOM     70  O   UNL A   1      44.687  25.154  37.443  1.00  0.00    -0.237 OA
ATOM     71  O   UNL A   1      45.757  23.655  35.808  1.00  0.00    -0.237 OA
ATOM     72  O   UNL A   1      47.143  24.944  37.373  1.00  0.00    -0.744 OA
ENDBRANCH  66  69
ENDBRANCH  39  62
ENDBRANCH  13  14
ENDBRANCH   6   8
ENDBRANCH   3   4
ENDBRANCH   2   3
ENDBRANCH   1   2
BRANCH   1  73
ATOM     73  C   UNL A   1      32.040  27.787  24.936  1.00  0.00     0.116 C 
BRANCH  73  74
ATOM     74  N   UNL A   1      31.059  28.097  23.925  1.00  0.00    -0.354 N 
ATOM     75  C   UNL A   1      30.901  27.683  22.643  1.00  0.00     0.249 C 
ATOM     76  H   UNL A   1      30.371  28.735  24.223  1.00  0.00     0.163 HD
ATOM     77  O   UNL A   1      30.089  28.329  21.968  1.00  0.00    -0.272 OA
BRANCH  75  78
ATOM     78  C   UNL A   1      31.558  26.426  22.039  1.00  0.00     0.207 C 
ATOM     79  C   UNL A   1      33.056  26.302  21.850  1.00  0.00     0.045 C 
ATOM     80  O   UNL A   1      31.127  25.297  22.800  1.00  0.00    -0.363 OA
ATOM     81  C   UNL A   1      33.506  25.264  22.863  1.00  0.00     0.037 C 
ATOM     82  C   UNL A   1      32.244  24.492  23.203  1.00  0.00     0.138 C 
BRANCH  82  83
ATOM     83  C   UNL A   1      32.091  24.175  24.705  1.00  0.00     0.145 C 
BRANCH  83  84
ATOM     84  N   UNL A   1      32.232  22.735  24.914  1.00  0.00    -0.377 N 
ATOM     85  H   UNL A   1      31.415  22.188  24.974  1.00  0.00     0.160 HD
BRANCH  84  86
ATOM     86  C   UNL A   1      33.459  22.103  25.032  1.00  0.00     0.116 A 
ATOM     87  C   UNL A   1      34.579  22.822  25.474  1.00  0.00     0.033 A 
ATOM     88  C   UNL A   1      33.665  20.745  24.719  1.00  0.00     0.327 A 
ATOM     89  C   UNL A   1      35.832  22.214  25.627  1.00  0.00     0.006 A 
ATOM     90  C   UNL A   1      34.907  20.132  24.866  1.00  0.00     0.202 A 
ATOM     91  C   UNL A   1      35.995  20.864  25.325  1.00  0.00     0.047 A 
ATOM     92  F   UNL A   1      35.085  18.832  24.592  1.00  0.00    -0.199 F 
BRANCH  88  93
ATOM     93  N   UNL A   1      32.590  19.934  24.196  1.00  0.00     0.068 N 
ATOM     94  O   UNL A   1      32.116  19.067  24.945  1.00  0.00    -0.258 OA
ATOM     95  O   UNL A   1      32.218  20.163  23.036  1.00  0.00    -0.258 OA
ENDBRANCH  88  93
ENDBRANCH  84  86
ENDBRANCH  83  84
ENDBRANCH  82  83
ENDBRANCH  75  78
ENDBRANCH  73  74
ENDBRANCH   1  73
TORSDOF 18
ENDMDL
MODEL 3
REMARK VINA RESULT:     -11.6      4.926      8.068
REMARK SMILES O=C(NCCCCNC(=O)[C@H]1CC[C@@H](CNc2cccc(F)c2[N+](=O)[O-])O1)c1ccc(-c2c3nc(c(-c4cccc(S(=O)(=O)[O-])c4F)c4ccc([nH]4)c(-c4cccc(S(=O)(=O)[O-])c4F)c4nc(c(-c5cccc(S(=O)(=O)[O-])c5F)c5ccc2[nH]5)C=C4)C=C3)cc1
REMARK SMILES IDX 6 1 5 2 4 3 3 4 1 5 2 6 28 8 29 9 90 10 30 11 89 12 31 13
REMARK SMILES IDX 32 14 33 15 83 16 34 17 88 18 82 19 84 20 35 21 87 22 81 23
REMARK SMILES IDX 80 24 36 26 68 27 48 28 67 29 49 30 52 31 66 32 85 33 50 34
REMARK SMILES IDX 51 35 65 37 86 38 53 39 37 40 38 41 46 42 39 43 41 44 47 45
REMARK SMILES IDX 40 46 42 47 43 48 44 49 45 50 69 51 70 52 78 53 71 54 73 55
REMARK SMILES IDX 79 56 72 57 74 58 75 59 76 60 77 61 54 62 55 63 63 64 56 65
REMARK SMILES IDX 58 66 64 67 57 68 59 69 60 70 61 71 62 72 7 73 8 74 9 75
REMARK SMILES IDX 10 77 11 78 12 79 27 80 13 81 14 82 15 83 16 84 17 86 18 87
REMARK SMILES IDX 23 88 19 89 21 90 20 91 22 92 24 93 25 94 26 95
REMARK H PARENT 3 7 84 25 52 36 8 76 16 85
REMARK Flexibility Score: inf
ROOT
ATOM      1  C   UNL A   1      32.237  27.912  27.273  1.00  0.00     0.023 C 
ENDROOT
BRANCH   1   2
ATOM      2  C   UNL A   1      31.601  29.167  26.674  1.00  0.00     0.023 C 
BRANCH   2   3
ATOM      3  C   UNL A   1      32.582  30.157  26.057  1.00  0.00     0.116 C 
BRANCH   3   4
ATOM      4  N   UNL A   1      32.362  31.535  26.483  1.00  0.00    -0.352 N 
ATOM      5  O   UNL A   1      32.766  33.432  27.639  1.00  0.00    -0.269 OA
ATOM      6  C   UNL A   1      33.144  32.314  27.304  1.00  0.00     0.251 C 
ATOM      7  H   UNL A   1      31.546  31.963  26.137  1.00  0.00     0.163 HD
BRANCH   6   8
ATOM      8  C   UNL A   1      34.416  31.759  27.805  1.00  0.00     0.039 A 
ATOM      9  C   UNL A   1      34.491  30.416  28.178  1.00  0.00     0.014 A 
ATOM     10  C   UNL A   1      35.506  32.613  27.992  1.00  0.00     0.014 A 
ATOM     11  C   UNL A   1      35.589  29.972  28.902  1.00  0.00     0.010 A 
ATOM     12  C   UNL A   1      36.646  32.136  28.644  1.00  0.00     0.010 A 
ATOM     13  C   UNL A   1      36.674  30.829  29.153  1.00  0.00    -0.014 A 
BRANCH  13  14
ATOM     14  C   UNL A   1      37.827  30.323  29.943  1.00  0.00     0.031 A 
ATOM     15  C   UNL A   1      38.825  29.370  29.342  1.00  0.00     0.074 A 
ATOM     16  C   UNL A   1      37.992  30.769  31.203  1.00  0.00     0.049 A 
ATOM     17  N   UNL A   1      39.911  28.876  29.879  1.00  0.00    -0.248 NA
ATOM     18  C   UNL A   1      38.578  28.903  27.966  1.00  0.00     0.031 C 
ATOM     19  C   UNL A   1      37.070  31.670  31.899  1.00  0.00     0.029 A 
ATOM     20  N   UNL A   1      38.990  30.544  32.115  1.00  0.00    -0.354 N 
ATOM     21  C   UNL A   1      40.451  28.012  28.933  1.00  0.00     0.074 A 
ATOM     22  C   UNL A   1      39.573  28.043  27.785  1.00  0.00     0.031 C 
ATOM     23  C   UNL A   1      37.568  31.957  33.111  1.00  0.00     0.029 A 
ATOM     24  C   UNL A   1      38.813  31.221  33.299  1.00  0.00     0.049 A 
ATOM     25  H   UNL A   1      39.758  29.953  31.941  1.00  0.00     0.167 HD
ATOM     26  C   UNL A   1      41.586  27.281  29.009  1.00  0.00     0.034 A 
ATOM     27  C   UNL A   1      39.564  31.244  34.418  1.00  0.00     0.034 A 
ATOM     28  C   UNL A   1      42.491  27.306  30.127  1.00  0.00     0.049 A 
ATOM     29  C   UNL A   1      40.833  30.444  34.460  1.00  0.00     0.074 A 
ATOM     30  C   UNL A   1      43.707  26.658  30.259  1.00  0.00     0.029 A 
ATOM     31  N   UNL A   1      42.286  28.016  31.299  1.00  0.00    -0.354 N 
ATOM     32  N   UNL A   1      41.383  29.727  33.510  1.00  0.00    -0.248 NA
ATOM     33  C   UNL A   1      41.593  30.464  35.717  1.00  0.00     0.031 C 
ATOM     34  C   UNL A   1      44.232  26.966  31.517  1.00  0.00     0.029 A 
ATOM     35  C   UNL A   1      43.345  27.812  32.166  1.00  0.00     0.049 A 
ATOM     36  H   UNL A   1      41.503  28.581  31.487  1.00  0.00     0.167 HD
ATOM     37  C   UNL A   1      42.554  29.212  34.051  1.00  0.00     0.074 A 
ATOM     38  C   UNL A   1      42.652  29.729  35.401  1.00  0.00     0.031 C 
ATOM     39  C   UNL A   1      43.450  28.365  33.491  1.00  0.00     0.034 A 
BRANCH  26  40
ATOM     40  C   UNL A   1      41.969  26.426  27.830  1.00  0.00     0.023 A 
ATOM     41  C   UNL A   1      42.845  26.947  26.857  1.00  0.00     0.012 A 
ATOM     42  C   UNL A   1      41.562  25.079  27.748  1.00  0.00     0.148 A 
ATOM     43  C   UNL A   1      43.307  26.142  25.816  1.00  0.00     0.002 A 
ATOM     44  C   UNL A   1      42.053  24.274  26.726  1.00  0.00     0.091 A 
ATOM     45  F   UNL A   1      40.715  24.611  28.675  1.00  0.00    -0.205 F 
ATOM     46  C   UNL A   1      42.921  24.806  25.757  1.00  0.00     0.022 A 
BRANCH  44  47
ATOM     47  S   UNL A   1      41.674  22.522  26.598  1.00  0.00     0.127 S 
ATOM     48  O   UNL A   1      42.227  22.010  27.851  1.00  0.00    -0.237 OA
ATOM     49  O   UNL A   1      40.212  22.527  26.535  1.00  0.00    -0.237 OA
ATOM     50  O   UNL A   1      42.335  22.054  25.389  1.00  0.00    -0.744 OA
ENDBRANCH  44  47
ENDBRANCH  26  40
BRANCH  27  51
ATOM     51  C   UNL A   1      39.144  32.106  35.559  1.00  0.00     0.023 A 
ATOM     52  C   UNL A   1      38.366  31.551  36.592  1.00  0.00     0.012 A 
ATOM     53  C   UNL A   1      39.584  33.439  35.670  1.00  0.00     0.148 A 
ATOM     54  C   UNL A   1      38.032  32.311  37.714  1.00  0.00     0.002 A 
ATOM     55  C   UNL A   1      39.300  34.170  36.817  1.00  0.00     0.091 A 
ATOM     56  F   UNL A   1      40.301  33.959  34.663  1.00  0.00    -0.205 F 
ATOM     57  C   UNL A   1      38.512  33.613  37.835  1.00  0.00     0.022 A 
BRANCH  55  58
ATOM     58  S   UNL A   1      40.028  35.785  37.110  1.00  0.00     0.127 S 
ATOM     59  O   UNL A   1      41.445  35.459  37.238  1.00  0.00    -0.237 OA
ATOM     60  O   UNL A   1      39.672  36.514  35.891  1.00  0.00    -0.237 OA
ATOM     61  O   UNL A   1      39.372  36.287  38.311  1.00  0.00    -0.744 OA
ENDBRANCH  55  58
ENDBRANCH  27  51
BRANCH  39  62
ATOM     62  C   UNL A   1      44.612  27.917  34.333  1.00  0.00     0.023 A 
ATOM     63  C   UNL A   1      45.763  28.725  34.392  1.00  0.00     0.012 A 
ATOM     64  C   UNL A   1      44.523  26.772  35.149  1.00  0.00     0.148 A 
ATOM     65  C   UNL A   1      46.818  28.395  35.241  1.00  0.00     0.002 A 
ATOM     66  C   UNL A   1      45.561  26.471  36.022  1.00  0.00     0.091 A 
ATOM     67  F   UNL A   1      43.423  26.011  35.064  1.00  0.00    -0.205 F 
ATOM     68  C   UNL A   1      46.711  27.276  36.065  1.00  0.00     0.022 A 
BRANCH  66  69
ATOM     69  S   UNL A   1      45.478  25.103  37.185  1.00  0.00     0.127 S 
ATOM     70  O   UNL A   1      46.880  24.956  37.571  1.00  0.00    -0.237 OA
ATOM     71  O   UNL A   1      44.608  25.639  38.233  1.00  0.00    -0.237 OA
ATOM     72  O   UNL A   1      44.914  23.982  36.446  1.00  0.00    -0.744 OA
ENDBRANCH  66  69
ENDBRANCH  39  62
ENDBRANCH  13  14
ENDBRANCH   6   8
ENDBRANCH   3   4
ENDBRANCH   2   3
ENDBRANCH   1   2
BRANCH   1  73
ATOM     73  C   UNL A   1      32.206  26.696  26.350  1.00  0.00     0.116 C 
BRANCH  73  74
ATOM     74  N   UNL A   1      31.047  25.881  26.617  1.00  0.00    -0.354 N 
ATOM     75  C   UNL A   1      29.884  25.691  25.945  1.00  0.00     0.249 C 
ATOM     76  H   UNL A   1      31.111  25.361  27.451  1.00  0.00     0.163 HD
ATOM     77  O   UNL A   1      28.992  25.106  26.572  1.00  0.00    -0.272 OA
BRANCH  75  78
ATOM     78  C   UNL A   1      29.662  26.041  24.459  1.00  0.00     0.207 C 
ATOM     79  C   UNL A   1      30.055  27.381  23.872  1.00  0.00     0.045 C 
ATOM     80  O   UNL A   1      30.286  25.026  23.672  1.00  0.00    -0.363 OA
ATOM     81  C   UNL A   1      31.235  27.090  22.961  1.00  0.00     0.037 C 
ATOM     82  C   UNL A   1      31.134  25.604  22.669  1.00  0.00     0.138 C 
BRANCH  82  83
ATOM     83  C   UNL A   1      32.489  24.867  22.703  1.00  0.00     0.145 C 
BRANCH  83  84
ATOM     84  N   UNL A   1      32.473  23.869  23.771  1.00  0.00    -0.377 N 
ATOM     85  H   UNL A   1      31.668  23.313  23.880  1.00  0.00     0.160 HD
BRANCH  84  86
ATOM     86  C   UNL A   1      33.535  23.668  24.637  1.00  0.00     0.116 A 
ATOM     87  C   UNL A   1      34.826  24.078  24.270  1.00  0.00     0.033 A 
ATOM     88  C   UNL A   1      33.403  23.053  25.897  1.00  0.00     0.327 A 
ATOM     89  C   UNL A   1      35.922  23.913  25.127  1.00  0.00     0.006 A 
ATOM     90  C   UNL A   1      34.488  22.883  26.755  1.00  0.00     0.202 A 
ATOM     91  C   UNL A   1      35.751  23.316  26.374  1.00  0.00     0.047 A 
ATOM     92  F   UNL A   1      34.345  22.321  27.963  1.00  0.00    -0.199 F 
BRANCH  88  93
ATOM     93  N   UNL A   1      32.128  22.539  26.341  1.00  0.00     0.068 N 
ATOM     94  O   UNL A   1      31.661  21.569  25.726  1.00  0.00    -0.258 OA
ATOM     95  O   UNL A   1      31.592  23.106  27.305  1.00  0.00    -0.258 OA
ENDBRANCH  88  93
ENDBRANCH  84  86
ENDBRANCH  83  84
ENDBRANCH  82  83
ENDBRANCH  75  78
ENDBRANCH  73  74
ENDBRANCH   1  73
TORSDOF 18
ENDMDL
