MODEL 1
REMARK VINA RESULT:     -13.7      0.000      0.000
REMARK SMILES Cc1nc(-c2cccc(F)c2)sc1C(=O)NC[C@H]1CC[C@@H](C(=O)NCCCCNC(=O)c2ccc(-c3c4nc(c(-c5cccc(S(=O)(=O)[O-])c5F)c5ccc([nH]5)c(-c5cccc(S(=O)(=O)[O-])c5F)c5nc(c(-c6cccc(S(=O)(=O)[O-])c6F)c6ccc3[nH]6)C=C5)C=C4)cc2)CC1
REMARK SMILES IDX 26 1 25 2 24 3 22 4 23 5 21 7 18 8 19 9 96 10 20 11 95 12
REMARK SMILES IDX 17 13 16 14 14 15 15 16 13 18 1 19 2 20 3 21 4 22 12 23 5 24
REMARK SMILES IDX 6 25 11 26 7 27 9 28 8 29 10 30 27 31 28 32 29 33 30 34
REMARK SMILES IDX 31 36 32 37 33 38 94 39 34 40 93 41 35 42 36 43 37 44 87 45
REMARK SMILES IDX 38 46 92 47 86 48 88 49 39 50 91 51 85 52 84 53 40 55 72 56
REMARK SMILES IDX 52 57 71 58 53 59 56 60 70 61 89 62 54 63 55 64 69 66 90 67
REMARK SMILES IDX 57 68 41 69 42 70 50 71 43 72 45 73 51 74 44 75 46 76 47 77
REMARK SMILES IDX 48 78 49 79 73 80 74 81 82 82 75 83 77 84 83 85 76 86 78 87
REMARK SMILES IDX 79 88 80 89 81 90 58 91 59 92 67 93 60 94 62 95 68 96 61 97
REMARK SMILES IDX 63 98 64 99 65 100 66 101
REMARK H PARENT 24 6 16 17 29 35 88 54 56 65
REMARK Flexibility Score: inf
ROOT
ATOM      1  C   UNL A   1      31.293  27.596  26.371  1.00  0.00     0.023 C 
ENDROOT
BRANCH   1   2
ATOM      2  C   UNL A   1      32.164  26.348  26.529  1.00  0.00     0.116 C 
BRANCH   2   3
ATOM      3  N   UNL A   1      31.420  25.162  26.884  1.00  0.00    -0.356 N 
ATOM      4  C   UNL A   1      31.747  23.853  27.011  1.00  0.00     0.223 C 
ATOM      5  O   UNL A   1      30.880  23.136  27.530  1.00  0.00    -0.275 OA
ATOM      6  H   UNL A   1      30.472  25.343  27.076  1.00  0.00     0.163 HD
BRANCH   4   7
ATOM      7  C   UNL A   1      33.061  23.197  26.554  1.00  0.00     0.078 C 
ATOM      8  C   UNL A   1      33.557  22.576  23.631  1.00  0.00     0.008 C 
ATOM      9  C   UNL A   1      33.879  23.964  24.223  1.00  0.00     0.006 C 
ATOM     10  C   UNL A   1      32.779  21.621  24.555  1.00  0.00     0.006 C 
ATOM     11  C   UNL A   1      34.037  24.033  25.735  1.00  0.00     0.014 C 
ATOM     12  C   UNL A   1      32.957  21.770  26.052  1.00  0.00     0.014 C 
BRANCH   8  13
ATOM     13  C   UNL A   1      32.816  22.740  22.269  1.00  0.00     0.119 C 
BRANCH  13  14
ATOM     14  N   UNL A   1      33.187  23.941  21.570  1.00  0.00    -0.351 N 
ATOM     15  C   UNL A   1      32.804  25.257  21.587  1.00  0.00     0.263 C 
ATOM     16  O   UNL A   1      33.554  25.947  20.881  1.00  0.00    -0.268 OA
ATOM     17  H   UNL A   1      33.899  23.776  20.910  1.00  0.00     0.163 HD
BRANCH  15  18
ATOM     18  C   UNL A   1      31.659  25.838  22.293  1.00  0.00     0.115 A 
ATOM     19  C   UNL A   1      30.181  24.130  23.645  1.00  0.00     0.068 C 
ATOM     20  C   UNL A   1      30.605  25.443  23.115  1.00  0.00     0.062 A 
ATOM     21  N   UNL A   1      29.732  26.453  23.499  1.00  0.00    -0.241 NA
ATOM     22  C   UNL A   1      30.045  27.594  22.947  1.00  0.00     0.124 A 
ATOM     23  S   UNL A   1      31.470  27.570  22.024  1.00  0.00    -0.108 S 
BRANCH  22  24
ATOM     24  C   UNL A   1      29.230  28.795  23.104  1.00  0.00     0.013 A 
ATOM     25  C   UNL A   1      27.831  28.752  22.992  1.00  0.00     0.011 A 
ATOM     26  C   UNL A   1      29.847  29.988  23.501  1.00  0.00     0.050 A 
ATOM     27  C   UNL A   1      27.063  29.885  23.276  1.00  0.00     0.004 A 
ATOM     28  C   UNL A   1      29.073  31.109  23.773  1.00  0.00     0.123 A 
ATOM     29  C   UNL A   1      27.688  31.066  23.669  1.00  0.00     0.039 A 
ATOM     30  F   UNL A   1      29.669  32.244  24.161  1.00  0.00    -0.207 F 
ENDBRANCH  22  24
ENDBRANCH  15  18
ENDBRANCH  13  14
ENDBRANCH   8  13
ENDBRANCH   4   7
ENDBRANCH   2   3
ENDBRANCH   1   2
BRANCH   1  31
ATOM     31  C   UNL A   1      31.787  28.832  27.115  1.00  0.00     0.023 C 
BRANCH  31  32
ATOM     32  C   UNL A   1      32.493  29.880  26.258  1.00  0.00     0.116 C 
BRANCH  32  33
ATOM     33  N   UNL A   1      32.275  31.258  26.668  1.00  0.00    -0.352 N 
ATOM     34  C   UNL A   1      33.159  32.092  27.343  1.00  0.00     0.251 C 
ATOM     35  H   UNL A   1      31.398  31.645  26.442  1.00  0.00     0.163 HD
ATOM     36  O   UNL A   1      32.833  33.219  27.657  1.00  0.00    -0.269 OA
BRANCH  34  37
ATOM     37  C   UNL A   1      34.486  31.546  27.714  1.00  0.00     0.039 A 
ATOM     38  C   UNL A   1      35.524  32.435  27.997  1.00  0.00     0.014 A 
ATOM     39  C   UNL A   1      34.655  30.174  27.905  1.00  0.00     0.014 A 
ATOM     40  C   UNL A   1      36.702  31.953  28.577  1.00  0.00     0.010 A 
ATOM     41  C   UNL A   1      35.791  29.709  28.557  1.00  0.00     0.010 A 
ATOM     42  C   UNL A   1      36.820  30.594  28.916  1.00  0.00    -0.014 A 
BRANCH  42  43
ATOM     43  C   UNL A   1      37.981  30.082  29.691  1.00  0.00     0.031 A 
ATOM     44  C   UNL A   1      38.224  30.557  31.097  1.00  0.00     0.074 A 
ATOM     45  C   UNL A   1      38.887  29.284  29.087  1.00  0.00     0.049 A 
ATOM     46  N   UNL A   1      39.230  30.298  31.890  1.00  0.00    -0.248 NA
ATOM     47  C   UNL A   1      37.226  31.473  31.675  1.00  0.00     0.031 C 
ATOM     48  C   UNL A   1      38.824  28.833  27.695  1.00  0.00     0.029 A 
ATOM     49  N   UNL A   1      40.054  28.732  29.558  1.00  0.00    -0.354 N 
ATOM     50  C   UNL A   1      39.013  31.051  33.038  1.00  0.00     0.074 A 
ATOM     51  C   UNL A   1      37.796  31.803  32.826  1.00  0.00     0.031 C 
ATOM     52  C   UNL A   1      39.894  28.068  27.429  1.00  0.00     0.029 A 
ATOM     53  C   UNL A   1      40.736  27.991  28.620  1.00  0.00     0.049 A 
ATOM     54  H   UNL A   1      40.374  28.856  30.481  1.00  0.00     0.167 HD
ATOM     55  C   UNL A   1      39.739  31.086  34.178  1.00  0.00     0.034 A 
ATOM     56  C   UNL A   1      41.903  27.322  28.706  1.00  0.00     0.034 A 
ATOM     57  C   UNL A   1      40.901  30.276  34.418  1.00  0.00     0.049 A 
ATOM     58  C   UNL A   1      42.643  27.304  30.016  1.00  0.00     0.074 A 
ATOM     59  C   UNL A   1      41.634  30.153  35.585  1.00  0.00     0.029 A 
ATOM     60  N   UNL A   1      41.494  29.444  33.482  1.00  0.00    -0.354 N 
ATOM     61  N   UNL A   1      42.328  27.890  31.146  1.00  0.00    -0.248 NA
ATOM     62  C   UNL A   1      43.878  26.506  30.079  1.00  0.00     0.031 C 
ATOM     63  C   UNL A   1      42.676  29.251  35.353  1.00  0.00     0.029 A 
ATOM     64  C   UNL A   1      42.585  28.805  34.044  1.00  0.00     0.049 A 
ATOM     65  H   UNL A   1      41.186  29.327  32.554  1.00  0.00     0.167 HD
ATOM     66  C   UNL A   1      43.305  27.511  32.058  1.00  0.00     0.074 A 
ATOM     67  C   UNL A   1      44.214  26.628  31.358  1.00  0.00     0.031 C 
ATOM     68  C   UNL A   1      43.446  27.879  33.355  1.00  0.00     0.034 A 
BRANCH  55  69
ATOM     69  C   UNL A   1      39.252  31.967  35.296  1.00  0.00     0.023 A 
ATOM     70  C   UNL A   1      38.338  31.446  36.235  1.00  0.00     0.012 A 
ATOM     71  C   UNL A   1      39.759  33.269  35.472  1.00  0.00     0.148 A 
ATOM     72  C   UNL A   1      37.915  32.216  37.317  1.00  0.00     0.002 A 
ATOM     73  C   UNL A   1      39.365  34.016  36.577  1.00  0.00     0.091 A 
ATOM     74  F   UNL A   1      40.613  33.753  34.557  1.00  0.00    -0.205 F 
ATOM     75  C   UNL A   1      38.438  33.494  37.494  1.00  0.00     0.022 A 
BRANCH  73  76
ATOM     76  S   UNL A   1      40.038  35.642  36.939  1.00  0.00     0.127 S 
ATOM     77  O   UNL A   1      39.361  35.966  38.195  1.00  0.00    -0.237 OA
ATOM     78  O   UNL A   1      41.468  35.360  37.072  1.00  0.00    -0.237 OA
ATOM     79  O   UNL A   1      39.687  36.484  35.805  1.00  0.00    -0.744 OA
ENDBRANCH  73  76
ENDBRANCH  55  69
BRANCH  56  80
ATOM     80  C   UNL A   1      42.389  26.535  27.535  1.00  0.00     0.023 A 
ATOM     81  C   UNL A   1      43.252  27.150  26.608  1.00  0.00     0.012 A 
ATOM     82  C   UNL A   1      42.060  25.176  27.371  1.00  0.00     0.148 A 
ATOM     83  C   UNL A   1      43.765  26.432  25.526  1.00  0.00     0.002 A 
ATOM     84  C   UNL A   1      42.617  24.452  26.321  1.00  0.00     0.091 A 
ATOM     85  F   UNL A   1      41.226  24.612  28.255  1.00  0.00    -0.205 F 
ATOM     86  C   UNL A   1      43.458  25.081  25.390  1.00  0.00     0.022 A 
BRANCH  84  87
ATOM     87  S   UNL A   1      42.390  22.677  26.151  1.00  0.00     0.127 S 
ATOM     88  O   UNL A   1      40.935  22.559  26.144  1.00  0.00    -0.237 OA
ATOM     89  O   UNL A   1      43.037  22.410  24.865  1.00  0.00    -0.237 OA
ATOM     90  O   UNL A   1      43.071  22.085  27.295  1.00  0.00    -0.744 OA
ENDBRANCH  84  87
ENDBRANCH  56  80
BRANCH  68  91
ATOM     91  C   UNL A   1      44.612  27.326  34.130  1.00  0.00     0.023 A 
ATOM     92  C   UNL A   1      45.810  28.062  34.195  1.00  0.00     0.012 A 
ATOM     93  C   UNL A   1      44.473  26.155  34.903  1.00  0.00     0.148 A 
ATOM     94  C   UNL A   1      46.858  27.636  35.009  1.00  0.00     0.002 A 
ATOM     95  C   UNL A   1      45.505  25.760  35.745  1.00  0.00     0.091 A 
ATOM     96  F   UNL A   1      43.328  25.461  34.812  1.00  0.00    -0.205 F 
ATOM     97  C   UNL A   1      46.701  26.495  35.794  1.00  0.00     0.022 A 
BRANCH  95  98
ATOM     98  S   UNL A   1      45.351  24.366  36.868  1.00  0.00     0.127 S 
ATOM     99  O   UNL A   1      44.297  24.826  37.770  1.00  0.00    -0.237 OA
ATOM    100  O   UNL A   1      44.955  23.282  35.967  1.00  0.00    -0.237 OA
ATOM    101  O   UNL A   1      46.664  24.195  37.474  1.00  0.00    -0.744 OA
ENDBRANCH  95  98
ENDBRANCH  68  91
ENDBRANCH  42  43
ENDBRANCH  34  37
ENDBRANCH  32  33
ENDBRANCH  31  32
ENDBRANCH   1  31
TORSDOF 18
ENDMDL
MODEL 2
REMARK VINA RESULT:     -13.4      2.969      8.814
REMARK SMILES Cc1nc(-c2cccc(F)c2)sc1C(=O)NC[C@H]1CC[C@@H](C(=O)NCCCCNC(=O)c2ccc(-c3c4nc(c(-c5cccc(S(=O)(=O)[O-])c5F)c5ccc([nH]5)c(-c5cccc(S(=O)(=O)[O-])c5F)c5nc(c(-c6cccc(S(=O)(=O)[O-])c6F)c6ccc3[nH]6)C=C5)C=C4)cc2)CC1
REMARK SMILES IDX 26 1 25 2 24 3 22 4 23 5 21 7 18 8 19 9 96 10 20 11 95 12
REMARK SMILES IDX 17 13 16 14 14 15 15 16 13 18 1 19 2 20 3 21 4 22 12 23 5 24
REMARK SMILES IDX 6 25 11 26 7 27 9 28 8 29 10 30 27 31 28 32 29 33 30 34
REMARK SMILES IDX 31 36 32 37 33 38 94 39 34 40 93 41 35 42 36 43 37 44 87 45
REMARK SMILES IDX 38 46 92 47 86 48 88 49 39 50 91 51 85 52 84 53 40 55 72 56
REMARK SMILES IDX 52 57 71 58 53 59 56 60 70 61 89 62 54 63 55 64 69 66 90 67
REMARK SMILES IDX 57 68 41 69 42 70 50 71 43 72 45 73 51 74 44 75 46 76 47 77
REMARK SMILES IDX 48 78 49 79 73 80 74 81 82 82 75 83 77 84 83 85 76 86 78 87
REMARK SMILES IDX 79 88 80 89 81 90 58 91 59 92 67 93 60 94 62 95 68 96 61 97
REMARK SMILES IDX 63 98 64 99 65 100 66 101
REMARK H PARENT 24 6 16 17 29 35 88 54 56 65
REMARK Flexibility Score: inf
ROOT
ATOM      1  C   UNL A   1      31.633  30.763  25.948  1.00  0.00     0.023 C 
ENDROOT
BRANCH   1   2
ATOM      2  C   UNL A   1      31.359  29.472  25.174  1.00  0.00     0.116 C 
BRANCH   2   3
ATOM      3  N   UNL A   1      30.771  29.689  23.873  1.00  0.00    -0.356 N 
ATOM      4  C   UNL A   1      30.902  29.077  22.671  1.00  0.00     0.223 C 
ATOM      5  O   UNL A   1      30.081  29.419  21.808  1.00  0.00    -0.275 OA
ATOM      6  H   UNL A   1      30.139  30.443  23.855  1.00  0.00     0.163 HD
BRANCH   4   7
ATOM      7  C   UNL A   1      31.973  28.040  22.293  1.00  0.00     0.078 C 
ATOM      8  C   UNL A   1      33.437  26.463  24.425  1.00  0.00     0.008 C 
ATOM      9  C   UNL A   1      32.076  25.993  23.870  1.00  0.00     0.006 C 
ATOM     10  C   UNL A   1      33.884  27.871  23.989  1.00  0.00     0.006 C 
ATOM     11  C   UNL A   1      31.661  26.566  22.523  1.00  0.00     0.014 C 
ATOM     12  C   UNL A   1      33.403  28.392  22.650  1.00  0.00     0.014 C 
BRANCH   8  13
ATOM     13  C   UNL A   1      33.445  26.346  25.979  1.00  0.00     0.119 C 
BRANCH  13  14
ATOM     14  N   UNL A   1      32.420  25.469  26.480  1.00  0.00    -0.351 N 
ATOM     15  C   UNL A   1      32.256  24.116  26.623  1.00  0.00     0.263 C 
ATOM     16  O   UNL A   1      31.227  23.859  27.267  1.00  0.00    -0.268 OA
ATOM     17  H   UNL A   1      31.635  25.969  26.801  1.00  0.00     0.163 HD
BRANCH  15  18
ATOM     18  C   UNL A   1      33.117  23.058  26.092  1.00  0.00     0.115 A 
ATOM     19  C   UNL A   1      35.685  23.632  25.998  1.00  0.00     0.068 C 
ATOM     20  C   UNL A   1      34.465  22.814  25.830  1.00  0.00     0.062 A 
ATOM     21  N   UNL A   1      34.752  21.583  25.257  1.00  0.00    -0.241 NA
ATOM     22  C   UNL A   1      33.665  20.901  25.011  1.00  0.00     0.124 A 
ATOM     23  S   UNL A   1      32.232  21.631  25.555  1.00  0.00    -0.108 S 
BRANCH  22  24
ATOM     24  C   UNL A   1      33.681  19.616  24.318  1.00  0.00     0.013 A 
ATOM     25  C   UNL A   1      34.607  18.614  24.650  1.00  0.00     0.011 A 
ATOM     26  C   UNL A   1      32.670  19.332  23.391  1.00  0.00     0.050 A 
ATOM     27  C   UNL A   1      34.519  17.347  24.067  1.00  0.00     0.004 A 
ATOM     28  C   UNL A   1      32.598  18.071  22.813  1.00  0.00     0.123 A 
ATOM     29  C   UNL A   1      33.510  17.076  23.145  1.00  0.00     0.039 A 
ATOM     30  F   UNL A   1      31.623  17.803  21.934  1.00  0.00    -0.207 F 
ENDBRANCH  22  24
ENDBRANCH  15  18
ENDBRANCH  13  14
ENDBRANCH   8  13
ENDBRANCH   4   7
ENDBRANCH   2   3
ENDBRANCH   1   2
BRANCH   1  31
ATOM     31  C   UNL A   1      32.568  30.616  27.145  1.00  0.00     0.023 C 
BRANCH  31  32
ATOM     32  C   UNL A   1      33.520  31.787  27.386  1.00  0.00     0.116 C 
BRANCH  32  33
ATOM     33  N   UNL A   1      32.875  33.081  27.536  1.00  0.00    -0.352 N 
ATOM     34  C   UNL A   1      33.206  34.094  28.429  1.00  0.00     0.251 C 
ATOM     35  H   UNL A   1      32.116  33.261  26.936  1.00  0.00     0.163 HD
ATOM     36  O   UNL A   1      32.557  35.120  28.473  1.00  0.00    -0.269 OA
BRANCH  34  37
ATOM     37  C   UNL A   1      34.335  33.861  29.361  1.00  0.00     0.039 A 
ATOM     38  C   UNL A   1      34.110  33.112  30.517  1.00  0.00     0.014 A 
ATOM     39  C   UNL A   1      35.625  34.270  29.021  1.00  0.00     0.014 A 
ATOM     40  C   UNL A   1      35.200  32.679  31.278  1.00  0.00     0.010 A 
ATOM     41  C   UNL A   1      36.711  33.770  29.731  1.00  0.00     0.010 A 
ATOM     42  C   UNL A   1      36.512  32.956  30.857  1.00  0.00    -0.014 A 
BRANCH  42  43
ATOM     43  C   UNL A   1      37.693  32.365  31.542  1.00  0.00     0.031 A 
ATOM     44  C   UNL A   1      38.463  31.246  30.897  1.00  0.00     0.074 A 
ATOM     45  C   UNL A   1      37.996  32.749  32.799  1.00  0.00     0.049 A 
ATOM     46  N   UNL A   1      39.455  30.545  31.379  1.00  0.00    -0.248 NA
ATOM     47  C   UNL A   1      38.042  30.836  29.546  1.00  0.00     0.031 C 
ATOM     48  C   UNL A   1      37.265  33.751  33.580  1.00  0.00     0.029 A 
ATOM     49  N   UNL A   1      38.984  32.325  33.655  1.00  0.00    -0.354 N 
ATOM     50  C   UNL A   1      39.745  29.585  30.417  1.00  0.00     0.074 A 
ATOM     51  C   UNL A   1      38.804  29.772  29.336  1.00  0.00     0.031 C 
ATOM     52  C   UNL A   1      37.833  33.870  34.790  1.00  0.00     0.029 A 
ATOM     53  C   UNL A   1      38.953  32.939  34.887  1.00  0.00     0.049 A 
ATOM     54  H   UNL A   1      39.651  31.643  33.412  1.00  0.00     0.167 HD
ATOM     55  C   UNL A   1      40.728  28.656  30.417  1.00  0.00     0.034 A 
ATOM     56  C   UNL A   1      39.738  32.776  35.971  1.00  0.00     0.034 A 
ATOM     57  C   UNL A   1      41.714  28.527  31.455  1.00  0.00     0.049 A 
ATOM     58  C   UNL A   1      40.882  31.800  35.909  1.00  0.00     0.074 A 
ATOM     59  C   UNL A   1      42.819  27.696  31.487  1.00  0.00     0.029 A 
ATOM     60  N   UNL A   1      41.721  29.251  32.636  1.00  0.00    -0.354 N 
ATOM     61  N   UNL A   1      41.242  31.019  34.919  1.00  0.00    -0.248 NA
ATOM     62  C   UNL A   1      41.749  31.706  37.093  1.00  0.00     0.031 C 
ATOM     63  C   UNL A   1      43.492  27.913  32.692  1.00  0.00     0.029 A 
ATOM     64  C   UNL A   1      42.811  28.886  33.405  1.00  0.00     0.049 A 
ATOM     65  H   UNL A   1      41.049  29.925  32.890  1.00  0.00     0.167 HD
ATOM     66  C   UNL A   1      42.390  30.364  35.349  1.00  0.00     0.074 A 
ATOM     67  C   UNL A   1      42.679  30.853  36.680  1.00  0.00     0.031 C 
ATOM     68  C   UNL A   1      43.125  29.426  34.703  1.00  0.00     0.034 A 
BRANCH  55  69
ATOM     69  C   UNL A   1      40.847  27.757  29.217  1.00  0.00     0.023 A 
ATOM     70  C   UNL A   1      40.014  26.624  29.121  1.00  0.00     0.012 A 
ATOM     71  C   UNL A   1      41.710  28.075  28.150  1.00  0.00     0.148 A 
ATOM     72  C   UNL A   1      40.056  25.805  27.994  1.00  0.00     0.002 A 
ATOM     73  C   UNL A   1      41.716  27.277  27.012  1.00  0.00     0.091 A 
ATOM     74  F   UNL A   1      42.508  29.146  28.270  1.00  0.00    -0.205 F 
ATOM     75  C   UNL A   1      40.897  26.139  26.936  1.00  0.00     0.022 A 
BRANCH  73  76
ATOM     76  S   UNL A   1      42.705  27.664  25.562  1.00  0.00     0.127 S 
ATOM     77  O   UNL A   1      42.437  26.507  24.707  1.00  0.00    -0.237 OA
ATOM     78  O   UNL A   1      42.100  28.915  25.102  1.00  0.00    -0.237 OA
ATOM     79  O   UNL A   1      44.077  27.789  26.033  1.00  0.00    -0.744 OA
ENDBRANCH  73  76
ENDBRANCH  55  69
BRANCH  56  80
ATOM     80  C   UNL A   1      39.520  33.633  37.173  1.00  0.00     0.023 A 
ATOM     81  C   UNL A   1      39.958  34.972  37.146  1.00  0.00     0.012 A 
ATOM     82  C   UNL A   1      38.832  33.158  38.305  1.00  0.00     0.148 A 
ATOM     83  C   UNL A   1      39.730  35.818  38.233  1.00  0.00     0.002 A 
ATOM     84  C   UNL A   1      38.562  34.021  39.363  1.00  0.00     0.091 A 
ATOM     85  F   UNL A   1      38.437  31.878  38.318  1.00  0.00    -0.205 F 
ATOM     86  C   UNL A   1      39.021  35.346  39.335  1.00  0.00     0.022 A 
BRANCH  84  87
ATOM     87  S   UNL A   1      37.534  33.540  40.757  1.00  0.00     0.127 S 
ATOM     88  O   UNL A   1      36.336  33.041  40.089  1.00  0.00    -0.237 OA
ATOM     89  O   UNL A   1      38.356  32.512  41.399  1.00  0.00    -0.237 OA
ATOM     90  O   UNL A   1      37.363  34.749  41.551  1.00  0.00    -0.744 OA
ENDBRANCH  84  87
ENDBRANCH  56  80
BRANCH  68  91
ATOM     91  C   UNL A   1      44.333  28.861  35.402  1.00  0.00     0.023 A 
ATOM     92  C   UNL A   1      45.583  29.485  35.234  1.00  0.00     0.012 A 
ATOM     93  C   UNL A   1      44.202  27.807  36.328  1.00  0.00     0.148 A 
ATOM     94  C   UNL A   1      46.689  29.062  35.968  1.00  0.00     0.002 A 
ATOM     95  C   UNL A   1      45.299  27.418  37.088  1.00  0.00     0.091 A 
ATOM     96  F   UNL A   1      43.005  27.215  36.459  1.00  0.00    -0.205 F 
ATOM     97  C   UNL A   1      46.545  28.040  36.904  1.00  0.00     0.022 A 
BRANCH  95  98
ATOM     98  S   UNL A   1      45.180  26.184  38.388  1.00  0.00     0.127 S 
ATOM     99  O   UNL A   1      46.573  26.072  38.820  1.00  0.00    -0.237 OA
ATOM    100  O   UNL A   1      44.292  26.833  39.354  1.00  0.00    -0.237 OA
ATOM    101  O   UNL A   1      44.622  24.994  37.761  1.00  0.00    -0.744 OA
ENDBRANCH  95  98
ENDBRANCH  68  91
ENDBRANCH  42  43
ENDBRANCH  34  37
ENDBRANCH  32  33
ENDBRANCH  31  32
ENDBRANCH   1  31
TORSDOF 18
ENDMDL
MODEL 3
REMARK VINA RESULT:     -13.0      2.839      5.236
REMARK SMILES Cc1nc(-c2cccc(F)c2)sc1C(=O)NC[C@H]1CC[C@@H](C(=O)NCCCCNC(=O)c2ccc(-c3c4nc(c(-c5cccc(S(=O)(=O)[O-])c5F)c5ccc([nH]5)c(-c5cccc(S(=O)(=O)[O-])c5F)c5nc(c(-c6cccc(S(=O)(=O)[O-])c6F)c6ccc3[nH]6)C=C5)C=C4)cc2)CC1
REMARK SMILES IDX 26 1 25 2 24 3 22 4 23 5 21 7 18 8 19 9 96 10 20 11 95 12
REMARK SMILES IDX 17 13 16 14 14 15 15 16 13 18 1 19 2 20 3 21 4 22 12 23 5 24
REMARK SMILES IDX 6 25 11 26 7 27 9 28 8 29 10 30 27 31 28 32 29 33 30 34
REMARK SMILES IDX 31 36 32 37 33 38 94 39 34 40 93 41 35 42 36 43 37 44 87 45
REMARK SMILES IDX 38 46 92 47 86 48 88 49 39 50 91 51 85 52 84 53 40 55 72 56
REMARK SMILES IDX 52 57 71 58 53 59 56 60 70 61 89 62 54 63 55 64 69 66 90 67
REMARK SMILES IDX 57 68 41 69 42 70 50 71 43 72 45 73 51 74 44 75 46 76 47 77
REMARK SMILES IDX 48 78 49 79 73 80 74 81 82 82 75 83 77 84 83 85 76 86 78 87
REMARK SMILES IDX 79 88 80 89 81 90 58 91 59 92 67 93 60 94 62 95 68 96 61 97
REMARK SMILES IDX 63 98 64 99 65 100 66 101
REMARK H PARENT 24 6 16 17 29 35 88 54 56 65
REMARK Flexibility Score: inf
ROOT
ATOM      1  C   UNL A   1      34.781  30.645  27.770  1.00  0.00     0.023 C 
ENDROOT
BRANCH   1   2
ATOM      2  C   UNL A   1      34.427  29.227  27.319  1.00  0.00     0.116 C 
BRANCH   2   3
ATOM      3  N   UNL A   1      34.294  29.090  25.887  1.00  0.00    -0.356 N 
ATOM      4  C   UNL A   1      33.235  29.071  25.042  1.00  0.00     0.223 C 
ATOM      5  O   UNL A   1      33.515  29.132  23.836  1.00  0.00    -0.275 OA
ATOM      6  H   UNL A   1      35.157  28.989  25.426  1.00  0.00     0.163 HD
BRANCH   4   7
ATOM      7  C   UNL A   1      31.754  28.958  25.443  1.00  0.00     0.078 C 
ATOM      8  C   UNL A   1      30.052  26.643  24.484  1.00  0.00     0.008 C 
ATOM      9  C   UNL A   1      30.918  26.531  25.757  1.00  0.00     0.006 C 
ATOM     10  C   UNL A   1      30.277  27.907  23.634  1.00  0.00     0.006 C 
ATOM     11  C   UNL A   1      31.349  27.842  26.398  1.00  0.00     0.014 C 
ATOM     12  C   UNL A   1      30.742  29.167  24.334  1.00  0.00     0.014 C 
BRANCH   8  13
ATOM     13  C   UNL A   1      30.222  25.362  23.613  1.00  0.00     0.119 C 
BRANCH  13  14
ATOM     14  N   UNL A   1      30.380  24.167  24.398  1.00  0.00    -0.351 N 
ATOM     15  C   UNL A   1      31.422  23.490  24.976  1.00  0.00     0.263 C 
ATOM     16  O   UNL A   1      31.009  22.569  25.695  1.00  0.00    -0.268 OA
ATOM     17  H   UNL A   1      29.518  23.720  24.561  1.00  0.00     0.163 HD
BRANCH  15  18
ATOM     18  C   UNL A   1      32.853  23.743  24.793  1.00  0.00     0.115 A 
ATOM     19  C   UNL A   1      33.451  25.696  23.131  1.00  0.00     0.068 C 
ATOM     20  C   UNL A   1      33.701  24.596  24.086  1.00  0.00     0.062 A 
ATOM     21  N   UNL A   1      35.060  24.368  24.258  1.00  0.00    -0.241 NA
ATOM     22  C   UNL A   1      35.282  23.331  25.019  1.00  0.00     0.124 A 
ATOM     23  S   UNL A   1      33.887  22.624  25.681  1.00  0.00    -0.108 S 
BRANCH  22  24
ATOM     24  C   UNL A   1      36.623  22.815  25.277  1.00  0.00     0.013 A 
ATOM     25  C   UNL A   1      37.586  23.580  25.954  1.00  0.00     0.011 A 
ATOM     26  C   UNL A   1      36.913  21.484  24.953  1.00  0.00     0.050 A 
ATOM     27  C   UNL A   1      38.817  23.019  26.306  1.00  0.00     0.004 A 
ATOM     28  C   UNL A   1      38.143  20.940  25.301  1.00  0.00     0.123 A 
ATOM     29  C   UNL A   1      39.094  21.694  25.978  1.00  0.00     0.039 A 
ATOM     30  F   UNL A   1      38.410  19.663  24.996  1.00  0.00    -0.207 F 
ENDBRANCH  22  24
ENDBRANCH  15  18
ENDBRANCH  13  14
ENDBRANCH   8  13
ENDBRANCH   4   7
ENDBRANCH   2   3
ENDBRANCH   1   2
BRANCH   1  31
ATOM     31  C   UNL A   1      33.635  31.651  27.710  1.00  0.00     0.023 C 
BRANCH  31  32
ATOM     32  C   UNL A   1      34.039  33.096  27.429  1.00  0.00     0.116 C 
BRANCH  32  33
ATOM     33  N   UNL A   1      33.159  34.103  28.000  1.00  0.00    -0.352 N 
ATOM     34  C   UNL A   1      33.261  34.709  29.247  1.00  0.00     0.251 C 
ATOM     35  H   UNL A   1      32.403  34.388  27.438  1.00  0.00     0.163 HD
ATOM     36  O   UNL A   1      32.430  35.516  29.615  1.00  0.00    -0.269 OA
BRANCH  34  37
ATOM     37  C   UNL A   1      34.378  34.299  30.132  1.00  0.00     0.039 A 
ATOM     38  C   UNL A   1      34.122  33.394  31.163  1.00  0.00     0.014 A 
ATOM     39  C   UNL A   1      35.682  34.711  29.856  1.00  0.00     0.014 A 
ATOM     40  C   UNL A   1      35.194  32.815  31.850  1.00  0.00     0.010 A 
ATOM     41  C   UNL A   1      36.747  34.073  30.482  1.00  0.00     0.010 A 
ATOM     42  C   UNL A   1      36.516  33.106  31.473  1.00  0.00    -0.014 A 
BRANCH  42  43
ATOM     43  C   UNL A   1      37.673  32.379  32.061  1.00  0.00     0.031 A 
ATOM     44  C   UNL A   1      38.271  32.834  33.364  1.00  0.00     0.074 A 
ATOM     45  C   UNL A   1      38.262  31.386  31.364  1.00  0.00     0.049 A 
ATOM     46  N   UNL A   1      39.334  32.388  33.980  1.00  0.00    -0.248 NA
ATOM     47  C   UNL A   1      37.613  33.962  34.045  1.00  0.00     0.031 C 
ATOM     48  C   UNL A   1      37.843  30.916  30.040  1.00  0.00     0.029 A 
ATOM     49  N   UNL A   1      39.357  30.610  31.655  1.00  0.00    -0.354 N 
ATOM     50  C   UNL A   1      39.499  33.206  35.092  1.00  0.00     0.074 A 
ATOM     51  C   UNL A   1      38.446  34.196  35.049  1.00  0.00     0.031 C 
ATOM     52  C   UNL A   1      38.662  29.930  29.642  1.00  0.00     0.029 A 
ATOM     53  C   UNL A   1      39.680  29.710  30.665  1.00  0.00     0.049 A 
ATOM     54  H   UNL A   1      39.865  30.690  32.495  1.00  0.00     0.167 HD
ATOM     55  C   UNL A   1      40.421  33.119  36.079  1.00  0.00     0.034 A 
ATOM     56  C   UNL A   1      40.679  28.807  30.588  1.00  0.00     0.034 A 
ATOM     57  C   UNL A   1      41.414  32.084  36.163  1.00  0.00     0.049 A 
ATOM     58  C   UNL A   1      41.634  28.670  31.742  1.00  0.00     0.074 A 
ATOM     59  C   UNL A   1      42.314  31.842  37.185  1.00  0.00     0.029 A 
ATOM     60  N   UNL A   1      41.633  31.115  35.197  1.00  0.00    -0.354 N 
ATOM     61  N   UNL A   1      41.668  29.345  32.865  1.00  0.00    -0.248 NA
ATOM     62  C   UNL A   1      42.667  27.627  31.639  1.00  0.00     0.031 C 
ATOM     63  C   UNL A   1      43.083  30.729  36.835  1.00  0.00     0.029 A 
ATOM     64  C   UNL A   1      42.655  30.273  35.598  1.00  0.00     0.049 A 
ATOM     65  H   UNL A   1      41.136  31.038  34.350  1.00  0.00     0.167 HD
ATOM     66  C   UNL A   1      42.701  28.792  33.612  1.00  0.00     0.074 A 
ATOM     67  C   UNL A   1      43.257  27.712  32.825  1.00  0.00     0.031 C 
ATOM     68  C   UNL A   1      43.159  29.161  34.833  1.00  0.00     0.034 A 
BRANCH  55  69
ATOM     69  C   UNL A   1      40.348  34.118  37.200  1.00  0.00     0.023 A 
ATOM     70  C   UNL A   1      40.907  35.399  37.018  1.00  0.00     0.012 A 
ATOM     71  C   UNL A   1      39.656  33.827  38.392  1.00  0.00     0.148 A 
ATOM     72  C   UNL A   1      40.803  36.368  38.014  1.00  0.00     0.002 A 
ATOM     73  C   UNL A   1      39.520  34.813  39.364  1.00  0.00     0.091 A 
ATOM     74  F   UNL A   1      39.148  32.596  38.554  1.00  0.00    -0.205 F 
ATOM     75  C   UNL A   1      40.099  36.079  39.180  1.00  0.00     0.022 A 
BRANCH  73  76
ATOM     76  S   UNL A   1      38.566  34.567  40.867  1.00  0.00     0.127 S 
ATOM     77  O   UNL A   1      39.537  33.881  41.721  1.00  0.00    -0.237 OA
ATOM     78  O   UNL A   1      38.266  35.941  41.269  1.00  0.00    -0.237 OA
ATOM     79  O   UNL A   1      37.405  33.778  40.482  1.00  0.00    -0.744 OA
ENDBRANCH  73  76
ENDBRANCH  55  69
BRANCH  56  80
ATOM     80  C   UNL A   1      40.759  27.897  29.408  1.00  0.00     0.023 A 
ATOM     81  C   UNL A   1      39.898  26.784  29.343  1.00  0.00     0.012 A 
ATOM     82  C   UNL A   1      41.625  28.160  28.329  1.00  0.00     0.148 A 
ATOM     83  C   UNL A   1      39.911  25.937  28.234  1.00  0.00     0.002 A 
ATOM     84  C   UNL A   1      41.596  27.342  27.204  1.00  0.00     0.091 A 
ATOM     85  F   UNL A   1      42.447  29.215  28.416  1.00  0.00    -0.205 F 
ATOM     86  C   UNL A   1      40.750  26.223  27.160  1.00  0.00     0.022 A 
BRANCH  84  87
ATOM     87  S   UNL A   1      42.536  27.717  25.719  1.00  0.00     0.127 S 
ATOM     88  O   UNL A   1      43.908  27.682  26.216  1.00  0.00    -0.237 OA
ATOM     89  O   UNL A   1      42.170  26.605  24.839  1.00  0.00    -0.237 OA
ATOM     90  O   UNL A   1      42.055  29.016  25.269  1.00  0.00    -0.744 OA
ENDBRANCH  84  87
ENDBRANCH  56  80
BRANCH  68  91
ATOM     91  C   UNL A   1      44.311  28.394  35.425  1.00  0.00     0.023 A 
ATOM     92  C   UNL A   1      45.628  28.737  35.065  1.00  0.00     0.012 A 
ATOM     93  C   UNL A   1      44.095  27.435  36.435  1.00  0.00     0.148 A 
ATOM     94  C   UNL A   1      46.714  28.130  35.692  1.00  0.00     0.002 A 
ATOM     95  C   UNL A   1      45.182  26.865  37.087  1.00  0.00     0.091 A 
ATOM     96  F   UNL A   1      42.832  27.111  36.749  1.00  0.00    -0.205 F 
ATOM     97  C   UNL A   1      46.492  27.207  36.712  1.00  0.00     0.022 A 
BRANCH  95  98
ATOM     98  S   UNL A   1      44.991  25.746  38.480  1.00  0.00     0.127 S 
ATOM     99  O   UNL A   1      44.133  26.525  39.371  1.00  0.00    -0.237 OA
ATOM    100  O   UNL A   1      44.341  24.589  37.864  1.00  0.00    -0.237 OA
ATOM    101  O   UNL A   1      46.337  25.490  38.973  1.00  0.00    -0.744 OA
ENDBRANCH  95  98
ENDBRANCH  68  91
ENDBRANCH  42  43
ENDBRANCH  34  37
ENDBRANCH  32  33
ENDBRANCH  31  32
ENDBRANCH   1  31
TORSDOF 18
ENDMDL
