MODEL 1
REMARK VINA RESULT:     -10.7      0.000      0.000
REMARK SMILES CC(C)N(CC(=O)NCCCCNC(=O)c1ccc(-c2c3nc(c(-c4cccc(S(=O)(=O)[O-])c4F)c4ccc([nH]4)c(-c4cccc(S(=O)(=O)[O-])c4F)c4nc(c(-c5cccc(S(=O)(=O)[O-])c5F)c5ccc2[nH]5)C=C4)C=C3)cc1)C(=O)NC1C(C)(C)C1(C)C
REMARK SMILES IDX 10 1 9 2 8 3 6 4 7 5 5 7 4 8 2 9 1 10 3 11 79 12 80 13 81 14
REMARK SMILES IDX 82 16 83 17 86 18 84 19 85 20 87 21 88 22 11 23 12 24 13 25
REMARK SMILES IDX 14 26 15 28 16 29 17 30 78 31 18 32 77 33 19 34 20 35 21 36
REMARK SMILES IDX 71 37 22 38 76 39 70 40 72 41 23 42 75 43 69 44 68 45 24 47
REMARK SMILES IDX 56 48 36 49 55 50 37 51 40 52 54 53 73 54 38 55 39 56 53 58
REMARK SMILES IDX 74 59 41 60 25 61 26 62 34 63 27 64 29 65 35 66 28 67 30 68
REMARK SMILES IDX 31 69 32 70 33 71 57 72 58 73 66 74 59 75 61 76 67 77 60 78
REMARK SMILES IDX 62 79 63 80 64 81 65 82 42 83 43 84 51 85 44 86 46 87 52 88
REMARK SMILES IDX 45 89 47 90 48 91 49 92 50 93
REMARK H PARENT 8 6 81 15 13 27 72 46 40 57
REMARK Flexibility Score: inf
ROOT
ATOM      1  C   UNL A   1      31.970  27.104  26.728  1.00  0.00     0.023 C 
ENDROOT
BRANCH   1   2
ATOM      2  C   UNL A   1      30.709  26.588  26.045  1.00  0.00     0.116 C 
BRANCH   2   3
ATOM      3  N   UNL A   1      30.582  25.163  26.045  1.00  0.00    -0.355 N 
ATOM      4  C   UNL A   1      30.810  24.306  25.029  1.00  0.00     0.239 C 
ATOM      5  O   UNL A   1      31.076  23.138  25.349  1.00  0.00    -0.273 OA
ATOM      6  H   UNL A   1      30.292  24.758  26.895  1.00  0.00     0.163 HD
BRANCH   4   7
ATOM      7  C   UNL A   1      30.828  24.702  23.536  1.00  0.00     0.221 C 
BRANCH   7   8
ATOM      8  N   UNL A   1      31.952  24.810  22.565  1.00  0.00    -0.313 N 
BRANCH   8   9
ATOM      9  C   UNL A   1      32.142  26.195  22.031  1.00  0.00     0.081 C 
ATOM     10  C   UNL A   1      31.029  27.131  22.524  1.00  0.00     0.031 C 
ATOM     11  C   UNL A   1      33.510  26.858  22.242  1.00  0.00     0.031 C 
ENDBRANCH   8   9
BRANCH   8  12
ATOM     12  C   UNL A   1      32.982  23.919  22.316  1.00  0.00     0.318 C 
ATOM     13  O   UNL A   1      33.167  23.491  21.164  1.00  0.00    -0.249 OA
ATOM     14  N   UNL A   1      33.927  23.437  23.164  1.00  0.00    -0.334 N 
ATOM     15  H   UNL A   1      34.469  22.789  22.659  1.00  0.00     0.165 HD
BRANCH  14  16
ATOM     16  C   UNL A   1      34.467  23.490  24.515  1.00  0.00     0.096 C 
ATOM     17  C   UNL A   1      34.551  22.325  25.433  1.00  0.00    -0.007 C 
ATOM     18  C   UNL A   1      35.897  23.091  24.836  1.00  0.00    -0.007 C 
ATOM     19  C   UNL A   1      34.363  22.506  26.945  1.00  0.00     0.014 C 
ATOM     20  C   UNL A   1      33.730  21.105  25.039  1.00  0.00     0.014 C 
ATOM     21  C   UNL A   1      36.702  23.320  23.562  1.00  0.00     0.014 C 
ATOM     22  C   UNL A   1      36.733  23.726  25.957  1.00  0.00     0.014 C 
ENDBRANCH  14  16
ENDBRANCH   8  12
ENDBRANCH   7   8
ENDBRANCH   4   7
ENDBRANCH   2   3
ENDBRANCH   1   2
BRANCH   1  23
ATOM     23  C   UNL A   1      33.223  27.222  25.866  1.00  0.00     0.023 C 
BRANCH  23  24
ATOM     24  C   UNL A   1      34.295  28.181  26.362  1.00  0.00     0.116 C 
BRANCH  24  25
ATOM     25  N   UNL A   1      33.806  29.498  26.740  1.00  0.00    -0.352 N 
ATOM     26  C   UNL A   1      34.446  30.498  27.432  1.00  0.00     0.251 C 
ATOM     27  H   UNL A   1      32.884  29.702  26.459  1.00  0.00     0.163 HD
ATOM     28  O   UNL A   1      33.895  31.577  27.595  1.00  0.00    -0.269 OA
BRANCH  26  29
ATOM     29  C   UNL A   1      35.757  30.220  28.052  1.00  0.00     0.039 A 
ATOM     30  C   UNL A   1      35.759  29.695  29.347  1.00  0.00     0.014 A 
ATOM     31  C   UNL A   1      36.952  30.388  27.352  1.00  0.00     0.014 A 
ATOM     32  C   UNL A   1      36.955  29.257  29.909  1.00  0.00     0.010 A 
ATOM     33  C   UNL A   1      38.133  29.882  27.884  1.00  0.00     0.010 A 
ATOM     34  C   UNL A   1      38.142  29.306  29.163  1.00  0.00    -0.014 A 
BRANCH  34  35
ATOM     35  C   UNL A   1      39.401  28.740  29.701  1.00  0.00     0.031 A 
ATOM     36  C   UNL A   1      40.036  29.348  30.917  1.00  0.00     0.074 A 
ATOM     37  C   UNL A   1      40.007  27.733  29.041  1.00  0.00     0.049 A 
ATOM     38  N   UNL A   1      41.155  29.024  31.508  1.00  0.00    -0.248 NA
ATOM     39  C   UNL A   1      39.338  30.490  31.534  1.00  0.00     0.031 C 
ATOM     40  C   UNL A   1      39.527  27.125  27.796  1.00  0.00     0.029 A 
ATOM     41  N   UNL A   1      41.170  27.058  29.310  1.00  0.00    -0.354 N 
ATOM     42  C   UNL A   1      41.316  29.940  32.540  1.00  0.00     0.074 A 
ATOM     43  C   UNL A   1      40.196  30.854  32.476  1.00  0.00     0.031 C 
ATOM     44  C   UNL A   1      40.386  26.165  27.416  1.00  0.00     0.029 A 
ATOM     45  C   UNL A   1      41.482  26.099  28.376  1.00  0.00     0.049 A 
ATOM     46  H   UNL A   1      41.731  27.245  30.098  1.00  0.00     0.167 HD
ATOM     47  C   UNL A   1      42.286  29.991  33.480  1.00  0.00     0.034 A 
ATOM     48  C   UNL A   1      42.532  25.255  28.308  1.00  0.00     0.034 A 
ATOM     49  C   UNL A   1      43.359  29.039  33.577  1.00  0.00     0.049 A 
ATOM     50  C   UNL A   1      43.553  25.284  29.413  1.00  0.00     0.074 A 
ATOM     51  C   UNL A   1      44.345  28.948  34.542  1.00  0.00     0.029 A 
ATOM     52  N   UNL A   1      43.578  28.006  32.678  1.00  0.00    -0.354 N 
ATOM     53  N   UNL A   1      43.597  26.052  30.474  1.00  0.00    -0.248 NA
ATOM     54  C   UNL A   1      44.646  24.303  29.334  1.00  0.00     0.031 C 
ATOM     55  C   UNL A   1      45.161  27.856  34.228  1.00  0.00     0.029 A 
ATOM     56  C   UNL A   1      44.680  27.267  33.068  1.00  0.00     0.049 A 
ATOM     57  H   UNL A   1      43.030  27.826  31.881  1.00  0.00     0.167 HD
ATOM     58  C   UNL A   1      44.702  25.629  31.204  1.00  0.00     0.074 A 
ATOM     59  C   UNL A   1      45.283  24.520  30.476  1.00  0.00     0.031 C 
ATOM     60  C   UNL A   1      45.202  26.126  32.361  1.00  0.00     0.034 A 
BRANCH  47  61
ATOM     61  C   UNL A   1      42.185  31.066  34.528  1.00  0.00     0.023 A 
ATOM     62  C   UNL A   1      41.531  30.779  35.743  1.00  0.00     0.012 A 
ATOM     63  C   UNL A   1      42.771  32.331  34.338  1.00  0.00     0.148 A 
ATOM     64  C   UNL A   1      41.436  31.743  36.744  1.00  0.00     0.002 A 
ATOM     65  C   UNL A   1      42.706  33.277  35.356  1.00  0.00     0.091 A 
ATOM     66  F   UNL A   1      43.366  32.593  33.165  1.00  0.00    -0.205 F 
ATOM     67  C   UNL A   1      42.032  32.988  36.555  1.00  0.00     0.022 A 
BRANCH  65  68
ATOM     68  S   UNL A   1      43.496  34.885  35.237  1.00  0.00     0.127 S 
ATOM     69  O   UNL A   1      43.199  35.458  36.550  1.00  0.00    -0.237 OA
ATOM     70  O   UNL A   1      44.899  34.527  35.031  1.00  0.00    -0.237 OA
ATOM     71  O   UNL A   1      42.870  35.555  34.106  1.00  0.00    -0.744 OA
ENDBRANCH  65  68
ENDBRANCH  47  61
BRANCH  48  72
ATOM     72  C   UNL A   1      42.615  24.255  27.208  1.00  0.00     0.023 A 
ATOM     73  C   UNL A   1      43.345  24.573  26.046  1.00  0.00     0.012 A 
ATOM     74  C   UNL A   1      42.010  22.987  27.311  1.00  0.00     0.148 A 
ATOM     75  C   UNL A   1      43.444  23.661  24.995  1.00  0.00     0.002 A 
ATOM     76  C   UNL A   1      42.155  22.065  26.280  1.00  0.00     0.091 A 
ATOM     77  F   UNL A   1      41.304  22.705  28.415  1.00  0.00    -0.205 F 
ATOM     78  C   UNL A   1      42.859  22.403  25.115  1.00  0.00     0.022 A 
BRANCH  76  79
ATOM     79  S   UNL A   1      41.538  20.383  26.424  1.00  0.00     0.127 S 
ATOM     80  O   UNL A   1      42.231  19.712  25.328  1.00  0.00    -0.237 OA
ATOM     81  O   UNL A   1      41.987  19.998  27.763  1.00  0.00    -0.237 OA
ATOM     82  O   UNL A   1      40.092  20.499  26.295  1.00  0.00    -0.744 OA
ENDBRANCH  76  79
ENDBRANCH  48  72
BRANCH  60  83
ATOM     83  C   UNL A   1      46.427  25.465  32.931  1.00  0.00     0.023 A 
ATOM     84  C   UNL A   1      47.699  25.988  32.625  1.00  0.00     0.012 A 
ATOM     85  C   UNL A   1      46.316  24.388  33.831  1.00  0.00     0.148 A 
ATOM     86  C   UNL A   1      48.846  25.434  33.192  1.00  0.00     0.002 A 
ATOM     87  C   UNL A   1      47.461  23.868  34.423  1.00  0.00     0.091 A 
ATOM     88  F   UNL A   1      45.098  23.892  34.090  1.00  0.00    -0.205 F 
ATOM     89  C   UNL A   1      48.725  24.383  34.099  1.00  0.00     0.022 A 
BRANCH  87  90
ATOM     90  S   UNL A   1      47.384  22.577  35.670  1.00  0.00     0.127 S 
ATOM     91  O   UNL A   1      46.834  21.458  34.907  1.00  0.00    -0.237 OA
ATOM     92  O   UNL A   1      48.789  22.422  36.052  1.00  0.00    -0.237 OA
ATOM     93  O   UNL A   1      46.530  23.100  36.728  1.00  0.00    -0.744 OA
ENDBRANCH  87  90
ENDBRANCH  60  83
ENDBRANCH  34  35
ENDBRANCH  26  29
ENDBRANCH  24  25
ENDBRANCH  23  24
ENDBRANCH   1  23
TORSDOF 18
ENDMDL
MODEL 2
REMARK VINA RESULT:     -10.7      2.509      3.094
REMARK SMILES CC(C)N(CC(=O)NCCCCNC(=O)c1ccc(-c2c3nc(c(-c4cccc(S(=O)(=O)[O-])c4F)c4ccc([nH]4)c(-c4cccc(S(=O)(=O)[O-])c4F)c4nc(c(-c5cccc(S(=O)(=O)[O-])c5F)c5ccc2[nH]5)C=C4)C=C3)cc1)C(=O)NC1C(C)(C)C1(C)C
REMARK SMILES IDX 10 1 9 2 8 3 6 4 7 5 5 7 4 8 2 9 1 10 3 11 79 12 80 13 81 14
REMARK SMILES IDX 82 16 83 17 86 18 84 19 85 20 87 21 88 22 11 23 12 24 13 25
REMARK SMILES IDX 14 26 15 28 16 29 17 30 78 31 18 32 77 33 19 34 20 35 21 36
REMARK SMILES IDX 71 37 22 38 76 39 70 40 72 41 23 42 75 43 69 44 68 45 24 47
REMARK SMILES IDX 56 48 36 49 55 50 37 51 40 52 54 53 73 54 38 55 39 56 53 58
REMARK SMILES IDX 74 59 41 60 25 61 26 62 34 63 27 64 29 65 35 66 28 67 30 68
REMARK SMILES IDX 31 69 32 70 33 71 57 72 58 73 66 74 59 75 61 76 67 77 60 78
REMARK SMILES IDX 62 79 63 80 64 81 65 82 42 83 43 84 51 85 44 86 46 87 52 88
REMARK SMILES IDX 45 89 47 90 48 91 49 92 50 93
REMARK H PARENT 8 6 81 15 13 27 72 46 40 57
REMARK Flexibility Score: inf
ROOT
ATOM      1  C   UNL A   1      31.480  29.460  25.682  1.00  0.00     0.023 C 
ENDROOT
BRANCH   1   2
ATOM      2  C   UNL A   1      31.374  29.163  24.191  1.00  0.00     0.116 C 
BRANCH   2   3
ATOM      3  N   UNL A   1      30.133  28.572  23.796  1.00  0.00    -0.355 N 
ATOM      4  C   UNL A   1      29.883  27.281  23.496  1.00  0.00     0.239 C 
ATOM      5  O   UNL A   1      28.707  26.909  23.621  1.00  0.00    -0.273 OA
ATOM      6  H   UNL A   1      29.365  29.186  23.736  1.00  0.00     0.163 HD
BRANCH   4   7
ATOM      7  C   UNL A   1      30.959  26.252  23.087  1.00  0.00     0.221 C 
BRANCH   7   8
ATOM      8  N   UNL A   1      32.349  26.040  23.580  1.00  0.00    -0.313 N 
BRANCH   8   9
ATOM      9  C   UNL A   1      32.482  26.193  25.062  1.00  0.00     0.081 C 
ATOM     10  C   UNL A   1      31.828  25.013  25.797  1.00  0.00     0.031 C 
ATOM     11  C   UNL A   1      33.887  26.444  25.629  1.00  0.00     0.031 C 
ENDBRANCH   8   9
BRANCH   8  12
ATOM     12  C   UNL A   1      33.428  25.464  22.932  1.00  0.00     0.318 C 
ATOM     13  O   UNL A   1      33.952  26.043  21.965  1.00  0.00    -0.249 OA
ATOM     14  N   UNL A   1      34.097  24.319  23.225  1.00  0.00    -0.334 N 
ATOM     15  H   UNL A   1      34.778  24.192  22.525  1.00  0.00     0.165 HD
BRANCH  14  16
ATOM     16  C   UNL A   1      34.218  23.203  24.151  1.00  0.00     0.096 C 
ATOM     17  C   UNL A   1      33.647  21.851  23.920  1.00  0.00    -0.007 C 
ATOM     18  C   UNL A   1      35.282  22.130  23.998  1.00  0.00    -0.007 C 
ATOM     19  C   UNL A   1      33.111  21.017  25.091  1.00  0.00     0.014 C 
ATOM     20  C   UNL A   1      32.615  21.745  22.806  1.00  0.00     0.014 C 
ATOM     21  C   UNL A   1      36.442  22.780  23.253  1.00  0.00     0.014 C 
ATOM     22  C   UNL A   1      35.928  21.388  25.178  1.00  0.00     0.014 C 
ENDBRANCH  14  16
ENDBRANCH   8  12
ENDBRANCH   7   8
ENDBRANCH   4   7
ENDBRANCH   2   3
ENDBRANCH   1   2
BRANCH   1  23
ATOM     23  C   UNL A   1      31.664  30.920  26.084  1.00  0.00     0.023 C 
BRANCH  23  24
ATOM     24  C   UNL A   1      32.776  31.210  27.080  1.00  0.00     0.116 C 
BRANCH  24  25
ATOM     25  N   UNL A   1      32.947  32.618  27.407  1.00  0.00    -0.352 N 
ATOM     26  C   UNL A   1      34.061  33.274  27.873  1.00  0.00     0.251 C 
ATOM     27  H   UNL A   1      32.150  33.181  27.275  1.00  0.00     0.163 HD
ATOM     28  O   UNL A   1      34.038  34.486  28.024  1.00  0.00    -0.269 OA
BRANCH  26  29
ATOM     29  C   UNL A   1      35.244  32.488  28.275  1.00  0.00     0.039 A 
ATOM     30  C   UNL A   1      36.479  33.143  28.290  1.00  0.00     0.014 A 
ATOM     31  C   UNL A   1      35.136  31.166  28.711  1.00  0.00     0.014 A 
ATOM     32  C   UNL A   1      37.592  32.499  28.823  1.00  0.00     0.010 A 
ATOM     33  C   UNL A   1      36.231  30.552  29.311  1.00  0.00     0.010 A 
ATOM     34  C   UNL A   1      37.464  31.217  29.378  1.00  0.00    -0.014 A 
BRANCH  34  35
ATOM     35  C   UNL A   1      38.611  30.564  30.052  1.00  0.00     0.031 A 
ATOM     36  C   UNL A   1      38.992  30.971  31.444  1.00  0.00     0.074 A 
ATOM     37  C   UNL A   1      39.352  29.667  29.371  1.00  0.00     0.049 A 
ATOM     38  N   UNL A   1      39.987  30.550  32.180  1.00  0.00    -0.248 NA
ATOM     39  C   UNL A   1      38.167  32.009  32.086  1.00  0.00     0.031 C 
ATOM     40  C   UNL A   1      39.128  29.262  27.979  1.00  0.00     0.029 A 
ATOM     41  N   UNL A   1      40.458  28.949  29.748  1.00  0.00    -0.354 N 
ATOM     42  C   UNL A   1      39.931  31.293  33.352  1.00  0.00     0.074 A 
ATOM     43  C   UNL A   1      38.825  32.215  33.218  1.00  0.00     0.031 C 
ATOM     44  C   UNL A   1      40.063  28.366  27.625  1.00  0.00     0.029 A 
ATOM     45  C   UNL A   1      40.960  28.143  28.754  1.00  0.00     0.049 A 
ATOM     46  H   UNL A   1      40.856  29.007  30.647  1.00  0.00     0.167 HD
ATOM     47  C   UNL A   1      40.706  31.190  34.455  1.00  0.00     0.034 A 
ATOM     48  C   UNL A   1      42.022  27.312  28.757  1.00  0.00     0.034 A 
ATOM     49  C   UNL A   1      41.761  30.226  34.605  1.00  0.00     0.049 A 
ATOM     50  C   UNL A   1      42.816  27.160  30.026  1.00  0.00     0.074 A 
ATOM     51  C   UNL A   1      42.551  29.978  35.714  1.00  0.00     0.029 A 
ATOM     52  N   UNL A   1      42.168  29.343  33.616  1.00  0.00    -0.354 N 
ATOM     53  N   UNL A   1      42.643  27.754  31.182  1.00  0.00    -0.248 NA
ATOM     54  C   UNL A   1      43.925  26.195  30.005  1.00  0.00     0.031 C 
ATOM     55  C   UNL A   1      43.434  28.941  35.396  1.00  0.00     0.029 A 
ATOM     56  C   UNL A   1      43.193  28.543  34.089  1.00  0.00     0.049 A 
ATOM     57  H   UNL A   1      41.784  29.293  32.712  1.00  0.00     0.167 HD
ATOM     58  C   UNL A   1      43.599  27.214  32.034  1.00  0.00     0.074 A 
ATOM     59  C   UNL A   1      44.331  26.227  31.267  1.00  0.00     0.031 C 
ATOM     60  C   UNL A   1      43.863  27.522  33.327  1.00  0.00     0.034 A 
BRANCH  47  61
ATOM     61  C   UNL A   1      40.387  32.090  35.617  1.00  0.00     0.023 A 
ATOM     62  C   UNL A   1      41.184  33.231  35.840  1.00  0.00     0.012 A 
ATOM     63  C   UNL A   1      39.282  31.843  36.453  1.00  0.00     0.148 A 
ATOM     64  C   UNL A   1      40.906  34.098  36.894  1.00  0.00     0.002 A 
ATOM     65  C   UNL A   1      38.987  32.732  37.481  1.00  0.00     0.091 A 
ATOM     66  F   UNL A   1      38.552  30.739  36.241  1.00  0.00    -0.205 F 
ATOM     67  C   UNL A   1      39.802  33.855  37.708  1.00  0.00     0.022 A 
BRANCH  65  68
ATOM     68  S   UNL A   1      37.551  32.545  38.543  1.00  0.00     0.127 S 
ATOM     69  O   UNL A   1      37.886  33.438  39.653  1.00  0.00    -0.237 OA
ATOM     70  O   UNL A   1      36.466  33.019  37.684  1.00  0.00    -0.237 OA
ATOM     71  O   UNL A   1      37.484  31.129  38.878  1.00  0.00    -0.744 OA
ENDBRANCH  65  68
ENDBRANCH  47  61
BRANCH  48  72
ATOM     72  C   UNL A   1      42.332  26.493  27.552  1.00  0.00     0.023 A 
ATOM     73  C   UNL A   1      43.017  27.090  26.475  1.00  0.00     0.012 A 
ATOM     74  C   UNL A   1      41.986  25.131  27.472  1.00  0.00     0.148 A 
ATOM     75  C   UNL A   1      43.324  26.355  25.330  1.00  0.00     0.002 A 
ATOM     76  C   UNL A   1      42.340  24.391  26.348  1.00  0.00     0.091 A 
ATOM     77  F   UNL A   1      41.319  24.580  28.496  1.00  0.00    -0.205 F 
ATOM     78  C   UNL A   1      42.996  25.003  25.270  1.00  0.00     0.022 A 
BRANCH  76  79
ATOM     79  S   UNL A   1      42.063  22.617  26.259  1.00  0.00     0.127 S 
ATOM     80  O   UNL A   1      42.736  22.147  27.467  1.00  0.00    -0.237 OA
ATOM     81  O   UNL A   1      40.602  22.526  26.293  1.00  0.00    -0.237 OA
ATOM     82  O   UNL A   1      42.653  22.206  24.992  1.00  0.00    -0.744 OA
ENDBRANCH  76  79
ENDBRANCH  48  72
BRANCH  60  83
ATOM     83  C   UNL A   1      44.972  26.770  34.009  1.00  0.00     0.023 A 
ATOM     84  C   UNL A   1      46.289  27.267  33.936  1.00  0.00     0.012 A 
ATOM     85  C   UNL A   1      44.702  25.630  34.789  1.00  0.00     0.148 A 
ATOM     86  C   UNL A   1      47.325  26.625  34.614  1.00  0.00     0.002 A 
ATOM     87  C   UNL A   1      45.732  25.019  35.494  1.00  0.00     0.091 A 
ATOM     88  F   UNL A   1      43.446  25.161  34.825  1.00  0.00    -0.205 F 
ATOM     89  C   UNL A   1      47.044  25.510  35.401  1.00  0.00     0.022 A 
BRANCH  87  90
ATOM     90  S   UNL A   1      45.439  23.636  36.602  1.00  0.00     0.127 S 
ATOM     91  O   UNL A   1      44.599  22.768  35.779  1.00  0.00    -0.237 OA
ATOM     92  O   UNL A   1      46.792  23.129  36.840  1.00  0.00    -0.237 OA
ATOM     93  O   UNL A   1      44.796  24.204  37.780  1.00  0.00    -0.744 OA
ENDBRANCH  87  90
ENDBRANCH  60  83
ENDBRANCH  34  35
ENDBRANCH  26  29
ENDBRANCH  24  25
ENDBRANCH  23  24
ENDBRANCH   1  23
TORSDOF 18
ENDMDL
MODEL 3
REMARK VINA RESULT:     -10.5      5.477      8.770
REMARK SMILES CC(C)N(CC(=O)NCCCCNC(=O)c1ccc(-c2c3nc(c(-c4cccc(S(=O)(=O)[O-])c4F)c4ccc([nH]4)c(-c4cccc(S(=O)(=O)[O-])c4F)c4nc(c(-c5cccc(S(=O)(=O)[O-])c5F)c5ccc2[nH]5)C=C4)C=C3)cc1)C(=O)NC1C(C)(C)C1(C)C
REMARK SMILES IDX 10 1 9 2 8 3 6 4 7 5 5 7 4 8 2 9 1 10 3 11 79 12 80 13 81 14
REMARK SMILES IDX 82 16 83 17 86 18 84 19 85 20 87 21 88 22 11 23 12 24 13 25
REMARK SMILES IDX 14 26 15 28 16 29 17 30 78 31 18 32 77 33 19 34 20 35 21 36
REMARK SMILES IDX 71 37 22 38 76 39 70 40 72 41 23 42 75 43 69 44 68 45 24 47
REMARK SMILES IDX 56 48 36 49 55 50 37 51 40 52 54 53 73 54 38 55 39 56 53 58
REMARK SMILES IDX 74 59 41 60 25 61 26 62 34 63 27 64 29 65 35 66 28 67 30 68
REMARK SMILES IDX 31 69 32 70 33 71 57 72 58 73 66 74 59 75 61 76 67 77 60 78
REMARK SMILES IDX 62 79 63 80 64 81 65 82 42 83 43 84 51 85 44 86 46 87 52 88
REMARK SMILES IDX 45 89 47 90 48 91 49 92 50 93
REMARK H PARENT 8 6 81 15 13 27 72 46 40 57
REMARK Flexibility Score: inf
ROOT
ATOM      1  C   UNL A   1      37.247  21.439  24.978  1.00  0.00     0.023 C 
ENDROOT
BRANCH   1   2
ATOM      2  C   UNL A   1      35.761  21.153  25.153  1.00  0.00     0.116 C 
BRANCH   2   3
ATOM      3  N   UNL A   1      35.280  21.342  26.487  1.00  0.00    -0.355 N 
ATOM      4  C   UNL A   1      34.309  22.176  26.912  1.00  0.00     0.239 C 
ATOM      5  O   UNL A   1      33.753  21.870  27.977  1.00  0.00    -0.273 OA
ATOM      6  H   UNL A   1      35.712  20.793  27.181  1.00  0.00     0.163 HD
BRANCH   4   7
ATOM      7  C   UNL A   1      33.815  23.415  26.133  1.00  0.00     0.221 C 
BRANCH   7   8
ATOM      8  N   UNL A   1      33.418  23.582  24.707  1.00  0.00    -0.313 N 
BRANCH   8   9
ATOM      9  C   UNL A   1      32.107  22.940  24.379  1.00  0.00     0.081 C 
ATOM     10  C   UNL A   1      32.311  21.510  23.858  1.00  0.00     0.031 C 
ATOM     11  C   UNL A   1      31.019  22.948  25.462  1.00  0.00     0.031 C 
ENDBRANCH   8   9
BRANCH   8  12
ATOM     12  C   UNL A   1      33.922  24.451  23.755  1.00  0.00     0.318 C 
ATOM     13  O   UNL A   1      34.858  24.091  23.021  1.00  0.00    -0.249 OA
ATOM     14  N   UNL A   1      33.506  25.700  23.424  1.00  0.00    -0.334 N 
ATOM     15  H   UNL A   1      34.125  26.041  22.737  1.00  0.00     0.165 HD
BRANCH  14  16
ATOM     16  C   UNL A   1      32.518  26.741  23.668  1.00  0.00     0.096 C 
ATOM     17  C   UNL A   1      32.721  28.181  23.369  1.00  0.00    -0.007 C 
ATOM     18  C   UNL A   1      31.591  27.255  22.580  1.00  0.00    -0.007 C 
ATOM     19  C   UNL A   1      32.107  29.262  24.268  1.00  0.00     0.014 C 
ATOM     20  C   UNL A   1      34.157  28.610  23.096  1.00  0.00     0.014 C 
ATOM     21  C   UNL A   1      31.436  26.118  21.577  1.00  0.00     0.014 C 
ATOM     22  C   UNL A   1      30.164  27.760  22.837  1.00  0.00     0.014 C 
ENDBRANCH  14  16
ENDBRANCH   8  12
ENDBRANCH   7   8
ENDBRANCH   4   7
ENDBRANCH   2   3
ENDBRANCH   1   2
BRANCH   1  23
ATOM     23  C   UNL A   1      38.192  20.243  25.030  1.00  0.00     0.023 C 
BRANCH  23  24
ATOM     24  C   UNL A   1      39.444  20.407  25.878  1.00  0.00     0.116 C 
BRANCH  24  25
ATOM     25  N   UNL A   1      40.364  19.281  25.828  1.00  0.00    -0.352 N 
ATOM     26  C   UNL A   1      41.692  19.227  26.178  1.00  0.00     0.251 C 
ATOM     27  H   UNL A   1      39.980  18.436  25.498  1.00  0.00     0.163 HD
ATOM     28  O   UNL A   1      42.292  18.163  26.136  1.00  0.00    -0.269 OA
BRANCH  26  29
ATOM     29  C   UNL A   1      42.402  20.479  26.508  1.00  0.00     0.039 A 
ATOM     30  C   UNL A   1      43.074  21.131  25.470  1.00  0.00     0.014 A 
ATOM     31  C   UNL A   1      42.339  21.046  27.781  1.00  0.00     0.014 A 
ATOM     32  C   UNL A   1      43.612  22.396  25.689  1.00  0.00     0.010 A 
ATOM     33  C   UNL A   1      42.810  22.340  27.977  1.00  0.00     0.010 A 
ATOM     34  C   UNL A   1      43.443  23.027  26.931  1.00  0.00    -0.014 A 
BRANCH  34  35
ATOM     35  C   UNL A   1      43.908  24.418  27.145  1.00  0.00     0.031 A 
ATOM     36  C   UNL A   1      42.951  25.459  27.647  1.00  0.00     0.074 A 
ATOM     37  C   UNL A   1      45.169  24.751  26.806  1.00  0.00     0.049 A 
ATOM     38  N   UNL A   1      43.157  26.733  27.853  1.00  0.00    -0.248 NA
ATOM     39  C   UNL A   1      41.572  25.019  27.926  1.00  0.00     0.031 C 
ATOM     40  C   UNL A   1      46.160  23.841  26.223  1.00  0.00     0.029 A 
ATOM     41  N   UNL A   1      45.829  25.951  26.881  1.00  0.00    -0.354 N 
ATOM     42  C   UNL A   1      41.931  27.254  28.250  1.00  0.00     0.074 A 
ATOM     43  C   UNL A   1      40.978  26.166  28.224  1.00  0.00     0.031 C 
ATOM     44  C   UNL A   1      47.300  24.515  26.000  1.00  0.00     0.029 A 
ATOM     45  C   UNL A   1      47.119  25.904  26.407  1.00  0.00     0.049 A 
ATOM     46  H   UNL A   1      45.416  26.770  27.239  1.00  0.00     0.167 HD
ATOM     47  C   UNL A   1      41.636  28.515  28.637  1.00  0.00     0.034 A 
ATOM     48  C   UNL A   1      48.052  26.873  26.320  1.00  0.00     0.034 A 
ATOM     49  C   UNL A   1      42.603  29.574  28.723  1.00  0.00     0.049 A 
ATOM     50  C   UNL A   1      47.717  28.247  26.834  1.00  0.00     0.074 A 
ATOM     51  C   UNL A   1      42.428  30.866  29.186  1.00  0.00     0.029 A 
ATOM     52  N   UNL A   1      43.932  29.459  28.344  1.00  0.00    -0.354 N 
ATOM     53  N   UNL A   1      46.597  28.678  27.361  1.00  0.00    -0.248 NA
ATOM     54  C   UNL A   1      48.785  29.256  26.780  1.00  0.00     0.031 C 
ATOM     55  C   UNL A   1      43.655  31.532  29.091  1.00  0.00     0.029 A 
ATOM     56  C   UNL A   1      44.592  30.654  28.568  1.00  0.00     0.049 A 
ATOM     57  H   UNL A   1      44.344  28.647  27.971  1.00  0.00     0.167 HD
ATOM     58  C   UNL A   1      46.834  29.998  27.729  1.00  0.00     0.074 A 
ATOM     59  C   UNL A   1      48.211  30.286  27.388  1.00  0.00     0.031 C 
ATOM     60  C   UNL A   1      45.982  30.897  28.281  1.00  0.00     0.034 A 
BRANCH  47  61
ATOM     61  C   UNL A   1      40.225  28.796  29.076  1.00  0.00     0.023 A 
ATOM     62  C   UNL A   1      39.241  29.054  28.099  1.00  0.00     0.012 A 
ATOM     63  C   UNL A   1      39.859  28.757  30.434  1.00  0.00     0.148 A 
ATOM     64  C   UNL A   1      37.920  29.298  28.468  1.00  0.00     0.002 A 
ATOM     65  C   UNL A   1      38.531  28.964  30.793  1.00  0.00     0.091 A 
ATOM     66  F   UNL A   1      40.813  28.535  31.350  1.00  0.00    -0.205 F 
ATOM     67  C   UNL A   1      37.563  29.243  29.813  1.00  0.00     0.022 A 
BRANCH  65  68
ATOM     68  S   UNL A   1      37.956  28.850  32.491  1.00  0.00     0.127 S 
ATOM     69  O   UNL A   1      38.885  29.746  33.178  1.00  0.00    -0.237 OA
ATOM     70  O   UNL A   1      36.586  29.354  32.388  1.00  0.00    -0.237 OA
ATOM     71  O   UNL A   1      38.058  27.444  32.853  1.00  0.00    -0.744 OA
ENDBRANCH  65  68
ENDBRANCH  47  61
BRANCH  48  72
ATOM     72  C   UNL A   1      49.415  26.552  25.813  1.00  0.00     0.023 A 
ATOM     73  C   UNL A   1      50.270  25.756  26.602  1.00  0.00     0.012 A 
ATOM     74  C   UNL A   1      49.862  26.996  24.554  1.00  0.00     0.148 A 
ATOM     75  C   UNL A   1      51.554  25.436  26.160  1.00  0.00     0.002 A 
ATOM     76  C   UNL A   1      51.125  26.631  24.099  1.00  0.00     0.091 A 
ATOM     77  F   UNL A   1      49.045  27.766  23.822  1.00  0.00    -0.205 F 
ATOM     78  C   UNL A   1      51.979  25.863  24.905  1.00  0.00     0.022 A 
BRANCH  76  79
ATOM     79  S   UNL A   1      51.685  27.038  22.440  1.00  0.00     0.127 S 
ATOM     80  O   UNL A   1      51.801  28.492  22.510  1.00  0.00    -0.237 OA
ATOM     81  O   UNL A   1      52.959  26.323  22.355  1.00  0.00    -0.237 OA
ATOM     82  O   UNL A   1      50.653  26.517  21.554  1.00  0.00    -0.744 OA
ENDBRANCH  76  79
ENDBRANCH  48  72
BRANCH  60  83
ATOM     83  C   UNL A   1      46.516  32.272  28.573  1.00  0.00     0.023 A 
ATOM     84  C   UNL A   1      47.132  32.523  29.816  1.00  0.00     0.012 A 
ATOM     85  C   UNL A   1      46.487  33.283  27.594  1.00  0.00     0.148 A 
ATOM     86  C   UNL A   1      47.692  33.770  30.087  1.00  0.00     0.002 A 
ATOM     87  C   UNL A   1      47.084  34.510  27.857  1.00  0.00     0.091 A 
ATOM     88  F   UNL A   1      45.876  33.030  26.428  1.00  0.00    -0.205 F 
ATOM     89  C   UNL A   1      47.680  34.758  29.104  1.00  0.00     0.022 A 
BRANCH  87  90
ATOM     90  S   UNL A   1      47.191  35.802  26.614  1.00  0.00     0.127 S 
ATOM     91  O   UNL A   1      47.847  36.877  27.356  1.00  0.00    -0.237 OA
ATOM     92  O   UNL A   1      48.020  35.179  25.580  1.00  0.00    -0.237 OA
ATOM     93  O   UNL A   1      45.818  36.067  26.201  1.00  0.00    -0.744 OA
ENDBRANCH  87  90
ENDBRANCH  60  83
ENDBRANCH  34  35
ENDBRANCH  26  29
ENDBRANCH  24  25
ENDBRANCH  23  24
ENDBRANCH   1  23
TORSDOF 18
ENDMDL
