MODEL 1
REMARK VINA RESULT:     -11.6      0.000      0.000
REMARK SMILES CC(C)CN(C)S(=O)(=O)c1ccc(C(=O)NCCCCNC(=O)c2ccc(-c3c4nc(c(-c5cccc(S(=O)(=O)[O-])c5F)c5ccc([nH]5)c(-c5cccc(S(=O)(=O)[O-])c5F)c5nc(c(-c6cccc(S(=O)(=O)[O-])c6F)c6ccc3[nH]6)C=C5)C=C4)cc2)cc1
REMARK SMILES IDX 18 1 17 2 16 3 14 4 15 5 13 7 10 8 11 9 88 10 12 11 87 12
REMARK SMILES IDX 7 13 8 14 9 15 5 16 6 17 4 18 2 19 1 20 3 21 19 22 20 23
REMARK SMILES IDX 21 24 22 25 23 27 24 28 25 29 86 30 26 31 85 32 27 33 28 34
REMARK SMILES IDX 29 35 79 36 30 37 84 38 78 39 80 40 31 41 83 42 77 43 76 44
REMARK SMILES IDX 32 46 64 47 44 48 63 49 45 50 48 51 62 52 81 53 46 54 47 55
REMARK SMILES IDX 61 57 82 58 49 59 33 60 34 61 42 62 35 63 37 64 43 65 36 66
REMARK SMILES IDX 38 67 39 68 40 69 41 70 65 71 66 72 74 73 67 74 69 75 75 76
REMARK SMILES IDX 68 77 70 78 71 79 72 80 73 81 50 82 51 83 59 84 52 85 54 86
REMARK SMILES IDX 60 87 53 88 55 89 56 90 57 91 58 92
REMARK H PARENT 16 6 21 26 80 45 48 56
REMARK Flexibility Score: inf
ROOT
ATOM      1  C   UNL A   1      35.082  20.338  25.113  1.00  0.00     0.023 C 
ENDROOT
BRANCH   1   2
ATOM      2  C   UNL A   1      33.569  20.415  25.328  1.00  0.00     0.116 C 
BRANCH   2   3
ATOM      3  N   UNL A   1      33.272  21.009  26.616  1.00  0.00    -0.352 N 
ATOM      4  C   UNL A   1      32.967  22.297  26.971  1.00  0.00     0.251 C 
ATOM      5  O   UNL A   1      32.731  22.548  28.152  1.00  0.00    -0.269 OA
ATOM      6  H   UNL A   1      33.294  20.375  27.370  1.00  0.00     0.163 HD
BRANCH   4   7
ATOM      7  C   UNL A   1      32.823  23.385  25.968  1.00  0.00     0.039 A 
ATOM      8  C   UNL A   1      32.623  25.604  24.265  1.00  0.00     0.082 A 
ATOM      9  C   UNL A   1      33.669  25.528  25.188  1.00  0.00     0.022 A 
ATOM     10  C   UNL A   1      31.699  24.557  24.162  1.00  0.00     0.022 A 
ATOM     11  C   UNL A   1      33.779  24.411  26.019  1.00  0.00     0.015 A 
ATOM     12  C   UNL A   1      31.814  23.442  25.001  1.00  0.00     0.015 A 
BRANCH   8  13
ATOM     13  S   UNL A   1      32.341  27.121  23.376  1.00  0.00     0.242 S 
ATOM     14  O   UNL A   1      31.229  26.900  22.468  1.00  0.00    -0.207 OA
ATOM     15  O   UNL A   1      33.619  27.557  22.864  1.00  0.00    -0.207 OA
BRANCH  13  16
ATOM     16  N   UNL A   1      31.814  28.246  24.577  1.00  0.00    -0.201 NA
ATOM     17  C   UNL A   1      30.762  29.182  24.080  1.00  0.00     0.124 C 
BRANCH  16  18
ATOM     18  C   UNL A   1      32.945  29.010  25.208  1.00  0.00     0.105 C 
BRANCH  18  19
ATOM     19  C   UNL A   1      32.821  29.064  26.743  1.00  0.00    -0.002 C 
ATOM     20  C   UNL A   1      31.898  27.981  27.304  1.00  0.00     0.009 C 
ATOM     21  C   UNL A   1      34.211  28.903  27.371  1.00  0.00     0.009 C 
ENDBRANCH  18  19
ENDBRANCH  16  18
ENDBRANCH  13  16
ENDBRANCH   8  13
ENDBRANCH   4   7
ENDBRANCH   2   3
ENDBRANCH   1   2
BRANCH   1  22
ATOM     22  C   UNL A   1      35.697  21.618  24.541  1.00  0.00     0.023 C 
BRANCH  22  23
ATOM     23  C   UNL A   1      36.955  22.099  25.256  1.00  0.00     0.116 C 
BRANCH  23  24
ATOM     24  N   UNL A   1      37.897  21.026  25.539  1.00  0.00    -0.352 N 
ATOM     25  C   UNL A   1      39.146  21.122  26.104  1.00  0.00     0.251 C 
ATOM     26  H   UNL A   1      37.603  20.118  25.296  1.00  0.00     0.163 HD
ATOM     27  O   UNL A   1      39.877  20.138  26.170  1.00  0.00    -0.269 OA
BRANCH  25  28
ATOM     28  C   UNL A   1      39.608  22.436  26.593  1.00  0.00     0.039 A 
ATOM     29  C   UNL A   1      40.667  22.485  27.501  1.00  0.00     0.014 A 
ATOM     30  C   UNL A   1      39.033  23.612  26.107  1.00  0.00     0.014 A 
ATOM     31  C   UNL A   1      41.189  23.724  27.878  1.00  0.00     0.010 A 
ATOM     32  C   UNL A   1      39.603  24.839  26.424  1.00  0.00     0.010 A 
ATOM     33  C   UNL A   1      40.683  24.908  27.316  1.00  0.00    -0.014 A 
BRANCH  33  34
ATOM     34  C   UNL A   1      41.274  26.229  27.646  1.00  0.00     0.031 A 
ATOM     35  C   UNL A   1      42.690  26.543  27.245  1.00  0.00     0.074 A 
ATOM     36  C   UNL A   1      40.568  27.111  28.381  1.00  0.00     0.049 A 
ATOM     37  N   UNL A   1      43.395  27.616  27.486  1.00  0.00    -0.248 NA
ATOM     38  C   UNL A   1      43.420  25.502  26.500  1.00  0.00     0.031 C 
ATOM     39  C   UNL A   1      39.216  26.888  28.902  1.00  0.00     0.029 A 
ATOM     40  N   UNL A   1      40.898  28.361  28.840  1.00  0.00    -0.354 N 
ATOM     41  C   UNL A   1      44.657  27.369  26.958  1.00  0.00     0.074 A 
ATOM     42  C   UNL A   1      44.633  26.028  26.417  1.00  0.00     0.031 C 
ATOM     43  C   UNL A   1      38.833  27.966  29.603  1.00  0.00     0.029 A 
ATOM     44  C   UNL A   1      39.916  28.943  29.609  1.00  0.00     0.049 A 
ATOM     45  H   UNL A   1      41.757  28.799  28.640  1.00  0.00     0.167 HD
ATOM     46  C   UNL A   1      45.729  28.193  26.899  1.00  0.00     0.034 A 
ATOM     47  C   UNL A   1      39.895  30.129  30.249  1.00  0.00     0.034 A 
ATOM     48  C   UNL A   1      45.734  29.540  27.399  1.00  0.00     0.049 A 
ATOM     49  C   UNL A   1      41.086  31.043  30.133  1.00  0.00     0.074 A 
ATOM     50  C   UNL A   1      46.738  30.488  27.306  1.00  0.00     0.029 A 
ATOM     51  N   UNL A   1      44.690  30.129  28.095  1.00  0.00    -0.354 N 
ATOM     52  N   UNL A   1      42.210  30.855  29.485  1.00  0.00    -0.248 NA
ATOM     53  C   UNL A   1      40.991  32.346  30.805  1.00  0.00     0.031 C 
ATOM     54  C   UNL A   1      46.311  31.643  27.971  1.00  0.00     0.029 A 
ATOM     55  C   UNL A   1      45.028  31.424  28.449  1.00  0.00     0.049 A 
ATOM     56  H   UNL A   1      43.834  29.692  28.308  1.00  0.00     0.167 HD
ATOM     57  C   UNL A   1      42.940  32.028  29.640  1.00  0.00     0.074 A 
ATOM     58  C   UNL A   1      42.120  32.928  30.425  1.00  0.00     0.031 C 
ATOM     59  C   UNL A   1      44.182  32.328  29.185  1.00  0.00     0.034 A 
BRANCH  46  60
ATOM     60  C   UNL A   1      46.973  27.676  26.223  1.00  0.00     0.023 A 
ATOM     61  C   UNL A   1      47.891  26.897  26.957  1.00  0.00     0.012 A 
ATOM     62  C   UNL A   1      47.207  27.913  24.855  1.00  0.00     0.148 A 
ATOM     63  C   UNL A   1      49.041  26.393  26.351  1.00  0.00     0.002 A 
ATOM     64  C   UNL A   1      48.331  27.368  24.246  1.00  0.00     0.091 A 
ATOM     65  F   UNL A   1      46.334  28.673  24.179  1.00  0.00    -0.205 F 
ATOM     66  C   UNL A   1      49.255  26.619  24.994  1.00  0.00     0.022 A 
BRANCH  64  67
ATOM     67  S   UNL A   1      48.655  27.532  22.487  1.00  0.00     0.127 S 
ATOM     68  O   UNL A   1      49.952  28.208  22.489  1.00  0.00    -0.237 OA
ATOM     69  O   UNL A   1      48.698  26.136  22.050  1.00  0.00    -0.237 OA
ATOM     70  O   UNL A   1      47.548  28.305  21.943  1.00  0.00    -0.744 OA
ENDBRANCH  64  67
ENDBRANCH  46  60
BRANCH  47  71
ATOM     71  C   UNL A   1      38.679  30.548  31.004  1.00  0.00     0.023 A 
ATOM     72  C   UNL A   1      38.596  30.280  32.384  1.00  0.00     0.012 A 
ATOM     73  C   UNL A   1      37.619  31.225  30.371  1.00  0.00     0.148 A 
ATOM     74  C   UNL A   1      37.465  30.647  33.114  1.00  0.00     0.002 A 
ATOM     75  C   UNL A   1      36.520  31.638  31.115  1.00  0.00     0.091 A 
ATOM     76  F   UNL A   1      37.713  31.463  29.055  1.00  0.00    -0.205 F 
ATOM     77  C   UNL A   1      36.432  31.334  32.481  1.00  0.00     0.022 A 
BRANCH  75  78
ATOM     78  S   UNL A   1      35.204  32.640  30.414  1.00  0.00     0.127 S 
ATOM     79  O   UNL A   1      34.737  31.797  29.317  1.00  0.00    -0.237 OA
ATOM     80  O   UNL A   1      34.278  32.753  31.543  1.00  0.00    -0.237 OA
ATOM     81  O   UNL A   1      35.832  33.896  30.025  1.00  0.00    -0.744 OA
ENDBRANCH  75  78
ENDBRANCH  47  71
BRANCH  59  82
ATOM     82  C   UNL A   1      44.725  33.700  29.489  1.00  0.00     0.023 A 
ATOM     83  C   UNL A   1      45.403  33.935  30.701  1.00  0.00     0.012 A 
ATOM     84  C   UNL A   1      44.630  34.734  28.536  1.00  0.00     0.148 A 
ATOM     85  C   UNL A   1      45.951  35.188  30.973  1.00  0.00     0.002 A 
ATOM     86  C   UNL A   1      45.223  35.963  28.793  1.00  0.00     0.091 A 
ATOM     87  F   UNL A   1      43.965  34.495  27.396  1.00  0.00    -0.205 F 
ATOM     88  C   UNL A   1      45.871  36.197  30.017  1.00  0.00     0.022 A 
BRANCH  86  89
ATOM     89  S   UNL A   1      45.256  37.289  27.581  1.00  0.00     0.127 S 
ATOM     90  O   UNL A   1      43.832  37.511  27.341  1.00  0.00    -0.237 OA
ATOM     91  O   UNL A   1      45.927  38.363  28.315  1.00  0.00    -0.237 OA
ATOM     92  O   UNL A   1      46.009  36.775  26.444  1.00  0.00    -0.744 OA
ENDBRANCH  86  89
ENDBRANCH  59  82
ENDBRANCH  33  34
ENDBRANCH  25  28
ENDBRANCH  23  24
ENDBRANCH  22  23
ENDBRANCH   1  22
TORSDOF 18
ENDMDL
MODEL 2
REMARK VINA RESULT:     -11.5      0.593      7.561
REMARK SMILES CC(C)CN(C)S(=O)(=O)c1ccc(C(=O)NCCCCNC(=O)c2ccc(-c3c4nc(c(-c5cccc(S(=O)(=O)[O-])c5F)c5ccc([nH]5)c(-c5cccc(S(=O)(=O)[O-])c5F)c5nc(c(-c6cccc(S(=O)(=O)[O-])c6F)c6ccc3[nH]6)C=C5)C=C4)cc2)cc1
REMARK SMILES IDX 18 1 17 2 16 3 14 4 15 5 13 7 10 8 11 9 88 10 12 11 87 12
REMARK SMILES IDX 7 13 8 14 9 15 5 16 6 17 4 18 2 19 1 20 3 21 19 22 20 23
REMARK SMILES IDX 21 24 22 25 23 27 24 28 25 29 86 30 26 31 85 32 27 33 28 34
REMARK SMILES IDX 29 35 79 36 30 37 84 38 78 39 80 40 31 41 83 42 77 43 76 44
REMARK SMILES IDX 32 46 64 47 44 48 63 49 45 50 48 51 62 52 81 53 46 54 47 55
REMARK SMILES IDX 61 57 82 58 49 59 33 60 34 61 42 62 35 63 37 64 43 65 36 66
REMARK SMILES IDX 38 67 39 68 40 69 41 70 65 71 66 72 74 73 67 74 69 75 75 76
REMARK SMILES IDX 68 77 70 78 71 79 72 80 73 81 50 82 51 83 59 84 52 85 54 86
REMARK SMILES IDX 60 87 53 88 55 89 56 90 57 91 58 92
REMARK H PARENT 16 6 21 26 80 45 48 56
REMARK Flexibility Score: inf
ROOT
ATOM      1  C   UNL A   1      34.684  20.399  25.049  1.00  0.00     0.023 C 
ENDROOT
BRANCH   1   2
ATOM      2  C   UNL A   1      33.184  20.635  25.235  1.00  0.00     0.116 C 
BRANCH   2   3
ATOM      3  N   UNL A   1      32.925  21.237  26.528  1.00  0.00    -0.352 N 
ATOM      4  C   UNL A   1      32.621  22.525  26.882  1.00  0.00     0.251 C 
ATOM      5  O   UNL A   1      32.422  22.784  28.068  1.00  0.00    -0.269 OA
ATOM      6  H   UNL A   1      32.976  20.609  27.286  1.00  0.00     0.163 HD
BRANCH   4   7
ATOM      7  C   UNL A   1      32.436  23.604  25.877  1.00  0.00     0.039 A 
ATOM      8  C   UNL A   1      32.224  25.793  24.137  1.00  0.00     0.082 A 
ATOM      9  C   UNL A   1      33.428  25.548  24.804  1.00  0.00     0.022 A 
ATOM     10  C   UNL A   1      31.139  24.926  24.305  1.00  0.00     0.022 A 
ATOM     11  C   UNL A   1      33.536  24.445  25.652  1.00  0.00     0.015 A 
ATOM     12  C   UNL A   1      31.255  23.823  25.159  1.00  0.00     0.015 A 
BRANCH   8  13
ATOM     13  S   UNL A   1      32.006  27.321  23.248  1.00  0.00     0.242 S 
ATOM     14  O   UNL A   1      30.962  27.111  22.260  1.00  0.00    -0.207 OA
ATOM     15  O   UNL A   1      33.317  27.763  22.834  1.00  0.00    -0.207 OA
BRANCH  13  16
ATOM     16  N   UNL A   1      31.393  28.431  24.421  1.00  0.00    -0.201 NA
ATOM     17  C   UNL A   1      30.408  29.399  23.853  1.00  0.00     0.124 C 
BRANCH  16  18
ATOM     18  C   UNL A   1      32.477  29.159  25.168  1.00  0.00     0.105 C 
BRANCH  18  19
ATOM     19  C   UNL A   1      32.380  28.937  26.690  1.00  0.00    -0.002 C 
ATOM     20  C   UNL A   1      31.403  27.822  27.067  1.00  0.00     0.009 C 
ATOM     21  C   UNL A   1      33.768  28.585  27.241  1.00  0.00     0.009 C 
ENDBRANCH  18  19
ENDBRANCH  16  18
ENDBRANCH  13  16
ENDBRANCH   8  13
ENDBRANCH   4   7
ENDBRANCH   2   3
ENDBRANCH   1   2
BRANCH   1  22
ATOM     22  C   UNL A   1      35.459  21.637  24.590  1.00  0.00     0.023 C 
BRANCH  22  23
ATOM     23  C   UNL A   1      36.687  21.972  25.429  1.00  0.00     0.116 C 
BRANCH  23  24
ATOM     24  N   UNL A   1      37.607  20.852  25.568  1.00  0.00    -0.352 N 
ATOM     25  C   UNL A   1      38.910  20.875  26.004  1.00  0.00     0.251 C 
ATOM     26  H   UNL A   1      37.251  19.968  25.318  1.00  0.00     0.163 HD
ATOM     27  O   UNL A   1      39.602  19.863  25.953  1.00  0.00    -0.269 OA
BRANCH  25  28
ATOM     28  C   UNL A   1      39.474  22.147  26.497  1.00  0.00     0.039 A 
ATOM     29  C   UNL A   1      40.591  22.112  27.334  1.00  0.00     0.014 A 
ATOM     30  C   UNL A   1      38.933  23.367  26.084  1.00  0.00     0.014 A 
ATOM     31  C   UNL A   1      41.203  23.309  27.709  1.00  0.00     0.010 A 
ATOM     32  C   UNL A   1      39.589  24.551  26.397  1.00  0.00     0.010 A 
ATOM     33  C   UNL A   1      40.728  24.535  27.216  1.00  0.00    -0.014 A 
BRANCH  33  34
ATOM     34  C   UNL A   1      41.410  25.812  27.543  1.00  0.00     0.031 A 
ATOM     35  C   UNL A   1      40.678  26.885  28.302  1.00  0.00     0.074 A 
ATOM     36  C   UNL A   1      42.656  26.040  27.081  1.00  0.00     0.049 A 
ATOM     37  N   UNL A   1      41.085  28.081  28.636  1.00  0.00    -0.248 NA
ATOM     38  C   UNL A   1      39.296  26.585  28.717  1.00  0.00     0.031 C 
ATOM     39  C   UNL A   1      43.437  25.111  26.260  1.00  0.00     0.029 A 
ATOM     40  N   UNL A   1      43.472  27.134  27.211  1.00  0.00    -0.354 N 
ATOM     41  C   UNL A   1      40.004  28.689  29.263  1.00  0.00     0.074 A 
ATOM     42  C   UNL A   1      38.910  27.744  29.231  1.00  0.00     0.031 C 
ATOM     43  C   UNL A   1      44.621  25.672  25.968  1.00  0.00     0.029 A 
ATOM     44  C   UNL A   1      44.673  27.009  26.550  1.00  0.00     0.049 A 
ATOM     45  H   UNL A   1      43.223  27.934  27.728  1.00  0.00     0.167 HD
ATOM     46  C   UNL A   1      39.936  29.910  29.843  1.00  0.00     0.034 A 
ATOM     47  C   UNL A   1      45.697  27.876  26.425  1.00  0.00     0.034 A 
ATOM     48  C   UNL A   1      41.039  30.829  29.911  1.00  0.00     0.049 A 
ATOM     49  C   UNL A   1      45.611  29.212  27.114  1.00  0.00     0.074 A 
ATOM     50  C   UNL A   1      41.102  32.051  30.556  1.00  0.00     0.029 A 
ATOM     51  N   UNL A   1      42.271  30.632  29.305  1.00  0.00    -0.354 N 
ATOM     52  N   UNL A   1      44.640  29.702  27.845  1.00  0.00    -0.248 NA
ATOM     53  C   UNL A   1      46.776  30.099  26.990  1.00  0.00     0.031 C 
ATOM     54  C   UNL A   1      42.364  32.607  30.317  1.00  0.00     0.029 A 
ATOM     55  C   UNL A   1      43.097  31.715  29.550  1.00  0.00     0.049 A 
ATOM     56  H   UNL A   1      42.521  29.839  28.778  1.00  0.00     0.167 HD
ATOM     57  C   UNL A   1      45.090  30.936  28.300  1.00  0.00     0.074 A 
ATOM     58  C   UNL A   1      46.431  31.109  27.777  1.00  0.00     0.031 C 
ATOM     59  C   UNL A   1      44.448  31.850  29.068  1.00  0.00     0.034 A 
BRANCH  46  60
ATOM     60  C   UNL A   1      38.637  30.303  30.498  1.00  0.00     0.023 A 
ATOM     61  C   UNL A   1      38.386  29.921  31.832  1.00  0.00     0.012 A 
ATOM     62  C   UNL A   1      37.690  31.092  29.817  1.00  0.00     0.148 A 
ATOM     63  C   UNL A   1      37.200  30.285  32.466  1.00  0.00     0.002 A 
ATOM     64  C   UNL A   1      36.531  31.492  30.470  1.00  0.00     0.091 A 
ATOM     65  F   UNL A   1      37.936  31.428  28.543  1.00  0.00    -0.205 F 
ATOM     66  C   UNL A   1      36.277  31.079  31.789  1.00  0.00     0.022 A 
BRANCH  64  67
ATOM     67  S   UNL A   1      35.319  32.582  29.715  1.00  0.00     0.127 S 
ATOM     68  O   UNL A   1      36.150  33.721  29.328  1.00  0.00    -0.237 OA
ATOM     69  O   UNL A   1      34.834  31.774  28.596  1.00  0.00    -0.237 OA
ATOM     70  O   UNL A   1      34.325  32.854  30.744  1.00  0.00    -0.744 OA
ENDBRANCH  64  67
ENDBRANCH  46  60
BRANCH  47  71
ATOM     71  C   UNL A   1      46.919  27.483  25.667  1.00  0.00     0.023 A 
ATOM     72  C   UNL A   1      47.931  26.751  26.319  1.00  0.00     0.012 A 
ATOM     73  C   UNL A   1      47.076  27.809  24.306  1.00  0.00     0.148 A 
ATOM     74  C   UNL A   1      49.092  26.381  25.640  1.00  0.00     0.002 A 
ATOM     75  C   UNL A   1      48.210  27.390  23.621  1.00  0.00     0.091 A 
ATOM     76  F   UNL A   1      46.106  28.514  23.706  1.00  0.00    -0.205 F 
ATOM     77  C   UNL A   1      49.227  26.692  24.289  1.00  0.00     0.022 A 
BRANCH  75  78
ATOM     78  S   UNL A   1      48.411  27.630  21.852  1.00  0.00     0.127 S 
ATOM     79  O   UNL A   1      49.571  28.515  21.800  1.00  0.00    -0.237 OA
ATOM     80  O   UNL A   1      48.656  26.263  21.388  1.00  0.00    -0.237 OA
ATOM     81  O   UNL A   1      47.155  28.203  21.389  1.00  0.00    -0.744 OA
ENDBRANCH  75  78
ENDBRANCH  47  71
BRANCH  59  82
ATOM     82  C   UNL A   1      45.193  33.109  29.428  1.00  0.00     0.023 A 
ATOM     83  C   UNL A   1      46.061  33.119  30.538  1.00  0.00     0.012 A 
ATOM     84  C   UNL A   1      45.093  34.257  28.617  1.00  0.00     0.148 A 
ATOM     85  C   UNL A   1      46.792  34.263  30.855  1.00  0.00     0.002 A 
ATOM     86  C   UNL A   1      45.864  35.375  28.909  1.00  0.00     0.091 A 
ATOM     87  F   UNL A   1      44.249  34.232  27.575  1.00  0.00    -0.205 F 
ATOM     88  C   UNL A   1      46.703  35.385  30.035  1.00  0.00     0.022 A 
BRANCH  86  89
ATOM     89  S   UNL A   1      45.890  36.830  27.854  1.00  0.00     0.127 S 
ATOM     90  O   UNL A   1      44.524  37.328  28.000  1.00  0.00    -0.237 OA
ATOM     91  O   UNL A   1      46.914  37.657  28.493  1.00  0.00    -0.237 OA
ATOM     92  O   UNL A   1      46.243  36.354  26.523  1.00  0.00    -0.744 OA
ENDBRANCH  86  89
ENDBRANCH  59  82
ENDBRANCH  33  34
ENDBRANCH  25  28
ENDBRANCH  23  24
ENDBRANCH  22  23
ENDBRANCH   1  22
TORSDOF 18
ENDMDL
MODEL 3
REMARK VINA RESULT:     -11.0      1.998      2.362
REMARK SMILES CC(C)CN(C)S(=O)(=O)c1ccc(C(=O)NCCCCNC(=O)c2ccc(-c3c4nc(c(-c5cccc(S(=O)(=O)[O-])c5F)c5ccc([nH]5)c(-c5cccc(S(=O)(=O)[O-])c5F)c5nc(c(-c6cccc(S(=O)(=O)[O-])c6F)c6ccc3[nH]6)C=C5)C=C4)cc2)cc1
REMARK SMILES IDX 18 1 17 2 16 3 14 4 15 5 13 7 10 8 11 9 88 10 12 11 87 12
REMARK SMILES IDX 7 13 8 14 9 15 5 16 6 17 4 18 2 19 1 20 3 21 19 22 20 23
REMARK SMILES IDX 21 24 22 25 23 27 24 28 25 29 86 30 26 31 85 32 27 33 28 34
REMARK SMILES IDX 29 35 79 36 30 37 84 38 78 39 80 40 31 41 83 42 77 43 76 44
REMARK SMILES IDX 32 46 64 47 44 48 63 49 45 50 48 51 62 52 81 53 46 54 47 55
REMARK SMILES IDX 61 57 82 58 49 59 33 60 34 61 42 62 35 63 37 64 43 65 36 66
REMARK SMILES IDX 38 67 39 68 40 69 41 70 65 71 66 72 74 73 67 74 69 75 75 76
REMARK SMILES IDX 68 77 70 78 71 79 72 80 73 81 50 82 51 83 59 84 52 85 54 86
REMARK SMILES IDX 60 87 53 88 55 89 56 90 57 91 58 92
REMARK H PARENT 16 6 21 26 80 45 48 56
REMARK Flexibility Score: inf
ROOT
ATOM      1  C   UNL A   1      35.432  20.968  24.897  1.00  0.00     0.023 C 
ENDROOT
BRANCH   1   2
ATOM      2  C   UNL A   1      33.913  21.091  25.023  1.00  0.00     0.116 C 
BRANCH   2   3
ATOM      3  N   UNL A   1      33.538  21.314  26.406  1.00  0.00    -0.352 N 
ATOM      4  C   UNL A   1      33.168  22.453  27.071  1.00  0.00     0.251 C 
ATOM      5  O   UNL A   1      32.873  22.376  28.263  1.00  0.00    -0.269 OA
ATOM      6  H   UNL A   1      33.551  20.503  26.966  1.00  0.00     0.163 HD
BRANCH   4   7
ATOM      7  C   UNL A   1      33.026  23.764  26.385  1.00  0.00     0.039 A 
ATOM      8  C   UNL A   1      32.588  26.123  24.932  1.00  0.00     0.082 A 
ATOM      9  C   UNL A   1      31.514  25.278  25.229  1.00  0.00     0.022 A 
ATOM     10  C   UNL A   1      33.872  25.814  25.393  1.00  0.00     0.022 A 
ATOM     11  C   UNL A   1      31.732  24.117  25.972  1.00  0.00     0.015 A 
ATOM     12  C   UNL A   1      34.084  24.645  26.135  1.00  0.00     0.015 A 
BRANCH   8  13
ATOM     13  S   UNL A   1      32.359  27.471  23.791  1.00  0.00     0.242 S 
ATOM     14  O   UNL A   1      31.390  27.045  22.796  1.00  0.00    -0.207 OA
ATOM     15  O   UNL A   1      33.672  27.910  23.382  1.00  0.00    -0.207 OA
BRANCH  13  16
ATOM     16  N   UNL A   1      31.624  28.723  24.728  1.00  0.00    -0.201 NA
ATOM     17  C   UNL A   1      30.622  29.518  23.958  1.00  0.00     0.124 C 
BRANCH  16  18
ATOM     18  C   UNL A   1      32.624  29.632  25.387  1.00  0.00     0.105 C 
BRANCH  18  19
ATOM     19  C   UNL A   1      32.652  29.449  26.917  1.00  0.00    -0.002 C 
ATOM     20  C   UNL A   1      31.569  28.494  27.421  1.00  0.00     0.009 C 
ATOM     21  C   UNL A   1      34.023  28.907  27.339  1.00  0.00     0.009 C 
ENDBRANCH  18  19
ENDBRANCH  16  18
ENDBRANCH  13  16
ENDBRANCH   8  13
ENDBRANCH   4   7
ENDBRANCH   2   3
ENDBRANCH   1   2
BRANCH   1  22
ATOM     22  C   UNL A   1      36.120  22.232  24.375  1.00  0.00     0.023 C 
BRANCH  22  23
ATOM     23  C   UNL A   1      37.355  22.660  25.157  1.00  0.00     0.116 C 
BRANCH  23  24
ATOM     24  N   UNL A   1      38.115  21.535  25.686  1.00  0.00    -0.352 N 
ATOM     25  C   UNL A   1      39.289  21.566  26.399  1.00  0.00     0.251 C 
ATOM     26  H   UNL A   1      37.740  20.641  25.511  1.00  0.00     0.163 HD
ATOM     27  O   UNL A   1      39.877  20.525  26.675  1.00  0.00    -0.269 OA
BRANCH  25  28
ATOM     28  C   UNL A   1      39.850  22.874  26.792  1.00  0.00     0.039 A 
ATOM     29  C   UNL A   1      40.870  22.913  27.745  1.00  0.00     0.014 A 
ATOM     30  C   UNL A   1      39.407  24.046  26.176  1.00  0.00     0.014 A 
ATOM     31  C   UNL A   1      41.488  24.130  28.036  1.00  0.00     0.010 A 
ATOM     32  C   UNL A   1      40.075  25.242  26.411  1.00  0.00     0.010 A 
ATOM     33  C   UNL A   1      41.119  25.297  27.348  1.00  0.00    -0.014 A 
BRANCH  33  34
ATOM     34  C   UNL A   1      41.815  26.585  27.588  1.00  0.00     0.031 A 
ATOM     35  C   UNL A   1      43.236  26.772  27.129  1.00  0.00     0.074 A 
ATOM     36  C   UNL A   1      41.200  27.554  28.295  1.00  0.00     0.049 A 
ATOM     37  N   UNL A   1      44.026  27.800  27.291  1.00  0.00    -0.248 NA
ATOM     38  C   UNL A   1      43.862  25.642  26.420  1.00  0.00     0.031 C 
ATOM     39  C   UNL A   1      39.854  27.460  28.867  1.00  0.00     0.029 A 
ATOM     40  N   UNL A   1      41.636  28.798  28.677  1.00  0.00    -0.354 N 
ATOM     41  C   UNL A   1      45.247  27.432  26.741  1.00  0.00     0.074 A 
ATOM     42  C   UNL A   1      45.108  26.071  26.273  1.00  0.00     0.031 C 
ATOM     43  C   UNL A   1      39.574  28.599  29.520  1.00  0.00     0.029 A 
ATOM     44  C   UNL A   1      40.725  29.491  29.441  1.00  0.00     0.049 A 
ATOM     45  H   UNL A   1      42.517  29.160  28.428  1.00  0.00     0.167 HD
ATOM     46  C   UNL A   1      46.374  28.169  26.606  1.00  0.00     0.034 A 
ATOM     47  C   UNL A   1      40.813  30.707  30.017  1.00  0.00     0.034 A 
ATOM     48  C   UNL A   1      46.495  29.536  27.033  1.00  0.00     0.049 A 
ATOM     49  C   UNL A   1      42.063  31.521  29.817  1.00  0.00     0.074 A 
ATOM     50  C   UNL A   1      47.562  30.401  26.859  1.00  0.00     0.029 A 
ATOM     51  N   UNL A   1      45.520  30.237  27.726  1.00  0.00    -0.354 N 
ATOM     52  N   UNL A   1      43.147  31.217  29.148  1.00  0.00    -0.248 NA
ATOM     53  C   UNL A   1      42.086  32.861  30.420  1.00  0.00     0.031 C 
ATOM     54  C   UNL A   1      47.242  31.617  27.473  1.00  0.00     0.029 A 
ATOM     55  C   UNL A   1      45.964  31.520  28.000  1.00  0.00     0.049 A 
ATOM     56  H   UNL A   1      44.642  29.876  27.987  1.00  0.00     0.167 HD
ATOM     57  C   UNL A   1      43.966  32.338  29.217  1.00  0.00     0.074 A 
ATOM     58  C   UNL A   1      43.241  33.337  29.977  1.00  0.00     0.031 C 
ATOM     59  C   UNL A   1      45.211  32.520  28.711  1.00  0.00     0.034 A 
BRANCH  46  60
ATOM     60  C   UNL A   1      47.554  27.527  25.922  1.00  0.00     0.023 A 
ATOM     61  C   UNL A   1      47.697  27.645  24.524  1.00  0.00     0.012 A 
ATOM     62  C   UNL A   1      48.545  26.855  26.663  1.00  0.00     0.148 A 
ATOM     63  C   UNL A   1      48.787  27.074  23.870  1.00  0.00     0.002 A 
ATOM     64  C   UNL A   1      49.653  26.330  26.010  1.00  0.00     0.091 A 
ATOM     65  F   UNL A   1      48.382  26.734  27.988  1.00  0.00    -0.205 F 
ATOM     66  C   UNL A   1      49.770  26.426  24.613  1.00  0.00     0.022 A 
BRANCH  64  67
ATOM     67  S   UNL A   1      51.014  25.549  26.885  1.00  0.00     0.127 S 
ATOM     68  O   UNL A   1      51.933  25.246  25.788  1.00  0.00    -0.237 OA
ATOM     69  O   UNL A   1      51.462  26.619  27.775  1.00  0.00    -0.237 OA
ATOM     70  O   UNL A   1      50.447  24.391  27.562  1.00  0.00    -0.744 OA
ENDBRANCH  64  67
ENDBRANCH  46  60
BRANCH  47  71
ATOM     71  C   UNL A   1      39.657  31.253  30.784  1.00  0.00     0.023 A 
ATOM     72  C   UNL A   1      38.565  31.807  30.087  1.00  0.00     0.012 A 
ATOM     73  C   UNL A   1      39.622  31.210  32.190  1.00  0.00     0.148 A 
ATOM     74  C   UNL A   1      37.475  32.340  30.777  1.00  0.00     0.002 A 
ATOM     75  C   UNL A   1      38.510  31.692  32.871  1.00  0.00     0.091 A 
ATOM     76  F   UNL A   1      40.675  30.688  32.836  1.00  0.00    -0.205 F 
ATOM     77  C   UNL A   1      37.444  32.273  32.167  1.00  0.00     0.022 A 
BRANCH  75  78
ATOM     78  S   UNL A   1      38.324  31.530  34.650  1.00  0.00     0.127 S 
ATOM     79  O   UNL A   1      37.063  32.228  34.884  1.00  0.00    -0.237 OA
ATOM     80  O   UNL A   1      38.263  30.077  34.815  1.00  0.00    -0.237 OA
ATOM     81  O   UNL A   1      39.508  32.151  35.227  1.00  0.00    -0.744 OA
ENDBRANCH  75  78
ENDBRANCH  47  71
BRANCH  59  82
ATOM     82  C   UNL A   1      45.863  33.862  28.924  1.00  0.00     0.023 A 
ATOM     83  C   UNL A   1      46.707  34.065  30.033  1.00  0.00     0.012 A 
ATOM     84  C   UNL A   1      45.699  34.895  27.980  1.00  0.00     0.148 A 
ATOM     85  C   UNL A   1      47.353  35.287  30.217  1.00  0.00     0.002 A 
ATOM     86  C   UNL A   1      46.386  36.091  28.143  1.00  0.00     0.091 A 
ATOM     87  F   UNL A   1      44.877  34.688  26.941  1.00  0.00    -0.205 F 
ATOM     88  C   UNL A   1      47.202  36.295  29.267  1.00  0.00     0.022 A 
BRANCH  86  89
ATOM     89  S   UNL A   1      46.331  37.408  26.921  1.00  0.00     0.127 S 
ATOM     90  O   UNL A   1      47.138  38.444  27.561  1.00  0.00    -0.237 OA
ATOM     91  O   UNL A   1      46.957  36.777  25.758  1.00  0.00    -0.237 OA
ATOM     92  O   UNL A   1      44.922  37.734  26.744  1.00  0.00    -0.744 OA
ENDBRANCH  86  89
ENDBRANCH  59  82
ENDBRANCH  33  34
ENDBRANCH  25  28
ENDBRANCH  23  24
ENDBRANCH  22  23
ENDBRANCH   1  22
TORSDOF 18
ENDMDL
