MODEL 1
REMARK VINA RESULT:     -12.7      0.000      0.000
REMARK SMILES Cc1cc2c(=O)c3ccccc3oc2c(C(=O)NCCCCNC(=O)c2ccc(-c3c4nc(c(-c5cccc(S(=O)(=O)[O-])c5F)c5ccc([nH]5)c(-c5cccc(S(=O)(=O)[O-])c5F)c5nc(c(-c6cccc(S(=O)(=O)[O-])c6F)c6ccc3[nH]6)C=C5)C=C4)cc2)c1C
REMARK SMILES IDX 22 1 21 2 20 3 19 4 18 5 16 6 17 7 15 9 1 10 2 11 3 12 89 13
REMARK SMILES IDX 4 14 90 15 5 16 14 17 6 18 7 19 13 20 8 21 12 22 9 23 11 24
REMARK SMILES IDX 10 25 23 26 24 27 25 29 26 30 27 31 88 32 28 33 87 34 29 35
REMARK SMILES IDX 30 36 31 37 81 38 32 39 86 40 80 41 82 42 33 43 85 44 79 45
REMARK SMILES IDX 78 46 34 48 66 49 46 50 65 51 47 52 50 53 64 54 83 55 48 56
REMARK SMILES IDX 49 57 63 59 84 60 51 61 35 62 36 63 44 64 37 65 39 66 45 67
REMARK SMILES IDX 38 68 40 69 41 70 42 71 43 72 67 73 68 74 76 75 69 76 71 77
REMARK SMILES IDX 77 78 70 79 72 80 73 81 74 82 75 83 52 84 53 85 61 86 54 87
REMARK SMILES IDX 56 88 62 89 55 90 57 91 58 92 59 93 60 94
REMARK H PARENT 18 8 23 28 82 47 50 58
REMARK Flexibility Score: inf
ROOT
ATOM      1  C   UNL A   1      32.447  32.338  26.515  1.00  0.00     0.116 C 
ENDROOT
BRANCH   1   2
ATOM      2  C   UNL A   1      31.571  31.158  26.912  1.00  0.00     0.023 C 
BRANCH   2   3
ATOM      3  C   UNL A   1      32.283  29.810  26.914  1.00  0.00     0.023 C 
BRANCH   3   4
ATOM      4  C   UNL A   1      33.733  29.840  26.412  1.00  0.00     0.116 C 
BRANCH   4   5
ATOM      5  N   UNL A   1      33.928  28.864  25.337  1.00  0.00    -0.352 N 
ATOM      6  C   UNL A   1      33.173  28.781  24.184  1.00  0.00     0.255 C 
ATOM      7  O   UNL A   1      33.624  29.317  23.173  1.00  0.00    -0.269 OA
ATOM      8  H   UNL A   1      34.657  28.212  25.446  1.00  0.00     0.163 HD
BRANCH   6   9
ATOM      9  C   UNL A   1      31.976  27.856  24.078  1.00  0.00     0.086 A 
ATOM     10  C   UNL A   1      28.164  27.657  23.396  1.00  0.00     0.044 C 
ATOM     11  C   UNL A   1      29.611  27.301  23.625  1.00  0.00    -0.046 A 
ATOM     12  C   UNL A   1      29.932  25.945  23.651  1.00  0.00     0.019 A 
ATOM     13  C   UNL A   1      30.628  28.270  23.845  1.00  0.00    -0.032 A 
ATOM     14  C   UNL A   1      31.237  25.535  23.895  1.00  0.00     0.066 A 
ATOM     15  C   UNL A   1      30.234  29.715  23.804  1.00  0.00     0.045 C 
ATOM     16  C   UNL A   1      31.533  24.095  23.892  1.00  0.00     0.200 A 
ATOM     17  C   UNL A   1      32.257  26.463  24.123  1.00  0.00     0.151 A 
ATOM     18  O   UNL A   1      30.664  23.257  23.687  1.00  0.00    -0.288 OA
ATOM     19  C   UNL A   1      32.921  23.707  24.136  1.00  0.00     0.065 A 
ATOM     20  O   UNL A   1      33.541  26.049  24.429  1.00  0.00    -0.455 OA
ATOM     21  C   UNL A   1      33.299  22.359  24.106  1.00  0.00     0.016 A 
ATOM     22  C   UNL A   1      33.846  24.710  24.396  1.00  0.00     0.138 A 
ATOM     23  C   UNL A   1      34.627  22.015  24.345  1.00  0.00     0.001 A 
ATOM     24  C   UNL A   1      35.175  24.359  24.640  1.00  0.00     0.048 A 
ATOM     25  C   UNL A   1      35.563  23.014  24.614  1.00  0.00     0.004 A 
ENDBRANCH   6   9
ENDBRANCH   4   5
ENDBRANCH   3   4
ENDBRANCH   2   3
ENDBRANCH   1   2
BRANCH   1  26
ATOM     26  N   UNL A   1      32.312  33.510  27.369  1.00  0.00    -0.352 N 
ATOM     27  C   UNL A   1      33.204  33.949  28.335  1.00  0.00     0.251 C 
ATOM     28  H   UNL A   1      31.498  34.049  27.247  1.00  0.00     0.163 HD
ATOM     29  O   UNL A   1      32.955  34.914  29.028  1.00  0.00    -0.269 OA
BRANCH  27  30
ATOM     30  C   UNL A   1      34.439  33.154  28.534  1.00  0.00     0.039 A 
ATOM     31  C   UNL A   1      34.371  31.919  29.177  1.00  0.00     0.014 A 
ATOM     32  C   UNL A   1      35.675  33.729  28.225  1.00  0.00     0.014 A 
ATOM     33  C   UNL A   1      35.530  31.365  29.703  1.00  0.00     0.010 A 
ATOM     34  C   UNL A   1      36.848  33.115  28.675  1.00  0.00     0.010 A 
ATOM     35  C   UNL A   1      36.781  31.969  29.483  1.00  0.00    -0.014 A 
BRANCH  35  36
ATOM     36  C   UNL A   1      37.984  31.397  30.146  1.00  0.00     0.031 A 
ATOM     37  C   UNL A   1      38.314  31.725  31.581  1.00  0.00     0.074 A 
ATOM     38  C   UNL A   1      38.739  30.506  29.475  1.00  0.00     0.049 A 
ATOM     39  N   UNL A   1      39.278  31.249  32.329  1.00  0.00    -0.248 NA
ATOM     40  C   UNL A   1      37.465  32.713  32.270  1.00  0.00     0.031 C 
ATOM     41  C   UNL A   1      38.535  30.117  28.078  1.00  0.00     0.029 A 
ATOM     42  N   UNL A   1      39.805  29.742  29.880  1.00  0.00    -0.354 N 
ATOM     43  C   UNL A   1      39.184  31.910  33.547  1.00  0.00     0.074 A 
ATOM     44  C   UNL A   1      38.067  32.822  33.448  1.00  0.00     0.031 C 
ATOM     45  C   UNL A   1      39.397  29.140  27.763  1.00  0.00     0.029 A 
ATOM     46  C   UNL A   1      40.251  28.870  28.916  1.00  0.00     0.049 A 
ATOM     47  H   UNL A   1      40.209  29.811  30.775  1.00  0.00     0.167 HD
ATOM     48  C   UNL A   1      39.943  31.755  34.657  1.00  0.00     0.034 A 
ATOM     49  C   UNL A   1      41.234  27.949  28.949  1.00  0.00     0.034 A 
ATOM     50  C   UNL A   1      41.004  30.794  34.789  1.00  0.00     0.049 A 
ATOM     51  C   UNL A   1      42.034  27.770  30.205  1.00  0.00     0.074 A 
ATOM     52  C   UNL A   1      41.785  30.529  35.901  1.00  0.00     0.029 A 
ATOM     53  N   UNL A   1      41.423  29.935  33.789  1.00  0.00    -0.354 N 
ATOM     54  N   UNL A   1      41.876  28.354  31.367  1.00  0.00    -0.248 NA
ATOM     55  C   UNL A   1      43.142  26.806  30.159  1.00  0.00     0.031 C 
ATOM     56  C   UNL A   1      42.677  29.506  35.572  1.00  0.00     0.029 A 
ATOM     57  C   UNL A   1      42.453  29.137  34.256  1.00  0.00     0.049 A 
ATOM     58  H   UNL A   1      41.044  29.896  32.881  1.00  0.00     0.167 HD
ATOM     59  C   UNL A   1      42.862  27.830  32.192  1.00  0.00     0.074 A 
ATOM     60  C   UNL A   1      43.597  26.860  31.405  1.00  0.00     0.031 C 
ATOM     61  C   UNL A   1      43.147  28.146  33.477  1.00  0.00     0.034 A 
BRANCH  48  62
ATOM     62  C   UNL A   1      39.626  32.601  35.860  1.00  0.00     0.023 A 
ATOM     63  C   UNL A   1      40.140  33.910  35.932  1.00  0.00     0.012 A 
ATOM     64  C   UNL A   1      38.734  32.148  36.851  1.00  0.00     0.148 A 
ATOM     65  C   UNL A   1      39.776  34.757  36.978  1.00  0.00     0.002 A 
ATOM     66  C   UNL A   1      38.355  33.006  37.878  1.00  0.00     0.091 A 
ATOM     67  F   UNL A   1      38.269  30.894  36.766  1.00  0.00    -0.205 F 
ATOM     68  C   UNL A   1      38.879  34.309  37.944  1.00  0.00     0.022 A 
BRANCH  66  69
ATOM     69  S   UNL A   1      37.164  32.548  39.141  1.00  0.00     0.127 S 
ATOM     70  O   UNL A   1      37.433  33.549  40.175  1.00  0.00    -0.237 OA
ATOM     71  O   UNL A   1      35.891  32.722  38.441  1.00  0.00    -0.237 OA
ATOM     72  O   UNL A   1      37.476  31.176  39.512  1.00  0.00    -0.744 OA
ENDBRANCH  66  69
ENDBRANCH  48  62
BRANCH  49  73
ATOM     73  C   UNL A   1      41.458  27.090  27.756  1.00  0.00     0.023 A 
ATOM     74  C   UNL A   1      42.175  27.609  26.663  1.00  0.00     0.012 A 
ATOM     75  C   UNL A   1      41.054  25.741  27.742  1.00  0.00     0.148 A 
ATOM     76  C   UNL A   1      42.491  26.796  25.574  1.00  0.00     0.002 A 
ATOM     77  C   UNL A   1      41.415  24.926  26.678  1.00  0.00     0.091 A 
ATOM     78  F   UNL A   1      40.363  25.277  28.792  1.00  0.00    -0.205 F 
ATOM     79  C   UNL A   1      42.125  25.453  25.588  1.00  0.00     0.022 A 
BRANCH  77  80
ATOM     80  S   UNL A   1      41.101  23.157  26.671  1.00  0.00     0.127 S 
ATOM     81  O   UNL A   1      41.923  22.712  25.548  1.00  0.00    -0.237 OA
ATOM     82  O   UNL A   1      41.593  22.760  27.991  1.00  0.00    -0.237 OA
ATOM     83  O   UNL A   1      39.663  23.011  26.495  1.00  0.00    -0.744 OA
ENDBRANCH  77  80
ENDBRANCH  49  73
BRANCH  61  84
ATOM     84  C   UNL A   1      44.310  27.457  34.132  1.00  0.00     0.023 A 
ATOM     85  C   UNL A   1      45.582  28.059  34.062  1.00  0.00     0.012 A 
ATOM     86  C   UNL A   1      44.122  26.308  34.922  1.00  0.00     0.148 A 
ATOM     87  C   UNL A   1      46.655  27.520  34.770  1.00  0.00     0.002 A 
ATOM     88  C   UNL A   1      45.191  25.794  35.647  1.00  0.00     0.091 A 
ATOM     89  F   UNL A   1      42.901  25.757  34.965  1.00  0.00    -0.205 F 
ATOM     90  C   UNL A   1      46.458  26.397  35.570  1.00  0.00     0.022 A 
BRANCH  88  91
ATOM     91  S   UNL A   1      45.025  24.394  36.760  1.00  0.00     0.127 S 
ATOM     92  O   UNL A   1      44.054  24.898  37.730  1.00  0.00    -0.237 OA
ATOM     93  O   UNL A   1      44.516  23.352  35.870  1.00  0.00    -0.237 OA
ATOM     94  O   UNL A   1      46.357  24.142  37.296  1.00  0.00    -0.744 OA
ENDBRANCH  88  91
ENDBRANCH  61  84
ENDBRANCH  35  36
ENDBRANCH  27  30
ENDBRANCH   1  26
TORSDOF 14
ENDMDL
MODEL 2
REMARK VINA RESULT:     -12.7      1.694      2.355
REMARK SMILES Cc1cc2c(=O)c3ccccc3oc2c(C(=O)NCCCCNC(=O)c2ccc(-c3c4nc(c(-c5cccc(S(=O)(=O)[O-])c5F)c5ccc([nH]5)c(-c5cccc(S(=O)(=O)[O-])c5F)c5nc(c(-c6cccc(S(=O)(=O)[O-])c6F)c6ccc3[nH]6)C=C5)C=C4)cc2)c1C
REMARK SMILES IDX 22 1 21 2 20 3 19 4 18 5 16 6 17 7 15 9 1 10 2 11 3 12 89 13
REMARK SMILES IDX 4 14 90 15 5 16 14 17 6 18 7 19 13 20 8 21 12 22 9 23 11 24
REMARK SMILES IDX 10 25 23 26 24 27 25 29 26 30 27 31 88 32 28 33 87 34 29 35
REMARK SMILES IDX 30 36 31 37 81 38 32 39 86 40 80 41 82 42 33 43 85 44 79 45
REMARK SMILES IDX 78 46 34 48 66 49 46 50 65 51 47 52 50 53 64 54 83 55 48 56
REMARK SMILES IDX 49 57 63 59 84 60 51 61 35 62 36 63 44 64 37 65 39 66 45 67
REMARK SMILES IDX 38 68 40 69 41 70 42 71 43 72 67 73 68 74 76 75 69 76 71 77
REMARK SMILES IDX 77 78 70 79 72 80 73 81 74 82 75 83 52 84 53 85 61 86 54 87
REMARK SMILES IDX 56 88 62 89 55 90 57 91 58 92 59 93 60 94
REMARK H PARENT 18 8 23 28 82 47 50 58
REMARK Flexibility Score: inf
ROOT
ATOM      1  C   UNL A   1      32.095  30.498  26.802  1.00  0.00     0.116 C 
ENDROOT
BRANCH   1   2
ATOM      2  C   UNL A   1      31.619  30.073  25.421  1.00  0.00     0.023 C 
BRANCH   2   3
ATOM      3  C   UNL A   1      32.600  29.192  24.655  1.00  0.00     0.023 C 
BRANCH   3   4
ATOM      4  C   UNL A   1      33.500  28.309  25.528  1.00  0.00     0.116 C 
BRANCH   4   5
ATOM      5  N   UNL A   1      33.797  27.044  24.851  1.00  0.00    -0.352 N 
ATOM      6  C   UNL A   1      32.857  26.162  24.354  1.00  0.00     0.255 C 
ATOM      7  O   UNL A   1      32.599  26.230  23.153  1.00  0.00    -0.269 OA
ATOM      8  H   UNL A   1      34.745  26.801  24.743  1.00  0.00     0.163 HD
BRANCH   6   9
ATOM      9  C   UNL A   1      32.353  24.989  25.171  1.00  0.00     0.086 A 
ATOM     10  C   UNL A   1      29.305  23.503  27.053  1.00  0.00     0.044 C 
ATOM     11  C   UNL A   1      30.647  23.679  26.387  1.00  0.00    -0.046 A 
ATOM     12  C   UNL A   1      31.522  22.595  26.431  1.00  0.00     0.019 A 
ATOM     13  C   UNL A   1      31.056  24.889  25.762  1.00  0.00    -0.032 A 
ATOM     14  C   UNL A   1      32.791  22.691  25.873  1.00  0.00     0.066 A 
ATOM     15  C   UNL A   1      30.079  26.024  25.737  1.00  0.00     0.045 C 
ATOM     16  C   UNL A   1      33.672  21.516  25.925  1.00  0.00     0.200 A 
ATOM     17  C   UNL A   1      33.225  23.869  25.261  1.00  0.00     0.151 A 
ATOM     18  O   UNL A   1      33.318  20.466  26.448  1.00  0.00    -0.288 OA
ATOM     19  C   UNL A   1      34.992  21.653  25.313  1.00  0.00     0.065 A 
ATOM     20  O   UNL A   1      34.511  23.982  24.764  1.00  0.00    -0.455 OA
ATOM     21  C   UNL A   1      35.877  20.569  25.278  1.00  0.00     0.016 A 
ATOM     22  C   UNL A   1      35.338  22.884  24.770  1.00  0.00     0.138 A 
ATOM     23  C   UNL A   1      37.130  20.727  24.691  1.00  0.00     0.001 A 
ATOM     24  C   UNL A   1      36.597  23.038  24.189  1.00  0.00     0.048 A 
ATOM     25  C   UNL A   1      37.490  21.961  24.150  1.00  0.00     0.004 A 
ENDBRANCH   6   9
ENDBRANCH   4   5
ENDBRANCH   3   4
ENDBRANCH   2   3
ENDBRANCH   1   2
BRANCH   1  26
ATOM     26  N   UNL A   1      31.934  31.917  27.091  1.00  0.00    -0.352 N 
ATOM     27  C   UNL A   1      32.900  32.789  27.569  1.00  0.00     0.251 C 
ATOM     28  H   UNL A   1      31.041  32.298  26.929  1.00  0.00     0.163 HD
ATOM     29  O   UNL A   1      32.631  33.945  27.826  1.00  0.00    -0.269 OA
BRANCH  27  30
ATOM     30  C   UNL A   1      34.254  32.238  27.816  1.00  0.00     0.039 A 
ATOM     31  C   UNL A   1      34.403  30.889  28.137  1.00  0.00     0.014 A 
ATOM     32  C   UNL A   1      35.341  33.112  27.889  1.00  0.00     0.014 A 
ATOM     33  C   UNL A   1      35.580  30.463  28.737  1.00  0.00     0.010 A 
ATOM     34  C   UNL A   1      36.557  32.652  28.406  1.00  0.00     0.010 A 
ATOM     35  C   UNL A   1      36.663  31.345  28.904  1.00  0.00    -0.014 A 
BRANCH  35  36
ATOM     36  C   UNL A   1      37.868  30.874  29.639  1.00  0.00     0.031 A 
ATOM     37  C   UNL A   1      38.103  31.256  31.079  1.00  0.00     0.074 A 
ATOM     38  C   UNL A   1      38.717  30.024  29.028  1.00  0.00     0.049 A 
ATOM     39  N   UNL A   1      39.059  30.866  31.885  1.00  0.00    -0.248 NA
ATOM     40  C   UNL A   1      37.154  32.196  31.702  1.00  0.00     0.031 C 
ATOM     41  C   UNL A   1      38.610  29.592  27.633  1.00  0.00     0.029 A 
ATOM     42  N   UNL A   1      39.811  29.346  29.504  1.00  0.00    -0.354 N 
ATOM     43  C   UNL A   1      38.858  31.544  33.080  1.00  0.00     0.074 A 
ATOM     44  C   UNL A   1      37.686  32.373  32.904  1.00  0.00     0.031 C 
ATOM     45  C   UNL A   1      39.553  28.672  27.385  1.00  0.00     0.029 A 
ATOM     46  C   UNL A   1      40.365  28.487  28.584  1.00  0.00     0.049 A 
ATOM     47  H   UNL A   1      40.164  29.464  30.415  1.00  0.00     0.167 HD
ATOM     48  C   UNL A   1      39.570  31.468  34.229  1.00  0.00     0.034 A 
ATOM     49  C   UNL A   1      41.406  27.639  28.688  1.00  0.00     0.034 A 
ATOM     50  C   UNL A   1      40.687  30.588  34.437  1.00  0.00     0.049 A 
ATOM     51  C   UNL A   1      42.153  27.545  29.986  1.00  0.00     0.074 A 
ATOM     52  C   UNL A   1      41.428  30.403  35.591  1.00  0.00     0.029 A 
ATOM     53  N   UNL A   1      41.215  29.738  33.480  1.00  0.00    -0.354 N 
ATOM     54  N   UNL A   1      41.897  28.141  31.124  1.00  0.00    -0.248 NA
ATOM     55  C   UNL A   1      43.327  26.661  30.018  1.00  0.00     0.031 C 
ATOM     56  C   UNL A   1      42.405  29.438  35.332  1.00  0.00     0.029 A 
ATOM     57  C   UNL A   1      42.273  29.026  34.016  1.00  0.00     0.049 A 
ATOM     58  H   UNL A   1      40.885  29.653  32.556  1.00  0.00     0.167 HD
ATOM     59  C   UNL A   1      42.875  27.706  32.008  1.00  0.00     0.074 A 
ATOM     60  C   UNL A   1      43.713  26.774  31.283  1.00  0.00     0.031 C 
ATOM     61  C   UNL A   1      43.072  28.070  33.297  1.00  0.00     0.034 A 
BRANCH  48  62
ATOM     62  C   UNL A   1      39.135  32.315  35.393  1.00  0.00     0.023 A 
ATOM     63  C   UNL A   1      38.266  31.765  36.356  1.00  0.00     0.012 A 
ATOM     64  C   UNL A   1      39.671  33.602  35.595  1.00  0.00     0.148 A 
ATOM     65  C   UNL A   1      37.932  32.484  37.502  1.00  0.00     0.002 A 
ATOM     66  C   UNL A   1      39.353  34.304  36.753  1.00  0.00     0.091 A 
ATOM     67  F   UNL A   1      40.485  34.108  34.658  1.00  0.00    -0.205 F 
ATOM     68  C   UNL A   1      38.481  33.747  37.705  1.00  0.00     0.022 A 
BRANCH  66  69
ATOM     69  S   UNL A   1      40.049  35.915  37.138  1.00  0.00     0.127 S 
ATOM     70  O   UNL A   1      39.325  36.263  38.361  1.00  0.00    -0.237 OA
ATOM     71  O   UNL A   1      41.464  35.599  37.336  1.00  0.00    -0.237 OA
ATOM     72  O   UNL A   1      39.768  36.761  35.988  1.00  0.00    -0.744 OA
ENDBRANCH  66  69
ENDBRANCH  48  62
BRANCH  49  73
ATOM     73  C   UNL A   1      41.749  26.773  27.530  1.00  0.00     0.023 A 
ATOM     74  C   UNL A   1      42.540  27.298  26.492  1.00  0.00     0.012 A 
ATOM     75  C   UNL A   1      41.383  25.414  27.502  1.00  0.00     0.148 A 
ATOM     76  C   UNL A   1      42.965  26.480  25.443  1.00  0.00     0.002 A 
ATOM     77  C   UNL A   1      41.849  24.596  26.482  1.00  0.00     0.091 A 
ATOM     78  F   UNL A   1      40.620  24.944  28.498  1.00  0.00    -0.205 F 
ATOM     79  C   UNL A   1      42.633  25.128  25.446  1.00  0.00     0.022 A 
BRANCH  77  80
ATOM     80  S   UNL A   1      41.583  22.819  26.474  1.00  0.00     0.127 S 
ATOM     81  O   UNL A   1      42.187  22.420  27.742  1.00  0.00    -0.237 OA
ATOM     82  O   UNL A   1      40.122  22.735  26.433  1.00  0.00    -0.237 OA
ATOM     83  O   UNL A   1      42.248  22.325  25.276  1.00  0.00    -0.744 OA
ENDBRANCH  77  80
ENDBRANCH  49  73
BRANCH  61  84
ATOM     84  C   UNL A   1      44.246  27.480  34.025  1.00  0.00     0.023 A 
ATOM     85  C   UNL A   1      45.468  28.180  34.022  1.00  0.00     0.012 A 
ATOM     86  C   UNL A   1      44.104  26.324  34.814  1.00  0.00     0.148 A 
ATOM     87  C   UNL A   1      46.538  27.733  34.796  1.00  0.00     0.002 A 
ATOM     88  C   UNL A   1      45.166  25.900  35.605  1.00  0.00     0.091 A 
ATOM     89  F   UNL A   1      42.930  25.677  34.793  1.00  0.00    -0.205 F 
ATOM     90  C   UNL A   1      46.384  26.602  35.594  1.00  0.00     0.022 A 
BRANCH  88  91
ATOM     91  S   UNL A   1      45.048  24.498  36.721  1.00  0.00     0.127 S 
ATOM     92  O   UNL A   1      46.431  24.361  37.175  1.00  0.00    -0.237 OA
ATOM     93  O   UNL A   1      44.117  24.989  37.735  1.00  0.00    -0.237 OA
ATOM     94  O   UNL A   1      44.549  23.385  35.922  1.00  0.00    -0.744 OA
ENDBRANCH  88  91
ENDBRANCH  61  84
ENDBRANCH  35  36
ENDBRANCH  27  30
ENDBRANCH   1  26
TORSDOF 14
ENDMDL
MODEL 3
REMARK VINA RESULT:     -12.6      0.996      2.690
REMARK SMILES Cc1cc2c(=O)c3ccccc3oc2c(C(=O)NCCCCNC(=O)c2ccc(-c3c4nc(c(-c5cccc(S(=O)(=O)[O-])c5F)c5ccc([nH]5)c(-c5cccc(S(=O)(=O)[O-])c5F)c5nc(c(-c6cccc(S(=O)(=O)[O-])c6F)c6ccc3[nH]6)C=C5)C=C4)cc2)c1C
REMARK SMILES IDX 22 1 21 2 20 3 19 4 18 5 16 6 17 7 15 9 1 10 2 11 3 12 89 13
REMARK SMILES IDX 4 14 90 15 5 16 14 17 6 18 7 19 13 20 8 21 12 22 9 23 11 24
REMARK SMILES IDX 10 25 23 26 24 27 25 29 26 30 27 31 88 32 28 33 87 34 29 35
REMARK SMILES IDX 30 36 31 37 81 38 32 39 86 40 80 41 82 42 33 43 85 44 79 45
REMARK SMILES IDX 78 46 34 48 66 49 46 50 65 51 47 52 50 53 64 54 83 55 48 56
REMARK SMILES IDX 49 57 63 59 84 60 51 61 35 62 36 63 44 64 37 65 39 66 45 67
REMARK SMILES IDX 38 68 40 69 41 70 42 71 43 72 67 73 68 74 76 75 69 76 71 77
REMARK SMILES IDX 77 78 70 79 72 80 73 81 74 82 75 83 52 84 53 85 61 86 54 87
REMARK SMILES IDX 56 88 62 89 55 90 57 91 58 92 59 93 60 94
REMARK H PARENT 18 8 23 28 82 47 50 58
REMARK Flexibility Score: inf
ROOT
ATOM      1  C   UNL A   1      32.381  32.221  26.456  1.00  0.00     0.116 C 
ENDROOT
BRANCH   1   2
ATOM      2  C   UNL A   1      31.482  31.068  26.880  1.00  0.00     0.023 C 
BRANCH   2   3
ATOM      3  C   UNL A   1      32.158  29.702  26.880  1.00  0.00     0.023 C 
BRANCH   3   4
ATOM      4  C   UNL A   1      33.544  29.663  26.224  1.00  0.00     0.116 C 
BRANCH   4   5
ATOM      5  N   UNL A   1      33.928  28.284  25.909  1.00  0.00    -0.352 N 
ATOM      6  C   UNL A   1      33.497  27.563  24.813  1.00  0.00     0.255 C 
ATOM      7  O   UNL A   1      34.244  27.522  23.835  1.00  0.00    -0.269 OA
ATOM      8  H   UNL A   1      34.543  27.833  26.532  1.00  0.00     0.163 HD
BRANCH   6   9
ATOM      9  C   UNL A   1      32.294  26.644  24.884  1.00  0.00     0.086 A 
ATOM     10  C   UNL A   1      30.920  23.311  26.314  1.00  0.00     0.044 C 
ATOM     11  C   UNL A   1      31.034  24.665  25.659  1.00  0.00    -0.046 A 
ATOM     12  C   UNL A   1      29.866  25.209  25.125  1.00  0.00     0.019 A 
ATOM     13  C   UNL A   1      32.261  25.374  25.538  1.00  0.00    -0.032 A 
ATOM     14  C   UNL A   1      29.896  26.435  24.472  1.00  0.00     0.066 A 
ATOM     15  C   UNL A   1      33.486  24.750  26.131  1.00  0.00     0.045 C 
ATOM     16  C   UNL A   1      28.637  26.979  23.943  1.00  0.00     0.200 A 
ATOM     17  C   UNL A   1      31.087  27.152  24.329  1.00  0.00     0.151 A 
ATOM     18  O   UNL A   1      27.574  26.380  24.060  1.00  0.00    -0.288 OA
ATOM     19  C   UNL A   1      28.707  28.279  23.278  1.00  0.00     0.065 A 
ATOM     20  O   UNL A   1      31.122  28.340  23.624  1.00  0.00    -0.455 OA
ATOM     21  C   UNL A   1      27.549  28.891  22.786  1.00  0.00     0.016 A 
ATOM     22  C   UNL A   1      29.952  28.884  23.153  1.00  0.00     0.138 A 
ATOM     23  C   UNL A   1      27.643  30.128  22.153  1.00  0.00     0.001 A 
ATOM     24  C   UNL A   1      30.042  30.121  22.513  1.00  0.00     0.048 A 
ATOM     25  C   UNL A   1      28.890  30.741  22.015  1.00  0.00     0.004 A 
ENDBRANCH   6   9
ENDBRANCH   4   5
ENDBRANCH   3   4
ENDBRANCH   2   3
ENDBRANCH   1   2
BRANCH   1  26
ATOM     26  N   UNL A   1      32.251  33.423  27.268  1.00  0.00    -0.352 N 
ATOM     27  C   UNL A   1      33.155  33.902  28.204  1.00  0.00     0.251 C 
ATOM     28  H   UNL A   1      31.432  33.953  27.138  1.00  0.00     0.163 HD
ATOM     29  O   UNL A   1      32.910  34.892  28.864  1.00  0.00    -0.269 OA
BRANCH  27  30
ATOM     30  C   UNL A   1      34.397  33.123  28.414  1.00  0.00     0.039 A 
ATOM     31  C   UNL A   1      34.335  31.877  29.037  1.00  0.00     0.014 A 
ATOM     32  C   UNL A   1      35.630  33.720  28.138  1.00  0.00     0.014 A 
ATOM     33  C   UNL A   1      35.492  31.331  29.577  1.00  0.00     0.010 A 
ATOM     34  C   UNL A   1      36.804  33.116  28.600  1.00  0.00     0.010 A 
ATOM     35  C   UNL A   1      36.738  31.957  29.389  1.00  0.00    -0.014 A 
BRANCH  35  36
ATOM     36  C   UNL A   1      37.936  31.392  30.066  1.00  0.00     0.031 A 
ATOM     37  C   UNL A   1      38.246  31.719  31.506  1.00  0.00     0.074 A 
ATOM     38  C   UNL A   1      38.707  30.508  29.402  1.00  0.00     0.049 A 
ATOM     39  N   UNL A   1      39.204  31.248  32.264  1.00  0.00    -0.248 NA
ATOM     40  C   UNL A   1      37.382  32.698  32.187  1.00  0.00     0.031 C 
ATOM     41  C   UNL A   1      38.523  30.121  28.001  1.00  0.00     0.029 A 
ATOM     42  N   UNL A   1      39.772  29.750  29.819  1.00  0.00    -0.354 N 
ATOM     43  C   UNL A   1      39.090  31.905  33.483  1.00  0.00     0.074 A 
ATOM     44  C   UNL A   1      37.967  32.809  33.372  1.00  0.00     0.031 C 
ATOM     45  C   UNL A   1      39.396  29.151  27.695  1.00  0.00     0.029 A 
ATOM     46  C   UNL A   1      40.237  28.884  28.858  1.00  0.00     0.049 A 
ATOM     47  H   UNL A   1      40.165  29.821  30.719  1.00  0.00     0.167 HD
ATOM     48  C   UNL A   1      39.836  31.753  34.602  1.00  0.00     0.034 A 
ATOM     49  C   UNL A   1      41.226  27.970  28.902  1.00  0.00     0.034 A 
ATOM     50  C   UNL A   1      40.902  30.799  34.746  1.00  0.00     0.049 A 
ATOM     51  C   UNL A   1      42.012  27.794  30.168  1.00  0.00     0.074 A 
ATOM     52  C   UNL A   1      41.671  30.537  35.866  1.00  0.00     0.029 A 
ATOM     53  N   UNL A   1      41.340  29.945  33.748  1.00  0.00    -0.354 N 
ATOM     54  N   UNL A   1      41.835  28.374  31.329  1.00  0.00    -0.248 NA
ATOM     55  C   UNL A   1      43.128  26.838  30.133  1.00  0.00     0.031 C 
ATOM     56  C   UNL A   1      42.575  29.521  35.547  1.00  0.00     0.029 A 
ATOM     57  C   UNL A   1      42.370  29.154  34.226  1.00  0.00     0.049 A 
ATOM     58  H   UNL A   1      40.973  29.906  32.835  1.00  0.00     0.167 HD
ATOM     59  C   UNL A   1      42.814  27.855  32.165  1.00  0.00     0.074 A 
ATOM     60  C   UNL A   1      43.566  26.892  31.385  1.00  0.00     0.031 C 
ATOM     61  C   UNL A   1      43.081  28.170  33.454  1.00  0.00     0.034 A 
BRANCH  48  62
ATOM     62  C   UNL A   1      39.498  32.593  35.803  1.00  0.00     0.023 A 
ATOM     63  C   UNL A   1      39.966  33.920  35.865  1.00  0.00     0.012 A 
ATOM     64  C   UNL A   1      38.629  32.114  36.802  1.00  0.00     0.148 A 
ATOM     65  C   UNL A   1      39.579  34.759  36.909  1.00  0.00     0.002 A 
ATOM     66  C   UNL A   1      38.228  32.964  37.828  1.00  0.00     0.091 A 
ATOM     67  F   UNL A   1      38.208  30.844  36.727  1.00  0.00    -0.205 F 
ATOM     68  C   UNL A   1      38.705  34.286  37.883  1.00  0.00     0.022 A 
BRANCH  66  69
ATOM     69  S   UNL A   1      37.062  32.471  39.102  1.00  0.00     0.127 S 
ATOM     70  O   UNL A   1      37.418  33.380  40.193  1.00  0.00    -0.237 OA
ATOM     71  O   UNL A   1      35.775  32.755  38.468  1.00  0.00    -0.237 OA
ATOM     72  O   UNL A   1      37.319  31.062  39.361  1.00  0.00    -0.744 OA
ENDBRANCH  66  69
ENDBRANCH  48  62
BRANCH  49  73
ATOM     73  C   UNL A   1      41.471  27.116  27.710  1.00  0.00     0.023 A 
ATOM     74  C   UNL A   1      42.159  27.658  26.608  1.00  0.00     0.012 A 
ATOM     75  C   UNL A   1      41.119  25.753  27.704  1.00  0.00     0.148 A 
ATOM     76  C   UNL A   1      42.496  26.853  25.519  1.00  0.00     0.002 A 
ATOM     77  C   UNL A   1      41.500  24.948  26.639  1.00  0.00     0.091 A 
ATOM     78  F   UNL A   1      40.455  25.268  28.762  1.00  0.00    -0.205 F 
ATOM     79  C   UNL A   1      42.180  25.497  25.541  1.00  0.00     0.022 A 
BRANCH  77  80
ATOM     80  S   UNL A   1      41.253  23.169  26.641  1.00  0.00     0.127 S 
ATOM     81  O   UNL A   1      41.793  22.793  27.945  1.00  0.00    -0.237 OA
ATOM     82  O   UNL A   1      39.797  23.067  26.523  1.00  0.00    -0.237 OA
ATOM     83  O   UNL A   1      41.986  22.667  25.486  1.00  0.00    -0.744 OA
ENDBRANCH  77  80
ENDBRANCH  49  73
BRANCH  61  84
ATOM     84  C   UNL A   1      44.241  27.488  34.122  1.00  0.00     0.023 A 
ATOM     85  C   UNL A   1      45.495  28.129  34.124  1.00  0.00     0.012 A 
ATOM     86  C   UNL A   1      44.060  26.301  34.856  1.00  0.00     0.148 A 
ATOM     87  C   UNL A   1      46.559  27.592  34.847  1.00  0.00     0.002 A 
ATOM     88  C   UNL A   1      45.117  25.788  35.598  1.00  0.00     0.091 A 
ATOM     89  F   UNL A   1      42.855  25.714  34.833  1.00  0.00    -0.205 F 
ATOM     90  C   UNL A   1      46.368  26.430  35.592  1.00  0.00     0.022 A 
BRANCH  88  91
ATOM     91  S   UNL A   1      44.956  24.338  36.646  1.00  0.00     0.127 S 
ATOM     92  O   UNL A   1      46.355  24.010  36.918  1.00  0.00    -0.237 OA
ATOM     93  O   UNL A   1      44.217  24.867  37.791  1.00  0.00    -0.237 OA
ATOM     94  O   UNL A   1      44.233  23.348  35.858  1.00  0.00    -0.744 OA
ENDBRANCH  88  91
ENDBRANCH  61  84
ENDBRANCH  35  36
ENDBRANCH  27  30
ENDBRANCH   1  26
TORSDOF 14
ENDMDL
