MODEL 1
REMARK VINA RESULT:     -12.1      0.000      0.000
REMARK SMILES O=C(NCCCCNC(=O)c1ccccc1Nc1nc(Cl)nc(Nc2ccc(N3CCOCC3=O)cc2)n1)c1ccc(-c2c3nc(c(-c4cccc(S(=O)(=O)[O-])c4F)c4ccc([nH]4)c(-c4cccc(S(=O)(=O)[O-])c4F)c4nc(c(-c5cccc(S(=O)(=O)[O-])c5F)c5ccc2[nH]5)C=C4)C=C3)cc1
REMARK SMILES IDX 6 1 5 2 4 3 3 4 1 5 2 6 39 8 40 9 101 10 41 11 100 12 42 13
REMARK SMILES IDX 43 14 44 15 94 16 45 17 99 18 93 19 95 20 46 21 98 22 92 23
REMARK SMILES IDX 91 24 47 26 79 27 59 28 78 29 60 30 63 31 77 32 96 33 61 34
REMARK SMILES IDX 62 35 76 37 97 38 64 39 48 40 49 41 57 42 50 43 52 44 58 45
REMARK SMILES IDX 51 46 53 47 54 48 55 49 56 50 80 51 81 52 89 53 82 54 84 55
REMARK SMILES IDX 90 56 83 57 85 58 86 59 87 60 88 61 65 62 66 63 74 64 67 65
REMARK SMILES IDX 69 66 75 67 68 68 70 69 71 70 72 71 73 72 7 73 8 74 9 75
REMARK SMILES IDX 10 77 11 78 12 79 16 80 13 81 15 82 14 83 17 84 18 86 19 87
REMARK SMILES IDX 38 88 20 89 23 90 21 91 22 92 24 93 25 95 26 96 37 97 27 98
REMARK SMILES IDX 36 99 28 100 29 101 30 102 34 103 31 104 33 105 35 106
REMARK SMILES IDX 32 107
REMARK H PARENT 3 7 95 25 63 36 8 76 17 85 24 94
REMARK Flexibility Score: inf
ROOT
ATOM      1  C   UNL A   1      35.512  22.968  23.685  1.00  0.00     0.023 C 
ENDROOT
BRANCH   1   2
ATOM      2  C   UNL A   1      35.848  23.929  24.822  1.00  0.00     0.023 C 
BRANCH   2   3
ATOM      3  C   UNL A   1      36.300  23.277  26.123  1.00  0.00     0.116 C 
BRANCH   3   4
ATOM      4  N   UNL A   1      37.208  22.156  25.921  1.00  0.00    -0.352 N 
ATOM      5  O   UNL A   1      39.179  21.071  25.780  1.00  0.00    -0.269 OA
ATOM      6  C   UNL A   1      38.568  22.075  26.132  1.00  0.00     0.251 C 
ATOM      7  H   UNL A   1      36.788  21.333  25.581  1.00  0.00     0.163 HD
BRANCH   6   8
ATOM      8  C   UNL A   1      39.289  23.215  26.742  1.00  0.00     0.039 A 
ATOM      9  C   UNL A   1      38.885  24.528  26.495  1.00  0.00     0.014 A 
ATOM     10  C   UNL A   1      40.408  22.968  27.541  1.00  0.00     0.014 A 
ATOM     11  C   UNL A   1      39.712  25.582  26.864  1.00  0.00     0.010 A 
ATOM     12  C   UNL A   1      41.182  24.040  28.003  1.00  0.00     0.010 A 
ATOM     13  C   UNL A   1      40.877  25.353  27.617  1.00  0.00    -0.014 A 
BRANCH  13  14
ATOM     14  C   UNL A   1      41.736  26.509  27.992  1.00  0.00     0.031 A 
ATOM     15  C   UNL A   1      43.089  26.719  27.363  1.00  0.00     0.074 A 
ATOM     16  C   UNL A   1      41.271  27.402  28.890  1.00  0.00     0.049 A 
ATOM     17  N   UNL A   1      43.925  27.714  27.523  1.00  0.00    -0.248 NA
ATOM     18  C   UNL A   1      43.579  25.678  26.443  1.00  0.00     0.031 C 
ATOM     19  C   UNL A   1      39.998  27.287  29.606  1.00  0.00     0.029 A 
ATOM     20  N   UNL A   1      41.800  28.583  29.343  1.00  0.00    -0.354 N 
ATOM     21  C   UNL A   1      45.051  27.400  26.770  1.00  0.00     0.074 A 
ATOM     22  C   UNL A   1      44.797  26.116  26.154  1.00  0.00     0.031 C 
ATOM     23  C   UNL A   1      39.823  28.374  30.371  1.00  0.00     0.029 A 
ATOM     24  C   UNL A   1      40.991  29.239  30.239  1.00  0.00     0.049 A 
ATOM     25  H   UNL A   1      42.676  28.928  29.053  1.00  0.00     0.167 HD
ATOM     26  C   UNL A   1      46.185  28.121  26.593  1.00  0.00     0.034 A 
ATOM     27  C   UNL A   1      41.163  30.407  30.886  1.00  0.00     0.034 A 
ATOM     28  C   UNL A   1      46.413  29.424  27.160  1.00  0.00     0.049 A 
ATOM     29  C   UNL A   1      42.405  31.210  30.626  1.00  0.00     0.074 A 
ATOM     30  C   UNL A   1      47.497  30.265  26.975  1.00  0.00     0.029 A 
ATOM     31  N   UNL A   1      45.546  30.077  28.023  1.00  0.00    -0.354 N 
ATOM     32  N   UNL A   1      43.392  30.956  29.802  1.00  0.00    -0.248 NA
ATOM     33  C   UNL A   1      42.541  32.475  31.360  1.00  0.00     0.031 C 
ATOM     34  C   UNL A   1      47.293  31.420  27.737  1.00  0.00     0.029 A 
ATOM     35  C   UNL A   1      46.073  31.307  28.384  1.00  0.00     0.049 A 
ATOM     36  H   UNL A   1      44.684  29.720  28.333  1.00  0.00     0.167 HD
ATOM     37  C   UNL A   1      44.254  32.042  29.897  1.00  0.00     0.074 A 
ATOM     38  C   UNL A   1      43.656  32.969  30.838  1.00  0.00     0.031 C 
ATOM     39  C   UNL A   1      45.442  32.245  29.276  1.00  0.00     0.034 A 
BRANCH  26  40
ATOM     40  C   UNL A   1      47.262  27.539  25.712  1.00  0.00     0.023 A 
ATOM     41  C   UNL A   1      48.125  26.551  26.228  1.00  0.00     0.012 A 
ATOM     42  C   UNL A   1      47.371  27.911  24.357  1.00  0.00     0.148 A 
ATOM     43  C   UNL A   1      49.098  25.963  25.419  1.00  0.00     0.002 A 
ATOM     44  C   UNL A   1      48.316  27.291  23.546  1.00  0.00     0.091 A 
ATOM     45  F   UNL A   1      46.556  28.866  23.888  1.00  0.00    -0.205 F 
ATOM     46  C   UNL A   1      49.186  26.324  24.077  1.00  0.00     0.022 A 
BRANCH  44  47
ATOM     47  S   UNL A   1      48.453  27.635  21.787  1.00  0.00     0.127 S 
ATOM     48  O   UNL A   1      48.665  26.296  21.239  1.00  0.00    -0.237 OA
ATOM     49  O   UNL A   1      47.146  28.218  21.481  1.00  0.00    -0.237 OA
ATOM     50  O   UNL A   1      49.571  28.557  21.648  1.00  0.00    -0.744 OA
ENDBRANCH  44  47
ENDBRANCH  26  40
BRANCH  27  51
ATOM     51  C   UNL A   1      40.092  30.914  31.789  1.00  0.00     0.023 A 
ATOM     52  C   UNL A   1      39.962  30.369  33.081  1.00  0.00     0.012 A 
ATOM     53  C   UNL A   1      39.238  31.963  31.396  1.00  0.00     0.148 A 
ATOM     54  C   UNL A   1      38.986  30.845  33.958  1.00  0.00     0.002 A 
ATOM     55  C   UNL A   1      38.309  32.472  32.295  1.00  0.00     0.091 A 
ATOM     56  F   UNL A   1      39.365  32.456  30.156  1.00  0.00    -0.205 F 
ATOM     57  C   UNL A   1      38.169  31.903  33.570  1.00  0.00     0.022 A 
BRANCH  55  58
ATOM     58  S   UNL A   1      37.321  33.925  31.924  1.00  0.00     0.127 S 
ATOM     59  O   UNL A   1      35.969  33.374  31.917  1.00  0.00    -0.237 OA
ATOM     60  O   UNL A   1      37.626  34.799  33.058  1.00  0.00    -0.237 OA
ATOM     61  O   UNL A   1      37.817  34.415  30.645  1.00  0.00    -0.744 OA
ENDBRANCH  55  58
ENDBRANCH  27  51
BRANCH  39  62
ATOM     62  C   UNL A   1      46.165  33.533  29.568  1.00  0.00     0.023 A 
ATOM     63  C   UNL A   1      47.088  33.589  30.631  1.00  0.00     0.012 A 
ATOM     64  C   UNL A   1      45.973  34.667  28.757  1.00  0.00     0.148 A 
ATOM     65  C   UNL A   1      47.783  34.767  30.904  1.00  0.00     0.002 A 
ATOM     66  C   UNL A   1      46.702  35.824  29.006  1.00  0.00     0.091 A 
ATOM     67  F   UNL A   1      45.073  34.602  27.765  1.00  0.00    -0.205 F 
ATOM     68  C   UNL A   1      47.599  35.879  30.087  1.00  0.00     0.022 A 
BRANCH  66  69
ATOM     69  S   UNL A   1      46.591  37.268  27.944  1.00  0.00     0.127 S 
ATOM     70  O   UNL A   1      45.156  37.545  27.964  1.00  0.00    -0.237 OA
ATOM     71  O   UNL A   1      47.412  38.249  28.657  1.00  0.00    -0.237 OA
ATOM     72  O   UNL A   1      47.137  36.853  26.657  1.00  0.00    -0.744 OA
ENDBRANCH  66  69
ENDBRANCH  39  62
ENDBRANCH  13  14
ENDBRANCH   6   8
ENDBRANCH   3   4
ENDBRANCH   2   3
ENDBRANCH   1   2
BRANCH   1  73
ATOM     73  C   UNL A   1      34.152  23.176  23.028  1.00  0.00     0.116 C 
BRANCH  73  74
ATOM     74  N   UNL A   1      33.425  21.935  22.802  1.00  0.00    -0.352 N 
ATOM     75  C   UNL A   1      32.707  21.197  23.712  1.00  0.00     0.253 C 
ATOM     76  H   UNL A   1      33.449  21.581  21.884  1.00  0.00     0.163 HD
ATOM     77  O   UNL A   1      32.126  20.169  23.380  1.00  0.00    -0.269 OA
BRANCH  75  78
ATOM     78  C   UNL A   1      32.665  21.631  25.122  1.00  0.00     0.063 A 
ATOM     79  C   UNL A   1      33.537  20.980  26.007  1.00  0.00     0.016 A 
ATOM     80  C   UNL A   1      31.830  22.678  25.553  1.00  0.00     0.054 A 
ATOM     81  C   UNL A   1      33.633  21.410  27.327  1.00  0.00     0.001 A 
ATOM     82  C   UNL A   1      31.986  23.125  26.874  1.00  0.00     0.027 A 
ATOM     83  C   UNL A   1      32.872  22.495  27.754  1.00  0.00     0.002 A 
BRANCH  80  84
ATOM     84  N   UNL A   1      30.894  23.270  24.691  1.00  0.00    -0.323 N 
ATOM     85  H   UNL A   1      30.072  22.747  24.544  1.00  0.00     0.170 HD
BRANCH  84  86
ATOM     86  C   UNL A   1      30.948  24.482  24.013  1.00  0.00     0.233 A 
ATOM     87  N   UNL A   1      31.400  24.518  22.771  1.00  0.00    -0.182 NA
ATOM     88  N   UNL A   1      30.531  25.549  24.684  1.00  0.00    -0.176 NA
ATOM     89  C   UNL A   1      31.375  25.724  22.232  1.00  0.00     0.228 A 
ATOM     90  C   UNL A   1      30.640  26.723  24.067  1.00  0.00     0.233 A 
ATOM     91  Cl  UNL A   1      31.933  25.837  20.621  1.00  0.00    -0.041 Cl
ATOM     92  N   UNL A   1      31.034  26.860  22.812  1.00  0.00    -0.182 NA
BRANCH  90  93
ATOM     93  N   UNL A   1      30.451  27.844  24.873  1.00  0.00    -0.324 N 
ATOM     94  H   UNL A   1      29.529  28.181  24.932  1.00  0.00     0.170 HD
BRANCH  93  95
ATOM     95  C   UNL A   1      31.406  28.550  25.607  1.00  0.00     0.041 A 
ATOM     96  C   UNL A   1      31.961  27.977  26.755  1.00  0.00     0.028 A 
ATOM     97  C   UNL A   1      31.908  29.776  25.167  1.00  0.00     0.028 A 
ATOM     98  C   UNL A   1      33.010  28.604  27.436  1.00  0.00     0.028 A 
ATOM     99  C   UNL A   1      32.913  30.435  25.880  1.00  0.00     0.028 A 
ATOM    100  C   UNL A   1      33.491  29.846  27.009  1.00  0.00     0.044 A 
BRANCH 100 101
ATOM    101  N   UNL A   1      34.586  30.471  27.677  1.00  0.00    -0.308 N 
ATOM    102  C   UNL A   1      35.861  29.746  27.680  1.00  0.00     0.154 C 
ATOM    103  C   UNL A   1      34.542  31.829  28.017  1.00  0.00     0.253 C 
ATOM    104  C   UNL A   1      36.881  30.329  28.649  1.00  0.00     0.183 C 
ATOM    105  C   UNL A   1      35.837  32.408  28.608  1.00  0.00     0.260 C 
ATOM    106  O   UNL A   1      33.530  32.530  27.969  1.00  0.00    -0.272 OA
ATOM    107  O   UNL A   1      37.054  31.717  28.375  1.00  0.00    -0.370 OA
ENDBRANCH 100 101
ENDBRANCH  93  95
ENDBRANCH  90  93
ENDBRANCH  84  86
ENDBRANCH  80  84
ENDBRANCH  75  78
ENDBRANCH  73  74
ENDBRANCH   1  73
TORSDOF 19
ENDMDL
MODEL 2
REMARK VINA RESULT:     -11.7      4.590      8.570
REMARK SMILES O=C(NCCCCNC(=O)c1ccccc1Nc1nc(Cl)nc(Nc2ccc(N3CCOCC3=O)cc2)n1)c1ccc(-c2c3nc(c(-c4cccc(S(=O)(=O)[O-])c4F)c4ccc([nH]4)c(-c4cccc(S(=O)(=O)[O-])c4F)c4nc(c(-c5cccc(S(=O)(=O)[O-])c5F)c5ccc2[nH]5)C=C4)C=C3)cc1
REMARK SMILES IDX 6 1 5 2 4 3 3 4 1 5 2 6 39 8 40 9 101 10 41 11 100 12 42 13
REMARK SMILES IDX 43 14 44 15 94 16 45 17 99 18 93 19 95 20 46 21 98 22 92 23
REMARK SMILES IDX 91 24 47 26 79 27 59 28 78 29 60 30 63 31 77 32 96 33 61 34
REMARK SMILES IDX 62 35 76 37 97 38 64 39 48 40 49 41 57 42 50 43 52 44 58 45
REMARK SMILES IDX 51 46 53 47 54 48 55 49 56 50 80 51 81 52 89 53 82 54 84 55
REMARK SMILES IDX 90 56 83 57 85 58 86 59 87 60 88 61 65 62 66 63 74 64 67 65
REMARK SMILES IDX 69 66 75 67 68 68 70 69 71 70 72 71 73 72 7 73 8 74 9 75
REMARK SMILES IDX 10 77 11 78 12 79 16 80 13 81 15 82 14 83 17 84 18 86 19 87
REMARK SMILES IDX 38 88 20 89 23 90 21 91 22 92 24 93 25 95 26 96 37 97 27 98
REMARK SMILES IDX 36 99 28 100 29 101 30 102 34 103 31 104 33 105 35 106
REMARK SMILES IDX 32 107
REMARK H PARENT 3 7 95 25 63 36 8 76 17 85 24 94
REMARK Flexibility Score: inf
ROOT
ATOM      1  C   UNL A   1      37.692  33.230  33.076  1.00  0.00     0.023 C 
ENDROOT
BRANCH   1   2
ATOM      2  C   UNL A   1      37.497  31.831  33.652  1.00  0.00     0.023 C 
BRANCH   2   3
ATOM      3  C   UNL A   1      37.014  30.774  32.665  1.00  0.00     0.116 C 
BRANCH   3   4
ATOM      4  N   UNL A   1      37.567  29.452  32.918  1.00  0.00    -0.352 N 
ATOM      5  O   UNL A   1      39.055  27.761  32.817  1.00  0.00    -0.269 OA
ATOM      6  C   UNL A   1      38.821  28.952  32.637  1.00  0.00     0.251 C 
ATOM      7  H   UNL A   1      36.953  28.818  33.356  1.00  0.00     0.163 HD
BRANCH   6   8
ATOM      8  C   UNL A   1      39.862  29.844  32.078  1.00  0.00     0.039 A 
ATOM      9  C   UNL A   1      39.947  30.064  30.703  1.00  0.00     0.014 A 
ATOM     10  C   UNL A   1      40.789  30.437  32.939  1.00  0.00     0.014 A 
ATOM     11  C   UNL A   1      41.069  30.694  30.177  1.00  0.00     0.010 A 
ATOM     12  C   UNL A   1      41.863  31.163  32.409  1.00  0.00     0.010 A 
ATOM     13  C   UNL A   1      42.047  31.246  31.021  1.00  0.00    -0.014 A 
BRANCH  13  14
ATOM     14  C   UNL A   1      43.235  31.911  30.419  1.00  0.00     0.031 A 
ATOM     15  C   UNL A   1      44.481  31.136  30.079  1.00  0.00     0.074 A 
ATOM     16  C   UNL A   1      43.171  33.230  30.143  1.00  0.00     0.049 A 
ATOM     17  N   UNL A   1      45.570  31.552  29.480  1.00  0.00    -0.248 NA
ATOM     18  C   UNL A   1      44.524  29.716  30.465  1.00  0.00     0.031 C 
ATOM     19  C   UNL A   1      42.039  34.102  30.466  1.00  0.00     0.029 A 
ATOM     20  N   UNL A   1      44.063  34.063  29.518  1.00  0.00    -0.354 N 
ATOM     21  C   UNL A   1      46.440  30.467  29.462  1.00  0.00     0.074 A 
ATOM     22  C   UNL A   1      45.756  29.372  30.115  1.00  0.00     0.031 C 
ATOM     23  C   UNL A   1      42.284  35.334  29.998  1.00  0.00     0.029 A 
ATOM     24  C   UNL A   1      43.608  35.354  29.385  1.00  0.00     0.049 A 
ATOM     25  H   UNL A   1      44.945  33.765  29.195  1.00  0.00     0.167 HD
ATOM     26  C   UNL A   1      47.686  30.384  28.935  1.00  0.00     0.034 A 
ATOM     27  C   UNL A   1      44.187  36.436  28.832  1.00  0.00     0.034 A 
ATOM     28  C   UNL A   1      48.342  31.457  28.235  1.00  0.00     0.049 A 
ATOM     29  C   UNL A   1      45.545  36.299  28.206  1.00  0.00     0.074 A 
ATOM     30  C   UNL A   1      49.572  31.444  27.599  1.00  0.00     0.029 A 
ATOM     31  N   UNL A   1      47.827  32.734  28.077  1.00  0.00    -0.354 N 
ATOM     32  N   UNL A   1      46.289  35.227  28.080  1.00  0.00    -0.248 NA
ATOM     33  C   UNL A   1      46.129  37.512  27.618  1.00  0.00     0.031 C 
ATOM     34  C   UNL A   1      49.806  32.718  27.069  1.00  0.00     0.029 A 
ATOM     35  C   UNL A   1      48.715  33.520  27.360  1.00  0.00     0.049 A 
ATOM     36  H   UNL A   1      46.957  33.039  28.423  1.00  0.00     0.167 HD
ATOM     37  C   UNL A   1      47.416  35.630  27.374  1.00  0.00     0.074 A 
ATOM     38  C   UNL A   1      47.243  37.037  27.076  1.00  0.00     0.031 C 
ATOM     39  C   UNL A   1      48.506  34.903  27.021  1.00  0.00     0.034 A 
BRANCH  26  40
ATOM     40  C   UNL A   1      48.417  29.071  29.054  1.00  0.00     0.023 A 
ATOM     41  C   UNL A   1      49.244  28.833  30.170  1.00  0.00     0.012 A 
ATOM     42  C   UNL A   1      48.227  28.046  28.105  1.00  0.00     0.148 A 
ATOM     43  C   UNL A   1      49.893  27.608  30.327  1.00  0.00     0.002 A 
ATOM     44  C   UNL A   1      48.846  26.813  28.289  1.00  0.00     0.091 A 
ATOM     45  F   UNL A   1      47.455  28.295  27.039  1.00  0.00    -0.205 F 
ATOM     46  C   UNL A   1      49.686  26.596  29.394  1.00  0.00     0.022 A 
BRANCH  44  47
ATOM     47  S   UNL A   1      48.577  25.424  27.182  1.00  0.00     0.127 S 
ATOM     48  O   UNL A   1      48.898  26.014  25.883  1.00  0.00    -0.237 OA
ATOM     49  O   UNL A   1      49.554  24.447  27.665  1.00  0.00    -0.237 OA
ATOM     50  O   UNL A   1      47.187  25.030  27.368  1.00  0.00    -0.744 OA
ENDBRANCH  44  47
ENDBRANCH  26  40
BRANCH  27  51
ATOM     51  C   UNL A   1      43.444  37.727  28.787  1.00  0.00     0.023 A 
ATOM     52  C   UNL A   1      42.507  37.950  27.760  1.00  0.00     0.012 A 
ATOM     53  C   UNL A   1      43.625  38.711  29.778  1.00  0.00     0.148 A 
ATOM     54  C   UNL A   1      41.777  39.138  27.709  1.00  0.00     0.002 A 
ATOM     55  C   UNL A   1      42.853  39.866  29.756  1.00  0.00     0.091 A 
ATOM     56  F   UNL A   1      44.535  38.489  30.737  1.00  0.00    -0.205 F 
ATOM     57  C   UNL A   1      41.940  40.090  28.713  1.00  0.00     0.022 A 
BRANCH  55  58
ATOM     58  S   UNL A   1      42.899  41.069  31.087  1.00  0.00     0.127 S 
ATOM     59  O   UNL A   1      41.746  41.908  30.772  1.00  0.00    -0.237 OA
ATOM     60  O   UNL A   1      42.740  40.222  32.271  1.00  0.00    -0.237 OA
ATOM     61  O   UNL A   1      44.202  41.711  30.985  1.00  0.00    -0.744 OA
ENDBRANCH  55  58
ENDBRANCH  27  51
BRANCH  39  62
ATOM     62  C   UNL A   1      49.586  35.608  26.245  1.00  0.00     0.023 A 
ATOM     63  C   UNL A   1      49.642  35.470  24.844  1.00  0.00     0.012 A 
ATOM     64  C   UNL A   1      50.509  36.450  26.895  1.00  0.00     0.148 A 
ATOM     65  C   UNL A   1      50.624  36.131  24.106  1.00  0.00     0.002 A 
ATOM     66  C   UNL A   1      51.455  37.141  26.148  1.00  0.00     0.091 A 
ATOM     67  F   UNL A   1      50.456  36.550  28.231  1.00  0.00    -0.205 F 
ATOM     68  C   UNL A   1      51.522  36.974  24.755  1.00  0.00     0.022 A 
BRANCH  66  69
ATOM     69  S   UNL A   1      52.587  38.317  26.899  1.00  0.00     0.127 S 
ATOM     70  O   UNL A   1      53.268  38.867  25.728  1.00  0.00    -0.237 OA
ATOM     71  O   UNL A   1      51.677  39.248  27.569  1.00  0.00    -0.237 OA
ATOM     72  O   UNL A   1      53.420  37.538  27.806  1.00  0.00    -0.744 OA
ENDBRANCH  66  69
ENDBRANCH  39  62
ENDBRANCH  13  14
ENDBRANCH   6   8
ENDBRANCH   3   4
ENDBRANCH   2   3
ENDBRANCH   1   2
BRANCH   1  73
ATOM     73  C   UNL A   1      36.468  34.138  33.126  1.00  0.00     0.116 C 
BRANCH  73  74
ATOM     74  N   UNL A   1      35.230  33.424  33.408  1.00  0.00    -0.352 N 
ATOM     75  C   UNL A   1      33.945  33.803  33.101  1.00  0.00     0.253 C 
ATOM     76  H   UNL A   1      35.325  32.564  33.877  1.00  0.00     0.163 HD
ATOM     77  O   UNL A   1      32.987  33.093  33.388  1.00  0.00    -0.269 OA
BRANCH  75  78
ATOM     78  C   UNL A   1      33.713  35.105  32.446  1.00  0.00     0.063 A 
ATOM     79  C   UNL A   1      33.602  36.221  33.287  1.00  0.00     0.016 A 
ATOM     80  C   UNL A   1      33.653  35.231  31.046  1.00  0.00     0.054 A 
ATOM     81  C   UNL A   1      33.493  37.495  32.736  1.00  0.00     0.001 A 
ATOM     82  C   UNL A   1      33.597  36.531  30.518  1.00  0.00     0.027 A 
ATOM     83  C   UNL A   1      33.511  37.650  31.352  1.00  0.00     0.002 A 
BRANCH  80  84
ATOM     84  N   UNL A   1      33.675  34.107  30.207  1.00  0.00    -0.323 N 
ATOM     85  H   UNL A   1      32.793  33.813  29.879  1.00  0.00     0.170 HD
BRANCH  84  86
ATOM     86  C   UNL A   1      34.749  33.344  29.766  1.00  0.00     0.233 A 
ATOM     87  N   UNL A   1      35.937  33.906  29.623  1.00  0.00    -0.182 NA
ATOM     88  N   UNL A   1      34.496  32.065  29.513  1.00  0.00    -0.176 NA
ATOM     89  C   UNL A   1      36.876  33.068  29.223  1.00  0.00     0.228 A 
ATOM     90  C   UNL A   1      35.503  31.341  29.029  1.00  0.00     0.233 A 
ATOM     91  Cl  UNL A   1      38.440  33.730  29.032  1.00  0.00    -0.041 Cl
ATOM     92  N   UNL A   1      36.736  31.797  28.893  1.00  0.00    -0.182 NA
BRANCH  90  93
ATOM     93  N   UNL A   1      35.153  30.090  28.524  1.00  0.00    -0.324 N 
ATOM     94  H   UNL A   1      35.556  29.315  28.977  1.00  0.00     0.170 HD
BRANCH  93  95
ATOM     95  C   UNL A   1      34.304  29.797  27.455  1.00  0.00     0.041 A 
ATOM     96  C   UNL A   1      34.508  28.634  26.707  1.00  0.00     0.028 A 
ATOM     97  C   UNL A   1      33.183  30.580  27.174  1.00  0.00     0.028 A 
ATOM     98  C   UNL A   1      33.599  28.249  25.715  1.00  0.00     0.028 A 
ATOM     99  C   UNL A   1      32.307  30.232  26.143  1.00  0.00     0.028 A 
ATOM    100  C   UNL A   1      32.493  29.051  25.417  1.00  0.00     0.044 A 
BRANCH 100 101
ATOM    101  N   UNL A   1      31.543  28.643  24.433  1.00  0.00    -0.308 N 
ATOM    102  C   UNL A   1      31.544  29.382  23.166  1.00  0.00     0.154 C 
ATOM    103  C   UNL A   1      30.884  27.411  24.536  1.00  0.00     0.253 C 
ATOM    104  C   UNL A   1      30.327  29.087  22.299  1.00  0.00     0.183 C 
ATOM    105  C   UNL A   1      29.992  27.035  23.342  1.00  0.00     0.260 C 
ATOM    106  O   UNL A   1      30.896  26.692  25.536  1.00  0.00    -0.272 OA
ATOM    107  O   UNL A   1      30.218  27.681  22.099  1.00  0.00    -0.370 OA
ENDBRANCH 100 101
ENDBRANCH  93  95
ENDBRANCH  90  93
ENDBRANCH  84  86
ENDBRANCH  80  84
ENDBRANCH  75  78
ENDBRANCH  73  74
ENDBRANCH   1  73
TORSDOF 19
ENDMDL
MODEL 3
REMARK VINA RESULT:     -11.6      6.939     11.402
REMARK SMILES O=C(NCCCCNC(=O)c1ccccc1Nc1nc(Cl)nc(Nc2ccc(N3CCOCC3=O)cc2)n1)c1ccc(-c2c3nc(c(-c4cccc(S(=O)(=O)[O-])c4F)c4ccc([nH]4)c(-c4cccc(S(=O)(=O)[O-])c4F)c4nc(c(-c5cccc(S(=O)(=O)[O-])c5F)c5ccc2[nH]5)C=C4)C=C3)cc1
REMARK SMILES IDX 6 1 5 2 4 3 3 4 1 5 2 6 39 8 40 9 101 10 41 11 100 12 42 13
REMARK SMILES IDX 43 14 44 15 94 16 45 17 99 18 93 19 95 20 46 21 98 22 92 23
REMARK SMILES IDX 91 24 47 26 79 27 59 28 78 29 60 30 63 31 77 32 96 33 61 34
REMARK SMILES IDX 62 35 76 37 97 38 64 39 48 40 49 41 57 42 50 43 52 44 58 45
REMARK SMILES IDX 51 46 53 47 54 48 55 49 56 50 80 51 81 52 89 53 82 54 84 55
REMARK SMILES IDX 90 56 83 57 85 58 86 59 87 60 88 61 65 62 66 63 74 64 67 65
REMARK SMILES IDX 69 66 75 67 68 68 70 69 71 70 72 71 73 72 7 73 8 74 9 75
REMARK SMILES IDX 10 77 11 78 12 79 16 80 13 81 15 82 14 83 17 84 18 86 19 87
REMARK SMILES IDX 38 88 20 89 23 90 21 91 22 92 24 93 25 95 26 96 37 97 27 98
REMARK SMILES IDX 36 99 28 100 29 101 30 102 34 103 31 104 33 105 35 106
REMARK SMILES IDX 32 107
REMARK H PARENT 3 7 95 25 63 36 8 76 17 85 24 94
REMARK Flexibility Score: inf
ROOT
ATOM      1  C   UNL A   1      34.543  33.739  32.349  1.00  0.00     0.023 C 
ENDROOT
BRANCH   1   2
ATOM      2  C   UNL A   1      34.777  32.424  31.612  1.00  0.00     0.023 C 
BRANCH   2   3
ATOM      3  C   UNL A   1      35.431  32.546  30.241  1.00  0.00     0.116 C 
BRANCH   3   4
ATOM      4  N   UNL A   1      34.679  31.888  29.182  1.00  0.00    -0.352 N 
ATOM      5  O   UNL A   1      34.305  30.501  27.445  1.00  0.00    -0.269 OA
ATOM      6  C   UNL A   1      35.037  30.832  28.372  1.00  0.00     0.251 C 
ATOM      7  H   UNL A   1      33.779  32.254  29.019  1.00  0.00     0.163 HD
BRANCH   6   8
ATOM      8  C   UNL A   1      36.322  30.133  28.597  1.00  0.00     0.039 A 
ATOM      9  C   UNL A   1      36.523  29.361  29.742  1.00  0.00     0.014 A 
ATOM     10  C   UNL A   1      37.355  30.284  27.668  1.00  0.00     0.014 A 
ATOM     11  C   UNL A   1      37.802  28.922  30.059  1.00  0.00     0.010 A 
ATOM     12  C   UNL A   1      38.620  29.748  27.942  1.00  0.00     0.010 A 
ATOM     13  C   UNL A   1      38.872  29.116  29.168  1.00  0.00    -0.014 A 
BRANCH  13  14
ATOM     14  C   UNL A   1      40.228  28.632  29.545  1.00  0.00     0.031 A 
ATOM     15  C   UNL A   1      40.881  27.482  28.822  1.00  0.00     0.074 A 
ATOM     16  C   UNL A   1      40.892  29.265  30.534  1.00  0.00     0.049 A 
ATOM     17  N   UNL A   1      42.086  26.992  28.978  1.00  0.00    -0.248 NA
ATOM     18  C   UNL A   1      40.085  26.783  27.800  1.00  0.00     0.031 C 
ATOM     19  C   UNL A   1      40.351  30.360  31.342  1.00  0.00     0.029 A 
ATOM     20  N   UNL A   1      42.164  29.093  31.018  1.00  0.00    -0.354 N 
ATOM     21  C   UNL A   1      42.175  25.904  28.117  1.00  0.00     0.074 A 
ATOM     22  C   UNL A   1      40.900  25.800  27.442  1.00  0.00     0.031 C 
ATOM     23  C   UNL A   1      41.297  30.793  32.188  1.00  0.00     0.029 A 
ATOM     24  C   UNL A   1      42.494  29.976  32.018  1.00  0.00     0.049 A 
ATOM     25  H   UNL A   1      42.781  28.403  30.680  1.00  0.00     0.167 HD
ATOM     26  C   UNL A   1      43.227  25.078  27.894  1.00  0.00     0.034 A 
ATOM     27  C   UNL A   1      43.632  30.118  32.723  1.00  0.00     0.034 A 
ATOM     28  C   UNL A   1      44.513  25.218  28.524  1.00  0.00     0.049 A 
ATOM     29  C   UNL A   1      44.799  29.225  32.414  1.00  0.00     0.074 A 
ATOM     30  C   UNL A   1      45.663  24.478  28.306  1.00  0.00     0.029 A 
ATOM     31  N   UNL A   1      44.824  26.158  29.495  1.00  0.00    -0.354 N 
ATOM     32  N   UNL A   1      44.904  28.294  31.498  1.00  0.00    -0.248 NA
ATOM     33  C   UNL A   1      46.015  29.423  33.215  1.00  0.00     0.031 C 
ATOM     34  C   UNL A   1      46.665  24.961  29.156  1.00  0.00     0.029 A 
ATOM     35  C   UNL A   1      46.144  26.013  29.891  1.00  0.00     0.049 A 
ATOM     36  H   UNL A   1      44.198  26.829  29.852  1.00  0.00     0.167 HD
ATOM     37  C   UNL A   1      46.204  27.813  31.593  1.00  0.00     0.074 A 
ATOM     38  C   UNL A   1      46.857  28.577  32.637  1.00  0.00     0.031 C 
ATOM     39  C   UNL A   1      46.799  26.817  30.891  1.00  0.00     0.034 A 
BRANCH  26  40
ATOM     40  C   UNL A   1      43.051  23.965  26.893  1.00  0.00     0.023 A 
ATOM     41  C   UNL A   1      43.596  24.098  25.600  1.00  0.00     0.012 A 
ATOM     42  C   UNL A   1      42.417  22.759  27.253  1.00  0.00     0.148 A 
ATOM     43  C   UNL A   1      43.488  23.062  24.671  1.00  0.00     0.002 A 
ATOM     44  C   UNL A   1      42.348  21.715  26.336  1.00  0.00     0.091 A 
ATOM     45  F   UNL A   1      41.886  22.656  28.479  1.00  0.00    -0.205 F 
ATOM     46  C   UNL A   1      42.875  21.868  25.042  1.00  0.00     0.022 A 
BRANCH  44  47
ATOM     47  S   UNL A   1      41.647  20.113  26.747  1.00  0.00     0.127 S 
ATOM     48  O   UNL A   1      40.298  20.481  27.173  1.00  0.00    -0.237 OA
ATOM     49  O   UNL A   1      41.709  19.407  25.466  1.00  0.00    -0.237 OA
ATOM     50  O   UNL A   1      42.505  19.557  27.784  1.00  0.00    -0.744 OA
ENDBRANCH  44  47
ENDBRANCH  26  40
BRANCH  27  51
ATOM     51  C   UNL A   1      43.738  31.200  33.742  1.00  0.00     0.023 A 
ATOM     52  C   UNL A   1      44.198  32.473  33.352  1.00  0.00     0.012 A 
ATOM     53  C   UNL A   1      43.342  30.991  35.076  1.00  0.00     0.148 A 
ATOM     54  C   UNL A   1      44.280  33.513  34.280  1.00  0.00     0.002 A 
ATOM     55  C   UNL A   1      43.371  32.046  35.981  1.00  0.00     0.091 A 
ATOM     56  F   UNL A   1      42.926  29.767  35.432  1.00  0.00    -0.205 F 
ATOM     57  C   UNL A   1      43.855  33.303  35.589  1.00  0.00     0.022 A 
BRANCH  55  58
ATOM     58  S   UNL A   1      42.706  31.895  37.642  1.00  0.00     0.127 S 
ATOM     59  O   UNL A   1      41.307  31.574  37.376  1.00  0.00    -0.237 OA
ATOM     60  O   UNL A   1      43.499  30.793  38.190  1.00  0.00    -0.237 OA
ATOM     61  O   UNL A   1      42.956  33.182  38.277  1.00  0.00    -0.744 OA
ENDBRANCH  55  58
ENDBRANCH  27  51
BRANCH  39  62
ATOM     62  C   UNL A   1      48.239  26.512  31.205  1.00  0.00     0.023 A 
ATOM     63  C   UNL A   1      48.551  25.632  32.260  1.00  0.00     0.012 A 
ATOM     64  C   UNL A   1      49.278  27.050  30.422  1.00  0.00     0.148 A 
ATOM     65  C   UNL A   1      49.879  25.321  32.554  1.00  0.00     0.002 A 
ATOM     66  C   UNL A   1      50.596  26.700  30.691  1.00  0.00     0.091 A 
ATOM     67  F   UNL A   1      48.963  27.904  29.438  1.00  0.00    -0.205 F 
ATOM     68  C   UNL A   1      50.899  25.845  31.764  1.00  0.00     0.022 A 
BRANCH  66  69
ATOM     69  S   UNL A   1      51.958  27.259  29.663  1.00  0.00     0.127 S 
ATOM     70  O   UNL A   1      53.084  26.517  30.228  1.00  0.00    -0.237 OA
ATOM     71  O   UNL A   1      51.548  26.821  28.328  1.00  0.00    -0.237 OA
ATOM     72  O   UNL A   1      52.009  28.706  29.828  1.00  0.00    -0.744 OA
ENDBRANCH  66  69
ENDBRANCH  39  62
ENDBRANCH  13  14
ENDBRANCH   6   8
ENDBRANCH   3   4
ENDBRANCH   2   3
ENDBRANCH   1   2
BRANCH   1  73
ATOM     73  C   UNL A   1      34.879  33.728  33.837  1.00  0.00     0.116 C 
BRANCH  73  74
ATOM     74  N   UNL A   1      36.004  34.585  34.181  1.00  0.00    -0.352 N 
ATOM     75  C   UNL A   1      37.264  34.208  34.582  1.00  0.00     0.253 C 
ATOM     76  H   UNL A   1      35.844  35.554  34.120  1.00  0.00     0.163 HD
ATOM     77  O   UNL A   1      38.128  35.042  34.830  1.00  0.00    -0.269 OA
BRANCH  75  78
ATOM     78  C   UNL A   1      37.570  32.775  34.752  1.00  0.00     0.063 A 
ATOM     79  C   UNL A   1      37.645  32.005  33.582  1.00  0.00     0.016 A 
ATOM     80  C   UNL A   1      37.823  32.214  36.017  1.00  0.00     0.054 A 
ATOM     81  C   UNL A   1      38.037  30.671  33.655  1.00  0.00     0.001 A 
ATOM     82  C   UNL A   1      38.267  30.883  36.055  1.00  0.00     0.027 A 
ATOM     83  C   UNL A   1      38.367  30.118  34.890  1.00  0.00     0.002 A 
BRANCH  80  84
ATOM     84  N   UNL A   1      37.662  32.960  37.195  1.00  0.00    -0.323 N 
ATOM     85  H   UNL A   1      38.069  33.857  37.180  1.00  0.00     0.170 HD
BRANCH  84  86
ATOM     86  C   UNL A   1      37.015  32.629  38.379  1.00  0.00     0.233 A 
ATOM     87  N   UNL A   1      37.649  31.916  39.294  1.00  0.00    -0.182 NA
ATOM     88  N   UNL A   1      35.768  33.065  38.509  1.00  0.00    -0.176 NA
ATOM     89  C   UNL A   1      36.934  31.692  40.382  1.00  0.00     0.228 A 
ATOM     90  C   UNL A   1      35.118  32.698  39.611  1.00  0.00     0.233 A 
ATOM     91  Cl  UNL A   1      37.702  30.786  41.611  1.00  0.00    -0.041 Cl
ATOM     92  N   UNL A   1      35.677  32.027  40.604  1.00  0.00    -0.182 NA
BRANCH  90  93
ATOM     93  N   UNL A   1      33.745  32.937  39.605  1.00  0.00    -0.324 N 
ATOM     94  H   UNL A   1      33.222  32.424  38.947  1.00  0.00     0.170 HD
BRANCH  93  95
ATOM     95  C   UNL A   1      33.017  33.813  40.412  1.00  0.00     0.041 A 
ATOM     96  C   UNL A   1      32.982  33.613  41.795  1.00  0.00     0.028 A 
ATOM     97  C   UNL A   1      32.407  34.954  39.889  1.00  0.00     0.028 A 
ATOM     98  C   UNL A   1      32.370  34.546  42.640  1.00  0.00     0.028 A 
ATOM     99  C   UNL A   1      31.741  35.856  40.724  1.00  0.00     0.028 A 
ATOM    100  C   UNL A   1      31.735  35.673  42.110  1.00  0.00     0.044 A 
BRANCH 100 101
ATOM    101  N   UNL A   1      31.143  36.646  42.970  1.00  0.00    -0.308 N 
ATOM    102  C   UNL A   1      31.761  37.976  42.990  1.00  0.00     0.154 C 
ATOM    103  C   UNL A   1      29.863  36.451  43.504  1.00  0.00     0.253 C 
ATOM    104  C   UNL A   1      31.263  38.852  44.132  1.00  0.00     0.183 C 
ATOM    105  C   UNL A   1      29.289  37.633  44.302  1.00  0.00     0.260 C 
ATOM    106  O   UNL A   1      29.241  35.388  43.462  1.00  0.00    -0.272 OA
ATOM    107  O   UNL A   1      29.841  38.923  44.089  1.00  0.00    -0.370 OA
ENDBRANCH 100 101
ENDBRANCH  93  95
ENDBRANCH  90  93
ENDBRANCH  84  86
ENDBRANCH  80  84
ENDBRANCH  75  78
ENDBRANCH  73  74
ENDBRANCH   1  73
TORSDOF 19
ENDMDL
