MODEL 1
REMARK VINA RESULT:     -12.4      0.000      0.000
REMARK SMILES Cc1ccc(CNc2ccc(C(=O)NCCCCNC(=O)c3ccc(-c4c5nc(c(-c6cccc(S(=O)(=O)[O-])c6F)c6ccc([nH]6)c(-c6cccc(S(=O)(=O)[O-])c6F)c6nc(c(-c7cccc(S(=O)(=O)[O-])c7F)c7ccc4[nH]7)C=C6)C=C5)cc3)cc2Br)cc1
REMARK SMILES IDX 16 1 15 2 14 3 12 4 13 5 11 7 8 8 9 9 86 10 10 11 85 12
REMARK SMILES IDX 87 13 7 14 6 16 5 17 1 18 2 19 3 20 89 21 4 22 88 23 17 24
REMARK SMILES IDX 18 25 19 26 20 27 21 29 22 30 23 31 84 32 24 33 83 34 25 35
REMARK SMILES IDX 26 36 27 37 77 38 28 39 82 40 76 41 78 42 29 43 81 44 75 45
REMARK SMILES IDX 74 46 30 48 62 49 42 50 61 51 43 52 46 53 60 54 79 55 44 56
REMARK SMILES IDX 45 57 59 59 80 60 47 61 31 62 32 63 40 64 33 65 35 66 41 67
REMARK SMILES IDX 34 68 36 69 37 70 38 71 39 72 63 73 64 74 72 75 65 76 67 77
REMARK SMILES IDX 73 78 66 79 68 80 69 81 70 82 71 83 48 84 49 85 57 86 50 87
REMARK SMILES IDX 52 88 58 89 51 90 53 91 54 92 55 93 56 94
REMARK H PARENT 14 6 7 15 19 28 78 47 46 58
REMARK Flexibility Score: inf
ROOT
ATOM      1  C   UNL A   1      36.375  21.350  24.923  1.00  0.00     0.023 C 
ENDROOT
BRANCH   1   2
ATOM      2  C   UNL A   1      35.266  21.388  25.975  1.00  0.00     0.116 C 
BRANCH   2   3
ATOM      3  N   UNL A   1      34.192  20.429  25.748  1.00  0.00    -0.352 N 
ATOM      4  C   UNL A   1      32.883  20.518  25.336  1.00  0.00     0.251 C 
ATOM      5  O   UNL A   1      32.216  19.482  25.329  1.00  0.00    -0.269 OA
ATOM      6  H   UNL A   1      34.469  19.502  25.931  1.00  0.00     0.163 HD
BRANCH   4   7
ATOM      7  C   UNL A   1      32.210  21.785  24.941  1.00  0.00     0.041 A 
ATOM      8  C   UNL A   1      30.981  24.208  24.089  1.00  0.00     0.049 A 
ATOM      9  C   UNL A   1      30.505  23.486  25.182  1.00  0.00     0.028 A 
ATOM     10  C   UNL A   1      32.106  23.690  23.422  1.00  0.00     0.041 A 
ATOM     11  C   UNL A   1      31.160  22.351  25.650  1.00  0.00     0.016 A 
ATOM     12  C   UNL A   1      32.704  22.487  23.829  1.00  0.00     0.031 A 
ATOM     13  Br  UNL A   1      32.906  24.643  21.980  1.00  0.00    -0.049 Br
BRANCH   8  14
ATOM     14  N   UNL A   1      30.396  25.412  23.727  1.00  0.00    -0.380 N 
ATOM     15  H   UNL A   1      30.265  25.615  22.772  1.00  0.00     0.160 HD
BRANCH  14  16
ATOM     16  C   UNL A   1      29.968  26.381  24.722  1.00  0.00     0.148 C 
BRANCH  16  17
ATOM     17  C   UNL A   1      31.165  27.098  25.286  1.00  0.00    -0.029 A 
ATOM     18  C   UNL A   1      34.593  29.159  26.876  1.00  0.00     0.044 C 
ATOM     19  C   UNL A   1      33.414  28.417  26.328  1.00  0.00    -0.051 A 
ATOM     20  C   UNL A   1      33.189  28.393  24.948  1.00  0.00     0.004 A 
ATOM     21  C   UNL A   1      32.521  27.755  27.180  1.00  0.00     0.004 A 
ATOM     22  C   UNL A   1      32.078  27.734  24.430  1.00  0.00     0.006 A 
ATOM     23  C   UNL A   1      31.406  27.099  26.663  1.00  0.00     0.006 A 
ENDBRANCH  16  17
ENDBRANCH  14  16
ENDBRANCH   8  14
ENDBRANCH   4   7
ENDBRANCH   2   3
ENDBRANCH   1   2
BRANCH   1  24
ATOM     24  C   UNL A   1      37.819  21.258  25.436  1.00  0.00     0.023 C 
BRANCH  24  25
ATOM     25  C   UNL A   1      38.454  22.588  25.806  1.00  0.00     0.116 C 
BRANCH  25  26
ATOM     26  N   UNL A   1      39.362  22.470  26.943  1.00  0.00    -0.352 N 
ATOM     27  C   UNL A   1      40.245  23.391  27.460  1.00  0.00     0.251 C 
ATOM     28  H   UNL A   1      39.340  21.604  27.410  1.00  0.00     0.163 HD
ATOM     29  O   UNL A   1      41.305  22.957  27.940  1.00  0.00    -0.269 OA
BRANCH  27  30
ATOM     30  C   UNL A   1      39.899  24.821  27.560  1.00  0.00     0.039 A 
ATOM     31  C   UNL A   1      40.313  25.745  26.588  1.00  0.00     0.014 A 
ATOM     32  C   UNL A   1      39.386  25.295  28.760  1.00  0.00     0.014 A 
ATOM     33  C   UNL A   1      40.410  27.094  26.933  1.00  0.00     0.010 A 
ATOM     34  C   UNL A   1      39.232  26.617  28.997  1.00  0.00     0.010 A 
ATOM     35  C   UNL A   1      39.966  27.470  28.192  1.00  0.00    -0.014 A 
BRANCH  35  36
ATOM     36  C   UNL A   1      40.287  28.675  28.924  1.00  0.00     0.031 A 
ATOM     37  C   UNL A   1      39.343  29.785  28.846  1.00  0.00     0.074 A 
ATOM     38  C   UNL A   1      41.135  28.478  29.964  1.00  0.00     0.049 A 
ATOM     39  N   UNL A   1      39.527  30.930  29.391  1.00  0.00    -0.248 NA
ATOM     40  C   UNL A   1      38.084  29.670  28.120  1.00  0.00     0.031 C 
ATOM     41  C   UNL A   1      41.128  29.124  31.271  1.00  0.00     0.029 A 
ATOM     42  N   UNL A   1      42.148  27.541  30.123  1.00  0.00    -0.354 N 
ATOM     43  C   UNL A   1      38.307  31.572  29.377  1.00  0.00     0.074 A 
ATOM     44  C   UNL A   1      37.506  30.830  28.436  1.00  0.00     0.031 C 
ATOM     45  C   UNL A   1      42.248  28.776  31.938  1.00  0.00     0.029 A 
ATOM     46  C   UNL A   1      43.097  28.056  31.002  1.00  0.00     0.049 A 
ATOM     47  H   UNL A   1      42.188  26.659  29.688  1.00  0.00     0.167 HD
ATOM     48  C   UNL A   1      38.075  32.529  30.320  1.00  0.00     0.034 A 
ATOM     49  C   UNL A   1      44.313  28.509  30.553  1.00  0.00     0.034 A 
ATOM     50  C   UNL A   1      39.285  32.711  31.153  1.00  0.00     0.049 A 
ATOM     51  C   UNL A   1      44.436  30.028  30.647  1.00  0.00     0.074 A 
ATOM     52  C   UNL A   1      39.639  32.223  32.401  1.00  0.00     0.029 A 
ATOM     53  N   UNL A   1      40.464  33.168  30.567  1.00  0.00    -0.354 N 
ATOM     54  N   UNL A   1      43.444  30.821  30.949  1.00  0.00    -0.248 NA
ATOM     55  C   UNL A   1      45.673  30.771  30.426  1.00  0.00     0.031 C 
ATOM     56  C   UNL A   1      41.059  32.280  32.508  1.00  0.00     0.029 A 
ATOM     57  C   UNL A   1      41.568  32.837  31.345  1.00  0.00     0.049 A 
ATOM     58  H   UNL A   1      40.510  33.659  29.716  1.00  0.00     0.167 HD
ATOM     59  C   UNL A   1      43.822  32.127  30.829  1.00  0.00     0.074 A 
ATOM     60  C   UNL A   1      45.254  32.041  30.581  1.00  0.00     0.031 C 
ATOM     61  C   UNL A   1      42.922  33.159  30.888  1.00  0.00     0.034 A 
BRANCH  48  62
ATOM     62  C   UNL A   1      36.710  33.080  30.716  1.00  0.00     0.023 A 
ATOM     63  C   UNL A   1      36.269  32.797  32.028  1.00  0.00     0.012 A 
ATOM     64  C   UNL A   1      35.799  33.813  29.914  1.00  0.00     0.148 A 
ATOM     65  C   UNL A   1      34.995  33.147  32.492  1.00  0.00     0.002 A 
ATOM     66  C   UNL A   1      34.514  34.137  30.362  1.00  0.00     0.091 A 
ATOM     67  F   UNL A   1      36.167  34.270  28.720  1.00  0.00    -0.205 F 
ATOM     68  C   UNL A   1      34.107  33.800  31.652  1.00  0.00     0.022 A 
BRANCH  66  69
ATOM     69  S   UNL A   1      33.300  34.977  29.319  1.00  0.00     0.127 S 
ATOM     70  O   UNL A   1      32.250  35.314  30.283  1.00  0.00    -0.237 OA
ATOM     71  O   UNL A   1      34.059  36.122  28.822  1.00  0.00    -0.237 OA
ATOM     72  O   UNL A   1      32.890  34.015  28.303  1.00  0.00    -0.744 OA
ENDBRANCH  66  69
ENDBRANCH  48  62
BRANCH  49  73
ATOM     73  C   UNL A   1      44.851  27.661  29.437  1.00  0.00     0.023 A 
ATOM     74  C   UNL A   1      45.103  26.303  29.752  1.00  0.00     0.012 A 
ATOM     75  C   UNL A   1      44.626  28.014  28.094  1.00  0.00     0.148 A 
ATOM     76  C   UNL A   1      44.906  25.303  28.797  1.00  0.00     0.002 A 
ATOM     77  C   UNL A   1      44.435  27.009  27.145  1.00  0.00     0.091 A 
ATOM     78  F   UNL A   1      44.523  29.311  27.777  1.00  0.00    -0.205 F 
ATOM     79  C   UNL A   1      44.516  25.655  27.508  1.00  0.00     0.022 A 
BRANCH  77  80
ATOM     80  S   UNL A   1      43.950  27.408  25.459  1.00  0.00     0.127 S 
ATOM     81  O   UNL A   1      43.036  28.527  25.674  1.00  0.00    -0.237 OA
ATOM     82  O   UNL A   1      45.219  27.775  24.830  1.00  0.00    -0.237 OA
ATOM     83  O   UNL A   1      43.361  26.184  24.939  1.00  0.00    -0.744 OA
ENDBRANCH  77  80
ENDBRANCH  49  73
BRANCH  61  84
ATOM     84  C   UNL A   1      43.248  34.588  30.516  1.00  0.00     0.023 A 
ATOM     85  C   UNL A   1      43.708  35.522  31.465  1.00  0.00     0.012 A 
ATOM     86  C   UNL A   1      43.241  35.003  29.161  1.00  0.00     0.148 A 
ATOM     87  C   UNL A   1      44.051  36.828  31.106  1.00  0.00     0.002 A 
ATOM     88  C   UNL A   1      43.706  36.261  28.795  1.00  0.00     0.091 A 
ATOM     89  F   UNL A   1      42.761  34.183  28.213  1.00  0.00    -0.205 F 
ATOM     90  C   UNL A   1      44.071  37.193  29.768  1.00  0.00     0.022 A 
BRANCH  88  91
ATOM     91  S   UNL A   1      44.000  36.681  27.072  1.00  0.00     0.127 S 
ATOM     92  O   UNL A   1      44.614  38.002  27.185  1.00  0.00    -0.237 OA
ATOM     93  O   UNL A   1      44.912  35.618  26.644  1.00  0.00    -0.237 OA
ATOM     94  O   UNL A   1      42.691  36.635  26.433  1.00  0.00    -0.744 OA
ENDBRANCH  88  91
ENDBRANCH  61  84
ENDBRANCH  35  36
ENDBRANCH  27  30
ENDBRANCH  25  26
ENDBRANCH  24  25
ENDBRANCH   1  24
TORSDOF 17
ENDMDL
MODEL 2
REMARK VINA RESULT:     -12.3      4.029      9.701
REMARK SMILES Cc1ccc(CNc2ccc(C(=O)NCCCCNC(=O)c3ccc(-c4c5nc(c(-c6cccc(S(=O)(=O)[O-])c6F)c6ccc([nH]6)c(-c6cccc(S(=O)(=O)[O-])c6F)c6nc(c(-c7cccc(S(=O)(=O)[O-])c7F)c7ccc4[nH]7)C=C6)C=C5)cc3)cc2Br)cc1
REMARK SMILES IDX 16 1 15 2 14 3 12 4 13 5 11 7 8 8 9 9 86 10 10 11 85 12
REMARK SMILES IDX 87 13 7 14 6 16 5 17 1 18 2 19 3 20 89 21 4 22 88 23 17 24
REMARK SMILES IDX 18 25 19 26 20 27 21 29 22 30 23 31 84 32 24 33 83 34 25 35
REMARK SMILES IDX 26 36 27 37 77 38 28 39 82 40 76 41 78 42 29 43 81 44 75 45
REMARK SMILES IDX 74 46 30 48 62 49 42 50 61 51 43 52 46 53 60 54 79 55 44 56
REMARK SMILES IDX 45 57 59 59 80 60 47 61 31 62 32 63 40 64 33 65 35 66 41 67
REMARK SMILES IDX 34 68 36 69 37 70 38 71 39 72 63 73 64 74 72 75 65 76 67 77
REMARK SMILES IDX 73 78 66 79 68 80 69 81 70 82 71 83 48 84 49 85 57 86 50 87
REMARK SMILES IDX 52 88 58 89 51 90 53 91 54 92 55 93 56 94
REMARK H PARENT 14 6 7 15 19 28 78 47 46 58
REMARK Flexibility Score: inf
ROOT
ATOM      1  C   UNL A   1      31.682  29.591  26.230  1.00  0.00     0.023 C 
ENDROOT
BRANCH   1   2
ATOM      2  C   UNL A   1      31.483  29.399  24.726  1.00  0.00     0.116 C 
BRANCH   2   3
ATOM      3  N   UNL A   1      32.720  29.393  23.955  1.00  0.00    -0.352 N 
ATOM      4  C   UNL A   1      33.691  28.457  23.685  1.00  0.00     0.251 C 
ATOM      5  O   UNL A   1      34.674  28.824  23.039  1.00  0.00    -0.269 OA
ATOM      6  H   UNL A   1      32.901  30.260  23.525  1.00  0.00     0.163 HD
BRANCH   4   7
ATOM      7  C   UNL A   1      33.652  27.046  24.158  1.00  0.00     0.041 A 
ATOM      8  C   UNL A   1      33.590  24.314  24.957  1.00  0.00     0.049 A 
ATOM      9  C   UNL A   1      33.732  25.348  25.881  1.00  0.00     0.028 A 
ATOM     10  C   UNL A   1      33.472  24.678  23.603  1.00  0.00     0.041 A 
ATOM     11  C   UNL A   1      33.672  26.684  25.498  1.00  0.00     0.016 A 
ATOM     12  C   UNL A   1      33.520  26.023  23.205  1.00  0.00     0.031 A 
ATOM     13  Br  UNL A   1      33.172  23.358  22.264  1.00  0.00    -0.049 Br
BRANCH   8  14
ATOM     14  N   UNL A   1      33.511  22.995  25.378  1.00  0.00    -0.380 N 
ATOM     15  H   UNL A   1      32.632  22.554  25.415  1.00  0.00     0.160 HD
BRANCH  14  16
ATOM     16  C   UNL A   1      34.696  22.245  25.764  1.00  0.00     0.148 C 
BRANCH  16  17
ATOM     17  C   UNL A   1      34.579  20.823  25.287  1.00  0.00    -0.029 A 
ATOM     18  C   UNL A   1      34.219  16.757  23.921  1.00  0.00     0.044 C 
ATOM     19  C   UNL A   1      34.354  18.161  24.421  1.00  0.00    -0.051 A 
ATOM     20  C   UNL A   1      33.210  18.889  24.762  1.00  0.00     0.004 A 
ATOM     21  C   UNL A   1      35.612  18.764  24.541  1.00  0.00     0.004 A 
ATOM     22  C   UNL A   1      33.321  20.206  25.198  1.00  0.00     0.006 A 
ATOM     23  C   UNL A   1      35.724  20.085  24.972  1.00  0.00     0.006 A 
ENDBRANCH  16  17
ENDBRANCH  14  16
ENDBRANCH   8  14
ENDBRANCH   4   7
ENDBRANCH   2   3
ENDBRANCH   1   2
BRANCH   1  24
ATOM     24  C   UNL A   1      32.637  30.708  26.670  1.00  0.00     0.023 C 
BRANCH  24  25
ATOM     25  C   UNL A   1      33.917  30.233  27.337  1.00  0.00     0.116 C 
BRANCH  25  26
ATOM     26  N   UNL A   1      34.962  31.252  27.319  1.00  0.00    -0.352 N 
ATOM     27  C   UNL A   1      36.146  31.308  28.020  1.00  0.00     0.251 C 
ATOM     28  H   UNL A   1      34.797  32.012  26.716  1.00  0.00     0.163 HD
ATOM     29  O   UNL A   1      36.549  32.429  28.367  1.00  0.00    -0.269 OA
BRANCH  27  30
ATOM     30  C   UNL A   1      36.970  30.105  28.241  1.00  0.00     0.039 A 
ATOM     31  C   UNL A   1      36.907  29.384  29.444  1.00  0.00     0.014 A 
ATOM     32  C   UNL A   1      38.004  29.839  27.354  1.00  0.00     0.014 A 
ATOM     33  C   UNL A   1      37.994  28.594  29.818  1.00  0.00     0.010 A 
ATOM     34  C   UNL A   1      38.923  28.877  27.598  1.00  0.00     0.010 A 
ATOM     35  C   UNL A   1      39.036  28.461  28.912  1.00  0.00    -0.014 A 
BRANCH  35  36
ATOM     36  C   UNL A   1      40.392  28.038  29.174  1.00  0.00     0.031 A 
ATOM     37  C   UNL A   1      40.728  26.641  28.916  1.00  0.00     0.074 A 
ATOM     38  C   UNL A   1      41.298  29.047  29.150  1.00  0.00     0.049 A 
ATOM     39  N   UNL A   1      41.870  26.114  29.160  1.00  0.00    -0.248 NA
ATOM     40  C   UNL A   1      39.758  25.714  28.345  1.00  0.00     0.031 C 
ATOM     41  C   UNL A   1      42.666  29.023  28.644  1.00  0.00     0.029 A 
ATOM     42  N   UNL A   1      41.147  30.389  29.477  1.00  0.00    -0.354 N 
ATOM     43  C   UNL A   1      41.898  24.909  28.491  1.00  0.00     0.074 A 
ATOM     44  C   UNL A   1      40.522  24.637  28.156  1.00  0.00     0.031 C 
ATOM     45  C   UNL A   1      43.276  30.179  28.977  1.00  0.00     0.029 A 
ATOM     46  C   UNL A   1      42.382  30.892  29.875  1.00  0.00     0.049 A 
ATOM     47  H   UNL A   1      40.307  30.899  29.433  1.00  0.00     0.167 HD
ATOM     48  C   UNL A   1      43.111  24.402  28.134  1.00  0.00     0.034 A 
ATOM     49  C   UNL A   1      42.654  31.149  31.197  1.00  0.00     0.034 A 
ATOM     50  C   UNL A   1      44.188  25.286  28.632  1.00  0.00     0.049 A 
ATOM     51  C   UNL A   1      43.662  30.164  31.782  1.00  0.00     0.074 A 
ATOM     52  C   UNL A   1      44.939  26.278  28.019  1.00  0.00     0.029 A 
ATOM     53  N   UNL A   1      44.349  25.473  30.004  1.00  0.00    -0.354 N 
ATOM     54  N   UNL A   1      44.082  29.095  31.162  1.00  0.00    -0.248 NA
ATOM     55  C   UNL A   1      44.284  30.303  33.096  1.00  0.00     0.031 C 
ATOM     56  C   UNL A   1      45.452  27.133  29.036  1.00  0.00     0.029 A 
ATOM     57  C   UNL A   1      45.050  26.645  30.269  1.00  0.00     0.049 A 
ATOM     58  H   UNL A   1      44.012  24.858  30.694  1.00  0.00     0.167 HD
ATOM     59  C   UNL A   1      44.873  28.345  31.981  1.00  0.00     0.074 A 
ATOM     60  C   UNL A   1      45.037  29.189  33.155  1.00  0.00     0.031 C 
ATOM     61  C   UNL A   1      45.277  27.078  31.650  1.00  0.00     0.034 A 
BRANCH  48  62
ATOM     62  C   UNL A   1      43.354  23.313  27.095  1.00  0.00     0.023 A 
ATOM     63  C   UNL A   1      44.122  23.676  25.965  1.00  0.00     0.012 A 
ATOM     64  C   UNL A   1      42.866  21.982  27.095  1.00  0.00     0.148 A 
ATOM     65  C   UNL A   1      44.333  22.812  24.883  1.00  0.00     0.002 A 
ATOM     66  C   UNL A   1      43.048  21.127  26.003  1.00  0.00     0.091 A 
ATOM     67  F   UNL A   1      42.266  21.484  28.173  1.00  0.00    -0.205 F 
ATOM     68  C   UNL A   1      43.779  21.543  24.891  1.00  0.00     0.022 A 
BRANCH  66  69
ATOM     69  S   UNL A   1      42.345  19.463  25.939  1.00  0.00     0.127 S 
ATOM     70  O   UNL A   1      43.016  18.892  24.769  1.00  0.00    -0.237 OA
ATOM     71  O   UNL A   1      42.769  18.899  27.218  1.00  0.00    -0.237 OA
ATOM     72  O   UNL A   1      40.905  19.627  25.780  1.00  0.00    -0.744 OA
ENDBRANCH  66  69
ENDBRANCH  48  62
BRANCH  49  73
ATOM     73  C   UNL A   1      41.461  31.706  31.918  1.00  0.00     0.023 A 
ATOM     74  C   UNL A   1      40.936  32.920  31.411  1.00  0.00     0.012 A 
ATOM     75  C   UNL A   1      40.618  30.864  32.666  1.00  0.00     0.148 A 
ATOM     76  C   UNL A   1      39.563  33.173  31.451  1.00  0.00     0.002 A 
ATOM     77  C   UNL A   1      39.248  31.126  32.704  1.00  0.00     0.091 A 
ATOM     78  F   UNL A   1      41.146  29.785  33.259  1.00  0.00    -0.205 F 
ATOM     79  C   UNL A   1      38.714  32.247  32.047  1.00  0.00     0.022 A 
BRANCH  77  80
ATOM     80  S   UNL A   1      38.107  29.973  33.481  1.00  0.00     0.127 S 
ATOM     81  O   UNL A   1      36.832  30.383  32.896  1.00  0.00    -0.237 OA
ATOM     82  O   UNL A   1      38.592  28.671  33.025  1.00  0.00    -0.237 OA
ATOM     83  O   UNL A   1      38.262  30.197  34.910  1.00  0.00    -0.744 OA
ENDBRANCH  77  80
ENDBRANCH  49  73
BRANCH  61  84
ATOM     84  C   UNL A   1      45.937  26.121  32.618  1.00  0.00     0.023 A 
ATOM     85  C   UNL A   1      47.337  25.992  32.705  1.00  0.00     0.012 A 
ATOM     86  C   UNL A   1      45.168  25.419  33.580  1.00  0.00     0.148 A 
ATOM     87  C   UNL A   1      47.941  25.140  33.633  1.00  0.00     0.002 A 
ATOM     88  C   UNL A   1      45.780  24.675  34.581  1.00  0.00     0.091 A 
ATOM     89  F   UNL A   1      43.828  25.452  33.518  1.00  0.00    -0.205 F 
ATOM     90  C   UNL A   1      47.165  24.496  34.586  1.00  0.00     0.022 A 
BRANCH  88  91
ATOM     91  S   UNL A   1      44.844  24.047  35.982  1.00  0.00     0.127 S 
ATOM     92  O   UNL A   1      45.875  23.344  36.742  1.00  0.00    -0.237 OA
ATOM     93  O   UNL A   1      44.358  25.279  36.607  1.00  0.00    -0.237 OA
ATOM     94  O   UNL A   1      43.794  23.218  35.405  1.00  0.00    -0.744 OA
ENDBRANCH  88  91
ENDBRANCH  61  84
ENDBRANCH  35  36
ENDBRANCH  27  30
ENDBRANCH  25  26
ENDBRANCH  24  25
ENDBRANCH   1  24
TORSDOF 17
ENDMDL
MODEL 3
REMARK VINA RESULT:     -12.1      4.551     10.120
REMARK SMILES Cc1ccc(CNc2ccc(C(=O)NCCCCNC(=O)c3ccc(-c4c5nc(c(-c6cccc(S(=O)(=O)[O-])c6F)c6ccc([nH]6)c(-c6cccc(S(=O)(=O)[O-])c6F)c6nc(c(-c7cccc(S(=O)(=O)[O-])c7F)c7ccc4[nH]7)C=C6)C=C5)cc3)cc2Br)cc1
REMARK SMILES IDX 16 1 15 2 14 3 12 4 13 5 11 7 8 8 9 9 86 10 10 11 85 12
REMARK SMILES IDX 87 13 7 14 6 16 5 17 1 18 2 19 3 20 89 21 4 22 88 23 17 24
REMARK SMILES IDX 18 25 19 26 20 27 21 29 22 30 23 31 84 32 24 33 83 34 25 35
REMARK SMILES IDX 26 36 27 37 77 38 28 39 82 40 76 41 78 42 29 43 81 44 75 45
REMARK SMILES IDX 74 46 30 48 62 49 42 50 61 51 43 52 46 53 60 54 79 55 44 56
REMARK SMILES IDX 45 57 59 59 80 60 47 61 31 62 32 63 40 64 33 65 35 66 41 67
REMARK SMILES IDX 34 68 36 69 37 70 38 71 39 72 63 73 64 74 72 75 65 76 67 77
REMARK SMILES IDX 73 78 66 79 68 80 69 81 70 82 71 83 48 84 49 85 57 86 50 87
REMARK SMILES IDX 52 88 58 89 51 90 53 91 54 92 55 93 56 94
REMARK H PARENT 14 6 7 15 19 28 78 47 46 58
REMARK Flexibility Score: inf
ROOT
ATOM      1  C   UNL A   1      34.314  34.918  28.153  1.00  0.00     0.023 C 
ENDROOT
BRANCH   1   2
ATOM      2  C   UNL A   1      33.941  33.441  28.033  1.00  0.00     0.116 C 
BRANCH   2   3
ATOM      3  N   UNL A   1      35.082  32.541  27.932  1.00  0.00    -0.352 N 
ATOM      4  C   UNL A   1      35.246  31.210  27.625  1.00  0.00     0.251 C 
ATOM      5  O   UNL A   1      36.381  30.739  27.713  1.00  0.00    -0.269 OA
ATOM      6  H   UNL A   1      35.936  32.991  28.129  1.00  0.00     0.163 HD
BRANCH   4   7
ATOM      7  C   UNL A   1      34.138  30.296  27.235  1.00  0.00     0.041 A 
ATOM      8  C   UNL A   1      32.091  28.462  26.491  1.00  0.00     0.049 A 
ATOM      9  C   UNL A   1      31.800  29.761  26.907  1.00  0.00     0.028 A 
ATOM     10  C   UNL A   1      33.447  28.094  26.448  1.00  0.00     0.041 A 
ATOM     11  C   UNL A   1      32.806  30.682  27.184  1.00  0.00     0.016 A 
ATOM     12  C   UNL A   1      34.458  28.990  26.830  1.00  0.00     0.031 A 
ATOM     13  Br  UNL A   1      33.969  26.381  25.799  1.00  0.00    -0.049 Br
BRANCH   8  14
ATOM     14  N   UNL A   1      31.078  27.607  26.085  1.00  0.00    -0.380 N 
ATOM     15  H   UNL A   1      30.371  27.361  26.724  1.00  0.00     0.160 HD
BRANCH  14  16
ATOM     16  C   UNL A   1      31.033  27.064  24.737  1.00  0.00     0.148 C 
BRANCH  16  17
ATOM     17  C   UNL A   1      30.265  27.992  23.836  1.00  0.00    -0.029 A 
ATOM     18  C   UNL A   1      28.045  30.638  21.267  1.00  0.00     0.044 C 
ATOM     19  C   UNL A   1      28.829  29.706  22.138  1.00  0.00    -0.051 A 
ATOM     20  C   UNL A   1      28.192  28.618  22.741  1.00  0.00     0.004 A 
ATOM     21  C   UNL A   1      30.194  29.917  22.369  1.00  0.00     0.004 A 
ATOM     22  C   UNL A   1      28.904  27.763  23.577  1.00  0.00     0.006 A 
ATOM     23  C   UNL A   1      30.907  29.065  23.211  1.00  0.00     0.006 A 
ENDBRANCH  16  17
ENDBRANCH  14  16
ENDBRANCH   8  14
ENDBRANCH   4   7
ENDBRANCH   2   3
ENDBRANCH   1   2
BRANCH   1  24
ATOM     24  C   UNL A   1      33.257  35.858  28.749  1.00  0.00     0.023 C 
BRANCH  24  25
ATOM     25  C   UNL A   1      32.911  35.594  30.205  1.00  0.00     0.116 C 
BRANCH  25  26
ATOM     26  N   UNL A   1      33.871  36.202  31.121  1.00  0.00    -0.352 N 
ATOM     27  C   UNL A   1      34.572  35.634  32.161  1.00  0.00     0.251 C 
ATOM     28  H   UNL A   1      34.043  37.160  30.974  1.00  0.00     0.163 HD
ATOM     29  O   UNL A   1      34.798  36.347  33.152  1.00  0.00    -0.269 OA
BRANCH  27  30
ATOM     30  C   UNL A   1      35.144  34.278  32.057  1.00  0.00     0.039 A 
ATOM     31  C   UNL A   1      34.904  33.304  33.038  1.00  0.00     0.014 A 
ATOM     32  C   UNL A   1      36.139  34.051  31.116  1.00  0.00     0.014 A 
ATOM     33  C   UNL A   1      35.808  32.251  33.183  1.00  0.00     0.010 A 
ATOM     34  C   UNL A   1      36.850  32.901  31.094  1.00  0.00     0.010 A 
ATOM     35  C   UNL A   1      36.836  32.153  32.257  1.00  0.00    -0.014 A 
BRANCH  35  36
ATOM     36  C   UNL A   1      38.078  31.424  32.383  1.00  0.00     0.031 A 
ATOM     37  C   UNL A   1      38.201  30.165  31.655  1.00  0.00     0.074 A 
ATOM     38  C   UNL A   1      39.136  32.197  32.737  1.00  0.00     0.049 A 
ATOM     39  N   UNL A   1      39.217  29.388  31.721  1.00  0.00    -0.248 NA
ATOM     40  C   UNL A   1      37.145  29.686  30.772  1.00  0.00     0.031 C 
ATOM     41  C   UNL A   1      40.519  32.098  32.285  1.00  0.00     0.029 A 
ATOM     42  N   UNL A   1      39.179  33.347  33.514  1.00  0.00    -0.354 N 
ATOM     43  C   UNL A   1      39.104  28.503  30.671  1.00  0.00     0.074 A 
ATOM     44  C   UNL A   1      37.736  28.619  30.231  1.00  0.00     0.031 C 
ATOM     45  C   UNL A   1      41.280  32.936  33.020  1.00  0.00     0.029 A 
ATOM     46  C   UNL A   1      40.442  33.448  34.092  1.00  0.00     0.049 A 
ATOM     47  H   UNL A   1      38.440  33.987  33.635  1.00  0.00     0.167 HD
ATOM     48  C   UNL A   1      40.244  27.936  30.185  1.00  0.00     0.034 A 
ATOM     49  C   UNL A   1      40.639  33.180  35.424  1.00  0.00     0.034 A 
ATOM     50  C   UNL A   1      41.404  28.382  30.987  1.00  0.00     0.049 A 
ATOM     51  C   UNL A   1      41.418  31.887  35.646  1.00  0.00     0.074 A 
ATOM     52  C   UNL A   1      42.357  29.368  30.780  1.00  0.00     0.029 A 
ATOM     53  N   UNL A   1      41.477  28.053  32.339  1.00  0.00    -0.354 N 
ATOM     54  N   UNL A   1      41.708  31.039  34.696  1.00  0.00    -0.248 NA
ATOM     55  C   UNL A   1      41.941  31.449  36.937  1.00  0.00     0.031 C 
ATOM     56  C   UNL A   1      42.915  29.712  32.045  1.00  0.00     0.029 A 
ATOM     57  C   UNL A   1      42.335  28.912  33.017  1.00  0.00     0.049 A 
ATOM     58  H   UNL A   1      40.986  27.311  32.759  1.00  0.00     0.167 HD
ATOM     59  C   UNL A   1      42.293  29.921  35.215  1.00  0.00     0.074 A 
ATOM     60  C   UNL A   1      42.493  30.265  36.615  1.00  0.00     0.031 C 
ATOM     61  C   UNL A   1      42.511  28.794  34.466  1.00  0.00     0.034 A 
BRANCH  48  62
ATOM     62  C   UNL A   1      40.392  27.246  28.833  1.00  0.00     0.023 A 
ATOM     63  C   UNL A   1      39.529  26.155  28.580  1.00  0.00     0.012 A 
ATOM     64  C   UNL A   1      41.323  27.535  27.803  1.00  0.00     0.148 A 
ATOM     65  C   UNL A   1      39.625  25.364  27.429  1.00  0.00     0.002 A 
ATOM     66  C   UNL A   1      41.444  26.728  26.667  1.00  0.00     0.091 A 
ATOM     67  F   UNL A   1      42.076  28.629  27.863  1.00  0.00    -0.205 F 
ATOM     68  C   UNL A   1      40.596  25.636  26.480  1.00  0.00     0.022 A 
BRANCH  66  69
ATOM     69  S   UNL A   1      42.693  27.016  25.394  1.00  0.00     0.127 S 
ATOM     70  O   UNL A   1      43.907  27.199  26.194  1.00  0.00    -0.237 OA
ATOM     71  O   UNL A   1      42.651  25.771  24.631  1.00  0.00    -0.237 OA
ATOM     72  O   UNL A   1      42.275  28.206  24.664  1.00  0.00    -0.744 OA
ENDBRANCH  66  69
ENDBRANCH  48  62
BRANCH  49  73
ATOM     73  C   UNL A   1      39.496  33.663  36.269  1.00  0.00     0.023 A 
ATOM     74  C   UNL A   1      38.487  32.711  36.556  1.00  0.00     0.012 A 
ATOM     75  C   UNL A   1      39.657  34.761  37.134  1.00  0.00     0.148 A 
ATOM     76  C   UNL A   1      37.820  32.729  37.784  1.00  0.00     0.002 A 
ATOM     77  C   UNL A   1      38.984  34.774  38.356  1.00  0.00     0.091 A 
ATOM     78  F   UNL A   1      40.515  35.730  36.792  1.00  0.00    -0.205 F 
ATOM     79  C   UNL A   1      38.112  33.729  38.707  1.00  0.00     0.022 A 
BRANCH  77  80
ATOM     80  S   UNL A   1      39.307  36.055  39.578  1.00  0.00     0.127 S 
ATOM     81  O   UNL A   1      40.747  35.912  39.777  1.00  0.00    -0.237 OA
ATOM     82  O   UNL A   1      38.909  37.279  38.883  1.00  0.00    -0.237 OA
ATOM     83  O   UNL A   1      38.461  35.713  40.711  1.00  0.00    -0.744 OA
ENDBRANCH  77  80
ENDBRANCH  49  73
BRANCH  61  84
ATOM     84  C   UNL A   1      42.921  27.459  35.047  1.00  0.00     0.023 A 
ATOM     85  C   UNL A   1      41.978  26.527  35.520  1.00  0.00     0.012 A 
ATOM     86  C   UNL A   1      44.274  27.035  35.002  1.00  0.00     0.148 A 
ATOM     87  C   UNL A   1      42.361  25.277  36.013  1.00  0.00     0.002 A 
ATOM     88  C   UNL A   1      44.631  25.745  35.374  1.00  0.00     0.091 A 
ATOM     89  F   UNL A   1      45.231  27.893  34.617  1.00  0.00    -0.205 F 
ATOM     90  C   UNL A   1      43.685  24.876  35.922  1.00  0.00     0.022 A 
BRANCH  88  91
ATOM     91  S   UNL A   1      46.271  25.095  35.026  1.00  0.00     0.127 S 
ATOM     92  O   UNL A   1      46.262  23.839  35.772  1.00  0.00    -0.237 OA
ATOM     93  O   UNL A   1      46.241  24.939  33.570  1.00  0.00    -0.237 OA
ATOM     94  O   UNL A   1      47.199  26.114  35.496  1.00  0.00    -0.744 OA
ENDBRANCH  88  91
ENDBRANCH  61  84
ENDBRANCH  35  36
ENDBRANCH  27  30
ENDBRANCH  25  26
ENDBRANCH  24  25
ENDBRANCH   1  24
TORSDOF 17
ENDMDL
