MODEL 1
REMARK VINA RESULT:     -11.2      0.000      0.000
REMARK SMILES O=C(CSc1ccc(NC(=O)c2cccc3ccccc23)cc1)NCCCCNC(=O)c1ccc(-c2c3nc(c(-c4cccc(S(=O)(=O)[O-])c4F)c4ccc([nH]4)c(-c4cccc(S(=O)(=O)[O-])c4F)c4nc(c(-c5cccc(S(=O)(=O)[O-])c5F)c5ccc2[nH]5)C=C4)C=C3)cc1
REMARK SMILES IDX 26 1 25 2 24 3 1 4 2 5 3 7 4 8 5 9 6 10 23 11 7 12 22 13
REMARK SMILES IDX 8 14 9 15 10 16 11 18 12 19 13 20 21 21 14 22 16 23 20 24
REMARK SMILES IDX 15 25 17 26 19 27 18 28 27 29 28 30 29 31 30 32 31 34 32 35
REMARK SMILES IDX 33 36 94 37 34 38 93 39 35 40 36 41 37 42 87 43 38 44 92 45
REMARK SMILES IDX 86 46 88 47 39 48 91 49 85 50 84 51 40 53 72 54 52 55 71 56
REMARK SMILES IDX 53 57 56 58 70 59 89 60 54 61 55 62 69 64 90 65 57 66 41 67
REMARK SMILES IDX 42 68 50 69 43 70 45 71 51 72 44 73 46 74 47 75 48 76 49 77
REMARK SMILES IDX 73 78 74 79 82 80 75 81 77 82 83 83 76 84 78 85 79 86 80 87
REMARK SMILES IDX 81 88 58 89 59 90 67 91 60 92 62 93 68 94 61 95 63 96 64 97
REMARK SMILES IDX 65 98 66 99
REMARK H PARENT 24 6 9 17 29 33 88 52 56 63
REMARK Flexibility Score: inf
ROOT
ATOM      1  C   UNL A   1      32.408  30.062  27.258  1.00  0.00     0.023 C 
ENDROOT
BRANCH   1   2
ATOM      2  C   UNL A   1      31.870  28.820  26.550  1.00  0.00     0.116 C 
BRANCH   2   3
ATOM      3  N   UNL A   1      31.431  29.074  25.193  1.00  0.00    -0.355 N 
ATOM      4  O   UNL A   1      33.502  28.821  24.246  1.00  0.00    -0.274 OA
ATOM      5  C   UNL A   1      32.289  28.997  24.118  1.00  0.00     0.230 C 
ATOM      6  H   UNL A   1      30.488  29.309  25.034  1.00  0.00     0.163 HD
BRANCH   5   7
ATOM      7  C   UNL A   1      31.671  29.208  22.745  1.00  0.00     0.174 C 
BRANCH   7   8
ATOM      8  S   UNL A   1      30.251  28.120  22.398  1.00  0.00    -0.116 SA
BRANCH   8   9
ATOM      9  C   UNL A   1      30.815  26.479  22.826  1.00  0.00     0.008 A 
ATOM     10  C   UNL A   1      30.256  25.672  23.816  1.00  0.00     0.017 A 
ATOM     11  C   UNL A   1      31.841  25.938  22.039  1.00  0.00     0.017 A 
ATOM     12  C   UNL A   1      30.608  24.323  23.927  1.00  0.00     0.027 A 
ATOM     13  C   UNL A   1      32.195  24.590  22.149  1.00  0.00     0.027 A 
ATOM     14  C   UNL A   1      31.495  23.756  23.023  1.00  0.00     0.041 A 
BRANCH  14  15
ATOM     15  N   UNL A   1      31.668  22.375  22.857  1.00  0.00    -0.322 N 
ATOM     16  C   UNL A   1      32.440  21.452  23.523  1.00  0.00     0.256 C 
ATOM     17  H   UNL A   1      31.133  21.992  22.123  1.00  0.00     0.170 HD
ATOM     18  O   UNL A   1      32.441  20.289  23.111  1.00  0.00    -0.269 OA
BRANCH  16  19
ATOM     19  C   UNL A   1      33.276  21.752  24.713  1.00  0.00     0.048 A 
ATOM     20  C   UNL A   1      32.663  21.424  25.935  1.00  0.00     0.014 A 
ATOM     21  C   UNL A   1      34.548  22.402  24.690  1.00  0.00    -0.006 A 
ATOM     22  C   UNL A   1      33.276  21.734  27.142  1.00  0.00     0.001 A 
ATOM     23  C   UNL A   1      35.147  22.719  25.940  1.00  0.00    -0.018 A 
ATOM     24  C   UNL A   1      35.285  22.742  23.526  1.00  0.00     0.009 A 
ATOM     25  C   UNL A   1      34.499  22.395  27.140  1.00  0.00     0.009 A 
ATOM     26  C   UNL A   1      36.402  23.347  25.991  1.00  0.00     0.009 A 
ATOM     27  C   UNL A   1      36.574  23.281  23.597  1.00  0.00     0.001 A 
ATOM     28  C   UNL A   1      37.123  23.602  24.829  1.00  0.00     0.001 A 
ENDBRANCH  16  19
ENDBRANCH  14  15
ENDBRANCH   8   9
ENDBRANCH   7   8
ENDBRANCH   5   7
ENDBRANCH   2   3
ENDBRANCH   1   2
BRANCH   1  29
ATOM     29  C   UNL A   1      31.669  31.361  26.931  1.00  0.00     0.023 C 
BRANCH  29  30
ATOM     30  C   UNL A   1      32.548  32.526  26.488  1.00  0.00     0.116 C 
BRANCH  30  31
ATOM     31  N   UNL A   1      32.301  33.750  27.235  1.00  0.00    -0.352 N 
ATOM     32  C   UNL A   1      32.978  34.259  28.324  1.00  0.00     0.251 C 
ATOM     33  H   UNL A   1      31.543  34.292  26.920  1.00  0.00     0.163 HD
ATOM     34  O   UNL A   1      32.545  35.245  28.906  1.00  0.00    -0.269 OA
BRANCH  32  35
ATOM     35  C   UNL A   1      34.210  33.590  28.806  1.00  0.00     0.039 A 
ATOM     36  C   UNL A   1      35.443  34.212  28.589  1.00  0.00     0.014 A 
ATOM     37  C   UNL A   1      34.151  32.372  29.485  1.00  0.00     0.014 A 
ATOM     38  C   UNL A   1      36.606  33.650  29.125  1.00  0.00     0.010 A 
ATOM     39  C   UNL A   1      35.298  31.858  30.087  1.00  0.00     0.010 A 
ATOM     40  C   UNL A   1      36.538  32.490  29.916  1.00  0.00    -0.014 A 
BRANCH  40  41
ATOM     41  C   UNL A   1      37.748  31.943  30.589  1.00  0.00     0.031 A 
ATOM     42  C   UNL A   1      38.617  30.929  29.893  1.00  0.00     0.074 A 
ATOM     43  C   UNL A   1      38.019  32.292  31.863  1.00  0.00     0.049 A 
ATOM     44  N   UNL A   1      39.673  30.299  30.343  1.00  0.00    -0.248 NA
ATOM     45  C   UNL A   1      38.238  30.555  28.520  1.00  0.00     0.031 C 
ATOM     46  C   UNL A   1      37.214  33.204  32.679  1.00  0.00     0.029 A 
ATOM     47  N   UNL A   1      39.032  31.902  32.705  1.00  0.00    -0.354 N 
ATOM     48  C   UNL A   1      40.064  29.435  29.327  1.00  0.00     0.074 A 
ATOM     49  C   UNL A   1      39.110  29.593  28.251  1.00  0.00     0.031 C 
ATOM     50  C   UNL A   1      37.764  33.304  33.901  1.00  0.00     0.029 A 
ATOM     51  C   UNL A   1      38.937  32.438  33.969  1.00  0.00     0.049 A 
ATOM     52  H   UNL A   1      39.756  31.295  32.431  1.00  0.00     0.167 HD
ATOM     53  C   UNL A   1      41.135  28.607  29.279  1.00  0.00     0.034 A 
ATOM     54  C   UNL A   1      39.697  32.246  35.066  1.00  0.00     0.034 A 
ATOM     55  C   UNL A   1      42.099  28.471  30.338  1.00  0.00     0.049 A 
ATOM     56  C   UNL A   1      40.893  31.337  34.980  1.00  0.00     0.074 A 
ATOM     57  C   UNL A   1      43.259  27.718  30.352  1.00  0.00     0.029 A 
ATOM     58  N   UNL A   1      42.012  29.092  31.574  1.00  0.00    -0.354 N 
ATOM     59  N   UNL A   1      41.331  30.645  33.957  1.00  0.00    -0.248 NA
ATOM     60  C   UNL A   1      41.722  31.211  36.188  1.00  0.00     0.031 C 
ATOM     61  C   UNL A   1      43.856  27.854  31.609  1.00  0.00     0.029 A 
ATOM     62  C   UNL A   1      43.090  28.727  32.364  1.00  0.00     0.049 A 
ATOM     63  H   UNL A   1      41.290  29.701  31.851  1.00  0.00     0.167 HD
ATOM     64  C   UNL A   1      42.504  30.031  34.385  1.00  0.00     0.074 A 
ATOM     65  C   UNL A   1      42.719  30.452  35.755  1.00  0.00     0.031 C 
ATOM     66  C   UNL A   1      43.321  29.188  33.709  1.00  0.00     0.034 A 
BRANCH  53  67
ATOM     67  C   UNL A   1      41.347  27.810  28.017  1.00  0.00     0.023 A 
ATOM     68  C   UNL A   1      41.730  28.471  26.831  1.00  0.00     0.012 A 
ATOM     69  C   UNL A   1      41.228  26.407  28.017  1.00  0.00     0.148 A 
ATOM     70  C   UNL A   1      41.951  27.753  25.656  1.00  0.00     0.002 A 
ATOM     71  C   UNL A   1      41.497  25.693  26.855  1.00  0.00     0.091 A 
ATOM     72  F   UNL A   1      40.846  25.796  29.148  1.00  0.00    -0.205 F 
ATOM     73  C   UNL A   1      41.846  26.365  25.671  1.00  0.00     0.022 A 
BRANCH  71  74
ATOM     74  S   UNL A   1      41.472  23.898  26.789  1.00  0.00     0.127 S 
ATOM     75  O   UNL A   1      40.035  23.625  26.784  1.00  0.00    -0.237 OA
ATOM     76  O   UNL A   1      42.149  23.627  25.521  1.00  0.00    -0.237 OA
ATOM     77  O   UNL A   1      42.187  23.441  27.972  1.00  0.00    -0.744 OA
ENDBRANCH  71  74
ENDBRANCH  53  67
BRANCH  54  78
ATOM     78  C   UNL A   1      39.374  32.964  36.333  1.00  0.00     0.023 A 
ATOM     79  C   UNL A   1      39.882  34.260  36.549  1.00  0.00     0.012 A 
ATOM     80  C   UNL A   1      38.553  32.375  37.314  1.00  0.00     0.148 A 
ATOM     81  C   UNL A   1      39.610  34.941  37.735  1.00  0.00     0.002 A 
ATOM     82  C   UNL A   1      38.237  33.083  38.467  1.00  0.00     0.091 A 
ATOM     83  F   UNL A   1      38.088  31.138  37.094  1.00  0.00    -0.205 F 
ATOM     84  C   UNL A   1      38.779  34.359  38.689  1.00  0.00     0.022 A 
BRANCH  82  85
ATOM     85  S   UNL A   1      37.071  32.466  39.687  1.00  0.00     0.127 S 
ATOM     86  O   UNL A   1      35.888  32.214  38.868  1.00  0.00    -0.237 OA
ATOM     87  O   UNL A   1      37.754  31.266  40.173  1.00  0.00    -0.237 OA
ATOM     88  O   UNL A   1      36.940  33.526  40.677  1.00  0.00    -0.744 OA
ENDBRANCH  82  85
ENDBRANCH  54  78
BRANCH  66  89
ATOM     89  C   UNL A   1      44.557  28.692  34.416  1.00  0.00     0.023 A 
ATOM     90  C   UNL A   1      44.524  27.480  35.134  1.00  0.00     0.012 A 
ATOM     91  C   UNL A   1      45.774  29.396  34.306  1.00  0.00     0.148 A 
ATOM     92  C   UNL A   1      45.671  26.996  35.763  1.00  0.00     0.002 A 
ATOM     93  C   UNL A   1      46.924  28.880  34.889  1.00  0.00     0.091 A 
ATOM     94  F   UNL A   1      45.782  30.556  33.633  1.00  0.00    -0.205 F 
ATOM     95  C   UNL A   1      46.872  27.688  35.630  1.00  0.00     0.022 A 
BRANCH  93  96
ATOM     96  S   UNL A   1      48.535  29.650  34.690  1.00  0.00     0.127 S 
ATOM     97  O   UNL A   1      48.343  30.925  35.378  1.00  0.00    -0.237 OA
ATOM     98  O   UNL A   1      49.415  28.709  35.384  1.00  0.00    -0.237 OA
ATOM     99  O   UNL A   1      48.762  29.745  33.254  1.00  0.00    -0.744 OA
ENDBRANCH  93  96
ENDBRANCH  66  89
ENDBRANCH  40  41
ENDBRANCH  32  35
ENDBRANCH  30  31
ENDBRANCH  29  30
ENDBRANCH   1  29
TORSDOF 18
ENDMDL
MODEL 2
REMARK VINA RESULT:     -11.0      2.745      7.936
REMARK SMILES O=C(CSc1ccc(NC(=O)c2cccc3ccccc23)cc1)NCCCCNC(=O)c1ccc(-c2c3nc(c(-c4cccc(S(=O)(=O)[O-])c4F)c4ccc([nH]4)c(-c4cccc(S(=O)(=O)[O-])c4F)c4nc(c(-c5cccc(S(=O)(=O)[O-])c5F)c5ccc2[nH]5)C=C4)C=C3)cc1
REMARK SMILES IDX 26 1 25 2 24 3 1 4 2 5 3 7 4 8 5 9 6 10 23 11 7 12 22 13
REMARK SMILES IDX 8 14 9 15 10 16 11 18 12 19 13 20 21 21 14 22 16 23 20 24
REMARK SMILES IDX 15 25 17 26 19 27 18 28 27 29 28 30 29 31 30 32 31 34 32 35
REMARK SMILES IDX 33 36 94 37 34 38 93 39 35 40 36 41 37 42 87 43 38 44 92 45
REMARK SMILES IDX 86 46 88 47 39 48 91 49 85 50 84 51 40 53 72 54 52 55 71 56
REMARK SMILES IDX 53 57 56 58 70 59 89 60 54 61 55 62 69 64 90 65 57 66 41 67
REMARK SMILES IDX 42 68 50 69 43 70 45 71 51 72 44 73 46 74 47 75 48 76 49 77
REMARK SMILES IDX 73 78 74 79 82 80 75 81 77 82 83 83 76 84 78 85 79 86 80 87
REMARK SMILES IDX 81 88 58 89 59 90 67 91 60 92 62 93 68 94 61 95 63 96 64 97
REMARK SMILES IDX 65 98 66 99
REMARK H PARENT 24 6 9 17 29 33 88 52 56 63
REMARK Flexibility Score: inf
ROOT
ATOM      1  C   UNL A   1      34.242  28.791  27.012  1.00  0.00     0.023 C 
ENDROOT
BRANCH   1   2
ATOM      2  C   UNL A   1      33.310  27.826  26.283  1.00  0.00     0.116 C 
BRANCH   2   3
ATOM      3  N   UNL A   1      32.144  28.472  25.714  1.00  0.00    -0.355 N 
ATOM      4  O   UNL A   1      33.205  29.203  23.820  1.00  0.00    -0.274 OA
ATOM      5  C   UNL A   1      32.170  29.073  24.475  1.00  0.00     0.230 C 
ATOM      6  H   UNL A   1      31.305  28.480  26.229  1.00  0.00     0.163 HD
BRANCH   5   7
ATOM      7  C   UNL A   1      30.851  29.638  23.970  1.00  0.00     0.174 C 
BRANCH   7   8
ATOM      8  S   UNL A   1      30.034  28.601  22.715  1.00  0.00    -0.116 SA
BRANCH   8   9
ATOM      9  C   UNL A   1      30.612  26.942  23.044  1.00  0.00     0.008 A 
ATOM     10  C   UNL A   1      30.063  26.075  23.990  1.00  0.00     0.017 A 
ATOM     11  C   UNL A   1      31.635  26.453  22.221  1.00  0.00     0.017 A 
ATOM     12  C   UNL A   1      30.425  24.724  24.020  1.00  0.00     0.027 A 
ATOM     13  C   UNL A   1      31.998  25.104  22.251  1.00  0.00     0.027 A 
ATOM     14  C   UNL A   1      31.310  24.216  23.080  1.00  0.00     0.041 A 
BRANCH  14  15
ATOM     15  N   UNL A   1      31.490  22.849  22.833  1.00  0.00    -0.322 N 
ATOM     16  C   UNL A   1      32.268  21.893  23.444  1.00  0.00     0.256 C 
ATOM     17  H   UNL A   1      30.957  22.506  22.079  1.00  0.00     0.170 HD
ATOM     18  O   UNL A   1      32.276  20.756  22.964  1.00  0.00    -0.269 OA
BRANCH  16  19
ATOM     19  C   UNL A   1      33.104  22.128  24.648  1.00  0.00     0.048 A 
ATOM     20  C   UNL A   1      32.428  21.903  25.861  1.00  0.00     0.014 A 
ATOM     21  C   UNL A   1      34.442  22.629  24.644  1.00  0.00    -0.006 A 
ATOM     22  C   UNL A   1      33.043  22.172  27.076  1.00  0.00     0.001 A 
ATOM     23  C   UNL A   1      35.042  22.909  25.902  1.00  0.00    -0.018 A 
ATOM     24  C   UNL A   1      35.240  22.853  23.493  1.00  0.00     0.009 A 
ATOM     25  C   UNL A   1      34.333  22.691  27.092  1.00  0.00     0.009 A 
ATOM     26  C   UNL A   1      36.358  23.393  25.972  1.00  0.00     0.009 A 
ATOM     27  C   UNL A   1      36.580  23.246  23.587  1.00  0.00     0.001 A 
ATOM     28  C   UNL A   1      37.132  23.535  24.825  1.00  0.00     0.001 A 
ENDBRANCH  16  19
ENDBRANCH  14  15
ENDBRANCH   8   9
ENDBRANCH   7   8
ENDBRANCH   5   7
ENDBRANCH   2   3
ENDBRANCH   1   2
BRANCH   1  29
ATOM     29  C   UNL A   1      33.571  30.057  27.547  1.00  0.00     0.023 C 
BRANCH  29  30
ATOM     30  C   UNL A   1      34.480  31.274  27.693  1.00  0.00     0.116 C 
BRANCH  30  31
ATOM     31  N   UNL A   1      34.237  32.031  28.912  1.00  0.00    -0.352 N 
ATOM     32  C   UNL A   1      34.976  32.070  30.075  1.00  0.00     0.251 C 
ATOM     33  H   UNL A   1      33.431  32.595  28.906  1.00  0.00     0.163 HD
ATOM     34  O   UNL A   1      34.547  32.669  31.052  1.00  0.00    -0.269 OA
BRANCH  32  35
ATOM     35  C   UNL A   1      36.274  31.356  30.150  1.00  0.00     0.039 A 
ATOM     36  C   UNL A   1      37.396  31.933  29.549  1.00  0.00     0.014 A 
ATOM     37  C   UNL A   1      36.390  30.141  30.826  1.00  0.00     0.014 A 
ATOM     38  C   UNL A   1      38.648  31.329  29.696  1.00  0.00     0.010 A 
ATOM     39  C   UNL A   1      37.651  29.584  31.040  1.00  0.00     0.010 A 
ATOM     40  C   UNL A   1      38.794  30.171  30.479  1.00  0.00    -0.014 A 
BRANCH  40  41
ATOM     41  C   UNL A   1      40.135  29.580  30.741  1.00  0.00     0.031 A 
ATOM     42  C   UNL A   1      41.045  30.181  31.780  1.00  0.00     0.074 A 
ATOM     43  C   UNL A   1      40.571  28.553  29.985  1.00  0.00     0.049 A 
ATOM     44  N   UNL A   1      42.267  29.840  32.102  1.00  0.00    -0.248 NA
ATOM     45  C   UNL A   1      40.526  31.332  32.538  1.00  0.00     0.031 C 
ATOM     46  C   UNL A   1      39.821  27.928  28.893  1.00  0.00     0.029 A 
ATOM     47  N   UNL A   1      41.764  27.871  29.999  1.00  0.00    -0.354 N 
ATOM     48  C   UNL A   1      42.673  30.748  33.073  1.00  0.00     0.074 A 
ATOM     49  C   UNL A   1      41.582  31.679  33.260  1.00  0.00     0.031 C 
ATOM     50  C   UNL A   1      40.567  26.955  28.345  1.00  0.00     0.029 A 
ATOM     51  C   UNL A   1      41.861  26.909  29.019  1.00  0.00     0.049 A 
ATOM     52  H   UNL A   1      42.480  28.052  30.648  1.00  0.00     0.167 HD
ATOM     53  C   UNL A   1      43.835  30.788  33.769  1.00  0.00     0.034 A 
ATOM     54  C   UNL A   1      42.881  26.092  28.687  1.00  0.00     0.034 A 
ATOM     55  C   UNL A   1      44.909  29.845  33.603  1.00  0.00     0.049 A 
ATOM     56  C   UNL A   1      44.153  26.141  29.489  1.00  0.00     0.074 A 
ATOM     57  C   UNL A   1      46.092  29.757  34.315  1.00  0.00     0.029 A 
ATOM     58  N   UNL A   1      44.939  28.836  32.653  1.00  0.00    -0.354 N 
ATOM     59  N   UNL A   1      44.458  26.910  30.505  1.00  0.00    -0.248 NA
ATOM     60  C   UNL A   1      45.209  25.187  29.122  1.00  0.00     0.031 C 
ATOM     61  C   UNL A   1      46.853  28.716  33.773  1.00  0.00     0.029 A 
ATOM     62  C   UNL A   1      46.125  28.128  32.751  1.00  0.00     0.049 A 
ATOM     63  H   UNL A   1      44.222  28.650  32.004  1.00  0.00     0.167 HD
ATOM     64  C   UNL A   1      45.722  26.509  30.923  1.00  0.00     0.074 A 
ATOM     65  C   UNL A   1      46.117  25.413  30.061  1.00  0.00     0.031 C 
ATOM     66  C   UNL A   1      46.490  27.009  31.922  1.00  0.00     0.034 A 
BRANCH  53  67
ATOM     67  C   UNL A   1      43.990  31.867  34.810  1.00  0.00     0.023 A 
ATOM     68  C   UNL A   1      44.558  33.107  34.449  1.00  0.00     0.012 A 
ATOM     69  C   UNL A   1      43.522  31.681  36.125  1.00  0.00     0.148 A 
ATOM     70  C   UNL A   1      44.694  34.128  35.389  1.00  0.00     0.002 A 
ATOM     71  C   UNL A   1      43.616  32.719  37.044  1.00  0.00     0.091 A 
ATOM     72  F   UNL A   1      43.000  30.490  36.455  1.00  0.00    -0.205 F 
ATOM     73  C   UNL A   1      44.213  33.938  36.682  1.00  0.00     0.022 A 
BRANCH  71  74
ATOM     74  S   UNL A   1      42.952  32.606  38.709  1.00  0.00     0.127 S 
ATOM     75  O   UNL A   1      44.133  32.193  39.468  1.00  0.00    -0.237 OA
ATOM     76  O   UNL A   1      42.516  33.979  38.960  1.00  0.00    -0.237 OA
ATOM     77  O   UNL A   1      41.877  31.626  38.649  1.00  0.00    -0.744 OA
ENDBRANCH  71  74
ENDBRANCH  53  67
BRANCH  54  78
ATOM     78  C   UNL A   1      42.724  25.122  27.564  1.00  0.00     0.023 A 
ATOM     79  C   UNL A   1      43.155  25.478  26.270  1.00  0.00     0.012 A 
ATOM     80  C   UNL A   1      42.167  23.847  27.776  1.00  0.00     0.148 A 
ATOM     81  C   UNL A   1      42.998  24.595  25.202  1.00  0.00     0.002 A 
ATOM     82  C   UNL A   1      42.069  22.950  26.719  1.00  0.00     0.091 A 
ATOM     83  F   UNL A   1      41.754  23.532  29.011  1.00  0.00    -0.205 F 
ATOM     84  C   UNL A   1      42.466  23.328  25.427  1.00  0.00     0.022 A 
BRANCH  82  85
ATOM     85  S   UNL A   1      41.519  21.255  26.943  1.00  0.00     0.127 S 
ATOM     86  O   UNL A   1      40.109  21.439  27.279  1.00  0.00    -0.237 OA
ATOM     87  O   UNL A   1      41.769  20.682  25.619  1.00  0.00    -0.237 OA
ATOM     88  O   UNL A   1      42.354  20.706  28.002  1.00  0.00    -0.744 OA
ENDBRANCH  82  85
ENDBRANCH  54  78
BRANCH  66  89
ATOM     89  C   UNL A   1      47.822  26.352  32.178  1.00  0.00     0.023 A 
ATOM     90  C   UNL A   1      48.969  26.779  31.479  1.00  0.00     0.012 A 
ATOM     91  C   UNL A   1      47.949  25.357  33.169  1.00  0.00     0.148 A 
ATOM     92  C   UNL A   1      50.212  26.201  31.734  1.00  0.00     0.002 A 
ATOM     93  C   UNL A   1      49.199  24.824  33.455  1.00  0.00     0.091 A 
ATOM     94  F   UNL A   1      46.844  24.953  33.812  1.00  0.00    -0.205 F 
ATOM     95  C   UNL A   1      50.330  25.234  32.729  1.00  0.00     0.022 A 
BRANCH  93  96
ATOM     96  S   UNL A   1      49.464  23.647  34.786  1.00  0.00     0.127 S 
ATOM     97  O   UNL A   1      48.810  22.450  34.259  1.00  0.00    -0.237 OA
ATOM     98  O   UNL A   1      50.924  23.569  34.843  1.00  0.00    -0.237 OA
ATOM     99  O   UNL A   1      48.842  24.228  35.968  1.00  0.00    -0.744 OA
ENDBRANCH  93  96
ENDBRANCH  66  89
ENDBRANCH  40  41
ENDBRANCH  32  35
ENDBRANCH  30  31
ENDBRANCH  29  30
ENDBRANCH   1  29
TORSDOF 18
ENDMDL
MODEL 3
REMARK VINA RESULT:     -11.0      8.056     14.976
REMARK SMILES O=C(CSc1ccc(NC(=O)c2cccc3ccccc23)cc1)NCCCCNC(=O)c1ccc(-c2c3nc(c(-c4cccc(S(=O)(=O)[O-])c4F)c4ccc([nH]4)c(-c4cccc(S(=O)(=O)[O-])c4F)c4nc(c(-c5cccc(S(=O)(=O)[O-])c5F)c5ccc2[nH]5)C=C4)C=C3)cc1
REMARK SMILES IDX 26 1 25 2 24 3 1 4 2 5 3 7 4 8 5 9 6 10 23 11 7 12 22 13
REMARK SMILES IDX 8 14 9 15 10 16 11 18 12 19 13 20 21 21 14 22 16 23 20 24
REMARK SMILES IDX 15 25 17 26 19 27 18 28 27 29 28 30 29 31 30 32 31 34 32 35
REMARK SMILES IDX 33 36 94 37 34 38 93 39 35 40 36 41 37 42 87 43 38 44 92 45
REMARK SMILES IDX 86 46 88 47 39 48 91 49 85 50 84 51 40 53 72 54 52 55 71 56
REMARK SMILES IDX 53 57 56 58 70 59 89 60 54 61 55 62 69 64 90 65 57 66 41 67
REMARK SMILES IDX 42 68 50 69 43 70 45 71 51 72 44 73 46 74 47 75 48 76 49 77
REMARK SMILES IDX 73 78 74 79 82 80 75 81 77 82 83 83 76 84 78 85 79 86 80 87
REMARK SMILES IDX 81 88 58 89 59 90 67 91 60 92 62 93 68 94 61 95 63 96 64 97
REMARK SMILES IDX 65 98 66 99
REMARK H PARENT 24 6 9 17 29 33 88 52 56 63
REMARK Flexibility Score: inf
ROOT
ATOM      1  C   UNL A   1      47.646  21.282  35.406  1.00  0.00     0.023 C 
ENDROOT
BRANCH   1   2
ATOM      2  C   UNL A   1      46.423  20.386  35.582  1.00  0.00     0.116 C 
BRANCH   2   3
ATOM      3  N   UNL A   1      46.596  19.365  36.596  1.00  0.00    -0.355 N 
ATOM      4  O   UNL A   1      45.915  20.680  38.344  1.00  0.00    -0.274 OA
ATOM      5  C   UNL A   1      46.268  19.581  37.916  1.00  0.00     0.230 C 
ATOM      6  H   UNL A   1      46.961  18.489  36.332  1.00  0.00     0.163 HD
BRANCH   5   7
ATOM      7  C   UNL A   1      46.427  18.392  38.853  1.00  0.00     0.174 C 
BRANCH   7   8
ATOM      8  S   UNL A   1      44.983  17.281  38.890  1.00  0.00    -0.116 SA
BRANCH   8   9
ATOM      9  C   UNL A   1      44.976  16.594  40.540  1.00  0.00     0.008 A 
ATOM     10  C   UNL A   1      46.054  16.621  41.424  1.00  0.00     0.017 A 
ATOM     11  C   UNL A   1      43.761  16.072  41.002  1.00  0.00     0.017 A 
ATOM     12  C   UNL A   1      45.890  16.270  42.768  1.00  0.00     0.027 A 
ATOM     13  C   UNL A   1      43.594  15.719  42.345  1.00  0.00     0.027 A 
ATOM     14  C   UNL A   1      44.636  15.924  43.252  1.00  0.00     0.041 A 
BRANCH  14  15
ATOM     15  N   UNL A   1      44.312  15.863  44.614  1.00  0.00    -0.322 N 
ATOM     16  C   UNL A   1      44.276  14.820  45.510  1.00  0.00     0.256 C 
ATOM     17  H   UNL A   1      44.063  16.733  45.004  1.00  0.00     0.170 HD
ATOM     18  O   UNL A   1      43.885  15.053  46.657  1.00  0.00    -0.269 OA
BRANCH  16  19
ATOM     19  C   UNL A   1      44.679  13.426  45.200  1.00  0.00     0.048 A 
ATOM     20  C   UNL A   1      46.011  13.130  45.541  1.00  0.00     0.014 A 
ATOM     21  C   UNL A   1      43.869  12.458  44.529  1.00  0.00    -0.006 A 
ATOM     22  C   UNL A   1      46.568  11.898  45.225  1.00  0.00     0.001 A 
ATOM     23  C   UNL A   1      44.468  11.211  44.206  1.00  0.00    -0.018 A 
ATOM     24  C   UNL A   1      42.505  12.621  44.175  1.00  0.00     0.009 A 
ATOM     25  C   UNL A   1      45.805  10.956  44.544  1.00  0.00     0.009 A 
ATOM     26  C   UNL A   1      43.727  10.210  43.558  1.00  0.00     0.009 A 
ATOM     27  C   UNL A   1      41.757  11.580  43.614  1.00  0.00     0.001 A 
ATOM     28  C   UNL A   1      42.373  10.382  43.288  1.00  0.00     0.001 A 
ENDBRANCH  16  19
ENDBRANCH  14  15
ENDBRANCH   8   9
ENDBRANCH   7   8
ENDBRANCH   5   7
ENDBRANCH   2   3
ENDBRANCH   1   2
BRANCH   1  29
ATOM     29  C   UNL A   1      47.363  22.642  34.766  1.00  0.00     0.023 C 
BRANCH  29  30
ATOM     30  C   UNL A   1      48.380  23.739  35.070  1.00  0.00     0.116 C 
BRANCH  30  31
ATOM     31  N   UNL A   1      48.203  24.339  36.384  1.00  0.00    -0.352 N 
ATOM     32  C   UNL A   1      47.319  25.320  36.783  1.00  0.00     0.251 C 
ATOM     33  H   UNL A   1      48.798  23.997  37.088  1.00  0.00     0.163 HD
ATOM     34  O   UNL A   1      47.402  25.795  37.908  1.00  0.00    -0.269 OA
BRANCH  32  35
ATOM     35  C   UNL A   1      46.294  25.819  35.836  1.00  0.00     0.039 A 
ATOM     36  C   UNL A   1      45.065  25.158  35.764  1.00  0.00     0.014 A 
ATOM     37  C   UNL A   1      46.531  26.942  35.042  1.00  0.00     0.014 A 
ATOM     38  C   UNL A   1      44.047  25.673  34.954  1.00  0.00     0.010 A 
ATOM     39  C   UNL A   1      45.491  27.499  34.300  1.00  0.00     0.010 A 
ATOM     40  C   UNL A   1      44.237  26.874  34.247  1.00  0.00    -0.014 A 
BRANCH  40  41
ATOM     41  C   UNL A   1      43.130  27.497  33.473  1.00  0.00     0.031 A 
ATOM     42  C   UNL A   1      42.988  27.236  31.997  1.00  0.00     0.074 A 
ATOM     43  C   UNL A   1      42.298  28.368  34.080  1.00  0.00     0.049 A 
ATOM     44  N   UNL A   1      42.125  27.737  31.149  1.00  0.00    -0.248 NA
ATOM     45  C   UNL A   1      43.958  26.312  31.386  1.00  0.00     0.031 C 
ATOM     46  C   UNL A   1      42.374  28.770  35.486  1.00  0.00     0.029 A 
ATOM     47  N   UNL A   1      41.243  29.096  33.585  1.00  0.00    -0.354 N 
ATOM     48  C   UNL A   1      42.465  27.217  29.906  1.00  0.00     0.074 A 
ATOM     49  C   UNL A   1      43.636  26.391  30.102  1.00  0.00     0.031 C 
ATOM     50  C   UNL A   1      41.408  29.667  35.742  1.00  0.00     0.029 A 
ATOM     51  C   UNL A   1      40.667  29.935  34.513  1.00  0.00     0.049 A 
ATOM     52  H   UNL A   1      40.929  29.025  32.655  1.00  0.00     0.167 HD
ATOM     53  C   UNL A   1      41.843  27.384  28.714  1.00  0.00     0.034 A 
ATOM     54  C   UNL A   1      39.667  30.829  34.387  1.00  0.00     0.034 A 
ATOM     55  C   UNL A   1      40.661  28.182  28.524  1.00  0.00     0.049 A 
ATOM     56  C   UNL A   1      38.978  30.981  33.058  1.00  0.00     0.074 A 
ATOM     57  C   UNL A   1      39.915  28.351  27.372  1.00  0.00     0.029 A 
ATOM     58  N   UNL A   1      40.060  28.955  29.506  1.00  0.00    -0.354 N 
ATOM     59  N   UNL A   1      39.222  30.363  31.928  1.00  0.00    -0.248 NA
ATOM     60  C   UNL A   1      37.855  31.927  32.994  1.00  0.00     0.031 C 
ATOM     61  C   UNL A   1      38.882  29.253  27.647  1.00  0.00     0.029 A 
ATOM     62  C   UNL A   1      38.960  29.613  28.982  1.00  0.00     0.049 A 
ATOM     63  H   UNL A   1      40.370  29.026  30.438  1.00  0.00     0.167 HD
ATOM     64  C   UNL A   1      38.261  30.816  31.031  1.00  0.00     0.074 A 
ATOM     65  C   UNL A   1      37.418  31.744  31.756  1.00  0.00     0.031 C 
ATOM     66  C   UNL A   1      38.098  30.498  29.723  1.00  0.00     0.034 A 
BRANCH  53  67
ATOM     67  C   UNL A   1      42.406  26.653  27.522  1.00  0.00     0.023 A 
ATOM     68  C   UNL A   1      43.296  27.318  26.653  1.00  0.00     0.012 A 
ATOM     69  C   UNL A   1      42.107  25.295  27.295  1.00  0.00     0.148 A 
ATOM     70  C   UNL A   1      43.846  26.657  25.555  1.00  0.00     0.002 A 
ATOM     71  C   UNL A   1      42.697  24.629  26.227  1.00  0.00     0.091 A 
ATOM     72  F   UNL A   1      41.246  24.683  28.122  1.00  0.00    -0.205 F 
ATOM     73  C   UNL A   1      43.555  25.311  25.349  1.00  0.00     0.022 A 
BRANCH  71  74
ATOM     74  S   UNL A   1      42.454  22.876  25.923  1.00  0.00     0.127 S 
ATOM     75  O   UNL A   1      43.108  22.710  24.625  1.00  0.00    -0.237 OA
ATOM     76  O   UNL A   1      43.166  22.268  27.047  1.00  0.00    -0.237 OA
ATOM     77  O   UNL A   1      41.014  22.661  25.926  1.00  0.00    -0.744 OA
ENDBRANCH  71  74
ENDBRANCH  53  67
BRANCH  54  78
ATOM     78  C   UNL A   1      39.224  31.623  35.570  1.00  0.00     0.023 A 
ATOM     79  C   UNL A   1      38.257  31.090  36.445  1.00  0.00     0.012 A 
ATOM     80  C   UNL A   1      39.770  32.893  35.840  1.00  0.00     0.148 A 
ATOM     81  C   UNL A   1      37.813  31.824  37.546  1.00  0.00     0.002 A 
ATOM     82  C   UNL A   1      39.367  33.593  36.971  1.00  0.00     0.091 A 
ATOM     83  F   UNL A   1      40.680  33.386  34.991  1.00  0.00    -0.205 F 
ATOM     84  C   UNL A   1      38.375  33.070  37.815  1.00  0.00     0.022 A 
BRANCH  82  85
ATOM     85  S   UNL A   1      40.130  35.141  37.468  1.00  0.00     0.127 S 
ATOM     86  O   UNL A   1      39.261  35.566  38.562  1.00  0.00    -0.237 OA
ATOM     87  O   UNL A   1      41.465  34.700  37.875  1.00  0.00    -0.237 OA
ATOM     88  O   UNL A   1      40.113  35.987  36.282  1.00  0.00    -0.744 OA
ENDBRANCH  82  85
ENDBRANCH  54  78
BRANCH  66  89
ATOM     89  C   UNL A   1      36.938  31.122  28.989  1.00  0.00     0.023 A 
ATOM     90  C   UNL A   1      36.917  32.509  28.745  1.00  0.00     0.012 A 
ATOM     91  C   UNL A   1      35.900  30.316  28.478  1.00  0.00     0.148 A 
ATOM     92  C   UNL A   1      35.865  33.090  28.038  1.00  0.00     0.002 A 
ATOM     93  C   UNL A   1      34.884  30.893  27.728  1.00  0.00     0.091 A 
ATOM     94  F   UNL A   1      35.929  29.000  28.735  1.00  0.00    -0.205 F 
ATOM     95  C   UNL A   1      34.856  32.282  27.519  1.00  0.00     0.022 A 
BRANCH  93  96
ATOM     96  S   UNL A   1      33.596  29.921  26.938  1.00  0.00     0.127 S 
ATOM     97  O   UNL A   1      32.728  30.963  26.393  1.00  0.00    -0.237 OA
ATOM     98  O   UNL A   1      34.349  29.169  25.935  1.00  0.00    -0.237 OA
ATOM     99  O   UNL A   1      33.005  29.104  27.989  1.00  0.00    -0.744 OA
ENDBRANCH  93  96
ENDBRANCH  66  89
ENDBRANCH  40  41
ENDBRANCH  32  35
ENDBRANCH  30  31
ENDBRANCH  29  30
ENDBRANCH   1  29
TORSDOF 18
ENDMDL
