MODEL 1
REMARK VINA RESULT:     -11.1      0.000      0.000
REMARK SMILES CCOc1cc2c(cc1OCC)[C@@H](C(=O)NCCCCNC(=O)c1ccc(-c3c4nc(c(-c5cccc(S(=O)(=O)[O-])c5F)c5ccc([nH]5)c(-c5cccc(S(=O)(=O)[O-])c5F)c5nc(c(-c6cccc(S(=O)(=O)[O-])c6F)c6ccc3[nH]6)C=C5)C=C4)cc1)[C@H](c1ccc(F)cc1Cl)N(C)C2=O
REMARK SMILES IDX 19 1 18 2 17 3 16 4 14 5 15 6 13 8 4 9 5 10 9 11 6 12 8 13
REMARK SMILES IDX 7 14 98 15 96 16 99 17 87 18 97 19 3 20 2 21 1 22 10 23
REMARK SMILES IDX 11 24 12 25 88 26 89 27 94 28 90 29 93 30 95 31 91 32 92 33
REMARK SMILES IDX 20 34 21 35 22 36 23 38 24 39 25 40 86 41 26 42 85 43 27 44
REMARK SMILES IDX 28 45 29 46 79 47 30 48 84 49 78 50 80 51 31 52 83 53 77 54
REMARK SMILES IDX 76 55 32 57 64 58 44 59 63 60 45 61 48 62 62 63 81 64 46 65
REMARK SMILES IDX 47 66 61 68 82 69 49 70 33 71 34 72 42 73 35 74 37 75 43 76
REMARK SMILES IDX 36 77 38 78 39 79 40 80 41 81 65 82 66 83 74 84 67 85 69 86
REMARK SMILES IDX 75 87 68 88 70 89 71 90 72 91 73 92 50 93 51 94 59 95 52 96
REMARK SMILES IDX 54 97 60 98 53 99 55 100 56 101 57 102 58 103
REMARK H PARENT 16 7 21 37 80 56 48 67
REMARK Flexibility Score: inf
ROOT
ATOM      1  C   UNL A   1      33.744  30.951  27.831  1.00  0.00     0.023 C 
ENDROOT
BRANCH   1   2
ATOM      2  C   UNL A   1      34.688  29.811  27.470  1.00  0.00     0.023 C 
BRANCH   2   3
ATOM      3  C   UNL A   1      34.012  28.566  26.892  1.00  0.00     0.116 C 
BRANCH   3   4
ATOM      4  N   UNL A   1      33.997  28.604  25.439  1.00  0.00    -0.355 N 
ATOM      5  C   UNL A   1      33.768  27.679  24.479  1.00  0.00     0.230 C 
ATOM      6  O   UNL A   1      33.957  28.059  23.313  1.00  0.00    -0.274 OA
ATOM      7  H   UNL A   1      34.195  29.498  25.075  1.00  0.00     0.163 HD
BRANCH   5   8
ATOM      8  C   UNL A   1      33.357  26.227  24.689  1.00  0.00     0.136 C 
ATOM      9  C   UNL A   1      36.036  22.902  24.127  1.00  0.00     0.161 A 
ATOM     10  C   UNL A   1      35.091  23.235  23.146  1.00  0.00     0.064 A 
ATOM     11  C   UNL A   1      36.133  23.665  25.297  1.00  0.00     0.161 A 
ATOM     12  C   UNL A   1      34.262  24.343  23.305  1.00  0.00     0.048 A 
ATOM     13  C   UNL A   1      35.312  24.796  25.429  1.00  0.00     0.056 A 
ATOM     14  C   UNL A   1      34.365  25.134  24.450  1.00  0.00    -0.016 A 
ATOM     15  C   UNL A   1      33.281  24.689  22.241  1.00  0.00     0.254 C 
ATOM     16  N   UNL A   1      32.218  25.511  22.613  1.00  0.00    -0.333 N 
ATOM     17  O   UNL A   1      33.468  24.274  21.102  1.00  0.00    -0.269 OA
ATOM     18  C   UNL A   1      31.996  25.875  24.013  1.00  0.00     0.134 C 
ATOM     19  C   UNL A   1      31.248  25.956  21.621  1.00  0.00     0.147 C 
BRANCH   9  20
ATOM     20  O   UNL A   1      36.759  21.757  23.933  1.00  0.00    -0.490 OA
BRANCH  20  21
ATOM     21  C   UNL A   1      36.367  20.702  24.825  1.00  0.00     0.226 C 
ATOM     22  C   UNL A   1      37.431  19.621  24.910  1.00  0.00     0.049 C 
ENDBRANCH  20  21
ENDBRANCH   9  20
BRANCH  11  23
ATOM     23  O   UNL A   1      36.913  23.471  26.401  1.00  0.00    -0.490 OA
BRANCH  23  24
ATOM     24  C   UNL A   1      38.294  23.812  26.400  1.00  0.00     0.226 C 
ATOM     25  C   UNL A   1      39.185  22.582  26.403  1.00  0.00     0.049 C 
ENDBRANCH  23  24
ENDBRANCH  11  23
BRANCH  18  26
ATOM     26  C   UNL A   1      31.211  24.832  24.857  1.00  0.00    -0.005 A 
ATOM     27  C   UNL A   1      30.545  25.357  25.997  1.00  0.00     0.010 A 
ATOM     28  C   UNL A   1      31.118  23.435  24.665  1.00  0.00     0.049 A 
ATOM     29  C   UNL A   1      29.924  24.537  26.941  1.00  0.00     0.040 A 
ATOM     30  C   UNL A   1      30.485  22.617  25.616  1.00  0.00     0.060 A 
ATOM     31  Cl  UNL A   1      31.692  22.551  23.298  1.00  0.00    -0.084 Cl
ATOM     32  C   UNL A   1      29.916  23.170  26.749  1.00  0.00     0.124 A 
ATOM     33  F   UNL A   1      29.341  22.371  27.656  1.00  0.00    -0.207 F 
ENDBRANCH  18  26
ENDBRANCH   5   8
ENDBRANCH   3   4
ENDBRANCH   2   3
ENDBRANCH   1   2
BRANCH   1  34
ATOM     34  C   UNL A   1      34.225  32.336  27.417  1.00  0.00     0.116 C 
BRANCH  34  35
ATOM     35  N   UNL A   1      33.317  33.423  27.766  1.00  0.00    -0.352 N 
ATOM     36  C   UNL A   1      33.396  34.275  28.851  1.00  0.00     0.251 C 
ATOM     37  H   UNL A   1      32.557  33.568  27.156  1.00  0.00     0.163 HD
ATOM     38  O   UNL A   1      32.547  35.133  29.053  1.00  0.00    -0.269 OA
BRANCH  36  39
ATOM     39  C   UNL A   1      34.508  34.088  29.808  1.00  0.00     0.039 A 
ATOM     40  C   UNL A   1      34.309  33.264  30.919  1.00  0.00     0.014 A 
ATOM     41  C   UNL A   1      35.773  34.605  29.522  1.00  0.00     0.014 A 
ATOM     42  C   UNL A   1      35.410  32.858  31.676  1.00  0.00     0.010 A 
ATOM     43  C   UNL A   1      36.875  34.131  30.225  1.00  0.00     0.010 A 
ATOM     44  C   UNL A   1      36.708  33.233  31.292  1.00  0.00    -0.014 A 
BRANCH  44  45
ATOM     45  C   UNL A   1      37.912  32.641  31.932  1.00  0.00     0.031 A 
ATOM     46  C   UNL A   1      38.652  31.518  31.261  1.00  0.00     0.074 A 
ATOM     47  C   UNL A   1      38.250  33.017  33.184  1.00  0.00     0.049 A 
ATOM     48  N   UNL A   1      39.645  30.800  31.717  1.00  0.00    -0.248 NA
ATOM     49  C   UNL A   1      38.193  31.125  29.919  1.00  0.00     0.031 C 
ATOM     50  C   UNL A   1      37.546  34.019  33.988  1.00  0.00     0.029 A 
ATOM     51  N   UNL A   1      39.248  32.573  34.015  1.00  0.00    -0.354 N 
ATOM     52  C   UNL A   1      39.897  29.841  30.744  1.00  0.00     0.074 A 
ATOM     53  C   UNL A   1      38.935  30.052  29.683  1.00  0.00     0.031 C 
ATOM     54  C   UNL A   1      38.132  34.114  35.192  1.00  0.00     0.029 A 
ATOM     55  C   UNL A   1      39.236  33.162  35.260  1.00  0.00     0.049 A 
ATOM     56  H   UNL A   1      39.912  31.897  33.747  1.00  0.00     0.167 HD
ATOM     57  C   UNL A   1      40.861  28.892  30.719  1.00  0.00     0.034 A 
ATOM     58  C   UNL A   1      40.020  32.956  36.337  1.00  0.00     0.034 A 
ATOM     59  C   UNL A   1      41.867  28.737  31.734  1.00  0.00     0.049 A 
ATOM     60  C   UNL A   1      41.134  31.949  36.250  1.00  0.00     0.074 A 
ATOM     61  C   UNL A   1      42.968  27.900  31.732  1.00  0.00     0.029 A 
ATOM     62  N   UNL A   1      41.894  29.432  32.932  1.00  0.00    -0.354 N 
ATOM     63  N   UNL A   1      41.476  31.185  35.241  1.00  0.00    -0.248 NA
ATOM     64  C   UNL A   1      41.992  31.798  37.435  1.00  0.00     0.031 C 
ATOM     65  C   UNL A   1      43.659  28.086  32.935  1.00  0.00     0.029 A 
ATOM     66  C   UNL A   1      42.987  29.038  33.683  1.00  0.00     0.049 A 
ATOM     67  H   UNL A   1      41.232  30.108  33.208  1.00  0.00     0.167 HD
ATOM     68  C   UNL A   1      42.599  30.481  35.660  1.00  0.00     0.074 A 
ATOM     69  C   UNL A   1      42.897  30.928  37.005  1.00  0.00     0.031 C 
ATOM     70  C   UNL A   1      43.304  29.531  34.998  1.00  0.00     0.034 A 
BRANCH  57  71
ATOM     71  C   UNL A   1      40.928  27.998  29.512  1.00  0.00     0.023 A 
ATOM     72  C   UNL A   1      40.130  26.836  29.471  1.00  0.00     0.012 A 
ATOM     73  C   UNL A   1      41.726  28.330  28.401  1.00  0.00     0.148 A 
ATOM     74  C   UNL A   1      40.146  26.002  28.354  1.00  0.00     0.002 A 
ATOM     75  C   UNL A   1      41.710  27.512  27.276  1.00  0.00     0.091 A 
ATOM     76  F   UNL A   1      42.498  29.424  28.469  1.00  0.00    -0.205 F 
ATOM     77  C   UNL A   1      40.928  26.346  27.255  1.00  0.00     0.022 A 
BRANCH  75  78
ATOM     78  S   UNL A   1      42.631  27.905  25.784  1.00  0.00     0.127 S 
ATOM     79  O   UNL A   1      42.099  29.224  25.448  1.00  0.00    -0.237 OA
ATOM     80  O   UNL A   1      44.014  27.910  26.265  1.00  0.00    -0.237 OA
ATOM     81  O   UNL A   1      42.325  26.842  24.836  1.00  0.00    -0.744 OA
ENDBRANCH  75  78
ENDBRANCH  57  71
BRANCH  58  82
ATOM     82  C   UNL A   1      39.823  33.775  37.567  1.00  0.00     0.023 A 
ATOM     83  C   UNL A   1      40.427  35.044  37.648  1.00  0.00     0.012 A 
ATOM     84  C   UNL A   1      39.019  33.328  38.633  1.00  0.00     0.148 A 
ATOM     85  C   UNL A   1      40.256  35.844  38.778  1.00  0.00     0.002 A 
ATOM     86  C   UNL A   1      38.811  34.151  39.736  1.00  0.00     0.091 A 
ATOM     87  F   UNL A   1      38.467  32.109  38.550  1.00  0.00    -0.205 F 
ATOM     88  C   UNL A   1      39.439  35.402  39.816  1.00  0.00     0.022 A 
BRANCH  86  89
ATOM     89  S   UNL A   1      37.666  33.708  41.048  1.00  0.00     0.127 S 
ATOM     90  O   UNL A   1      37.434  34.998  41.692  1.00  0.00    -0.237 OA
ATOM     91  O   UNL A   1      36.525  33.178  40.299  1.00  0.00    -0.237 OA
ATOM     92  O   UNL A   1      38.367  32.709  41.845  1.00  0.00    -0.744 OA
ENDBRANCH  86  89
ENDBRANCH  58  82
BRANCH  70  93
ATOM     93  C   UNL A   1      44.475  28.909  35.708  1.00  0.00     0.023 A 
ATOM     94  C   UNL A   1      44.286  27.713  36.428  1.00  0.00     0.012 A 
ATOM     95  C   UNL A   1      45.769  29.451  35.590  1.00  0.00     0.148 A 
ATOM     96  C   UNL A   1      45.366  27.073  37.035  1.00  0.00     0.002 A 
ATOM     97  C   UNL A   1      46.847  28.787  36.163  1.00  0.00     0.091 A 
ATOM     98  F   UNL A   1      45.923  30.601  34.918  1.00  0.00    -0.205 F 
ATOM     99  C   UNL A   1      46.647  27.603  36.892  1.00  0.00     0.022 A 
BRANCH  97 100
ATOM    100  S   UNL A   1      48.541  29.349  35.954  1.00  0.00     0.127 S 
ATOM    101  O   UNL A   1      49.298  28.137  36.261  1.00  0.00    -0.237 OA
ATOM    102  O   UNL A   1      48.569  29.745  34.545  1.00  0.00    -0.237 OA
ATOM    103  O   UNL A   1      48.712  30.452  36.891  1.00  0.00    -0.744 OA
ENDBRANCH  97 100
ENDBRANCH  70  93
ENDBRANCH  44  45
ENDBRANCH  36  39
ENDBRANCH  34  35
ENDBRANCH   1  34
TORSDOF 19
ENDMDL
MODEL 2
REMARK VINA RESULT:     -11.1      5.617     11.320
REMARK SMILES CCOc1cc2c(cc1OCC)[C@@H](C(=O)NCCCCNC(=O)c1ccc(-c3c4nc(c(-c5cccc(S(=O)(=O)[O-])c5F)c5ccc([nH]5)c(-c5cccc(S(=O)(=O)[O-])c5F)c5nc(c(-c6cccc(S(=O)(=O)[O-])c6F)c6ccc3[nH]6)C=C5)C=C4)cc1)[C@H](c1ccc(F)cc1Cl)N(C)C2=O
REMARK SMILES IDX 19 1 18 2 17 3 16 4 14 5 15 6 13 8 4 9 5 10 9 11 6 12 8 13
REMARK SMILES IDX 7 14 98 15 96 16 99 17 87 18 97 19 3 20 2 21 1 22 10 23
REMARK SMILES IDX 11 24 12 25 88 26 89 27 94 28 90 29 93 30 95 31 91 32 92 33
REMARK SMILES IDX 20 34 21 35 22 36 23 38 24 39 25 40 86 41 26 42 85 43 27 44
REMARK SMILES IDX 28 45 29 46 79 47 30 48 84 49 78 50 80 51 31 52 83 53 77 54
REMARK SMILES IDX 76 55 32 57 64 58 44 59 63 60 45 61 48 62 62 63 81 64 46 65
REMARK SMILES IDX 47 66 61 68 82 69 49 70 33 71 34 72 42 73 35 74 37 75 43 76
REMARK SMILES IDX 36 77 38 78 39 79 40 80 41 81 65 82 66 83 74 84 67 85 69 86
REMARK SMILES IDX 75 87 68 88 70 89 71 90 72 91 73 92 50 93 51 94 59 95 52 96
REMARK SMILES IDX 54 97 60 98 53 99 55 100 56 101 57 102 58 103
REMARK H PARENT 16 7 21 37 80 56 48 67
REMARK Flexibility Score: inf
ROOT
ATOM      1  C   UNL A   1      42.612  22.280  28.392  1.00  0.00     0.023 C 
ENDROOT
BRANCH   1   2
ATOM      2  C   UNL A   1      42.845  23.609  29.099  1.00  0.00     0.023 C 
BRANCH   2   3
ATOM      3  C   UNL A   1      43.593  23.515  30.430  1.00  0.00     0.116 C 
BRANCH   3   4
ATOM      4  N   UNL A   1      44.766  24.372  30.435  1.00  0.00    -0.355 N 
ATOM      5  C   UNL A   1      45.178  25.395  31.219  1.00  0.00     0.230 C 
ATOM      6  O   UNL A   1      46.207  25.977  30.844  1.00  0.00    -0.274 OA
ATOM      7  H   UNL A   1      45.400  24.162  29.711  1.00  0.00     0.163 HD
BRANCH   5   8
ATOM      8  C   UNL A   1      44.484  25.924  32.469  1.00  0.00     0.136 C 
ATOM      9  C   UNL A   1      43.106  29.983  32.874  1.00  0.00     0.161 A 
ATOM     10  C   UNL A   1      44.304  29.570  33.473  1.00  0.00     0.064 A 
ATOM     11  C   UNL A   1      42.351  29.080  32.116  1.00  0.00     0.161 A 
ATOM     12  C   UNL A   1      44.776  28.272  33.295  1.00  0.00     0.048 A 
ATOM     13  C   UNL A   1      42.854  27.784  31.923  1.00  0.00     0.056 A 
ATOM     14  C   UNL A   1      44.054  27.366  32.519  1.00  0.00    -0.016 A 
ATOM     15  C   UNL A   1      46.062  27.862  33.923  1.00  0.00     0.254 C 
ATOM     16  N   UNL A   1      46.275  26.493  34.078  1.00  0.00    -0.333 N 
ATOM     17  O   UNL A   1      46.873  28.727  34.236  1.00  0.00    -0.269 OA
ATOM     18  C   UNL A   1      45.217  25.525  33.787  1.00  0.00     0.134 C 
ATOM     19  C   UNL A   1      47.534  26.000  34.620  1.00  0.00     0.147 C 
BRANCH   9  20
ATOM     20  O   UNL A   1      42.670  31.249  33.158  1.00  0.00    -0.490 OA
BRANCH  20  21
ATOM     21  C   UNL A   1      42.671  31.528  34.566  1.00  0.00     0.226 C 
ATOM     22  C   UNL A   1      42.046  32.880  34.865  1.00  0.00     0.049 C 
ENDBRANCH  20  21
ENDBRANCH   9  20
BRANCH  11  23
ATOM     23  O   UNL A   1      41.131  29.245  31.524  1.00  0.00    -0.490 OA
BRANCH  23  24
ATOM     24  C   UNL A   1      39.939  28.782  32.146  1.00  0.00     0.226 C 
ATOM     25  C   UNL A   1      39.353  29.814  33.094  1.00  0.00     0.049 C 
ENDBRANCH  23  24
ENDBRANCH  11  23
BRANCH  18  26
ATOM     26  C   UNL A   1      44.199  25.284  34.936  1.00  0.00    -0.005 A 
ATOM     27  C   UNL A   1      43.172  24.345  34.645  1.00  0.00     0.010 A 
ATOM     28  C   UNL A   1      44.135  25.909  36.202  1.00  0.00     0.049 A 
ATOM     29  C   UNL A   1      42.096  24.126  35.507  1.00  0.00     0.040 A 
ATOM     30  C   UNL A   1      43.052  25.678  37.066  1.00  0.00     0.060 A 
ATOM     31  Cl  UNL A   1      45.320  26.965  36.880  1.00  0.00    -0.084 Cl
ATOM     32  C   UNL A   1      42.038  24.811  36.704  1.00  0.00     0.124 A 
ATOM     33  F   UNL A   1      41.002  24.625  37.531  1.00  0.00    -0.207 F 
ENDBRANCH  18  26
ENDBRANCH   5   8
ENDBRANCH   3   4
ENDBRANCH   2   3
ENDBRANCH   1   2
BRANCH   1  34
ATOM     34  C   UNL A   1      42.277  22.393  26.911  1.00  0.00     0.116 C 
BRANCH  34  35
ATOM     35  N   UNL A   1      40.990  21.819  26.534  1.00  0.00    -0.352 N 
ATOM     36  C   UNL A   1      39.771  22.463  26.443  1.00  0.00     0.251 C 
ATOM     37  H   UNL A   1      40.988  20.858  26.318  1.00  0.00     0.163 HD
ATOM     38  O   UNL A   1      38.749  21.859  26.146  1.00  0.00    -0.269 OA
BRANCH  36  39
ATOM     39  C   UNL A   1      39.713  23.904  26.775  1.00  0.00     0.039 A 
ATOM     40  C   UNL A   1      39.399  24.281  28.083  1.00  0.00     0.014 A 
ATOM     41  C   UNL A   1      40.114  24.856  25.835  1.00  0.00     0.014 A 
ATOM     42  C   UNL A   1      39.607  25.603  28.482  1.00  0.00     0.010 A 
ATOM     43  C   UNL A   1      40.399  26.149  26.259  1.00  0.00     0.010 A 
ATOM     44  C   UNL A   1      40.174  26.530  27.591  1.00  0.00    -0.014 A 
BRANCH  44  45
ATOM     45  C   UNL A   1      40.617  27.875  28.042  1.00  0.00     0.031 A 
ATOM     46  C   UNL A   1      42.081  28.200  28.132  1.00  0.00     0.074 A 
ATOM     47  C   UNL A   1      39.703  28.751  28.510  1.00  0.00     0.049 A 
ATOM     48  N   UNL A   1      42.659  29.270  28.613  1.00  0.00    -0.248 NA
ATOM     49  C   UNL A   1      43.023  27.174  27.654  1.00  0.00     0.031 C 
ATOM     50  C   UNL A   1      38.258  28.515  28.580  1.00  0.00     0.029 A 
ATOM     51  N   UNL A   1      39.855  30.004  29.051  1.00  0.00    -0.354 N 
ATOM     52  C   UNL A   1      44.024  29.028  28.543  1.00  0.00     0.074 A 
ATOM     53  C   UNL A   1      44.191  27.698  27.997  1.00  0.00     0.031 C 
ATOM     54  C   UNL A   1      37.660  29.584  29.129  1.00  0.00     0.029 A 
ATOM     55  C   UNL A   1      38.676  30.571  29.478  1.00  0.00     0.049 A 
ATOM     56  H   UNL A   1      40.728  30.455  29.127  1.00  0.00     0.167 HD
ATOM     57  C   UNL A   1      45.049  29.849  28.872  1.00  0.00     0.034 A 
ATOM     58  C   UNL A   1      38.438  31.750  30.087  1.00  0.00     0.034 A 
ATOM     59  C   UNL A   1      44.882  31.199  29.335  1.00  0.00     0.049 A 
ATOM     60  C   UNL A   1      39.590  32.676  30.367  1.00  0.00     0.074 A 
ATOM     61  C   UNL A   1      45.856  32.156  29.561  1.00  0.00     0.029 A 
ATOM     62  N   UNL A   1      43.666  31.784  29.647  1.00  0.00    -0.354 N 
ATOM     63  N   UNL A   1      40.865  32.503  30.112  1.00  0.00    -0.248 NA
ATOM     64  C   UNL A   1      39.271  33.971  30.987  1.00  0.00     0.031 C 
ATOM     65  C   UNL A   1      45.225  33.320  30.014  1.00  0.00     0.029 A 
ATOM     66  C   UNL A   1      43.861  33.087  30.071  1.00  0.00     0.049 A 
ATOM     67  H   UNL A   1      42.790  31.338  29.576  1.00  0.00     0.167 HD
ATOM     68  C   UNL A   1      41.496  33.673  30.519  1.00  0.00     0.074 A 
ATOM     69  C   UNL A   1      40.461  34.558  31.012  1.00  0.00     0.031 C 
ATOM     70  C   UNL A   1      42.817  33.977  30.507  1.00  0.00     0.034 A 
BRANCH  57  71
ATOM     71  C   UNL A   1      46.447  29.338  28.661  1.00  0.00     0.023 A 
ATOM     72  C   UNL A   1      46.955  29.246  27.349  1.00  0.00     0.012 A 
ATOM     73  C   UNL A   1      47.275  29.007  29.750  1.00  0.00     0.148 A 
ATOM     74  C   UNL A   1      48.257  28.804  27.122  1.00  0.00     0.002 A 
ATOM     75  C   UNL A   1      48.584  28.601  29.517  1.00  0.00     0.091 A 
ATOM     76  F   UNL A   1      46.764  29.075  30.988  1.00  0.00    -0.205 F 
ATOM     77  C   UNL A   1      49.073  28.492  28.205  1.00  0.00     0.022 A 
BRANCH  75  78
ATOM     78  S   UNL A   1      49.734  28.241  30.850  1.00  0.00     0.127 S 
ATOM     79  O   UNL A   1      49.758  29.512  31.570  1.00  0.00    -0.237 OA
ATOM     80  O   UNL A   1      49.059  27.152  31.557  1.00  0.00    -0.237 OA
ATOM     81  O   UNL A   1      50.984  27.860  30.205  1.00  0.00    -0.744 OA
ENDBRANCH  75  78
ENDBRANCH  57  71
BRANCH  58  82
ATOM     82  C   UNL A   1      37.039  32.153  30.405  1.00  0.00     0.023 A 
ATOM     83  C   UNL A   1      36.537  31.923  31.700  1.00  0.00     0.012 A 
ATOM     84  C   UNL A   1      36.219  32.793  29.455  1.00  0.00     0.148 A 
ATOM     85  C   UNL A   1      35.236  32.298  32.037  1.00  0.00     0.002 A 
ATOM     86  C   UNL A   1      34.940  33.210  29.812  1.00  0.00     0.091 A 
ATOM     87  F   UNL A   1      36.704  32.987  28.220  1.00  0.00    -0.205 F 
ATOM     88  C   UNL A   1      34.442  32.951  31.097  1.00  0.00     0.022 A 
BRANCH  86  89
ATOM     89  S   UNL A   1      33.912  34.176  28.699  1.00  0.00     0.127 S 
ATOM     90  O   UNL A   1      33.454  33.159  27.755  1.00  0.00    -0.237 OA
ATOM     91  O   UNL A   1      32.879  34.691  29.599  1.00  0.00    -0.237 OA
ATOM     92  O   UNL A   1      34.794  35.202  28.159  1.00  0.00    -0.744 OA
ENDBRANCH  86  89
ENDBRANCH  58  82
BRANCH  70  93
ATOM     93  C   UNL A   1      43.230  35.323  31.036  1.00  0.00     0.023 A 
ATOM     94  C   UNL A   1      43.526  35.463  32.406  1.00  0.00     0.012 A 
ATOM     95  C   UNL A   1      43.412  36.419  30.171  1.00  0.00     0.148 A 
ATOM     96  C   UNL A   1      43.981  36.680  32.911  1.00  0.00     0.002 A 
ATOM     97  C   UNL A   1      43.904  37.617  30.674  1.00  0.00     0.091 A 
ATOM     98  F   UNL A   1      43.104  36.270  28.874  1.00  0.00    -0.205 F 
ATOM     99  C   UNL A   1      44.182  37.752  32.045  1.00  0.00     0.022 A 
BRANCH  97 100
ATOM    100  S   UNL A   1      44.277  39.021  29.616  1.00  0.00     0.127 S 
ATOM    101  O   UNL A   1      43.890  40.146  30.465  1.00  0.00    -0.237 OA
ATOM    102  O   UNL A   1      45.720  38.882  29.408  1.00  0.00    -0.237 OA
ATOM    103  O   UNL A   1      43.477  38.836  28.413  1.00  0.00    -0.744 OA
ENDBRANCH  97 100
ENDBRANCH  70  93
ENDBRANCH  44  45
ENDBRANCH  36  39
ENDBRANCH  34  35
ENDBRANCH   1  34
TORSDOF 19
ENDMDL
MODEL 3
REMARK VINA RESULT:     -10.7      5.686     11.252
REMARK SMILES CCOc1cc2c(cc1OCC)[C@@H](C(=O)NCCCCNC(=O)c1ccc(-c3c4nc(c(-c5cccc(S(=O)(=O)[O-])c5F)c5ccc([nH]5)c(-c5cccc(S(=O)(=O)[O-])c5F)c5nc(c(-c6cccc(S(=O)(=O)[O-])c6F)c6ccc3[nH]6)C=C5)C=C4)cc1)[C@H](c1ccc(F)cc1Cl)N(C)C2=O
REMARK SMILES IDX 19 1 18 2 17 3 16 4 14 5 15 6 13 8 4 9 5 10 9 11 6 12 8 13
REMARK SMILES IDX 7 14 98 15 96 16 99 17 87 18 97 19 3 20 2 21 1 22 10 23
REMARK SMILES IDX 11 24 12 25 88 26 89 27 94 28 90 29 93 30 95 31 91 32 92 33
REMARK SMILES IDX 20 34 21 35 22 36 23 38 24 39 25 40 86 41 26 42 85 43 27 44
REMARK SMILES IDX 28 45 29 46 79 47 30 48 84 49 78 50 80 51 31 52 83 53 77 54
REMARK SMILES IDX 76 55 32 57 64 58 44 59 63 60 45 61 48 62 62 63 81 64 46 65
REMARK SMILES IDX 47 66 61 68 82 69 49 70 33 71 34 72 42 73 35 74 37 75 43 76
REMARK SMILES IDX 36 77 38 78 39 79 40 80 41 81 65 82 66 83 74 84 67 85 69 86
REMARK SMILES IDX 75 87 68 88 70 89 71 90 72 91 73 92 50 93 51 94 59 95 52 96
REMARK SMILES IDX 54 97 60 98 53 99 55 100 56 101 57 102 58 103
REMARK H PARENT 16 7 21 37 80 56 48 67
REMARK Flexibility Score: inf
ROOT
ATOM      1  C   UNL A   1      38.027  21.771  25.705  1.00  0.00     0.023 C 
ENDROOT
BRANCH   1   2
ATOM      2  C   UNL A   1      37.698  23.089  25.014  1.00  0.00     0.023 C 
BRANCH   2   3
ATOM      3  C   UNL A   1      36.890  24.079  25.855  1.00  0.00     0.116 C 
BRANCH   3   4
ATOM      4  N   UNL A   1      35.794  23.414  26.539  1.00  0.00    -0.355 N 
ATOM      5  C   UNL A   1      34.446  23.518  26.474  1.00  0.00     0.230 C 
ATOM      6  O   UNL A   1      33.816  22.853  27.311  1.00  0.00    -0.274 OA
ATOM      7  H   UNL A   1      36.098  22.742  27.192  1.00  0.00     0.163 HD
BRANCH   5   8
ATOM      8  C   UNL A   1      33.643  24.395  25.521  1.00  0.00     0.136 C 
ATOM      9  C   UNL A   1      32.033  28.234  26.626  1.00  0.00     0.161 A 
ATOM     10  C   UNL A   1      31.214  27.097  26.587  1.00  0.00     0.064 A 
ATOM     11  C   UNL A   1      33.396  28.128  26.325  1.00  0.00     0.161 A 
ATOM     12  C   UNL A   1      31.747  25.847  26.282  1.00  0.00     0.048 A 
ATOM     13  C   UNL A   1      33.925  26.857  26.049  1.00  0.00     0.056 A 
ATOM     14  C   UNL A   1      33.108  25.715  26.010  1.00  0.00    -0.016 A 
ATOM     15  C   UNL A   1      30.861  24.651  26.268  1.00  0.00     0.254 C 
ATOM     16  N   UNL A   1      31.322  23.539  25.566  1.00  0.00    -0.333 N 
ATOM     17  O   UNL A   1      29.804  24.686  26.890  1.00  0.00    -0.269 OA
ATOM     18  C   UNL A   1      32.537  23.607  24.753  1.00  0.00     0.134 C 
ATOM     19  C   UNL A   1      30.553  22.302  25.555  1.00  0.00     0.147 C 
BRANCH   9  20
ATOM     20  O   UNL A   1      31.422  29.436  26.857  1.00  0.00    -0.490 OA
BRANCH  20  21
ATOM     21  C   UNL A   1      31.478  30.308  25.718  1.00  0.00     0.226 C 
ATOM     22  C   UNL A   1      31.182  31.748  26.106  1.00  0.00     0.049 C 
ENDBRANCH  20  21
ENDBRANCH   9  20
BRANCH  11  23
ATOM     23  O   UNL A   1      34.345  29.105  26.223  1.00  0.00    -0.490 OA
BRANCH  23  24
ATOM     24  C   UNL A   1      34.776  29.839  27.363  1.00  0.00     0.226 C 
ATOM     25  C   UNL A   1      36.268  29.692  27.604  1.00  0.00     0.049 C 
ENDBRANCH  23  24
ENDBRANCH  11  23
BRANCH  18  26
ATOM     26  C   UNL A   1      32.350  24.174  23.317  1.00  0.00    -0.005 A 
ATOM     27  C   UNL A   1      33.361  23.808  22.388  1.00  0.00     0.010 A 
ATOM     28  C   UNL A   1      31.339  25.036  22.837  1.00  0.00     0.049 A 
ATOM     29  C   UNL A   1      33.424  24.352  21.103  1.00  0.00     0.040 A 
ATOM     30  C   UNL A   1      31.407  25.574  21.541  1.00  0.00     0.060 A 
ATOM     31  Cl  UNL A   1      29.917  25.517  23.689  1.00  0.00    -0.084 Cl
ATOM     32  C   UNL A   1      32.453  25.245  20.699  1.00  0.00     0.124 A 
ATOM     33  F   UNL A   1      32.513  25.789  19.477  1.00  0.00    -0.207 F 
ENDBRANCH  18  26
ENDBRANCH   5   8
ENDBRANCH   3   4
ENDBRANCH   2   3
ENDBRANCH   1   2
BRANCH   1  34
ATOM     34  C   UNL A   1      39.466  21.643  26.188  1.00  0.00     0.116 C 
BRANCH  34  35
ATOM     35  N   UNL A   1      40.042  20.311  26.035  1.00  0.00    -0.352 N 
ATOM     36  C   UNL A   1      41.371  19.949  26.135  1.00  0.00     0.251 C 
ATOM     37  H   UNL A   1      39.409  19.584  25.837  1.00  0.00     0.163 HD
ATOM     38  O   UNL A   1      41.735  18.795  25.951  1.00  0.00    -0.269 OA
BRANCH  36  39
ATOM     39  C   UNL A   1      42.367  21.008  26.413  1.00  0.00     0.039 A 
ATOM     40  C   UNL A   1      42.757  21.855  25.371  1.00  0.00     0.014 A 
ATOM     41  C   UNL A   1      42.790  21.247  27.722  1.00  0.00     0.014 A 
ATOM     42  C   UNL A   1      43.473  23.017  25.667  1.00  0.00     0.010 A 
ATOM     43  C   UNL A   1      43.428  22.445  28.020  1.00  0.00     0.010 A 
ATOM     44  C   UNL A   1      43.753  23.354  27.001  1.00  0.00    -0.014 A 
BRANCH  44  45
ATOM     45  C   UNL A   1      44.310  24.682  27.370  1.00  0.00     0.031 A 
ATOM     46  C   UNL A   1      43.424  25.733  27.978  1.00  0.00     0.074 A 
ATOM     47  C   UNL A   1      45.577  24.990  27.020  1.00  0.00     0.049 A 
ATOM     48  N   UNL A   1      43.699  26.981  28.253  1.00  0.00    -0.248 NA
ATOM     49  C   UNL A   1      42.038  25.342  28.281  1.00  0.00     0.031 C 
ATOM     50  C   UNL A   1      46.507  24.095  26.325  1.00  0.00     0.029 A 
ATOM     51  N   UNL A   1      46.291  26.153  27.167  1.00  0.00    -0.354 N 
ATOM     52  C   UNL A   1      42.512  27.537  28.714  1.00  0.00     0.074 A 
ATOM     53  C   UNL A   1      41.507  26.498  28.657  1.00  0.00     0.031 C 
ATOM     54  C   UNL A   1      47.664  24.741  26.108  1.00  0.00     0.029 A 
ATOM     55  C   UNL A   1      47.553  26.102  26.620  1.00  0.00     0.049 A 
ATOM     56  H   UNL A   1      45.934  26.951  27.620  1.00  0.00     0.167 HD
ATOM     57  C   UNL A   1      42.286  28.790  29.174  1.00  0.00     0.034 A 
ATOM     58  C   UNL A   1      48.513  27.045  26.534  1.00  0.00     0.034 A 
ATOM     59  C   UNL A   1      43.304  29.796  29.308  1.00  0.00     0.049 A 
ATOM     60  C   UNL A   1      48.259  28.404  27.127  1.00  0.00     0.074 A 
ATOM     61  C   UNL A   1      43.205  31.045  29.893  1.00  0.00     0.029 A 
ATOM     62  N   UNL A   1      44.605  29.669  28.850  1.00  0.00    -0.354 N 
ATOM     63  N   UNL A   1      47.186  28.849  27.735  1.00  0.00    -0.248 NA
ATOM     64  C   UNL A   1      49.356  29.381  27.051  1.00  0.00     0.031 C 
ATOM     65  C   UNL A   1      44.448  31.677  29.783  1.00  0.00     0.029 A 
ATOM     66  C   UNL A   1      45.319  30.821  29.131  1.00  0.00     0.049 A 
ATOM     67  H   UNL A   1      44.969  28.876  28.393  1.00  0.00     0.167 HD
ATOM     68  C   UNL A   1      47.486  30.146  28.135  1.00  0.00     0.074 A 
ATOM     69  C   UNL A   1      48.850  30.407  27.723  1.00  0.00     0.031 C 
ATOM     70  C   UNL A   1      46.693  31.048  28.764  1.00  0.00     0.034 A 
BRANCH  57  71
ATOM     71  C   UNL A   1      40.897  29.118  29.648  1.00  0.00     0.023 A 
ATOM     72  C   UNL A   1      39.986  29.711  28.751  1.00  0.00     0.012 A 
ATOM     73  C   UNL A   1      40.474  28.790  30.951  1.00  0.00     0.148 A 
ATOM     74  C   UNL A   1      38.682  30.000  29.151  1.00  0.00     0.002 A 
ATOM     75  C   UNL A   1      39.162  29.048  31.331  1.00  0.00     0.091 A 
ATOM     76  F   UNL A   1      41.364  28.251  31.798  1.00  0.00    -0.205 F 
ATOM     77  C   UNL A   1      38.269  29.660  30.436  1.00  0.00     0.022 A 
BRANCH  75  78
ATOM     78  S   UNL A   1      38.515  28.586  32.942  1.00  0.00     0.127 S 
ATOM     79  O   UNL A   1      37.092  28.881  32.784  1.00  0.00    -0.237 OA
ATOM     80  O   UNL A   1      38.838  27.160  33.009  1.00  0.00    -0.237 OA
ATOM     81  O   UNL A   1      39.225  29.413  33.908  1.00  0.00    -0.744 OA
ENDBRANCH  75  78
ENDBRANCH  57  71
BRANCH  58  82
ATOM     82  C   UNL A   1      49.832  26.711  25.925  1.00  0.00     0.023 A 
ATOM     83  C   UNL A   1      50.745  25.928  26.657  1.00  0.00     0.012 A 
ATOM     84  C   UNL A   1      50.172  27.125  24.623  1.00  0.00     0.148 A 
ATOM     85  C   UNL A   1      51.984  25.586  26.116  1.00  0.00     0.002 A 
ATOM     86  C   UNL A   1      51.388  26.738  24.069  1.00  0.00     0.091 A 
ATOM     87  F   UNL A   1      49.300  27.886  23.946  1.00  0.00    -0.205 F 
ATOM     88  C   UNL A   1      52.301  25.980  24.818  1.00  0.00     0.022 A 
BRANCH  86  89
ATOM     89  S   UNL A   1      51.808  27.093  22.358  1.00  0.00     0.127 S 
ATOM     90  O   UNL A   1      52.127  28.517  22.417  1.00  0.00    -0.237 OA
ATOM     91  O   UNL A   1      52.955  26.213  22.130  1.00  0.00    -0.237 OA
ATOM     92  O   UNL A   1      50.622  26.732  21.592  1.00  0.00    -0.744 OA
ENDBRANCH  86  89
ENDBRANCH  58  82
BRANCH  70  93
ATOM     93  C   UNL A   1      47.274  32.404  29.058  1.00  0.00     0.023 A 
ATOM     94  C   UNL A   1      47.944  32.616  30.278  1.00  0.00     0.012 A 
ATOM     95  C   UNL A   1      47.238  33.434  28.098  1.00  0.00     0.148 A 
ATOM     96  C   UNL A   1      48.555  33.839  30.548  1.00  0.00     0.002 A 
ATOM     97  C   UNL A   1      47.884  34.637  28.356  1.00  0.00     0.091 A 
ATOM     98  F   UNL A   1      46.577  33.218  26.951  1.00  0.00    -0.205 F 
ATOM     99  C   UNL A   1      48.536  34.844  29.583  1.00  0.00     0.022 A 
BRANCH  97 100
ATOM    100  S   UNL A   1      47.986  35.952  27.136  1.00  0.00     0.127 S 
ATOM    101  O   UNL A   1      48.953  35.404  26.186  1.00  0.00    -0.237 OA
ATOM    102  O   UNL A   1      46.613  36.023  26.635  1.00  0.00    -0.237 OA
ATOM    103  O   UNL A   1      48.421  37.137  27.864  1.00  0.00    -0.744 OA
ENDBRANCH  97 100
ENDBRANCH  70  93
ENDBRANCH  44  45
ENDBRANCH  36  39
ENDBRANCH  34  35
ENDBRANCH   1  34
TORSDOF 19
ENDMDL
