MODEL 1
REMARK VINA RESULT:     -11.0      0.000      0.000
REMARK SMILES COc1ccc(Cn2c(SCCC(=O)NCCCCNC(=O)c3ccc(-c4c5nc(c(-c6cccc(S(=O)(=O)[O-])c6F)c6ccc([nH]6)c(-c6cccc(S(=O)(=O)[O-])c6F)c6nc(c(-c7cccc(S(=O)(=O)[O-])c7F)c7ccc4[nH]7)C=C6)C=C5)cc3)nc3ccc(Cl)cc3c2=O)cc1
REMARK SMILES IDX 16 1 15 2 13 3 14 4 12 6 11 7 10 8 9 9 8 10 94 11 86 12
REMARK SMILES IDX 93 13 95 14 87 15 92 16 88 17 90 18 89 19 91 20 7 21 6 22
REMARK SMILES IDX 3 23 4 24 97 25 5 26 96 27 2 28 1 29 17 30 18 31 19 32 20 33
REMARK SMILES IDX 21 34 22 36 23 37 24 38 85 39 25 40 84 41 26 42 27 43 28 44
REMARK SMILES IDX 78 45 29 46 83 47 77 48 79 49 30 50 82 51 76 52 75 53 31 55
REMARK SMILES IDX 63 56 43 57 62 58 44 59 47 60 61 61 80 62 45 63 46 64 60 66
REMARK SMILES IDX 81 67 48 68 32 69 33 70 41 71 34 72 36 73 42 74 35 75 37 76
REMARK SMILES IDX 38 77 39 78 40 79 64 80 65 81 73 82 66 83 68 84 74 85 67 86
REMARK SMILES IDX 69 87 70 88 71 89 72 90 49 91 50 92 58 93 51 94 53 95 59 96
REMARK SMILES IDX 52 97 54 98 55 99 56 100 57 101
REMARK H PARENT 15 5 20 35 79 54 47 65
REMARK Flexibility Score: inf
ROOT
ATOM      1  C   UNL A   1      33.069  26.038  26.463  1.00  0.00     0.116 C 
ENDROOT
BRANCH   1   2
ATOM      2  N   UNL A   1      31.692  25.605  26.393  1.00  0.00    -0.356 N 
ATOM      3  C   UNL A   1      31.113  24.471  26.837  1.00  0.00     0.220 C 
ATOM      4  O   UNL A   1      29.882  24.404  26.846  1.00  0.00    -0.275 OA
ATOM      5  H   UNL A   1      31.080  26.239  25.953  1.00  0.00     0.163 HD
BRANCH   3   6
ATOM      6  C   UNL A   1      31.955  23.299  27.267  1.00  0.00     0.111 C 
BRANCH   6   7
ATOM      7  C   UNL A   1      32.713  22.799  26.056  1.00  0.00     0.088 C 
BRANCH   7   8
ATOM      8  S   UNL A   1      31.770  22.329  24.615  1.00  0.00    -0.087 SA
BRANCH   8   9
ATOM      9  C   UNL A   1      31.573  23.626  23.453  1.00  0.00     0.171 A 
ATOM     10  N   UNL A   1      32.656  24.256  22.861  1.00  0.00    -0.283 N 
ATOM     11  C   UNL A   1      32.575  25.624  22.598  1.00  0.00     0.262 A 
ATOM     12  N   UNL A   1      30.382  24.142  23.503  1.00  0.00    -0.224 NA
ATOM     13  C   UNL A   1      31.346  26.311  23.002  1.00  0.00     0.067 A 
ATOM     14  O   UNL A   1      33.430  26.292  22.024  1.00  0.00    -0.269 OA
ATOM     15  C   UNL A   1      30.237  25.507  23.230  1.00  0.00     0.079 A 
ATOM     16  C   UNL A   1      31.290  27.701  23.139  1.00  0.00     0.036 A 
ATOM     17  C   UNL A   1      29.002  26.124  23.439  1.00  0.00     0.031 A 
ATOM     18  C   UNL A   1      30.071  28.295  23.447  1.00  0.00     0.042 A 
ATOM     19  C   UNL A   1      28.917  27.518  23.541  1.00  0.00     0.023 A 
ATOM     20  Cl  UNL A   1      29.993  29.985  23.758  1.00  0.00    -0.084 Cl
BRANCH  10  21
ATOM     21  C   UNL A   1      33.819  23.568  22.277  1.00  0.00     0.163 C 
BRANCH  21  22
ATOM     22  C   UNL A   1      35.020  23.491  23.193  1.00  0.00    -0.028 A 
ATOM     23  C   UNL A   1      37.037  23.066  25.094  1.00  0.00     0.118 A 
ATOM     24  C   UNL A   1      36.117  24.091  25.277  1.00  0.00     0.047 A 
ATOM     25  C   UNL A   1      37.057  22.368  23.892  1.00  0.00     0.047 A 
ATOM     26  C   UNL A   1      35.114  24.302  24.331  1.00  0.00     0.009 A 
ATOM     27  C   UNL A   1      36.068  22.601  22.942  1.00  0.00     0.009 A 
BRANCH  23  28
ATOM     28  O   UNL A   1      37.895  22.813  26.129  1.00  0.00    -0.497 OA
ATOM     29  C   UNL A   1      38.488  23.999  26.658  1.00  0.00     0.278 C 
ENDBRANCH  23  28
ENDBRANCH  21  22
ENDBRANCH  10  21
ENDBRANCH   8   9
ENDBRANCH   7   8
ENDBRANCH   6   7
ENDBRANCH   3   6
ENDBRANCH   1   2
BRANCH   1  30
ATOM     30  C   UNL A   1      33.321  27.444  25.928  1.00  0.00     0.023 C 
BRANCH  30  31
ATOM     31  C   UNL A   1      33.148  28.584  26.936  1.00  0.00     0.023 C 
BRANCH  31  32
ATOM     32  C   UNL A   1      34.067  29.757  26.637  1.00  0.00     0.116 C 
BRANCH  32  33
ATOM     33  N   UNL A   1      33.816  30.944  27.433  1.00  0.00    -0.352 N 
ATOM     34  C   UNL A   1      34.589  31.480  28.444  1.00  0.00     0.251 C 
ATOM     35  H   UNL A   1      32.987  31.432  27.224  1.00  0.00     0.163 HD
ATOM     36  O   UNL A   1      34.186  32.452  29.063  1.00  0.00    -0.269 OA
BRANCH  34  37
ATOM     37  C   UNL A   1      35.881  30.840  28.806  1.00  0.00     0.039 A 
ATOM     38  C   UNL A   1      37.069  31.371  28.292  1.00  0.00     0.014 A 
ATOM     39  C   UNL A   1      35.935  29.730  29.647  1.00  0.00     0.014 A 
ATOM     40  C   UNL A   1      38.301  30.826  28.673  1.00  0.00     0.010 A 
ATOM     41  C   UNL A   1      37.154  29.270  30.120  1.00  0.00     0.010 A 
ATOM     42  C   UNL A   1      38.351  29.789  29.614  1.00  0.00    -0.014 A 
BRANCH  42  43
ATOM     43  C   UNL A   1      39.619  29.165  30.065  1.00  0.00     0.031 A 
ATOM     44  C   UNL A   1      40.365  29.784  31.220  1.00  0.00     0.074 A 
ATOM     45  C   UNL A   1      40.167  28.163  29.351  1.00  0.00     0.049 A 
ATOM     46  N   UNL A   1      41.581  29.560  31.638  1.00  0.00    -0.248 NA
ATOM     47  C   UNL A   1      39.665  30.848  31.964  1.00  0.00     0.031 C 
ATOM     48  C   UNL A   1      39.578  27.552  28.157  1.00  0.00     0.029 A 
ATOM     49  N   UNL A   1      41.364  27.513  29.500  1.00  0.00    -0.354 N 
ATOM     50  C   UNL A   1      41.819  30.506  32.631  1.00  0.00     0.074 A 
ATOM     51  C   UNL A   1      40.634  31.326  32.730  1.00  0.00     0.031 C 
ATOM     52  C   UNL A   1      40.415  26.616  27.683  1.00  0.00     0.029 A 
ATOM     53  C   UNL A   1      41.610  26.581  28.519  1.00  0.00     0.049 A 
ATOM     54  H   UNL A   1      41.989  27.695  30.239  1.00  0.00     0.167 HD
ATOM     55  C   UNL A   1      42.914  30.654  33.415  1.00  0.00     0.034 A 
ATOM     56  C   UNL A   1      42.684  25.791  28.318  1.00  0.00     0.034 A 
ATOM     57  C   UNL A   1      44.036  29.758  33.375  1.00  0.00     0.049 A 
ATOM     58  C   UNL A   1      43.826  25.876  29.295  1.00  0.00     0.074 A 
ATOM     59  C   UNL A   1      45.148  29.729  34.195  1.00  0.00     0.029 A 
ATOM     60  N   UNL A   1      44.172  28.713  32.474  1.00  0.00    -0.354 N 
ATOM     61  N   UNL A   1      43.979  26.687  30.314  1.00  0.00    -0.248 NA
ATOM     62  C   UNL A   1      44.922  24.912  29.122  1.00  0.00     0.031 C 
ATOM     63  C   UNL A   1      45.955  28.657  33.793  1.00  0.00     0.029 A 
ATOM     64  C   UNL A   1      45.341  28.018  32.728  1.00  0.00     0.049 A 
ATOM     65  H   UNL A   1      43.531  28.496  31.758  1.00  0.00     0.167 HD
ATOM     66  C   UNL A   1      45.170  26.314  30.924  1.00  0.00     0.074 A 
ATOM     67  C   UNL A   1      45.688  25.188  30.171  1.00  0.00     0.031 C 
ATOM     68  C   UNL A   1      45.794  26.862  31.997  1.00  0.00     0.034 A 
BRANCH  55  69
ATOM     69  C   UNL A   1      42.909  31.773  34.427  1.00  0.00     0.023 A 
ATOM     70  C   UNL A   1      43.499  33.011  34.098  1.00  0.00     0.012 A 
ATOM     71  C   UNL A   1      42.303  31.616  35.691  1.00  0.00     0.148 A 
ATOM     72  C   UNL A   1      43.531  34.055  35.022  1.00  0.00     0.002 A 
ATOM     73  C   UNL A   1      42.297  32.677  36.590  1.00  0.00     0.091 A 
ATOM     74  F   UNL A   1      41.765  30.427  35.999  1.00  0.00    -0.205 F 
ATOM     75  C   UNL A   1      42.923  33.892  36.263  1.00  0.00     0.022 A 
BRANCH  73  76
ATOM     76  S   UNL A   1      41.473  32.595  38.184  1.00  0.00     0.127 S 
ATOM     77  O   UNL A   1      42.277  31.593  38.882  1.00  0.00    -0.237 OA
ATOM     78  O   UNL A   1      41.632  33.960  38.686  1.00  0.00    -0.237 OA
ATOM     79  O   UNL A   1      40.097  32.211  37.902  1.00  0.00    -0.744 OA
ENDBRANCH  73  76
ENDBRANCH  55  69
BRANCH  56  80
ATOM     80  C   UNL A   1      42.670  24.789  27.217  1.00  0.00     0.023 A 
ATOM     81  C   UNL A   1      43.257  25.126  25.981  1.00  0.00     0.012 A 
ATOM     82  C   UNL A   1      42.148  23.492  27.395  1.00  0.00     0.148 A 
ATOM     83  C   UNL A   1      43.305  24.202  24.937  1.00  0.00     0.002 A 
ATOM     84  C   UNL A   1      42.243  22.560  26.367  1.00  0.00     0.091 A 
ATOM     85  F   UNL A   1      41.584  23.192  28.574  1.00  0.00    -0.205 F 
ATOM     86  C   UNL A   1      42.809  22.916  25.133  1.00  0.00     0.022 A 
BRANCH  84  87
ATOM     87  S   UNL A   1      41.750  20.845  26.577  1.00  0.00     0.127 S 
ATOM     88  O   UNL A   1      42.465  20.192  25.484  1.00  0.00    -0.237 OA
ATOM     89  O   UNL A   1      42.262  20.541  27.915  1.00  0.00    -0.237 OA
ATOM     90  O   UNL A   1      40.297  20.844  26.479  1.00  0.00    -0.744 OA
ENDBRANCH  84  87
ENDBRANCH  56  80
BRANCH  68  91
ATOM     91  C   UNL A   1      47.084  26.234  32.443  1.00  0.00     0.023 A 
ATOM     92  C   UNL A   1      48.308  26.767  31.994  1.00  0.00     0.012 A 
ATOM     93  C   UNL A   1      47.084  25.177  33.372  1.00  0.00     0.148 A 
ATOM     94  C   UNL A   1      49.515  26.239  32.445  1.00  0.00     0.002 A 
ATOM     95  C   UNL A   1      48.291  24.684  33.851  1.00  0.00     0.091 A 
ATOM     96  F   UNL A   1      45.907  24.670  33.768  1.00  0.00    -0.205 F 
ATOM     97  C   UNL A   1      49.508  25.207  33.382  1.00  0.00     0.022 A 
BRANCH  95  98
ATOM     98  S   UNL A   1      48.369  23.423  35.128  1.00  0.00     0.127 S 
ATOM     99  O   UNL A   1      48.913  24.175  36.257  1.00  0.00    -0.237 OA
ATOM    100  O   UNL A   1      46.965  23.035  35.272  1.00  0.00    -0.237 OA
ATOM    101  O   UNL A   1      49.230  22.374  34.597  1.00  0.00    -0.744 OA
ENDBRANCH  95  98
ENDBRANCH  68  91
ENDBRANCH  42  43
ENDBRANCH  34  37
ENDBRANCH  32  33
ENDBRANCH  31  32
ENDBRANCH  30  31
ENDBRANCH   1  30
TORSDOF 20
ENDMDL
MODEL 2
REMARK VINA RESULT:     -10.9      5.709     10.145
REMARK SMILES COc1ccc(Cn2c(SCCC(=O)NCCCCNC(=O)c3ccc(-c4c5nc(c(-c6cccc(S(=O)(=O)[O-])c6F)c6ccc([nH]6)c(-c6cccc(S(=O)(=O)[O-])c6F)c6nc(c(-c7cccc(S(=O)(=O)[O-])c7F)c7ccc4[nH]7)C=C6)C=C5)cc3)nc3ccc(Cl)cc3c2=O)cc1
REMARK SMILES IDX 16 1 15 2 13 3 14 4 12 6 11 7 10 8 9 9 8 10 94 11 86 12
REMARK SMILES IDX 93 13 95 14 87 15 92 16 88 17 90 18 89 19 91 20 7 21 6 22
REMARK SMILES IDX 3 23 4 24 97 25 5 26 96 27 2 28 1 29 17 30 18 31 19 32 20 33
REMARK SMILES IDX 21 34 22 36 23 37 24 38 85 39 25 40 84 41 26 42 27 43 28 44
REMARK SMILES IDX 78 45 29 46 83 47 77 48 79 49 30 50 82 51 76 52 75 53 31 55
REMARK SMILES IDX 63 56 43 57 62 58 44 59 47 60 61 61 80 62 45 63 46 64 60 66
REMARK SMILES IDX 81 67 48 68 32 69 33 70 41 71 34 72 36 73 42 74 35 75 37 76
REMARK SMILES IDX 38 77 39 78 40 79 64 80 65 81 73 82 66 83 68 84 74 85 67 86
REMARK SMILES IDX 69 87 70 88 71 89 72 90 49 91 50 92 58 93 51 94 53 95 59 96
REMARK SMILES IDX 52 97 54 98 55 99 56 100 57 101
REMARK H PARENT 15 5 20 35 79 54 47 65
REMARK Flexibility Score: inf
ROOT
ATOM      1  C   UNL A   1      38.989  22.520  26.135  1.00  0.00     0.116 C 
ENDROOT
BRANCH   1   2
ATOM      2  N   UNL A   1      37.813  21.687  26.031  1.00  0.00    -0.356 N 
ATOM      3  C   UNL A   1      36.981  21.484  24.988  1.00  0.00     0.220 C 
ATOM      4  O   UNL A   1      36.155  20.572  25.066  1.00  0.00    -0.275 OA
ATOM      5  H   UNL A   1      37.585  21.187  26.847  1.00  0.00     0.163 HD
BRANCH   3   6
ATOM      6  C   UNL A   1      37.032  22.382  23.782  1.00  0.00     0.111 C 
BRANCH   6   7
ATOM      7  C   UNL A   1      36.293  23.660  24.119  1.00  0.00     0.088 C 
BRANCH   7   8
ATOM      8  S   UNL A   1      34.696  23.926  23.365  1.00  0.00    -0.087 SA
BRANCH   8   9
ATOM      9  C   UNL A   1      33.421  22.951  24.065  1.00  0.00     0.171 A 
ATOM     10  N   UNL A   1      33.088  23.025  25.408  1.00  0.00    -0.283 N 
ATOM     11  C   UNL A   1      32.699  21.858  26.069  1.00  0.00     0.262 A 
ATOM     12  N   UNL A   1      33.108  21.946  23.303  1.00  0.00    -0.224 NA
ATOM     13  C   UNL A   1      32.702  20.617  25.292  1.00  0.00     0.067 A 
ATOM     14  O   UNL A   1      32.321  21.792  27.234  1.00  0.00    -0.269 OA
ATOM     15  C   UNL A   1      32.692  20.755  23.910  1.00  0.00     0.079 A 
ATOM     16  C   UNL A   1      32.703  19.362  25.908  1.00  0.00     0.036 A 
ATOM     17  C   UNL A   1      32.513  19.610  23.130  1.00  0.00     0.031 A 
ATOM     18  C   UNL A   1      32.624  18.226  25.111  1.00  0.00     0.042 A 
ATOM     19  C   UNL A   1      32.472  18.346  23.731  1.00  0.00     0.023 A 
ATOM     20  Cl  UNL A   1      32.761  16.666  25.825  1.00  0.00    -0.084 Cl
BRANCH  10  21
ATOM     21  C   UNL A   1      32.894  24.274  26.164  1.00  0.00     0.163 C 
BRANCH  21  22
ATOM     22  C   UNL A   1      32.031  25.297  25.460  1.00  0.00    -0.028 A 
ATOM     23  C   UNL A   1      30.559  27.024  23.813  1.00  0.00     0.118 A 
ATOM     24  C   UNL A   1      31.813  27.406  24.271  1.00  0.00     0.047 A 
ATOM     25  C   UNL A   1      29.969  25.867  24.309  1.00  0.00     0.047 A 
ATOM     26  C   UNL A   1      32.545  26.546  25.090  1.00  0.00     0.009 A 
ATOM     27  C   UNL A   1      30.696  25.026  25.146  1.00  0.00     0.009 A 
BRANCH  23  28
ATOM     28  O   UNL A   1      29.963  27.840  22.891  1.00  0.00    -0.497 OA
ATOM     29  C   UNL A   1      28.607  28.143  23.215  1.00  0.00     0.278 C 
ENDBRANCH  23  28
ENDBRANCH  21  22
ENDBRANCH  10  21
ENDBRANCH   8   9
ENDBRANCH   7   8
ENDBRANCH   6   7
ENDBRANCH   3   6
ENDBRANCH   1   2
BRANCH   1  30
ATOM     30  C   UNL A   1      40.233  21.801  26.649  1.00  0.00     0.023 C 
BRANCH  30  31
ATOM     31  C   UNL A   1      40.344  20.317  26.287  1.00  0.00     0.023 C 
BRANCH  31  32
ATOM     32  C   UNL A   1      41.587  19.674  26.880  1.00  0.00     0.116 C 
BRANCH  32  33
ATOM     33  N   UNL A   1      42.512  19.126  25.905  1.00  0.00    -0.352 N 
ATOM     34  C   UNL A   1      43.531  19.768  25.231  1.00  0.00     0.251 C 
ATOM     35  H   UNL A   1      42.399  18.170  25.699  1.00  0.00     0.163 HD
ATOM     36  O   UNL A   1      44.170  19.166  24.383  1.00  0.00    -0.269 OA
BRANCH  34  37
ATOM     37  C   UNL A   1      43.809  21.203  25.504  1.00  0.00     0.039 A 
ATOM     38  C   UNL A   1      43.458  22.157  24.543  1.00  0.00     0.014 A 
ATOM     39  C   UNL A   1      44.406  21.617  26.694  1.00  0.00     0.014 A 
ATOM     40  C   UNL A   1      43.650  23.518  24.807  1.00  0.00     0.010 A 
ATOM     41  C   UNL A   1      44.482  22.966  27.006  1.00  0.00     0.010 A 
ATOM     42  C   UNL A   1      44.136  23.932  26.054  1.00  0.00    -0.014 A 
BRANCH  42  43
ATOM     43  C   UNL A   1      44.363  25.356  26.405  1.00  0.00     0.031 A 
ATOM     44  C   UNL A   1      45.751  25.928  26.264  1.00  0.00     0.074 A 
ATOM     45  C   UNL A   1      43.380  26.070  26.987  1.00  0.00     0.049 A 
ATOM     46  N   UNL A   1      46.234  27.055  26.715  1.00  0.00    -0.248 NA
ATOM     47  C   UNL A   1      46.747  25.084  25.578  1.00  0.00     0.031 C 
ATOM     48  C   UNL A   1      42.026  25.583  27.261  1.00  0.00     0.029 A 
ATOM     49  N   UNL A   1      43.384  27.344  27.495  1.00  0.00    -0.354 N 
ATOM     50  C   UNL A   1      47.598  27.016  26.441  1.00  0.00     0.074 A 
ATOM     51  C   UNL A   1      47.871  25.742  25.816  1.00  0.00     0.031 C 
ATOM     52  C   UNL A   1      41.330  26.546  27.886  1.00  0.00     0.029 A 
ATOM     53  C   UNL A   1      42.195  27.705  28.083  1.00  0.00     0.049 A 
ATOM     54  H   UNL A   1      44.164  27.943  27.443  1.00  0.00     0.167 HD
ATOM     55  C   UNL A   1      48.532  27.972  26.659  1.00  0.00     0.034 A 
ATOM     56  C   UNL A   1      41.847  28.844  28.714  1.00  0.00     0.034 A 
ATOM     57  C   UNL A   1      48.219  29.273  27.181  1.00  0.00     0.049 A 
ATOM     58  C   UNL A   1      42.866  29.947  28.811  1.00  0.00     0.074 A 
ATOM     59  C   UNL A   1      49.052  30.366  27.336  1.00  0.00     0.029 A 
ATOM     60  N   UNL A   1      46.958  29.662  27.610  1.00  0.00    -0.354 N 
ATOM     61  N   UNL A   1      44.120  29.946  28.427  1.00  0.00    -0.248 NA
ATOM     62  C   UNL A   1      42.415  31.221  29.389  1.00  0.00     0.031 C 
ATOM     63  C   UNL A   1      48.290  31.421  27.852  1.00  0.00     0.029 A 
ATOM     64  C   UNL A   1      46.983  30.985  28.012  1.00  0.00     0.049 A 
ATOM     65  H   UNL A   1      46.163  29.083  27.625  1.00  0.00     0.167 HD
ATOM     66  C   UNL A   1      44.601  31.223  28.685  1.00  0.00     0.074 A 
ATOM     67  C   UNL A   1      43.495  31.979  29.241  1.00  0.00     0.031 C 
ATOM     68  C   UNL A   1      45.847  31.725  28.501  1.00  0.00     0.034 A 
BRANCH  55  69
ATOM     69  C   UNL A   1      49.956  27.669  26.260  1.00  0.00     0.023 A 
ATOM     70  C   UNL A   1      50.884  27.270  27.244  1.00  0.00     0.012 A 
ATOM     71  C   UNL A   1      50.373  27.751  24.916  1.00  0.00     0.148 A 
ATOM     72  C   UNL A   1      52.212  27.007  26.909  1.00  0.00     0.002 A 
ATOM     73  C   UNL A   1      51.688  27.442  24.583  1.00  0.00     0.091 A 
ATOM     74  F   UNL A   1      49.487  28.152  23.994  1.00  0.00    -0.205 F 
ATOM     75  C   UNL A   1      52.611  27.084  25.579  1.00  0.00     0.022 A 
BRANCH  73  76
ATOM     76  S   UNL A   1      52.283  27.435  22.887  1.00  0.00     0.127 S 
ATOM     77  O   UNL A   1      52.544  28.855  22.658  1.00  0.00    -0.237 OA
ATOM     78  O   UNL A   1      53.484  26.604  22.984  1.00  0.00    -0.237 OA
ATOM     79  O   UNL A   1      51.210  26.857  22.090  1.00  0.00    -0.744 OA
ENDBRANCH  73  76
ENDBRANCH  55  69
BRANCH  56  80
ATOM     80  C   UNL A   1      40.449  29.026  29.196  1.00  0.00     0.023 A 
ATOM     81  C   UNL A   1      39.434  29.290  28.255  1.00  0.00     0.012 A 
ATOM     82  C   UNL A   1      40.103  28.877  30.553  1.00  0.00     0.148 A 
ATOM     83  C   UNL A   1      38.105  29.425  28.658  1.00  0.00     0.002 A 
ATOM     84  C   UNL A   1      38.770  28.963  30.942  1.00  0.00     0.091 A 
ATOM     85  F   UNL A   1      41.083  28.636  31.436  1.00  0.00    -0.205 F 
ATOM     86  C   UNL A   1      37.771  29.250  29.998  1.00  0.00     0.022 A 
BRANCH  84  87
ATOM     87  S   UNL A   1      38.235  28.621  32.623  1.00  0.00     0.127 S 
ATOM     88  O   UNL A   1      36.892  29.195  32.632  1.00  0.00    -0.237 OA
ATOM     89  O   UNL A   1      38.279  27.158  32.667  1.00  0.00    -0.237 OA
ATOM     90  O   UNL A   1      39.213  29.274  33.482  1.00  0.00    -0.744 OA
ENDBRANCH  84  87
ENDBRANCH  56  80
BRANCH  68  91
ATOM     91  C   UNL A   1      46.076  33.164  28.869  1.00  0.00     0.023 A 
ATOM     92  C   UNL A   1      46.586  33.483  30.142  1.00  0.00     0.012 A 
ATOM     93  C   UNL A   1      45.868  34.187  27.926  1.00  0.00     0.148 A 
ATOM     94  C   UNL A   1      46.864  34.806  30.479  1.00  0.00     0.002 A 
ATOM     95  C   UNL A   1      46.189  35.499  28.254  1.00  0.00     0.091 A 
ATOM     96  F   UNL A   1      45.360  33.863  26.727  1.00  0.00    -0.205 F 
ATOM     97  C   UNL A   1      46.678  35.811  29.533  1.00  0.00     0.022 A 
BRANCH  95  98
ATOM     98  S   UNL A   1      46.068  36.838  27.063  1.00  0.00     0.127 S 
ATOM     99  O   UNL A   1      44.622  37.013  26.955  1.00  0.00    -0.237 OA
ATOM    100  O   UNL A   1      46.766  37.929  27.745  1.00  0.00    -0.237 OA
ATOM    101  O   UNL A   1      46.736  36.359  25.859  1.00  0.00    -0.744 OA
ENDBRANCH  95  98
ENDBRANCH  68  91
ENDBRANCH  42  43
ENDBRANCH  34  37
ENDBRANCH  32  33
ENDBRANCH  31  32
ENDBRANCH  30  31
ENDBRANCH   1  30
TORSDOF 20
ENDMDL
MODEL 3
REMARK VINA RESULT:     -10.7      3.158      8.642
REMARK SMILES COc1ccc(Cn2c(SCCC(=O)NCCCCNC(=O)c3ccc(-c4c5nc(c(-c6cccc(S(=O)(=O)[O-])c6F)c6ccc([nH]6)c(-c6cccc(S(=O)(=O)[O-])c6F)c6nc(c(-c7cccc(S(=O)(=O)[O-])c7F)c7ccc4[nH]7)C=C6)C=C5)cc3)nc3ccc(Cl)cc3c2=O)cc1
REMARK SMILES IDX 16 1 15 2 13 3 14 4 12 6 11 7 10 8 9 9 8 10 94 11 86 12
REMARK SMILES IDX 93 13 95 14 87 15 92 16 88 17 90 18 89 19 91 20 7 21 6 22
REMARK SMILES IDX 3 23 4 24 97 25 5 26 96 27 2 28 1 29 17 30 18 31 19 32 20 33
REMARK SMILES IDX 21 34 22 36 23 37 24 38 85 39 25 40 84 41 26 42 27 43 28 44
REMARK SMILES IDX 78 45 29 46 83 47 77 48 79 49 30 50 82 51 76 52 75 53 31 55
REMARK SMILES IDX 63 56 43 57 62 58 44 59 47 60 61 61 80 62 45 63 46 64 60 66
REMARK SMILES IDX 81 67 48 68 32 69 33 70 41 71 34 72 36 73 42 74 35 75 37 76
REMARK SMILES IDX 38 77 39 78 40 79 64 80 65 81 73 82 66 83 68 84 74 85 67 86
REMARK SMILES IDX 69 87 70 88 71 89 72 90 49 91 50 92 58 93 51 94 53 95 59 96
REMARK SMILES IDX 52 97 54 98 55 99 56 100 57 101
REMARK H PARENT 15 5 20 35 79 54 47 65
REMARK Flexibility Score: inf
ROOT
ATOM      1  C   UNL A   1      40.022  20.944  26.295  1.00  0.00     0.116 C 
ENDROOT
BRANCH   1   2
ATOM      2  N   UNL A   1      38.748  20.681  25.665  1.00  0.00    -0.356 N 
ATOM      3  C   UNL A   1      37.787  21.535  25.257  1.00  0.00     0.220 C 
ATOM      4  O   UNL A   1      36.869  21.096  24.561  1.00  0.00    -0.275 OA
ATOM      5  H   UNL A   1      38.552  19.729  25.507  1.00  0.00     0.163 HD
BRANCH   3   6
ATOM      6  C   UNL A   1      37.814  22.978  25.682  1.00  0.00     0.111 C 
BRANCH   6   7
ATOM      7  C   UNL A   1      36.413  23.367  26.107  1.00  0.00     0.088 C 
BRANCH   7   8
ATOM      8  S   UNL A   1      35.350  24.123  24.888  1.00  0.00    -0.087 SA
BRANCH   8   9
ATOM      9  C   UNL A   1      34.010  25.011  25.582  1.00  0.00     0.171 A 
ATOM     10  N   UNL A   1      32.788  24.413  25.848  1.00  0.00    -0.283 N 
ATOM     11  C   UNL A   1      31.621  25.157  25.663  1.00  0.00     0.262 A 
ATOM     12  N   UNL A   1      34.170  26.295  25.467  1.00  0.00    -0.224 NA
ATOM     13  C   UNL A   1      31.773  26.524  25.162  1.00  0.00     0.067 A 
ATOM     14  O   UNL A   1      30.484  24.775  25.918  1.00  0.00    -0.269 OA
ATOM     15  C   UNL A   1      33.033  27.095  25.297  1.00  0.00     0.079 A 
ATOM     16  C   UNL A   1      30.706  27.223  24.590  1.00  0.00     0.036 A 
ATOM     17  C   UNL A   1      33.182  28.452  25.003  1.00  0.00     0.031 A 
ATOM     18  C   UNL A   1      30.898  28.546  24.209  1.00  0.00     0.042 A 
ATOM     19  C   UNL A   1      32.114  29.179  24.465  1.00  0.00     0.023 A 
ATOM     20  Cl  UNL A   1      29.651  29.391  23.378  1.00  0.00    -0.084 Cl
BRANCH  10  21
ATOM     21  C   UNL A   1      32.610  23.118  26.525  1.00  0.00     0.163 C 
BRANCH  21  22
ATOM     22  C   UNL A   1      32.827  21.917  25.632  1.00  0.00    -0.028 A 
ATOM     23  C   UNL A   1      32.902  19.532  24.158  1.00  0.00     0.118 A 
ATOM     24  C   UNL A   1      33.666  19.657  25.311  1.00  0.00     0.047 A 
ATOM     25  C   UNL A   1      32.239  20.643  23.649  1.00  0.00     0.047 A 
ATOM     26  C   UNL A   1      33.628  20.843  26.044  1.00  0.00     0.009 A 
ATOM     27  C   UNL A   1      32.226  21.831  24.373  1.00  0.00     0.009 A 
BRANCH  23  28
ATOM     28  O   UNL A   1      32.862  18.296  23.574  1.00  0.00    -0.497 OA
ATOM     29  C   UNL A   1      32.284  18.319  22.269  1.00  0.00     0.278 C 
ENDBRANCH  23  28
ENDBRANCH  21  22
ENDBRANCH  10  21
ENDBRANCH   8   9
ENDBRANCH   7   8
ENDBRANCH   6   7
ENDBRANCH   3   6
ENDBRANCH   1   2
BRANCH   1  30
ATOM     30  C   UNL A   1      41.033  19.807  26.180  1.00  0.00     0.023 C 
BRANCH  30  31
ATOM     31  C   UNL A   1      42.507  20.210  26.285  1.00  0.00     0.023 C 
BRANCH  31  32
ATOM     32  C   UNL A   1      42.680  21.710  26.460  1.00  0.00     0.116 C 
BRANCH  32  33
ATOM     33  N   UNL A   1      43.461  22.357  25.423  1.00  0.00    -0.352 N 
ATOM     34  C   UNL A   1      43.812  23.688  25.315  1.00  0.00     0.251 C 
ATOM     35  H   UNL A   1      43.784  21.770  24.701  1.00  0.00     0.163 HD
ATOM     36  O   UNL A   1      44.416  24.077  24.328  1.00  0.00    -0.269 OA
BRANCH  34  37
ATOM     37  C   UNL A   1      43.406  24.648  26.376  1.00  0.00     0.039 A 
ATOM     38  C   UNL A   1      43.835  25.977  26.288  1.00  0.00     0.014 A 
ATOM     39  C   UNL A   1      42.608  24.255  27.449  1.00  0.00     0.014 A 
ATOM     40  C   UNL A   1      43.411  26.912  27.239  1.00  0.00     0.010 A 
ATOM     41  C   UNL A   1      42.088  25.203  28.317  1.00  0.00     0.010 A 
ATOM     42  C   UNL A   1      42.509  26.536  28.244  1.00  0.00    -0.014 A 
BRANCH  42  43
ATOM     43  C   UNL A   1      42.015  27.473  29.283  1.00  0.00     0.031 A 
ATOM     44  C   UNL A   1      42.755  27.560  30.594  1.00  0.00     0.074 A 
ATOM     45  C   UNL A   1      40.840  28.107  29.113  1.00  0.00     0.049 A 
ATOM     46  N   UNL A   1      42.393  28.122  31.716  1.00  0.00    -0.248 NA
ATOM     47  C   UNL A   1      44.052  26.862  30.669  1.00  0.00     0.031 C 
ATOM     48  C   UNL A   1      39.991  28.016  27.922  1.00  0.00     0.029 A 
ATOM     49  N   UNL A   1      40.133  28.919  29.963  1.00  0.00    -0.354 N 
ATOM     50  C   UNL A   1      43.370  27.777  32.644  1.00  0.00     0.074 A 
ATOM     51  C   UNL A   1      44.323  26.930  31.963  1.00  0.00     0.031 C 
ATOM     52  C   UNL A   1      38.880  28.744  28.117  1.00  0.00     0.029 A 
ATOM     53  C   UNL A   1      38.922  29.327  29.454  1.00  0.00     0.049 A 
ATOM     54  H   UNL A   1      40.461  29.185  30.852  1.00  0.00     0.167 HD
ATOM     55  C   UNL A   1      43.482  28.160  33.938  1.00  0.00     0.034 A 
ATOM     56  C   UNL A   1      37.956  30.084  30.010  1.00  0.00     0.034 A 
ATOM     57  C   UNL A   1      42.584  29.091  34.563  1.00  0.00     0.049 A 
ATOM     58  C   UNL A   1      38.177  30.618  31.399  1.00  0.00     0.074 A 
ATOM     59  C   UNL A   1      42.658  29.650  35.825  1.00  0.00     0.029 A 
ATOM     60  N   UNL A   1      41.455  29.620  33.953  1.00  0.00    -0.354 N 
ATOM     61  N   UNL A   1      39.174  30.390  32.220  1.00  0.00    -0.248 NA
ATOM     62  C   UNL A   1      37.164  31.545  31.925  1.00  0.00     0.031 C 
ATOM     63  C   UNL A   1      41.576  30.525  35.975  1.00  0.00     0.029 A 
ATOM     64  C   UNL A   1      40.833  30.515  34.805  1.00  0.00     0.049 A 
ATOM     65  H   UNL A   1      41.143  29.392  33.048  1.00  0.00     0.167 HD
ATOM     66  C   UNL A   1      38.928  31.167  33.345  1.00  0.00     0.074 A 
ATOM     67  C   UNL A   1      37.697  31.889  33.090  1.00  0.00     0.031 C 
ATOM     68  C   UNL A   1      39.642  31.264  34.494  1.00  0.00     0.034 A 
BRANCH  55  69
ATOM     69  C   UNL A   1      44.656  27.637  34.729  1.00  0.00     0.023 A 
ATOM     70  C   UNL A   1      44.516  26.449  35.476  1.00  0.00     0.012 A 
ATOM     71  C   UNL A   1      45.901  28.297  34.716  1.00  0.00     0.148 A 
ATOM     72  C   UNL A   1      45.576  25.953  36.235  1.00  0.00     0.002 A 
ATOM     73  C   UNL A   1      46.968  27.772  35.439  1.00  0.00     0.091 A 
ATOM     74  F   UNL A   1      46.015  29.436  34.019  1.00  0.00    -0.205 F 
ATOM     75  C   UNL A   1      46.803  26.609  36.210  1.00  0.00     0.022 A 
BRANCH  73  76
ATOM     76  S   UNL A   1      48.612  28.497  35.409  1.00  0.00     0.127 S 
ATOM     77  O   UNL A   1      49.343  27.610  36.313  1.00  0.00    -0.237 OA
ATOM     78  O   UNL A   1      48.982  28.368  33.999  1.00  0.00    -0.237 OA
ATOM     79  O   UNL A   1      48.451  29.869  35.870  1.00  0.00    -0.744 OA
ENDBRANCH  73  76
ENDBRANCH  55  69
BRANCH  56  80
ATOM     80  C   UNL A   1      36.759  30.462  29.208  1.00  0.00     0.023 A 
ATOM     81  C   UNL A   1      35.948  29.442  28.671  1.00  0.00     0.012 A 
ATOM     82  C   UNL A   1      36.378  31.807  29.027  1.00  0.00     0.148 A 
ATOM     83  C   UNL A   1      34.794  29.752  27.951  1.00  0.00     0.002 A 
ATOM     84  C   UNL A   1      35.200  32.107  28.350  1.00  0.00     0.091 A 
ATOM     85  F   UNL A   1      37.166  32.765  29.536  1.00  0.00    -0.205 F 
ATOM     86  C   UNL A   1      34.413  31.083  27.800  1.00  0.00     0.022 A 
BRANCH  84  87
ATOM     87  S   UNL A   1      34.565  33.784  28.224  1.00  0.00     0.127 S 
ATOM     88  O   UNL A   1      35.436  34.357  27.200  1.00  0.00    -0.237 OA
ATOM     89  O   UNL A   1      33.183  33.557  27.800  1.00  0.00    -0.237 OA
ATOM     90  O   UNL A   1      34.695  34.349  29.560  1.00  0.00    -0.744 OA
ENDBRANCH  84  87
ENDBRANCH  56  80
BRANCH  68  91
ATOM     91  C   UNL A   1      39.132  32.204  35.550  1.00  0.00     0.023 A 
ATOM     92  C   UNL A   1      38.197  31.744  36.497  1.00  0.00     0.012 A 
ATOM     93  C   UNL A   1      39.643  33.511  35.654  1.00  0.00     0.148 A 
ATOM     94  C   UNL A   1      37.760  32.581  37.521  1.00  0.00     0.002 A 
ATOM     95  C   UNL A   1      39.235  34.326  36.702  1.00  0.00     0.091 A 
ATOM     96  F   UNL A   1      40.515  33.935  34.727  1.00  0.00    -0.205 F 
ATOM     97  C   UNL A   1      38.287  33.866  37.631  1.00  0.00     0.022 A 
BRANCH  95  98
ATOM     98  S   UNL A   1      39.936  35.958  36.972  1.00  0.00     0.127 S 
ATOM     99  O   UNL A   1      39.155  36.433  38.112  1.00  0.00    -0.237 OA
ATOM    100  O   UNL A   1      41.335  35.654  37.274  1.00  0.00    -0.237 OA
ATOM    101  O   UNL A   1      39.736  36.685  35.725  1.00  0.00    -0.744 OA
ENDBRANCH  95  98
ENDBRANCH  68  91
ENDBRANCH  42  43
ENDBRANCH  34  37
ENDBRANCH  32  33
ENDBRANCH  31  32
ENDBRANCH  30  31
ENDBRANCH   1  30
TORSDOF 20
ENDMDL
