MODEL 1
REMARK VINA RESULT:     -12.9      0.000      0.000
REMARK SMILES O=C(NCCCCNC(=O)[C@H]1C[N@H+](Cc2ccc(Cl)c(Cl)c2)CC12CCCCC2)c1ccc(-c2c3nc(c(-c4cccc(S(=O)(=O)[O-])c4F)c4ccc([nH]4)c(-c4cccc(S(=O)(=O)[O-])c4F)c4nc(c(-c5cccc(S(=O)(=O)[O-])c5F)c5ccc2[nH]5)C=C4)C=C3)cc1
REMARK SMILES IDX 5 1 4 2 3 3 1 4 2 5 30 7 31 8 92 9 32 10 91 11 33 12 34 13
REMARK SMILES IDX 35 14 85 15 36 16 90 17 84 18 86 19 37 20 89 21 83 22 82 23
REMARK SMILES IDX 38 25 70 26 50 27 69 28 51 29 54 30 68 31 87 32 52 33 53 34
REMARK SMILES IDX 67 36 88 37 55 38 39 39 40 40 48 41 41 42 43 43 49 44 42 45
REMARK SMILES IDX 44 46 45 47 46 48 47 49 71 50 72 51 80 52 73 53 75 54 81 55
REMARK SMILES IDX 74 56 76 57 77 58 78 59 79 60 56 61 57 62 65 63 58 64 60 65
REMARK SMILES IDX 66 66 59 67 61 68 62 69 63 70 64 71 6 72 7 73 8 74 9 75
REMARK SMILES IDX 10 77 11 78 12 79 24 80 13 81 23 82 25 83 29 84 26 86 28 87
REMARK SMILES IDX 27 88 14 89 15 90 16 91 22 92 17 93 20 94 18 95 21 96 19 97
REMARK H PARENT 3 6 86 24 54 35 8 76 13 85
REMARK Flexibility Score: inf
ROOT
ATOM      1  C   UNL A   1      31.754  29.191  26.338  1.00  0.00     0.023 C 
ENDROOT
BRANCH   1   2
ATOM      2  C   UNL A   1      32.891  30.172  26.151  1.00  0.00     0.116 C 
BRANCH   2   3
ATOM      3  N   UNL A   1      32.537  31.540  26.501  1.00  0.00    -0.352 N 
ATOM      4  O   UNL A   1      32.763  33.487  27.634  1.00  0.00    -0.269 OA
ATOM      5  C   UNL A   1      33.231  32.397  27.326  1.00  0.00     0.251 C 
ATOM      6  H   UNL A   1      31.708  31.893  26.104  1.00  0.00     0.163 HD
BRANCH   5   7
ATOM      7  C   UNL A   1      34.530  31.943  27.862  1.00  0.00     0.039 A 
ATOM      8  C   UNL A   1      34.649  30.643  28.358  1.00  0.00     0.014 A 
ATOM      9  C   UNL A   1      35.591  32.843  27.965  1.00  0.00     0.014 A 
ATOM     10  C   UNL A   1      35.757  30.303  29.115  1.00  0.00     0.010 A 
ATOM     11  C   UNL A   1      36.759  32.456  28.631  1.00  0.00     0.010 A 
ATOM     12  C   UNL A   1      36.836  31.195  29.243  1.00  0.00    -0.014 A 
BRANCH  12  13
ATOM     13  C   UNL A   1      38.055  30.724  29.945  1.00  0.00     0.031 A 
ATOM     14  C   UNL A   1      38.349  31.093  31.372  1.00  0.00     0.074 A 
ATOM     15  C   UNL A   1      38.880  29.896  29.271  1.00  0.00     0.049 A 
ATOM     16  N   UNL A   1      39.330  30.681  32.134  1.00  0.00    -0.248 NA
ATOM     17  C   UNL A   1      37.443  32.048  32.028  1.00  0.00     0.031 C 
ATOM     18  C   UNL A   1      38.719  29.523  27.862  1.00  0.00     0.029 A 
ATOM     19  N   UNL A   1      39.991  29.204  29.672  1.00  0.00    -0.354 N 
ATOM     20  C   UNL A   1      39.185  31.351  33.344  1.00  0.00     0.074 A 
ATOM     21  C   UNL A   1      38.022  32.202  33.213  1.00  0.00     0.031 C 
ATOM     22  C   UNL A   1      39.657  28.626  27.533  1.00  0.00     0.029 A 
ATOM     23  C   UNL A   1      40.522  28.407  28.686  1.00  0.00     0.049 A 
ATOM     24  H   UNL A   1      40.371  29.270  30.578  1.00  0.00     0.167 HD
ATOM     25  C   UNL A   1      39.943  31.248  34.463  1.00  0.00     0.034 A 
ATOM     26  C   UNL A   1      41.591  27.590  28.700  1.00  0.00     0.034 A 
ATOM     27  C   UNL A   1      41.075  30.368  34.593  1.00  0.00     0.049 A 
ATOM     28  C   UNL A   1      42.365  27.445  29.976  1.00  0.00     0.074 A 
ATOM     29  C   UNL A   1      41.891  30.169  35.694  1.00  0.00     0.029 A 
ATOM     30  N   UNL A   1      41.551  29.533  33.591  1.00  0.00    -0.354 N 
ATOM     31  N   UNL A   1      42.145  28.009  31.138  1.00  0.00    -0.248 NA
ATOM     32  C   UNL A   1      43.516  26.536  29.951  1.00  0.00     0.031 C 
ATOM     33  C   UNL A   1      42.860  29.217  35.358  1.00  0.00     0.029 A 
ATOM     34  C   UNL A   1      42.644  28.815  34.049  1.00  0.00     0.049 A 
ATOM     35  H   UNL A   1      41.168  29.462  32.687  1.00  0.00     0.167 HD
ATOM     36  C   UNL A   1      43.130  27.524  31.987  1.00  0.00     0.074 A 
ATOM     37  C   UNL A   1      43.915  26.580  31.215  1.00  0.00     0.031 C 
ATOM     38  C   UNL A   1      43.386  27.854  33.276  1.00  0.00     0.034 A 
BRANCH  25  39
ATOM     39  C   UNL A   1      39.544  32.067  35.663  1.00  0.00     0.023 A 
ATOM     40  C   UNL A   1      39.969  33.408  35.753  1.00  0.00     0.012 A 
ATOM     41  C   UNL A   1      38.685  31.548  36.653  1.00  0.00     0.148 A 
ATOM     42  C   UNL A   1      39.563  34.214  36.817  1.00  0.00     0.002 A 
ATOM     43  C   UNL A   1      38.256  32.367  37.692  1.00  0.00     0.091 A 
ATOM     44  F   UNL A   1      38.308  30.265  36.562  1.00  0.00    -0.205 F 
ATOM     45  C   UNL A   1      38.699  33.698  37.778  1.00  0.00     0.022 A 
BRANCH  43  46
ATOM     46  S   UNL A   1      37.089  31.818  38.944  1.00  0.00     0.127 S 
ATOM     47  O   UNL A   1      36.843  30.437  38.533  1.00  0.00    -0.237 OA
ATOM     48  O   UNL A   1      37.868  31.957  40.175  1.00  0.00    -0.237 OA
ATOM     49  O   UNL A   1      35.946  32.714  38.845  1.00  0.00    -0.744 OA
ENDBRANCH  43  46
ENDBRANCH  25  39
BRANCH  26  50
ATOM     50  C   UNL A   1      41.944  26.823  27.474  1.00  0.00     0.023 A 
ATOM     51  C   UNL A   1      42.632  27.463  26.425  1.00  0.00     0.012 A 
ATOM     52  C   UNL A   1      41.674  25.444  27.377  1.00  0.00     0.148 A 
ATOM     53  C   UNL A   1      43.026  26.744  25.295  1.00  0.00     0.002 A 
ATOM     54  C   UNL A   1      42.130  24.723  26.281  1.00  0.00     0.091 A 
ATOM     55  F   UNL A   1      41.000  24.853  28.374  1.00  0.00    -0.205 F 
ATOM     56  C   UNL A   1      42.791  25.373  25.230  1.00  0.00     0.022 A 
BRANCH  54  57
ATOM     57  S   UNL A   1      42.012  22.931  26.232  1.00  0.00     0.127 S 
ATOM     58  O   UNL A   1      42.617  22.624  24.939  1.00  0.00    -0.237 OA
ATOM     59  O   UNL A   1      42.805  22.531  27.395  1.00  0.00    -0.237 OA
ATOM     60  O   UNL A   1      40.588  22.647  26.363  1.00  0.00    -0.744 OA
ENDBRANCH  54  57
ENDBRANCH  26  50
BRANCH  38  61
ATOM     61  C   UNL A   1      44.574  27.194  33.921  1.00  0.00     0.023 A 
ATOM     62  C   UNL A   1      45.848  27.783  33.784  1.00  0.00     0.012 A 
ATOM     63  C   UNL A   1      44.430  26.021  34.685  1.00  0.00     0.148 A 
ATOM     64  C   UNL A   1      46.967  27.192  34.366  1.00  0.00     0.002 A 
ATOM     65  C   UNL A   1      45.546  25.461  35.297  1.00  0.00     0.091 A 
ATOM     66  F   UNL A   1      43.215  25.462  34.783  1.00  0.00    -0.205 F 
ATOM     67  C   UNL A   1      46.815  26.037  35.130  1.00  0.00     0.022 A 
BRANCH  65  68
ATOM     68  S   UNL A   1      45.419  24.019  36.361  1.00  0.00     0.127 S 
ATOM     69  O   UNL A   1      46.824  23.706  36.609  1.00  0.00    -0.237 OA
ATOM     70  O   UNL A   1      44.696  24.544  37.522  1.00  0.00    -0.237 OA
ATOM     71  O   UNL A   1      44.675  23.030  35.592  1.00  0.00    -0.744 OA
ENDBRANCH  65  68
ENDBRANCH  38  61
ENDBRANCH  12  13
ENDBRANCH   5   7
ENDBRANCH   2   3
ENDBRANCH   1   2
BRANCH   1  72
ATOM     72  C   UNL A   1      31.926  28.252  27.522  1.00  0.00     0.023 C 
BRANCH  72  73
ATOM     73  C   UNL A   1      31.830  26.763  27.195  1.00  0.00     0.116 C 
BRANCH  73  74
ATOM     74  N   UNL A   1      30.530  26.407  26.663  1.00  0.00    -0.356 N 
ATOM     75  C   UNL A   1      30.199  25.767  25.504  1.00  0.00     0.229 C 
ATOM     76  H   UNL A   1      29.765  26.669  27.225  1.00  0.00     0.163 HD
ATOM     77  O   UNL A   1      29.004  25.583  25.275  1.00  0.00    -0.275 OA
BRANCH  75  78
ATOM     78  C   UNL A   1      31.297  25.307  24.550  1.00  0.00     0.145 C 
ATOM     79  C   UNL A   1      30.818  24.086  23.763  1.00  0.00     0.276 C 
ATOM     80  C   UNL A   1      31.792  26.308  23.461  1.00  0.00     0.037 C 
ATOM     81  N   UNL A   1      31.661  24.029  22.576  1.00  0.00    -0.330 N 
ATOM     82  C   UNL A   1      31.899  25.418  22.183  1.00  0.00     0.270 C 
ATOM     83  C   UNL A   1      30.807  27.486  23.248  1.00  0.00     0.014 C 
ATOM     84  C   UNL A   1      33.194  26.864  23.811  1.00  0.00     0.014 C 
ATOM     85  H   UNL A   1      31.177  23.547  21.818  1.00  0.00     0.348 HD
ATOM     86  C   UNL A   1      31.334  28.581  22.320  1.00  0.00     0.001 C 
ATOM     87  C   UNL A   1      33.698  27.954  22.872  1.00  0.00     0.001 C 
ATOM     88  C   UNL A   1      32.698  29.094  22.764  1.00  0.00     0.000 C 
BRANCH  81  89
ATOM     89  C   UNL A   1      32.798  23.104  22.599  1.00  0.00     0.299 C 
BRANCH  89  90
ATOM     90  C   UNL A   1      32.664  21.813  23.382  1.00  0.00     0.008 A 
ATOM     91  C   UNL A   1      32.872  21.778  24.769  1.00  0.00     0.011 A 
ATOM     92  C   UNL A   1      32.361  20.609  22.723  1.00  0.00     0.031 A 
ATOM     93  C   UNL A   1      32.896  20.562  25.459  1.00  0.00     0.022 A 
ATOM     94  C   UNL A   1      32.372  19.389  23.412  1.00  0.00     0.060 A 
ATOM     95  C   UNL A   1      32.667  19.364  24.778  1.00  0.00     0.059 A 
ATOM     96  Cl  UNL A   1      32.083  17.949  22.502  1.00  0.00    -0.083 Cl
ATOM     97  Cl  UNL A   1      32.795  17.894  25.675  1.00  0.00    -0.083 Cl
ENDBRANCH  89  90
ENDBRANCH  81  89
ENDBRANCH  75  78
ENDBRANCH  73  74
ENDBRANCH  72  73
ENDBRANCH   1  72
TORSDOF 16
ENDMDL
MODEL 2
REMARK VINA RESULT:     -12.8      1.394      1.747
REMARK SMILES O=C(NCCCCNC(=O)[C@H]1C[N@H+](Cc2ccc(Cl)c(Cl)c2)CC12CCCCC2)c1ccc(-c2c3nc(c(-c4cccc(S(=O)(=O)[O-])c4F)c4ccc([nH]4)c(-c4cccc(S(=O)(=O)[O-])c4F)c4nc(c(-c5cccc(S(=O)(=O)[O-])c5F)c5ccc2[nH]5)C=C4)C=C3)cc1
REMARK SMILES IDX 5 1 4 2 3 3 1 4 2 5 30 7 31 8 92 9 32 10 91 11 33 12 34 13
REMARK SMILES IDX 35 14 85 15 36 16 90 17 84 18 86 19 37 20 89 21 83 22 82 23
REMARK SMILES IDX 38 25 70 26 50 27 69 28 51 29 54 30 68 31 87 32 52 33 53 34
REMARK SMILES IDX 67 36 88 37 55 38 39 39 40 40 48 41 41 42 43 43 49 44 42 45
REMARK SMILES IDX 44 46 45 47 46 48 47 49 71 50 72 51 80 52 73 53 75 54 81 55
REMARK SMILES IDX 74 56 76 57 77 58 78 59 79 60 56 61 57 62 65 63 58 64 60 65
REMARK SMILES IDX 66 66 59 67 61 68 62 69 63 70 64 71 6 72 7 73 8 74 9 75
REMARK SMILES IDX 10 77 11 78 12 79 24 80 13 81 23 82 25 83 29 84 26 86 28 87
REMARK SMILES IDX 27 88 14 89 15 90 16 91 22 92 17 93 20 94 18 95 21 96 19 97
REMARK H PARENT 3 6 86 24 54 35 8 76 13 85
REMARK Flexibility Score: inf
ROOT
ATOM      1  C   UNL A   1      31.743  29.217  26.195  1.00  0.00     0.023 C 
ENDROOT
BRANCH   1   2
ATOM      2  C   UNL A   1      32.802  30.277  25.981  1.00  0.00     0.116 C 
BRANCH   2   3
ATOM      3  N   UNL A   1      32.382  31.606  26.401  1.00  0.00    -0.352 N 
ATOM      4  O   UNL A   1      32.499  33.492  27.649  1.00  0.00    -0.269 OA
ATOM      5  C   UNL A   1      33.021  32.441  27.290  1.00  0.00     0.251 C 
ATOM      6  H   UNL A   1      31.548  31.947  26.005  1.00  0.00     0.163 HD
BRANCH   5   7
ATOM      7  C   UNL A   1      34.326  32.011  27.830  1.00  0.00     0.039 A 
ATOM      8  C   UNL A   1      34.470  30.709  28.313  1.00  0.00     0.014 A 
ATOM      9  C   UNL A   1      35.365  32.934  27.952  1.00  0.00     0.014 A 
ATOM     10  C   UNL A   1      35.581  30.386  29.075  1.00  0.00     0.010 A 
ATOM     11  C   UNL A   1      36.537  32.566  28.621  1.00  0.00     0.010 A 
ATOM     12  C   UNL A   1      36.638  31.301  29.220  1.00  0.00    -0.014 A 
BRANCH  12  13
ATOM     13  C   UNL A   1      37.863  30.849  29.926  1.00  0.00     0.031 A 
ATOM     14  C   UNL A   1      38.165  31.254  31.341  1.00  0.00     0.074 A 
ATOM     15  C   UNL A   1      38.685  30.007  29.268  1.00  0.00     0.049 A 
ATOM     16  N   UNL A   1      39.152  30.864  32.108  1.00  0.00    -0.248 NA
ATOM     17  C   UNL A   1      37.261  32.224  31.979  1.00  0.00     0.031 C 
ATOM     18  C   UNL A   1      38.516  29.598  27.869  1.00  0.00     0.029 A 
ATOM     19  N   UNL A   1      39.800  29.326  29.679  1.00  0.00    -0.354 N 
ATOM     20  C   UNL A   1      39.013  31.563  33.301  1.00  0.00     0.074 A 
ATOM     21  C   UNL A   1      37.847  32.408  33.157  1.00  0.00     0.031 C 
ATOM     22  C   UNL A   1      39.454  28.695  27.558  1.00  0.00     0.029 A 
ATOM     23  C   UNL A   1      40.327  28.506  28.709  1.00  0.00     0.049 A 
ATOM     24  H   UNL A   1      40.185  29.416  30.581  1.00  0.00     0.167 HD
ATOM     25  C   UNL A   1      39.778  31.489  34.417  1.00  0.00     0.034 A 
ATOM     26  C   UNL A   1      41.397  27.692  28.738  1.00  0.00     0.034 A 
ATOM     27  C   UNL A   1      40.913  30.615  34.562  1.00  0.00     0.049 A 
ATOM     28  C   UNL A   1      42.180  27.581  30.011  1.00  0.00     0.074 A 
ATOM     29  C   UNL A   1      41.736  30.446  35.662  1.00  0.00     0.029 A 
ATOM     30  N   UNL A   1      41.384  29.756  33.579  1.00  0.00    -0.354 N 
ATOM     31  N   UNL A   1      41.966  28.173  31.161  1.00  0.00    -0.248 NA
ATOM     32  C   UNL A   1      43.332  26.673  30.002  1.00  0.00     0.031 C 
ATOM     33  C   UNL A   1      42.704  29.487  35.344  1.00  0.00     0.029 A 
ATOM     34  C   UNL A   1      42.481  29.052  34.047  1.00  0.00     0.049 A 
ATOM     35  H   UNL A   1      40.995  29.662  32.679  1.00  0.00     0.167 HD
ATOM     36  C   UNL A   1      42.957  27.711  32.015  1.00  0.00     0.074 A 
ATOM     37  C   UNL A   1      43.739  26.749  31.262  1.00  0.00     0.031 C 
ATOM     38  C   UNL A   1      43.220  28.073  33.293  1.00  0.00     0.034 A 
BRANCH  25  39
ATOM     39  C   UNL A   1      39.385  32.337  35.599  1.00  0.00     0.023 A 
ATOM     40  C   UNL A   1      38.588  31.773  36.617  1.00  0.00     0.012 A 
ATOM     41  C   UNL A   1      39.867  33.653  35.751  1.00  0.00     0.148 A 
ATOM     42  C   UNL A   1      38.262  32.509  37.756  1.00  0.00     0.002 A 
ATOM     43  C   UNL A   1      39.567  34.369  36.905  1.00  0.00     0.091 A 
ATOM     44  F   UNL A   1      40.605  34.180  34.764  1.00  0.00    -0.205 F 
ATOM     45  C   UNL A   1      38.759  33.800  37.905  1.00  0.00     0.022 A 
BRANCH  43  46
ATOM     46  S   UNL A   1      40.215  36.015  37.224  1.00  0.00     0.127 S 
ATOM     47  O   UNL A   1      39.552  36.354  38.482  1.00  0.00    -0.237 OA
ATOM     48  O   UNL A   1      41.651  35.764  37.341  1.00  0.00    -0.237 OA
ATOM     49  O   UNL A   1      39.832  36.824  36.076  1.00  0.00    -0.744 OA
ENDBRANCH  43  46
ENDBRANCH  25  39
BRANCH  26  50
ATOM     50  C   UNL A   1      41.744  26.895  27.529  1.00  0.00     0.023 A 
ATOM     51  C   UNL A   1      42.405  27.514  26.452  1.00  0.00     0.012 A 
ATOM     52  C   UNL A   1      41.494  25.510  27.475  1.00  0.00     0.148 A 
ATOM     53  C   UNL A   1      42.794  26.770  25.337  1.00  0.00     0.002 A 
ATOM     54  C   UNL A   1      41.945  24.764  26.394  1.00  0.00     0.091 A 
ATOM     55  F   UNL A   1      40.844  24.938  28.499  1.00  0.00    -0.205 F 
ATOM     56  C   UNL A   1      42.581  25.393  25.314  1.00  0.00     0.022 A 
BRANCH  54  57
ATOM     57  S   UNL A   1      41.855  22.970  26.398  1.00  0.00     0.127 S 
ATOM     58  O   UNL A   1      42.476  22.633  25.121  1.00  0.00    -0.237 OA
ATOM     59  O   UNL A   1      42.644  22.618  27.580  1.00  0.00    -0.237 OA
ATOM     60  O   UNL A   1      40.435  22.668  26.527  1.00  0.00    -0.744 OA
ENDBRANCH  54  57
ENDBRANCH  26  50
BRANCH  38  61
ATOM     61  C   UNL A   1      44.413  27.432  33.948  1.00  0.00     0.023 A 
ATOM     62  C   UNL A   1      45.687  28.012  33.777  1.00  0.00     0.012 A 
ATOM     63  C   UNL A   1      44.276  26.286  34.751  1.00  0.00     0.148 A 
ATOM     64  C   UNL A   1      46.812  27.438  34.366  1.00  0.00     0.002 A 
ATOM     65  C   UNL A   1      45.396  25.743  35.370  1.00  0.00     0.091 A 
ATOM     66  F   UNL A   1      43.061  25.733  34.881  1.00  0.00    -0.205 F 
ATOM     67  C   UNL A   1      46.665  26.310  35.170  1.00  0.00     0.022 A 
BRANCH  65  68
ATOM     68  S   UNL A   1      45.278  24.338  36.482  1.00  0.00     0.127 S 
ATOM     69  O   UNL A   1      44.407  24.859  37.533  1.00  0.00    -0.237 OA
ATOM     70  O   UNL A   1      44.665  23.313  35.634  1.00  0.00    -0.237 OA
ATOM     71  O   UNL A   1      46.647  24.039  36.883  1.00  0.00    -0.744 OA
ENDBRANCH  65  68
ENDBRANCH  38  61
ENDBRANCH  12  13
ENDBRANCH   5   7
ENDBRANCH   2   3
ENDBRANCH   1   2
BRANCH   1  72
ATOM     72  C   UNL A   1      32.011  28.291  27.370  1.00  0.00     0.023 C 
BRANCH  72  73
ATOM     73  C   UNL A   1      31.980  26.798  27.047  1.00  0.00     0.116 C 
BRANCH  73  74
ATOM     74  N   UNL A   1      30.664  26.363  26.622  1.00  0.00    -0.356 N 
ATOM     75  C   UNL A   1      30.275  25.729  25.479  1.00  0.00     0.229 C 
ATOM     76  H   UNL A   1      29.938  26.555  27.258  1.00  0.00     0.163 HD
ATOM     77  O   UNL A   1      29.079  25.464  25.352  1.00  0.00    -0.275 OA
BRANCH  75  78
ATOM     78  C   UNL A   1      31.310  25.372  24.417  1.00  0.00     0.145 C 
ATOM     79  C   UNL A   1      30.858  24.126  23.653  1.00  0.00     0.276 C 
ATOM     80  C   UNL A   1      31.618  26.425  23.307  1.00  0.00     0.037 C 
ATOM     81  N   UNL A   1      31.587  24.154  22.391  1.00  0.00    -0.330 N 
ATOM     82  C   UNL A   1      31.674  25.563  22.007  1.00  0.00     0.270 C 
ATOM     83  C   UNL A   1      30.526  27.521  23.212  1.00  0.00     0.014 C 
ATOM     84  C   UNL A   1      32.998  27.089  23.536  1.00  0.00     0.014 C 
ATOM     85  H   UNL A   1      31.073  23.644  21.672  1.00  0.00     0.348 HD
ATOM     86  C   UNL A   1      30.874  28.667  22.261  1.00  0.00     0.001 C 
ATOM     87  C   UNL A   1      33.321  28.229  22.576  1.00  0.00     0.001 C 
ATOM     88  C   UNL A   1      32.228  29.284  22.586  1.00  0.00     0.000 C 
BRANCH  81  89
ATOM     89  C   UNL A   1      32.791  23.325  22.289  1.00  0.00     0.299 C 
BRANCH  89  90
ATOM     90  C   UNL A   1      32.894  22.088  23.159  1.00  0.00     0.008 A 
ATOM     91  C   UNL A   1      32.336  20.866  22.756  1.00  0.00     0.011 A 
ATOM     92  C   UNL A   1      33.528  22.151  24.412  1.00  0.00     0.031 A 
ATOM     93  C   UNL A   1      32.303  19.773  23.627  1.00  0.00     0.022 A 
ATOM     94  C   UNL A   1      33.507  21.055  25.284  1.00  0.00     0.060 A 
ATOM     95  C   UNL A   1      32.870  19.871  24.900  1.00  0.00     0.059 A 
ATOM     96  Cl  UNL A   1      34.226  21.254  26.843  1.00  0.00    -0.083 Cl
ATOM     97  Cl  UNL A   1      32.719  18.512  25.954  1.00  0.00    -0.083 Cl
ENDBRANCH  89  90
ENDBRANCH  81  89
ENDBRANCH  75  78
ENDBRANCH  73  74
ENDBRANCH  72  73
ENDBRANCH   1  72
TORSDOF 16
ENDMDL
MODEL 3
REMARK VINA RESULT:     -12.3      2.374      3.062
REMARK SMILES O=C(NCCCCNC(=O)[C@H]1C[N@H+](Cc2ccc(Cl)c(Cl)c2)CC12CCCCC2)c1ccc(-c2c3nc(c(-c4cccc(S(=O)(=O)[O-])c4F)c4ccc([nH]4)c(-c4cccc(S(=O)(=O)[O-])c4F)c4nc(c(-c5cccc(S(=O)(=O)[O-])c5F)c5ccc2[nH]5)C=C4)C=C3)cc1
REMARK SMILES IDX 5 1 4 2 3 3 1 4 2 5 30 7 31 8 92 9 32 10 91 11 33 12 34 13
REMARK SMILES IDX 35 14 85 15 36 16 90 17 84 18 86 19 37 20 89 21 83 22 82 23
REMARK SMILES IDX 38 25 70 26 50 27 69 28 51 29 54 30 68 31 87 32 52 33 53 34
REMARK SMILES IDX 67 36 88 37 55 38 39 39 40 40 48 41 41 42 43 43 49 44 42 45
REMARK SMILES IDX 44 46 45 47 46 48 47 49 71 50 72 51 80 52 73 53 75 54 81 55
REMARK SMILES IDX 74 56 76 57 77 58 78 59 79 60 56 61 57 62 65 63 58 64 60 65
REMARK SMILES IDX 66 66 59 67 61 68 62 69 63 70 64 71 6 72 7 73 8 74 9 75
REMARK SMILES IDX 10 77 11 78 12 79 24 80 13 81 23 82 25 83 29 84 26 86 28 87
REMARK SMILES IDX 27 88 14 89 15 90 16 91 22 92 17 93 20 94 18 95 21 96 19 97
REMARK H PARENT 3 6 86 24 54 35 8 76 13 85
REMARK Flexibility Score: inf
ROOT
ATOM      1  C   UNL A   1      31.871  31.917  27.192  1.00  0.00     0.023 C 
ENDROOT
BRANCH   1   2
ATOM      2  C   UNL A   1      33.035  32.822  27.535  1.00  0.00     0.116 C 
BRANCH   2   3
ATOM      3  N   UNL A   1      32.634  34.190  27.832  1.00  0.00    -0.352 N 
ATOM      4  O   UNL A   1      32.652  36.117  29.021  1.00  0.00    -0.269 OA
ATOM      5  C   UNL A   1      33.160  35.023  28.793  1.00  0.00     0.251 C 
ATOM      6  H   UNL A   1      31.906  34.561  27.283  1.00  0.00     0.163 HD
BRANCH   5   7
ATOM      7  C   UNL A   1      34.319  34.542  29.570  1.00  0.00     0.039 A 
ATOM      8  C   UNL A   1      35.607  34.731  29.063  1.00  0.00     0.014 A 
ATOM      9  C   UNL A   1      34.116  33.812  30.742  1.00  0.00     0.014 A 
ATOM     10  C   UNL A   1      36.667  34.041  29.627  1.00  0.00     0.010 A 
ATOM     11  C   UNL A   1      35.208  33.212  31.376  1.00  0.00     0.010 A 
ATOM     12  C   UNL A   1      36.487  33.291  30.803  1.00  0.00    -0.014 A 
BRANCH  12  13
ATOM     13  C   UNL A   1      37.685  32.691  31.441  1.00  0.00     0.031 A 
ATOM     14  C   UNL A   1      38.186  33.143  32.784  1.00  0.00     0.074 A 
ATOM     15  C   UNL A   1      38.291  31.675  30.793  1.00  0.00     0.049 A 
ATOM     16  N   UNL A   1      39.166  32.648  33.496  1.00  0.00    -0.248 NA
ATOM     17  C   UNL A   1      37.519  34.296  33.406  1.00  0.00     0.031 C 
ATOM     18  C   UNL A   1      37.922  31.199  29.456  1.00  0.00     0.029 A 
ATOM     19  N   UNL A   1      39.315  30.847  31.169  1.00  0.00    -0.354 N 
ATOM     20  C   UNL A   1      39.259  33.446  34.630  1.00  0.00     0.074 A 
ATOM     21  C   UNL A   1      38.238  34.465  34.509  1.00  0.00     0.031 C 
ATOM     22  C   UNL A   1      38.666  30.129  29.148  1.00  0.00     0.029 A 
ATOM     23  C   UNL A   1      39.605  29.880  30.235  1.00  0.00     0.049 A 
ATOM     24  H   UNL A   1      39.797  30.937  32.023  1.00  0.00     0.167 HD
ATOM     25  C   UNL A   1      40.107  33.326  35.681  1.00  0.00     0.034 A 
ATOM     26  C   UNL A   1      40.526  28.900  30.246  1.00  0.00     0.034 A 
ATOM     27  C   UNL A   1      41.094  32.285  35.806  1.00  0.00     0.049 A 
ATOM     28  C   UNL A   1      41.400  28.751  31.454  1.00  0.00     0.074 A 
ATOM     29  C   UNL A   1      41.982  32.060  36.845  1.00  0.00     0.029 A 
ATOM     30  N   UNL A   1      41.321  31.288  34.868  1.00  0.00    -0.354 N 
ATOM     31  N   UNL A   1      41.399  29.455  32.560  1.00  0.00    -0.248 NA
ATOM     32  C   UNL A   1      42.384  27.662  31.429  1.00  0.00     0.031 C 
ATOM     33  C   UNL A   1      42.746  30.929  36.533  1.00  0.00     0.029 A 
ATOM     34  C   UNL A   1      42.329  30.444  35.304  1.00  0.00     0.049 A 
ATOM     35  H   UNL A   1      40.836  31.195  34.016  1.00  0.00     0.167 HD
ATOM     36  C   UNL A   1      42.381  28.895  33.366  1.00  0.00     0.074 A 
ATOM     37  C   UNL A   1      42.918  27.761  32.638  1.00  0.00     0.031 C 
ATOM     38  C   UNL A   1      42.823  29.301  34.581  1.00  0.00     0.034 A 
BRANCH  25  39
ATOM     39  C   UNL A   1      39.975  34.314  36.811  1.00  0.00     0.023 A 
ATOM     40  C   UNL A   1      40.311  35.665  36.587  1.00  0.00     0.012 A 
ATOM     41  C   UNL A   1      39.441  33.933  38.058  1.00  0.00     0.148 A 
ATOM     42  C   UNL A   1      40.138  36.617  37.592  1.00  0.00     0.002 A 
ATOM     43  C   UNL A   1      39.238  34.894  39.043  1.00  0.00     0.091 A 
ATOM     44  F   UNL A   1      39.146  32.641  38.259  1.00  0.00    -0.205 F 
ATOM     45  C   UNL A   1      39.592  36.235  38.814  1.00  0.00     0.022 A 
BRANCH  43  46
ATOM     46  S   UNL A   1      38.477  34.516  40.628  1.00  0.00     0.127 S 
ATOM     47  O   UNL A   1      38.224  35.853  41.160  1.00  0.00    -0.237 OA
ATOM     48  O   UNL A   1      37.276  33.782  40.227  1.00  0.00    -0.237 OA
ATOM     49  O   UNL A   1      39.454  33.725  41.361  1.00  0.00    -0.744 OA
ENDBRANCH  43  46
ENDBRANCH  25  39
BRANCH  26  50
ATOM     50  C   UNL A   1      40.619  27.969  29.088  1.00  0.00     0.023 A 
ATOM     51  C   UNL A   1      39.707  26.902  28.976  1.00  0.00     0.012 A 
ATOM     52  C   UNL A   1      41.553  28.183  28.056  1.00  0.00     0.148 A 
ATOM     53  C   UNL A   1      39.739  26.056  27.866  1.00  0.00     0.002 A 
ATOM     54  C   UNL A   1      41.533  27.380  26.923  1.00  0.00     0.091 A 
ATOM     55  F   UNL A   1      42.429  29.191  28.187  1.00  0.00    -0.205 F 
ATOM     56  C   UNL A   1      40.639  26.305  26.832  1.00  0.00     0.022 A 
BRANCH  54  57
ATOM     57  S   UNL A   1      42.546  27.766  25.491  1.00  0.00     0.127 S 
ATOM     58  O   UNL A   1      41.953  29.018  25.030  1.00  0.00    -0.237 OA
ATOM     59  O   UNL A   1      43.882  27.895  26.075  1.00  0.00    -0.237 OA
ATOM     60  O   UNL A   1      42.398  26.616  24.608  1.00  0.00    -0.744 OA
ENDBRANCH  54  57
ENDBRANCH  26  50
BRANCH  38  61
ATOM     61  C   UNL A   1      43.954  28.516  35.187  1.00  0.00     0.023 A 
ATOM     62  C   UNL A   1      45.266  28.726  34.718  1.00  0.00     0.012 A 
ATOM     63  C   UNL A   1      43.728  27.603  36.233  1.00  0.00     0.148 A 
ATOM     64  C   UNL A   1      46.334  28.010  35.257  1.00  0.00     0.002 A 
ATOM     65  C   UNL A   1      44.804  26.923  36.794  1.00  0.00     0.091 A 
ATOM     66  F   UNL A   1      42.470  27.398  36.648  1.00  0.00    -0.205 F 
ATOM     67  C   UNL A   1      46.104  27.116  36.301  1.00  0.00     0.022 A 
BRANCH  65  68
ATOM     68  S   UNL A   1      44.600  25.815  38.192  1.00  0.00     0.127 S 
ATOM     69  O   UNL A   1      44.289  24.550  37.529  1.00  0.00    -0.237 OA
ATOM     70  O   UNL A   1      45.918  25.862  38.829  1.00  0.00    -0.237 OA
ATOM     71  O   UNL A   1      43.528  26.389  38.995  1.00  0.00    -0.744 OA
ENDBRANCH  65  68
ENDBRANCH  38  61
ENDBRANCH  12  13
ENDBRANCH   5   7
ENDBRANCH   2   3
ENDBRANCH   1   2
BRANCH   1  72
ATOM     72  C   UNL A   1      32.248  30.696  26.367  1.00  0.00     0.023 C 
BRANCH  72  73
ATOM     73  C   UNL A   1      32.955  29.581  27.134  1.00  0.00     0.116 C 
BRANCH  73  74
ATOM     74  N   UNL A   1      32.046  28.509  27.491  1.00  0.00    -0.356 N 
ATOM     75  C   UNL A   1      31.856  27.289  26.911  1.00  0.00     0.229 C 
ATOM     76  H   UNL A   1      31.477  28.689  28.273  1.00  0.00     0.163 HD
ATOM     77  O   UNL A   1      31.009  26.546  27.408  1.00  0.00    -0.275 OA
BRANCH  75  78
ATOM     78  C   UNL A   1      32.682  26.889  25.693  1.00  0.00     0.145 C 
ATOM     79  C   UNL A   1      32.879  25.372  25.678  1.00  0.00     0.276 C 
ATOM     80  C   UNL A   1      32.118  27.227  24.278  1.00  0.00     0.037 C 
ATOM     81  N   UNL A   1      33.203  25.032  24.298  1.00  0.00    -0.330 N 
ATOM     82  C   UNL A   1      32.400  25.925  23.463  1.00  0.00     0.270 C 
ATOM     83  C   UNL A   1      30.603  27.556  24.308  1.00  0.00     0.014 C 
ATOM     84  C   UNL A   1      32.890  28.405  23.636  1.00  0.00     0.014 C 
ATOM     85  H   UNL A   1      32.942  24.066  24.098  1.00  0.00     0.348 HD
ATOM     86  C   UNL A   1      30.048  28.064  22.977  1.00  0.00     0.001 C 
ATOM     87  C   UNL A   1      32.317  28.893  22.310  1.00  0.00     0.001 C 
ATOM     88  C   UNL A   1      30.845  29.246  22.442  1.00  0.00     0.000 C 
BRANCH  81  89
ATOM     89  C   UNL A   1      34.618  24.845  23.964  1.00  0.00     0.299 C 
BRANCH  89  90
ATOM     90  C   UNL A   1      35.285  23.539  24.345  1.00  0.00     0.008 A 
ATOM     91  C   UNL A   1      36.674  23.455  24.520  1.00  0.00     0.011 A 
ATOM     92  C   UNL A   1      34.522  22.368  24.499  1.00  0.00     0.031 A 
ATOM     93  C   UNL A   1      37.297  22.220  24.722  1.00  0.00     0.022 A 
ATOM     94  C   UNL A   1      35.141  21.130  24.713  1.00  0.00     0.060 A 
ATOM     95  C   UNL A   1      36.535  21.053  24.798  1.00  0.00     0.059 A 
ATOM     96  Cl  UNL A   1      34.131  19.730  24.794  1.00  0.00    -0.083 Cl
ATOM     97  Cl  UNL A   1      37.374  19.553  24.964  1.00  0.00    -0.083 Cl
ENDBRANCH  89  90
ENDBRANCH  81  89
ENDBRANCH  75  78
ENDBRANCH  73  74
ENDBRANCH  72  73
ENDBRANCH   1  72
TORSDOF 16
ENDMDL
