MODEL 1
REMARK VINA RESULT:     -13.8      0.000      0.000
REMARK SMILES Cc1c(C(=O)NCCCCNC(=O)c2ccc(-c3c4nc(c(-c5cccc(S(=O)(=O)[O-])c5F)c5ccc([nH]5)c(-c5cccc(S(=O)(=O)[O-])c5F)c5nc(c(-c6cccc(S(=O)(=O)[O-])c6F)c6ccc3[nH]6)C=C5)C=C4)cc2)cccc1-n1c(C)cc(/C=C2/C(=O)NC(=S)N=C2O)c1C
REMARK SMILES IDX 8 1 7 2 6 3 4 4 5 5 3 7 1 8 2 9 80 10 77 11 79 12 78 13
REMARK SMILES IDX 81 14 82 15 96 16 83 17 84 18 85 19 97 20 86 21 87 22 88 23
REMARK SMILES IDX 94 24 89 25 90 26 93 27 91 28 92 30 95 31 9 33 10 34 11 35
REMARK SMILES IDX 12 36 13 38 14 39 15 40 76 41 16 42 75 43 17 44 18 45 19 46
REMARK SMILES IDX 69 47 20 48 74 49 68 50 70 51 21 52 73 53 67 54 66 55 22 57
REMARK SMILES IDX 54 58 34 59 53 60 35 61 38 62 52 63 71 64 36 65 37 66 51 68
REMARK SMILES IDX 72 69 39 70 23 71 24 72 32 73 25 74 27 75 33 76 26 77 28 78
REMARK SMILES IDX 29 79 30 80 31 81 55 82 56 83 64 84 57 85 59 86 65 87 58 88
REMARK SMILES IDX 60 89 61 90 62 91 63 92 40 93 41 94 49 95 42 96 44 97 50 98
REMARK SMILES IDX 43 99 45 100 46 101 47 102 48 103
REMARK H PARENT 6 6 90 29 95 32 11 37 70 56 38 67
REMARK Flexibility Score: inf
ROOT
ATOM      1  C   UNL A   1      31.596  31.882  26.786  1.00  0.00     0.023 C 
ENDROOT
BRANCH   1   2
ATOM      2  C   UNL A   1      32.104  30.464  26.478  1.00  0.00     0.116 C 
BRANCH   2   3
ATOM      3  N   UNL A   1      31.744  30.049  25.140  1.00  0.00    -0.352 N 
ATOM      4  C   UNL A   1      31.845  28.934  24.356  1.00  0.00     0.251 C 
ATOM      5  O   UNL A   1      31.352  29.105  23.232  1.00  0.00    -0.269 OA
ATOM      6  H   UNL A   1      31.296  30.778  24.655  1.00  0.00     0.163 HD
BRANCH   4   7
ATOM      7  C   UNL A   1      32.434  27.568  24.658  1.00  0.00     0.044 A 
ATOM      8  C   UNL A   1      30.637  25.941  23.783  1.00  0.00     0.047 C 
ATOM      9  C   UNL A   1      31.969  26.260  24.388  1.00  0.00    -0.014 A 
ATOM     10  C   UNL A   1      32.756  25.153  24.827  1.00  0.00     0.049 A 
ATOM     11  C   UNL A   1      33.624  27.670  25.440  1.00  0.00     0.014 A 
ATOM     12  C   UNL A   1      33.911  25.296  25.597  1.00  0.00     0.027 A 
ATOM     13  C   UNL A   1      34.339  26.568  25.916  1.00  0.00     0.003 A 
BRANCH  10  14
ATOM     14  N   UNL A   1      32.242  23.839  24.718  1.00  0.00    -0.318 N 
ATOM     15  C   UNL A   1      31.312  23.256  25.559  1.00  0.00     0.020 A 
ATOM     16  C   UNL A   1      32.851  22.846  23.949  1.00  0.00     0.027 A 
ATOM     17  C   UNL A   1      30.666  23.962  26.702  1.00  0.00     0.065 C 
ATOM     18  C   UNL A   1      31.164  21.947  25.145  1.00  0.00     0.031 A 
ATOM     19  C   UNL A   1      32.097  21.693  24.099  1.00  0.00    -0.003 A 
ATOM     20  C   UNL A   1      34.144  23.127  23.249  1.00  0.00     0.065 C 
BRANCH  19  21
ATOM     21  C   UNL A   1      32.279  20.391  23.532  1.00  0.00     0.029 C 
ATOM     22  C   UNL A   1      32.611  19.197  24.057  1.00  0.00     0.102 C 
ATOM     23  C   UNL A   1      32.589  18.050  23.110  1.00  0.00     0.262 C 
ATOM     24  C   UNL A   1      32.932  18.802  25.428  1.00  0.00     0.226 C 
ATOM     25  O   UNL A   1      32.597  18.153  21.890  1.00  0.00    -0.269 OA
ATOM     26  N   UNL A   1      32.545  16.825  23.721  1.00  0.00    -0.297 N 
ATOM     27  N   UNL A   1      32.921  17.615  25.913  1.00  0.00    -0.184 NA
ATOM     28  C   UNL A   1      32.627  16.579  25.068  1.00  0.00     0.203 C 
ATOM     29  H   UNL A   1      32.442  16.041  23.134  1.00  0.00     0.172 HD
ATOM     30  S   UNL A   1      32.441  14.996  25.584  1.00  0.00    -0.038 S 
BRANCH  24  31
ATOM     31  O   UNL A   1      33.359  19.765  26.245  1.00  0.00    -0.493 OA
ATOM     32  H   UNL A   1      33.433  19.601  27.165  1.00  0.00     0.295 HD
ENDBRANCH  24  31
ENDBRANCH  19  21
ENDBRANCH  10  14
ENDBRANCH   4   7
ENDBRANCH   2   3
ENDBRANCH   1   2
BRANCH   1  33
ATOM     33  C   UNL A   1      32.612  32.874  27.355  1.00  0.00     0.023 C 
BRANCH  33  34
ATOM     34  C   UNL A   1      33.834  32.252  28.014  1.00  0.00     0.116 C 
BRANCH  34  35
ATOM     35  N   UNL A   1      34.478  33.174  28.952  1.00  0.00    -0.352 N 
ATOM     36  C   UNL A   1      35.316  32.874  30.002  1.00  0.00     0.251 C 
ATOM     37  H   UNL A   1      34.288  34.129  28.813  1.00  0.00     0.163 HD
ATOM     38  O   UNL A   1      35.261  33.588  31.015  1.00  0.00    -0.269 OA
BRANCH  36  39
ATOM     39  C   UNL A   1      36.310  31.798  29.866  1.00  0.00     0.039 A 
ATOM     40  C   UNL A   1      36.262  30.603  30.592  1.00  0.00     0.014 A 
ATOM     41  C   UNL A   1      37.425  32.080  29.086  1.00  0.00     0.014 A 
ATOM     42  C   UNL A   1      37.388  29.777  30.609  1.00  0.00     0.010 A 
ATOM     43  C   UNL A   1      38.380  31.147  28.867  1.00  0.00     0.010 A 
ATOM     44  C   UNL A   1      38.459  30.111  29.785  1.00  0.00    -0.014 A 
BRANCH  44  45
ATOM     45  C   UNL A   1      39.798  29.567  29.806  1.00  0.00     0.031 A 
ATOM     46  C   UNL A   1      40.014  28.177  29.432  1.00  0.00     0.074 A 
ATOM     47  C   UNL A   1      40.792  30.488  29.816  1.00  0.00     0.049 A 
ATOM     48  N   UNL A   1      41.167  27.621  29.435  1.00  0.00    -0.248 NA
ATOM     49  C   UNL A   1      38.930  27.303  29.018  1.00  0.00     0.031 C 
ATOM     50  C   UNL A   1      42.135  30.411  29.263  1.00  0.00     0.029 A 
ATOM     51  N   UNL A   1      40.756  31.772  30.327  1.00  0.00    -0.354 N 
ATOM     52  C   UNL A   1      41.038  26.406  28.808  1.00  0.00     0.074 A 
ATOM     53  C   UNL A   1      39.615  26.211  28.669  1.00  0.00     0.031 C 
ATOM     54  C   UNL A   1      42.844  31.477  29.686  1.00  0.00     0.029 A 
ATOM     55  C   UNL A   1      42.040  32.176  30.676  1.00  0.00     0.049 A 
ATOM     56  H   UNL A   1      39.944  32.319  30.428  1.00  0.00     0.167 HD
ATOM     57  C   UNL A   1      42.180  25.795  28.384  1.00  0.00     0.034 A 
ATOM     58  C   UNL A   1      42.337  32.274  32.013  1.00  0.00     0.034 A 
ATOM     59  C   UNL A   1      43.362  26.561  28.844  1.00  0.00     0.049 A 
ATOM     60  C   UNL A   1      43.196  31.106  32.499  1.00  0.00     0.074 A 
ATOM     61  C   UNL A   1      44.177  27.534  28.287  1.00  0.00     0.029 A 
ATOM     62  N   UNL A   1      43.591  26.627  30.208  1.00  0.00    -0.354 N 
ATOM     63  N   UNL A   1      43.715  30.186  31.726  1.00  0.00    -0.248 NA
ATOM     64  C   UNL A   1      43.479  30.855  33.911  1.00  0.00     0.031 C 
ATOM     65  C   UNL A   1      44.814  28.245  29.363  1.00  0.00     0.029 A 
ATOM     66  C   UNL A   1      44.419  27.680  30.564  1.00  0.00     0.049 A 
ATOM     67  H   UNL A   1      43.206  25.993  30.856  1.00  0.00     0.167 HD
ATOM     68  C   UNL A   1      44.195  29.159  32.491  1.00  0.00     0.074 A 
ATOM     69  C   UNL A   1      44.069  29.650  33.857  1.00  0.00     0.031 C 
ATOM     70  C   UNL A   1      44.612  27.954  31.991  1.00  0.00     0.034 A 
BRANCH  57  71
ATOM     71  C   UNL A   1      42.264  24.626  27.419  1.00  0.00     0.023 A 
ATOM     72  C   UNL A   1      43.057  24.818  26.265  1.00  0.00     0.012 A 
ATOM     73  C   UNL A   1      41.608  23.373  27.510  1.00  0.00     0.148 A 
ATOM     74  C   UNL A   1      43.154  23.860  25.250  1.00  0.00     0.002 A 
ATOM     75  C   UNL A   1      41.679  22.426  26.485  1.00  0.00     0.091 A 
ATOM     76  F   UNL A   1      40.929  23.045  28.604  1.00  0.00    -0.205 F 
ATOM     77  C   UNL A   1      42.452  22.667  25.351  1.00  0.00     0.022 A 
BRANCH  75  78
ATOM     78  S   UNL A   1      40.768  20.866  26.533  1.00  0.00     0.127 S 
ATOM     79  O   UNL A   1      39.437  21.280  26.085  1.00  0.00    -0.237 OA
ATOM     80  O   UNL A   1      41.503  20.045  25.573  1.00  0.00    -0.237 OA
ATOM     81  O   UNL A   1      40.816  20.396  27.912  1.00  0.00    -0.744 OA
ENDBRANCH  75  78
ENDBRANCH  57  71
BRANCH  58  82
ATOM     82  C   UNL A   1      41.176  32.886  32.766  1.00  0.00     0.023 A 
ATOM     83  C   UNL A   1      40.747  34.163  32.316  1.00  0.00     0.012 A 
ATOM     84  C   UNL A   1      40.257  32.082  33.465  1.00  0.00     0.148 A 
ATOM     85  C   UNL A   1      39.390  34.500  32.321  1.00  0.00     0.002 A 
ATOM     86  C   UNL A   1      38.911  32.444  33.499  1.00  0.00     0.091 A 
ATOM     87  F   UNL A   1      40.680  30.946  34.030  1.00  0.00    -0.205 F 
ATOM     88  C   UNL A   1      38.464  33.613  32.863  1.00  0.00     0.022 A 
BRANCH  86  89
ATOM     89  S   UNL A   1      37.709  31.364  34.284  1.00  0.00     0.127 S 
ATOM     90  O   UNL A   1      38.042  31.536  35.696  1.00  0.00    -0.237 OA
ATOM     91  O   UNL A   1      36.428  31.947  33.890  1.00  0.00    -0.237 OA
ATOM     92  O   UNL A   1      37.967  30.051  33.714  1.00  0.00    -0.744 OA
ENDBRANCH  86  89
ENDBRANCH  58  82
BRANCH  70  93
ATOM     93  C   UNL A   1      45.268  26.921  32.884  1.00  0.00     0.023 A 
ATOM     94  C   UNL A   1      46.671  26.781  32.864  1.00  0.00     0.012 A 
ATOM     95  C   UNL A   1      44.539  25.975  33.642  1.00  0.00     0.148 A 
ATOM     96  C   UNL A   1      47.324  25.806  33.624  1.00  0.00     0.002 A 
ATOM     97  C   UNL A   1      45.184  24.930  34.291  1.00  0.00     0.091 A 
ATOM     98  F   UNL A   1      43.217  26.109  33.792  1.00  0.00    -0.205 F 
ATOM     99  C   UNL A   1      46.579  24.866  34.320  1.00  0.00     0.022 A 
BRANCH  97 100
ATOM    100  S   UNL A   1      44.279  23.546  34.999  1.00  0.00     0.127 S 
ATOM    101  O   UNL A   1      45.348  22.564  35.198  1.00  0.00    -0.237 OA
ATOM    102  O   UNL A   1      43.750  24.131  36.227  1.00  0.00    -0.237 OA
ATOM    103  O   UNL A   1      43.295  23.161  33.998  1.00  0.00    -0.744 OA
ENDBRANCH  97 100
ENDBRANCH  70  93
ENDBRANCH  44  45
ENDBRANCH  36  39
ENDBRANCH  34  35
ENDBRANCH  33  34
ENDBRANCH   1  33
TORSDOF 17
ENDMDL
MODEL 2
REMARK VINA RESULT:     -13.6      2.386      3.134
REMARK SMILES Cc1c(C(=O)NCCCCNC(=O)c2ccc(-c3c4nc(c(-c5cccc(S(=O)(=O)[O-])c5F)c5ccc([nH]5)c(-c5cccc(S(=O)(=O)[O-])c5F)c5nc(c(-c6cccc(S(=O)(=O)[O-])c6F)c6ccc3[nH]6)C=C5)C=C4)cc2)cccc1-n1c(C)cc(/C=C2/C(=O)NC(=S)N=C2O)c1C
REMARK SMILES IDX 8 1 7 2 6 3 4 4 5 5 3 7 1 8 2 9 80 10 77 11 79 12 78 13
REMARK SMILES IDX 81 14 82 15 96 16 83 17 84 18 85 19 97 20 86 21 87 22 88 23
REMARK SMILES IDX 94 24 89 25 90 26 93 27 91 28 92 30 95 31 9 33 10 34 11 35
REMARK SMILES IDX 12 36 13 38 14 39 15 40 76 41 16 42 75 43 17 44 18 45 19 46
REMARK SMILES IDX 69 47 20 48 74 49 68 50 70 51 21 52 73 53 67 54 66 55 22 57
REMARK SMILES IDX 54 58 34 59 53 60 35 61 38 62 52 63 71 64 36 65 37 66 51 68
REMARK SMILES IDX 72 69 39 70 23 71 24 72 32 73 25 74 27 75 33 76 26 77 28 78
REMARK SMILES IDX 29 79 30 80 31 81 55 82 56 83 64 84 57 85 59 86 65 87 58 88
REMARK SMILES IDX 60 89 61 90 62 91 63 92 40 93 41 94 49 95 42 96 44 97 50 98
REMARK SMILES IDX 43 99 45 100 46 101 47 102 48 103
REMARK H PARENT 6 6 90 29 95 32 11 37 70 56 38 67
REMARK Flexibility Score: inf
ROOT
ATOM      1  C   UNL A   1      35.935  30.568  27.609  1.00  0.00     0.023 C 
ENDROOT
BRANCH   1   2
ATOM      2  C   UNL A   1      35.065  29.347  27.270  1.00  0.00     0.116 C 
BRANCH   2   3
ATOM      3  N   UNL A   1      34.107  29.648  26.230  1.00  0.00    -0.352 N 
ATOM      4  C   UNL A   1      33.122  29.006  25.534  1.00  0.00     0.251 C 
ATOM      5  O   UNL A   1      32.567  29.750  24.712  1.00  0.00    -0.269 OA
ATOM      6  H   UNL A   1      34.187  30.585  25.940  1.00  0.00     0.163 HD
BRANCH   4   7
ATOM      7  C   UNL A   1      32.618  27.578  25.631  1.00  0.00     0.044 A 
ATOM      8  C   UNL A   1      34.266  26.265  24.147  1.00  0.00     0.047 C 
ATOM      9  C   UNL A   1      33.106  26.367  25.088  1.00  0.00    -0.014 A 
ATOM     10  C   UNL A   1      32.382  25.164  25.345  1.00  0.00     0.049 A 
ATOM     11  C   UNL A   1      31.372  27.507  26.323  1.00  0.00     0.014 A 
ATOM     12  C   UNL A   1      31.161  25.138  26.022  1.00  0.00     0.027 A 
ATOM     13  C   UNL A   1      30.648  26.325  26.503  1.00  0.00     0.003 A 
BRANCH  10  14
ATOM     14  N   UNL A   1      32.750  23.967  24.685  1.00  0.00    -0.318 N 
ATOM     15  C   UNL A   1      32.155  23.447  23.550  1.00  0.00     0.020 A 
ATOM     16  C   UNL A   1      33.541  22.983  25.280  1.00  0.00     0.027 A 
ATOM     17  C   UNL A   1      31.044  24.114  22.813  1.00  0.00     0.065 C 
ATOM     18  C   UNL A   1      32.763  22.233  23.301  1.00  0.00     0.031 A 
ATOM     19  C   UNL A   1      33.672  21.954  24.363  1.00  0.00    -0.003 A 
ATOM     20  C   UNL A   1      33.981  23.134  26.703  1.00  0.00     0.065 C 
BRANCH  19  21
ATOM     21  C   UNL A   1      34.376  20.711  24.463  1.00  0.00     0.029 C 
ATOM     22  C   UNL A   1      34.038  19.498  24.939  1.00  0.00     0.102 C 
ATOM     23  C   UNL A   1      35.055  18.429  24.756  1.00  0.00     0.262 C 
ATOM     24  C   UNL A   1      32.804  19.015  25.558  1.00  0.00     0.226 C 
ATOM     25  O   UNL A   1      36.237  18.628  24.501  1.00  0.00    -0.269 OA
ATOM     26  N   UNL A   1      34.559  17.160  24.884  1.00  0.00    -0.297 N 
ATOM     27  N   UNL A   1      32.432  17.794  25.690  1.00  0.00    -0.184 NA
ATOM     28  C   UNL A   1      33.285  16.814  25.258  1.00  0.00     0.203 C 
ATOM     29  H   UNL A   1      35.178  16.420  24.686  1.00  0.00     0.172 HD
ATOM     30  S   UNL A   1      32.881  15.187  25.240  1.00  0.00    -0.038 S 
BRANCH  24  31
ATOM     31  O   UNL A   1      32.013  19.931  26.115  1.00  0.00    -0.493 OA
ATOM     32  H   UNL A   1      32.324  20.444  26.835  1.00  0.00     0.295 HD
ENDBRANCH  24  31
ENDBRANCH  19  21
ENDBRANCH  10  14
ENDBRANCH   4   7
ENDBRANCH   2   3
ENDBRANCH   1   2
BRANCH   1  33
ATOM     33  C   UNL A   1      35.230  31.926  27.669  1.00  0.00     0.023 C 
BRANCH  33  34
ATOM     34  C   UNL A   1      34.253  32.104  28.823  1.00  0.00     0.116 C 
BRANCH  34  35
ATOM     35  N   UNL A   1      34.213  33.489  29.296  1.00  0.00    -0.352 N 
ATOM     36  C   UNL A   1      34.936  34.062  30.318  1.00  0.00     0.251 C 
ATOM     37  H   UNL A   1      33.590  34.086  28.822  1.00  0.00     0.163 HD
ATOM     38  O   UNL A   1      34.392  34.951  30.990  1.00  0.00    -0.269 OA
BRANCH  36  39
ATOM     39  C   UNL A   1      36.343  33.685  30.524  1.00  0.00     0.039 A 
ATOM     40  C   UNL A   1      37.372  34.019  29.637  1.00  0.00     0.014 A 
ATOM     41  C   UNL A   1      36.604  32.820  31.579  1.00  0.00     0.014 A 
ATOM     42  C   UNL A   1      38.607  33.380  29.764  1.00  0.00     0.010 A 
ATOM     43  C   UNL A   1      37.868  32.439  31.876  1.00  0.00     0.010 A 
ATOM     44  C   UNL A   1      38.804  32.544  30.859  1.00  0.00    -0.014 A 
BRANCH  44  45
ATOM     45  C   UNL A   1      39.880  31.603  31.074  1.00  0.00     0.031 A 
ATOM     46  C   UNL A   1      39.943  30.391  30.272  1.00  0.00     0.074 A 
ATOM     47  C   UNL A   1      40.947  32.094  31.748  1.00  0.00     0.049 A 
ATOM     48  N   UNL A   1      40.858  29.506  30.409  1.00  0.00    -0.248 NA
ATOM     49  C   UNL A   1      38.968  30.086  29.238  1.00  0.00     0.031 C 
ATOM     50  C   UNL A   1      42.353  31.736  31.649  1.00  0.00     0.029 A 
ATOM     51  N   UNL A   1      40.967  33.112  32.683  1.00  0.00    -0.354 N 
ATOM     52  C   UNL A   1      40.753  28.638  29.349  1.00  0.00     0.074 A 
ATOM     53  C   UNL A   1      39.501  28.978  28.717  1.00  0.00     0.031 C 
ATOM     54  C   UNL A   1      43.029  32.335  32.650  1.00  0.00     0.029 A 
ATOM     55  C   UNL A   1      42.052  32.946  33.537  1.00  0.00     0.049 A 
ATOM     56  H   UNL A   1      40.313  33.845  32.737  1.00  0.00     0.167 HD
ATOM     57  C   UNL A   1      41.819  27.831  29.091  1.00  0.00     0.034 A 
ATOM     58  C   UNL A   1      41.794  32.550  34.827  1.00  0.00     0.034 A 
ATOM     59  C   UNL A   1      42.841  27.991  30.153  1.00  0.00     0.049 A 
ATOM     60  C   UNL A   1      42.127  31.075  35.054  1.00  0.00     0.074 A 
ATOM     61  C   UNL A   1      43.990  28.752  30.300  1.00  0.00     0.029 A 
ATOM     62  N   UNL A   1      42.505  27.582  31.432  1.00  0.00    -0.354 N 
ATOM     63  N   UNL A   1      42.718  30.298  34.182  1.00  0.00    -0.248 NA
ATOM     64  C   UNL A   1      41.756  30.349  36.267  1.00  0.00     0.031 C 
ATOM     65  C   UNL A   1      44.264  28.869  31.706  1.00  0.00     0.029 A 
ATOM     66  C   UNL A   1      43.311  28.148  32.407  1.00  0.00     0.049 A 
ATOM     67  H   UNL A   1      41.772  26.954  31.628  1.00  0.00     0.167 HD
ATOM     68  C   UNL A   1      42.629  28.996  34.590  1.00  0.00     0.074 A 
ATOM     69  C   UNL A   1      42.061  29.086  35.929  1.00  0.00     0.031 C 
ATOM     70  C   UNL A   1      42.960  27.919  33.811  1.00  0.00     0.034 A 
BRANCH  57  71
ATOM     71  C   UNL A   1      42.050  27.031  27.822  1.00  0.00     0.023 A 
ATOM     72  C   UNL A   1      42.058  27.758  26.611  1.00  0.00     0.012 A 
ATOM     73  C   UNL A   1      42.218  25.629  27.695  1.00  0.00     0.148 A 
ATOM     74  C   UNL A   1      42.172  27.139  25.361  1.00  0.00     0.002 A 
ATOM     75  C   UNL A   1      42.304  25.005  26.448  1.00  0.00     0.091 A 
ATOM     76  F   UNL A   1      42.339  24.863  28.775  1.00  0.00    -0.205 F 
ATOM     77  C   UNL A   1      42.279  25.759  25.277  1.00  0.00     0.022 A 
BRANCH  75  78
ATOM     78  S   UNL A   1      42.413  23.211  26.260  1.00  0.00     0.127 S 
ATOM     79  O   UNL A   1      43.454  22.868  27.231  1.00  0.00    -0.237 OA
ATOM     80  O   UNL A   1      41.069  22.775  26.632  1.00  0.00    -0.237 OA
ATOM     81  O   UNL A   1      42.783  22.958  24.872  1.00  0.00    -0.744 OA
ENDBRANCH  75  78
ENDBRANCH  57  71
BRANCH  58  82
ATOM     82  C   UNL A   1      40.577  33.271  35.365  1.00  0.00     0.023 A 
ATOM     83  C   UNL A   1      39.355  32.548  35.319  1.00  0.00     0.012 A 
ATOM     84  C   UNL A   1      40.703  34.306  36.309  1.00  0.00     0.148 A 
ATOM     85  C   UNL A   1      38.416  32.671  36.348  1.00  0.00     0.002 A 
ATOM     86  C   UNL A   1      39.743  34.448  37.310  1.00  0.00     0.091 A 
ATOM     87  F   UNL A   1      41.781  35.098  36.270  1.00  0.00    -0.205 F 
ATOM     88  C   UNL A   1      38.639  33.583  37.375  1.00  0.00     0.022 A 
BRANCH  86  89
ATOM     89  S   UNL A   1      39.956  35.689  38.592  1.00  0.00     0.127 S 
ATOM     90  O   UNL A   1      41.274  35.342  39.117  1.00  0.00    -0.237 OA
ATOM     91  O   UNL A   1      39.912  36.947  37.850  1.00  0.00    -0.237 OA
ATOM     92  O   UNL A   1      38.828  35.486  39.490  1.00  0.00    -0.744 OA
ENDBRANCH  86  89
ENDBRANCH  58  82
BRANCH  70  93
ATOM     93  C   UNL A   1      42.974  26.516  34.382  1.00  0.00     0.023 A 
ATOM     94  C   UNL A   1      41.797  25.991  34.954  1.00  0.00     0.012 A 
ATOM     95  C   UNL A   1      44.150  25.741  34.510  1.00  0.00     0.148 A 
ATOM     96  C   UNL A   1      41.768  24.726  35.547  1.00  0.00     0.002 A 
ATOM     97  C   UNL A   1      44.144  24.543  35.213  1.00  0.00     0.091 A 
ATOM     98  F   UNL A   1      45.278  26.126  33.902  1.00  0.00    -0.205 F 
ATOM     99  C   UNL A   1      42.947  24.011  35.696  1.00  0.00     0.022 A 
BRANCH  97 100
ATOM    100  S   UNL A   1      45.666  23.693  35.657  1.00  0.00     0.127 S 
ATOM    101  O   UNL A   1      46.411  24.755  36.336  1.00  0.00    -0.237 OA
ATOM    102  O   UNL A   1      45.172  22.636  36.536  1.00  0.00    -0.237 OA
ATOM    103  O   UNL A   1      46.258  23.256  34.402  1.00  0.00    -0.744 OA
ENDBRANCH  97 100
ENDBRANCH  70  93
ENDBRANCH  44  45
ENDBRANCH  36  39
ENDBRANCH  34  35
ENDBRANCH  33  34
ENDBRANCH   1  33
TORSDOF 17
ENDMDL
MODEL 3
REMARK VINA RESULT:     -13.4      2.718      3.795
REMARK SMILES Cc1c(C(=O)NCCCCNC(=O)c2ccc(-c3c4nc(c(-c5cccc(S(=O)(=O)[O-])c5F)c5ccc([nH]5)c(-c5cccc(S(=O)(=O)[O-])c5F)c5nc(c(-c6cccc(S(=O)(=O)[O-])c6F)c6ccc3[nH]6)C=C5)C=C4)cc2)cccc1-n1c(C)cc(/C=C2/C(=O)NC(=S)N=C2O)c1C
REMARK SMILES IDX 8 1 7 2 6 3 4 4 5 5 3 7 1 8 2 9 80 10 77 11 79 12 78 13
REMARK SMILES IDX 81 14 82 15 96 16 83 17 84 18 85 19 97 20 86 21 87 22 88 23
REMARK SMILES IDX 94 24 89 25 90 26 93 27 91 28 92 30 95 31 9 33 10 34 11 35
REMARK SMILES IDX 12 36 13 38 14 39 15 40 76 41 16 42 75 43 17 44 18 45 19 46
REMARK SMILES IDX 69 47 20 48 74 49 68 50 70 51 21 52 73 53 67 54 66 55 22 57
REMARK SMILES IDX 54 58 34 59 53 60 35 61 38 62 52 63 71 64 36 65 37 66 51 68
REMARK SMILES IDX 72 69 39 70 23 71 24 72 32 73 25 74 27 75 33 76 26 77 28 78
REMARK SMILES IDX 29 79 30 80 31 81 55 82 56 83 64 84 57 85 59 86 65 87 58 88
REMARK SMILES IDX 60 89 61 90 62 91 63 92 40 93 41 94 49 95 42 96 44 97 50 98
REMARK SMILES IDX 43 99 45 100 46 101 47 102 48 103
REMARK H PARENT 6 6 90 29 95 32 11 37 70 56 38 67
REMARK Flexibility Score: inf
ROOT
ATOM      1  C   UNL A   1      31.924  28.162  25.789  1.00  0.00     0.023 C 
ENDROOT
BRANCH   1   2
ATOM      2  C   UNL A   1      31.339  28.022  24.374  1.00  0.00     0.116 C 
BRANCH   2   3
ATOM      3  N   UNL A   1      32.366  28.123  23.361  1.00  0.00    -0.352 N 
ATOM      4  C   UNL A   1      33.173  27.289  22.641  1.00  0.00     0.251 C 
ATOM      5  O   UNL A   1      33.913  27.909  21.862  1.00  0.00    -0.269 OA
ATOM      6  H   UNL A   1      32.530  29.063  23.122  1.00  0.00     0.163 HD
BRANCH   4   7
ATOM      7  C   UNL A   1      33.278  25.775  22.643  1.00  0.00     0.044 A 
ATOM      8  C   UNL A   1      34.610  25.276  24.793  1.00  0.00     0.047 C 
ATOM      9  C   UNL A   1      33.847  24.871  23.570  1.00  0.00    -0.014 A 
ATOM     10  C   UNL A   1      33.807  23.476  23.272  1.00  0.00     0.049 A 
ATOM     11  C   UNL A   1      32.789  25.213  21.426  1.00  0.00     0.014 A 
ATOM     12  C   UNL A   1      33.324  22.966  22.066  1.00  0.00     0.027 A 
ATOM     13  C   UNL A   1      32.823  23.847  21.130  1.00  0.00     0.003 A 
BRANCH  10  14
ATOM     14  N   UNL A   1      34.507  22.561  24.095  1.00  0.00    -0.318 N 
ATOM     15  C   UNL A   1      34.074  22.062  25.310  1.00  0.00     0.020 A 
ATOM     16  C   UNL A   1      35.870  22.298  23.951  1.00  0.00     0.027 A 
ATOM     17  C   UNL A   1      32.754  22.389  25.920  1.00  0.00     0.065 C 
ATOM     18  C   UNL A   1      35.096  21.278  25.808  1.00  0.00     0.031 A 
ATOM     19  C   UNL A   1      36.217  21.384  24.933  1.00  0.00    -0.003 A 
ATOM     20  C   UNL A   1      36.677  23.049  22.937  1.00  0.00     0.065 C 
BRANCH  19  21
ATOM     21  C   UNL A   1      37.481  20.782  25.231  1.00  0.00     0.029 C 
ATOM     22  C   UNL A   1      38.612  21.248  25.794  1.00  0.00     0.102 C 
ATOM     23  C   UNL A   1      39.682  20.240  26.016  1.00  0.00     0.262 C 
ATOM     24  C   UNL A   1      38.963  22.577  26.296  1.00  0.00     0.226 C 
ATOM     25  O   UNL A   1      39.732  19.144  25.470  1.00  0.00    -0.269 OA
ATOM     26  N   UNL A   1      40.637  20.630  26.916  1.00  0.00    -0.297 N 
ATOM     27  N   UNL A   1      39.916  22.870  27.103  1.00  0.00    -0.184 NA
ATOM     28  C   UNL A   1      40.741  21.859  27.516  1.00  0.00     0.203 C 
ATOM     29  H   UNL A   1      41.317  19.961  27.159  1.00  0.00     0.172 HD
ATOM     30  S   UNL A   1      41.940  22.066  28.669  1.00  0.00    -0.038 S 
BRANCH  24  31
ATOM     31  O   UNL A   1      38.271  23.605  25.807  1.00  0.00    -0.493 OA
ATOM     32  H   UNL A   1      38.265  23.770  24.885  1.00  0.00     0.295 HD
ENDBRANCH  24  31
ENDBRANCH  19  21
ENDBRANCH  10  14
ENDBRANCH   4   7
ENDBRANCH   2   3
ENDBRANCH   1   2
BRANCH   1  33
ATOM     33  C   UNL A   1      33.429  28.418  25.895  1.00  0.00     0.023 C 
BRANCH  33  34
ATOM     34  C   UNL A   1      33.896  29.030  27.207  1.00  0.00     0.116 C 
BRANCH  34  35
ATOM     35  N   UNL A   1      34.478  30.360  27.013  1.00  0.00    -0.352 N 
ATOM     36  C   UNL A   1      35.524  30.941  27.694  1.00  0.00     0.251 C 
ATOM     37  H   UNL A   1      34.069  30.907  26.304  1.00  0.00     0.163 HD
ATOM     38  O   UNL A   1      35.488  32.166  27.883  1.00  0.00    -0.269 OA
BRANCH  36  39
ATOM     39  C   UNL A   1      36.685  30.129  28.089  1.00  0.00     0.039 A 
ATOM     40  C   UNL A   1      36.725  29.346  29.248  1.00  0.00     0.014 A 
ATOM     41  C   UNL A   1      37.840  30.294  27.335  1.00  0.00     0.014 A 
ATOM     42  C   UNL A   1      37.954  28.846  29.683  1.00  0.00     0.010 A 
ATOM     43  C   UNL A   1      38.953  29.569  27.593  1.00  0.00     0.010 A 
ATOM     44  C   UNL A   1      39.064  29.031  28.865  1.00  0.00    -0.014 A 
BRANCH  44  45
ATOM     45  C   UNL A   1      40.457  28.828  29.200  1.00  0.00     0.031 A 
ATOM     46  C   UNL A   1      41.163  27.676  28.660  1.00  0.00     0.074 A 
ATOM     47  C   UNL A   1      41.094  29.919  29.687  1.00  0.00     0.049 A 
ATOM     48  N   UNL A   1      42.391  27.423  28.917  1.00  0.00    -0.248 NA
ATOM     49  C   UNL A   1      40.527  26.714  27.776  1.00  0.00     0.031 C 
ATOM     50  C   UNL A   1      42.492  30.306  29.573  1.00  0.00     0.029 A 
ATOM     51  N   UNL A   1      40.551  30.978  30.391  1.00  0.00    -0.354 N 
ATOM     52  C   UNL A   1      42.791  26.421  28.066  1.00  0.00     0.074 A 
ATOM     53  C   UNL A   1      41.571  25.944  27.460  1.00  0.00     0.031 C 
ATOM     54  C   UNL A   1      42.723  31.357  30.385  1.00  0.00     0.029 A 
ATOM     55  C   UNL A   1      41.528  31.563  31.189  1.00  0.00     0.049 A 
ATOM     56  H   UNL A   1      39.615  31.274  30.335  1.00  0.00     0.167 HD
ATOM     57  C   UNL A   1      44.130  26.227  27.911  1.00  0.00     0.034 A 
ATOM     58  C   UNL A   1      41.442  31.372  32.546  1.00  0.00     0.034 A 
ATOM     59  C   UNL A   1      44.877  27.098  28.849  1.00  0.00     0.049 A 
ATOM     60  C   UNL A   1      42.464  30.350  33.049  1.00  0.00     0.074 A 
ATOM     61  C   UNL A   1      45.476  28.346  28.762  1.00  0.00     0.029 A 
ATOM     62  N   UNL A   1      44.732  26.854  30.204  1.00  0.00    -0.354 N 
ATOM     63  N   UNL A   1      43.408  29.814  32.318  1.00  0.00    -0.248 NA
ATOM     64  C   UNL A   1      42.451  29.809  34.407  1.00  0.00     0.031 C 
ATOM     65  C   UNL A   1      45.584  28.876  30.095  1.00  0.00     0.029 A 
ATOM     66  C   UNL A   1      45.093  27.938  30.988  1.00  0.00     0.049 A 
ATOM     67  H   UNL A   1      44.407  26.000  30.571  1.00  0.00     0.167 HD
ATOM     68  C   UNL A   1      43.969  28.763  32.990  1.00  0.00     0.074 A 
ATOM     69  C   UNL A   1      43.368  28.833  34.316  1.00  0.00     0.031 C 
ATOM     70  C   UNL A   1      44.837  27.864  32.429  1.00  0.00     0.034 A 
BRANCH  57  71
ATOM     71  C   UNL A   1      44.796  25.407  26.821  1.00  0.00     0.023 A 
ATOM     72  C   UNL A   1      45.869  26.020  26.138  1.00  0.00     0.012 A 
ATOM     73  C   UNL A   1      44.445  24.109  26.370  1.00  0.00     0.148 A 
ATOM     74  C   UNL A   1      46.516  25.416  25.054  1.00  0.00     0.002 A 
ATOM     75  C   UNL A   1      45.069  23.515  25.271  1.00  0.00     0.091 A 
ATOM     76  F   UNL A   1      43.526  23.397  27.015  1.00  0.00    -0.205 F 
ATOM     77  C   UNL A   1      46.106  24.168  24.608  1.00  0.00     0.022 A 
BRANCH  75  78
ATOM     78  S   UNL A   1      44.568  21.908  24.615  1.00  0.00     0.127 S 
ATOM     79  O   UNL A   1      43.242  21.737  25.214  1.00  0.00    -0.237 OA
ATOM     80  O   UNL A   1      44.556  22.148  23.174  1.00  0.00    -0.237 OA
ATOM     81  O   UNL A   1      45.559  20.942  25.073  1.00  0.00    -0.744 OA
ENDBRANCH  75  78
ENDBRANCH  57  71
BRANCH  58  82
ATOM     82  C   UNL A   1      40.004  31.476  33.003  1.00  0.00     0.023 A 
ATOM     83  C   UNL A   1      39.378  30.255  33.369  1.00  0.00     0.012 A 
ATOM     84  C   UNL A   1      39.496  32.673  33.540  1.00  0.00     0.148 A 
ATOM     85  C   UNL A   1      38.472  30.212  34.434  1.00  0.00     0.002 A 
ATOM     86  C   UNL A   1      38.563  32.623  34.575  1.00  0.00     0.091 A 
ATOM     87  F   UNL A   1      39.968  33.842  33.093  1.00  0.00    -0.205 F 
ATOM     88  C   UNL A   1      38.107  31.393  35.074  1.00  0.00     0.022 A 
BRANCH  86  89
ATOM     89  S   UNL A   1      37.998  34.142  35.351  1.00  0.00     0.127 S 
ATOM     90  O   UNL A   1      37.415  34.850  34.214  1.00  0.00    -0.237 OA
ATOM     91  O   UNL A   1      37.025  33.673  36.335  1.00  0.00    -0.237 OA
ATOM     92  O   UNL A   1      39.198  34.727  35.930  1.00  0.00    -0.744 OA
ENDBRANCH  86  89
ENDBRANCH  58  82
BRANCH  70  93
ATOM     93  C   UNL A   1      45.530  26.814  33.274  1.00  0.00     0.023 A 
ATOM     94  C   UNL A   1      46.924  26.897  33.472  1.00  0.00     0.012 A 
ATOM     95  C   UNL A   1      44.879  25.659  33.764  1.00  0.00     0.148 A 
ATOM     96  C   UNL A   1      47.622  25.925  34.193  1.00  0.00     0.002 A 
ATOM     97  C   UNL A   1      45.599  24.634  34.367  1.00  0.00     0.091 A 
ATOM     98  F   UNL A   1      43.546  25.561  33.705  1.00  0.00    -0.205 F 
ATOM     99  C   UNL A   1      46.964  24.782  34.622  1.00  0.00     0.022 A 
BRANCH  97 100
ATOM    100  S   UNL A   1      44.861  23.033  34.720  1.00  0.00     0.127 S 
ATOM    101  O   UNL A   1      43.944  23.363  35.814  1.00  0.00    -0.237 OA
ATOM    102  O   UNL A   1      44.209  22.717  33.452  1.00  0.00    -0.237 OA
ATOM    103  O   UNL A   1      45.962  22.164  35.106  1.00  0.00    -0.744 OA
ENDBRANCH  97 100
ENDBRANCH  70  93
ENDBRANCH  44  45
ENDBRANCH  36  39
ENDBRANCH  34  35
ENDBRANCH  33  34
ENDBRANCH   1  33
TORSDOF 17
ENDMDL
