MODEL 1
REMARK VINA RESULT:     -10.5      0.000      0.000
REMARK SMILES CC(C)C[C@H](NC(=O)[C@](C)([NH3+])C(F)(F)F)C(=O)NCCCCNC(=O)c1ccc(-c2c3nc(c(-c4cccc(S(=O)(=O)[O-])c4F)c4ccc([nH]4)c(-c4cccc(S(=O)(=O)[O-])c4F)c4nc(c(-c5cccc(S(=O)(=O)[O-])c5F)c5ccc2[nH]5)C=C4)C=C3)cc1
REMARK SMILES IDX 20 1 19 2 18 3 16 4 17 5 5 7 4 8 2 9 1 10 3 11 6 12 7 13
REMARK SMILES IDX 8 15 9 16 10 17 11 18 12 22 13 23 14 24 15 25 21 26 22 27
REMARK SMILES IDX 23 28 24 29 25 31 26 32 27 33 88 34 28 35 87 36 29 37 30 38
REMARK SMILES IDX 31 39 81 40 32 41 86 42 80 43 82 44 33 45 85 46 79 47 78 48
REMARK SMILES IDX 34 50 66 51 46 52 65 53 47 54 50 55 64 56 83 57 48 58 49 59
REMARK SMILES IDX 63 61 84 62 51 63 35 64 36 65 44 66 37 67 39 68 45 69 38 70
REMARK SMILES IDX 40 71 41 72 42 73 43 74 67 75 68 76 76 77 69 78 71 79 77 80
REMARK SMILES IDX 70 81 72 82 73 83 74 84 75 85 52 86 53 87 61 88 54 89 56 90
REMARK SMILES IDX 62 91 55 92 57 93 58 94 59 95 60 96
REMARK H PARENT 18 6 6 14 11 19 11 20 11 21 23 30 82 49 50 60
REMARK Flexibility Score: inf
ROOT
ATOM      1  C   UNL A   1      35.343  22.745  26.454  1.00  0.00     0.023 C 
ENDROOT
BRANCH   1   2
ATOM      2  C   UNL A   1      33.986  22.382  25.867  1.00  0.00     0.116 C 
BRANCH   2   3
ATOM      3  N   UNL A   1      32.852  22.779  26.674  1.00  0.00    -0.354 N 
ATOM      4  C   UNL A   1      32.068  23.895  26.581  1.00  0.00     0.242 C 
ATOM      5  O   UNL A   1      31.012  23.935  27.215  1.00  0.00    -0.273 OA
ATOM      6  H   UNL A   1      32.609  22.154  27.395  1.00  0.00     0.163 HD
BRANCH   4   7
ATOM      7  C   UNL A   1      32.423  25.021  25.587  1.00  0.00     0.171 C 
BRANCH   7   8
ATOM      8  C   UNL A   1      32.836  26.246  26.471  1.00  0.00     0.038 C 
BRANCH   8   9
ATOM      9  C   UNL A   1      32.379  27.704  26.207  1.00  0.00    -0.015 C 
ATOM     10  C   UNL A   1      31.840  28.503  27.402  1.00  0.00     0.007 C 
ATOM     11  C   UNL A   1      33.613  28.486  25.710  1.00  0.00     0.007 C 
ENDBRANCH   8   9
ENDBRANCH   7   8
BRANCH   7  12
ATOM     12  N   UNL A   1      31.368  25.252  24.603  1.00  0.00    -0.339 N 
ATOM     13  C   UNL A   1      31.329  25.496  23.270  1.00  0.00     0.291 C 
ATOM     14  H   UNL A   1      30.469  25.222  25.004  1.00  0.00     0.164 HD
ATOM     15  O   UNL A   1      30.203  25.858  22.881  1.00  0.00    -0.267 OA
BRANCH  13  16
ATOM     16  C   UNL A   1      32.482  25.398  22.230  1.00  0.00     0.267 C 
ATOM     17  C   UNL A   1      33.615  26.390  22.458  1.00  0.00     0.100 C 
BRANCH  16  18
ATOM     18  N   UNL A   1      31.870  25.822  20.893  1.00  0.00    -0.337 N 
ATOM     19  H   UNL A   1      32.511  25.584  20.136  1.00  0.00     0.345 HD
ATOM     20  H   UNL A   1      31.707  26.829  20.899  1.00  0.00     0.345 HD
ATOM     21  H   UNL A   1      30.986  25.335  20.756  1.00  0.00     0.345 HD
ENDBRANCH  16  18
BRANCH  16  22
ATOM     22  C   UNL A   1      33.005  23.945  22.169  1.00  0.00     0.453 C 
ATOM     23  F   UNL A   1      33.265  23.571  20.893  1.00  0.00    -0.164 F 
ATOM     24  F   UNL A   1      34.145  23.766  22.859  1.00  0.00    -0.164 F 
ATOM     25  F   UNL A   1      32.091  23.072  22.657  1.00  0.00    -0.164 F 
ENDBRANCH  16  22
ENDBRANCH  13  16
ENDBRANCH   7  12
ENDBRANCH   4   7
ENDBRANCH   2   3
ENDBRANCH   1   2
BRANCH   1  26
ATOM     26  C   UNL A   1      36.038  23.922  25.782  1.00  0.00     0.023 C 
BRANCH  26  27
ATOM     27  C   UNL A   1      37.166  23.541  24.837  1.00  0.00     0.116 C 
BRANCH  27  28
ATOM     28  N   UNL A   1      38.078  22.553  25.400  1.00  0.00    -0.352 N 
ATOM     29  C   UNL A   1      39.137  22.758  26.250  1.00  0.00     0.251 C 
ATOM     30  H   UNL A   1      37.913  21.619  25.138  1.00  0.00     0.163 HD
ATOM     31  O   UNL A   1      39.875  21.826  26.555  1.00  0.00    -0.269 OA
BRANCH  29  32
ATOM     32  C   UNL A   1      39.395  24.120  26.758  1.00  0.00     0.039 A 
ATOM     33  C   UNL A   1      39.018  24.435  28.065  1.00  0.00     0.014 A 
ATOM     34  C   UNL A   1      40.066  25.057  25.968  1.00  0.00     0.014 A 
ATOM     35  C   UNL A   1      39.372  25.672  28.602  1.00  0.00     0.010 A 
ATOM     36  C   UNL A   1      40.495  26.251  26.534  1.00  0.00     0.010 A 
ATOM     37  C   UNL A   1      40.145  26.576  27.853  1.00  0.00    -0.014 A 
BRANCH  37  38
ATOM     38  C   UNL A   1      40.599  27.866  28.430  1.00  0.00     0.031 A 
ATOM     39  C   UNL A   1      42.070  28.135  28.601  1.00  0.00     0.074 A 
ATOM     40  C   UNL A   1      39.691  28.752  28.882  1.00  0.00     0.049 A 
ATOM     41  N   UNL A   1      42.661  29.173  29.132  1.00  0.00    -0.248 NA
ATOM     42  C   UNL A   1      42.999  27.087  28.143  1.00  0.00     0.031 C 
ATOM     43  C   UNL A   1      38.238  28.568  28.853  1.00  0.00     0.029 A 
ATOM     44  N   UNL A   1      39.857  29.976  29.482  1.00  0.00    -0.354 N 
ATOM     45  C   UNL A   1      44.020  28.888  29.114  1.00  0.00     0.074 A 
ATOM     46  C   UNL A   1      44.167  27.564  28.550  1.00  0.00     0.031 C 
ATOM     47  C   UNL A   1      37.646  29.643  29.397  1.00  0.00     0.029 A 
ATOM     48  C   UNL A   1      38.673  30.579  29.842  1.00  0.00     0.049 A 
ATOM     49  H   UNL A   1      40.738  30.384  29.638  1.00  0.00     0.167 HD
ATOM     50  C   UNL A   1      45.057  29.667  29.500  1.00  0.00     0.034 A 
ATOM     51  C   UNL A   1      38.444  31.753  30.463  1.00  0.00     0.034 A 
ATOM     52  C   UNL A   1      44.909  31.004  30.007  1.00  0.00     0.049 A 
ATOM     53  C   UNL A   1      39.615  32.623  30.835  1.00  0.00     0.074 A 
ATOM     54  C   UNL A   1      45.898  31.917  30.326  1.00  0.00     0.029 A 
ATOM     55  N   UNL A   1      43.695  31.619  30.275  1.00  0.00    -0.354 N 
ATOM     56  N   UNL A   1      40.895  32.407  30.649  1.00  0.00    -0.248 NA
ATOM     57  C   UNL A   1      39.309  33.913  31.468  1.00  0.00     0.031 C 
ATOM     58  C   UNL A   1      45.283  33.075  30.811  1.00  0.00     0.029 A 
ATOM     59  C   UNL A   1      43.910  32.893  30.767  1.00  0.00     0.049 A 
ATOM     60  H   UNL A   1      42.812  31.208  30.136  1.00  0.00     0.167 HD
ATOM     61  C   UNL A   1      41.544  33.548  31.108  1.00  0.00     0.074 A 
ATOM     62  C   UNL A   1      40.513  34.460  31.560  1.00  0.00     0.031 C 
ATOM     63  C   UNL A   1      42.872  33.812  31.161  1.00  0.00     0.034 A 
BRANCH  50  64
ATOM     64  C   UNL A   1      46.448  29.115  29.336  1.00  0.00     0.023 A 
ATOM     65  C   UNL A   1      47.041  28.392  30.392  1.00  0.00     0.012 A 
ATOM     66  C   UNL A   1      47.146  29.259  28.121  1.00  0.00     0.148 A 
ATOM     67  C   UNL A   1      48.320  27.855  30.257  1.00  0.00     0.002 A 
ATOM     68  C   UNL A   1      48.403  28.681  27.978  1.00  0.00     0.091 A 
ATOM     69  F   UNL A   1      46.578  29.967  27.136  1.00  0.00    -0.205 F 
ATOM     70  C   UNL A   1      48.995  27.989  29.048  1.00  0.00     0.022 A 
BRANCH  68  71
ATOM     71  S   UNL A   1      49.320  28.728  26.435  1.00  0.00     0.127 S 
ATOM     72  O   UNL A   1      48.273  28.428  25.460  1.00  0.00    -0.237 OA
ATOM     73  O   UNL A   1      49.803  30.110  26.405  1.00  0.00    -0.237 OA
ATOM     74  O   UNL A   1      50.366  27.723  26.558  1.00  0.00    -0.744 OA
ENDBRANCH  68  71
ENDBRANCH  50  64
BRANCH  51  75
ATOM     75  C   UNL A   1      37.045  32.211  30.702  1.00  0.00     0.023 A 
ATOM     76  C   UNL A   1      36.495  32.092  31.992  1.00  0.00     0.012 A 
ATOM     77  C   UNL A   1      36.270  32.781  29.674  1.00  0.00     0.148 A 
ATOM     78  C   UNL A   1      35.186  32.503  32.249  1.00  0.00     0.002 A 
ATOM     79  C   UNL A   1      34.985  33.236  29.949  1.00  0.00     0.091 A 
ATOM     80  F   UNL A   1      36.809  32.874  28.450  1.00  0.00    -0.205 F 
ATOM     81  C   UNL A   1      34.435  33.083  31.230  1.00  0.00     0.022 A 
BRANCH  79  82
ATOM     82  S   UNL A   1      33.991  34.109  28.733  1.00  0.00     0.127 S 
ATOM     83  O   UNL A   1      33.598  33.027  27.835  1.00  0.00    -0.237 OA
ATOM     84  O   UNL A   1      32.911  34.649  29.560  1.00  0.00    -0.237 OA
ATOM     85  O   UNL A   1      34.871  35.119  28.161  1.00  0.00    -0.744 OA
ENDBRANCH  79  82
ENDBRANCH  51  75
BRANCH  63  86
ATOM     86  C   UNL A   1      43.299  35.155  31.693  1.00  0.00     0.023 A 
ATOM     87  C   UNL A   1      43.589  35.308  33.063  1.00  0.00     0.012 A 
ATOM     88  C   UNL A   1      43.488  36.244  30.820  1.00  0.00     0.148 A 
ATOM     89  C   UNL A   1      44.029  36.532  33.561  1.00  0.00     0.002 A 
ATOM     90  C   UNL A   1      43.978  37.447  31.315  1.00  0.00     0.091 A 
ATOM     91  F   UNL A   1      43.190  36.084  29.522  1.00  0.00    -0.205 F 
ATOM     92  C   UNL A   1      44.236  37.597  32.687  1.00  0.00     0.022 A 
BRANCH  90  93
ATOM     93  S   UNL A   1      44.368  38.838  30.248  1.00  0.00     0.127 S 
ATOM     94  O   UNL A   1      44.558  39.915  31.219  1.00  0.00    -0.237 OA
ATOM     95  O   UNL A   1      45.594  38.389  29.588  1.00  0.00    -0.237 OA
ATOM     96  O   UNL A   1      43.226  38.994  29.358  1.00  0.00    -0.744 OA
ENDBRANCH  90  93
ENDBRANCH  63  86
ENDBRANCH  37  38
ENDBRANCH  29  32
ENDBRANCH  27  28
ENDBRANCH  26  27
ENDBRANCH   1  26
TORSDOF 20
ENDMDL
MODEL 2
REMARK VINA RESULT:     -10.4      4.668      9.452
REMARK SMILES CC(C)C[C@H](NC(=O)[C@](C)([NH3+])C(F)(F)F)C(=O)NCCCCNC(=O)c1ccc(-c2c3nc(c(-c4cccc(S(=O)(=O)[O-])c4F)c4ccc([nH]4)c(-c4cccc(S(=O)(=O)[O-])c4F)c4nc(c(-c5cccc(S(=O)(=O)[O-])c5F)c5ccc2[nH]5)C=C4)C=C3)cc1
REMARK SMILES IDX 20 1 19 2 18 3 16 4 17 5 5 7 4 8 2 9 1 10 3 11 6 12 7 13
REMARK SMILES IDX 8 15 9 16 10 17 11 18 12 22 13 23 14 24 15 25 21 26 22 27
REMARK SMILES IDX 23 28 24 29 25 31 26 32 27 33 88 34 28 35 87 36 29 37 30 38
REMARK SMILES IDX 31 39 81 40 32 41 86 42 80 43 82 44 33 45 85 46 79 47 78 48
REMARK SMILES IDX 34 50 66 51 46 52 65 53 47 54 50 55 64 56 83 57 48 58 49 59
REMARK SMILES IDX 63 61 84 62 51 63 35 64 36 65 44 66 37 67 39 68 45 69 38 70
REMARK SMILES IDX 40 71 41 72 42 73 43 74 67 75 68 76 76 77 69 78 71 79 77 80
REMARK SMILES IDX 70 81 72 82 73 83 74 84 75 85 52 86 53 87 61 88 54 89 56 90
REMARK SMILES IDX 62 91 55 92 57 93 58 94 59 95 60 96
REMARK H PARENT 18 6 6 14 11 19 11 20 11 21 23 30 82 49 50 60
REMARK Flexibility Score: inf
ROOT
ATOM      1  C   UNL A   1      33.754  27.354  24.460  1.00  0.00     0.023 C 
ENDROOT
BRANCH   1   2
ATOM      2  C   UNL A   1      33.854  26.154  25.391  1.00  0.00     0.116 C 
BRANCH   2   3
ATOM      3  N   UNL A   1      32.663  25.894  26.172  1.00  0.00    -0.354 N 
ATOM      4  C   UNL A   1      31.662  24.990  25.954  1.00  0.00     0.242 C 
ATOM      5  O   UNL A   1      30.855  24.766  26.858  1.00  0.00    -0.273 OA
ATOM      6  H   UNL A   1      32.560  26.450  26.978  1.00  0.00     0.163 HD
BRANCH   4   7
ATOM      7  C   UNL A   1      31.629  24.155  24.656  1.00  0.00     0.171 C 
BRANCH   7   8
ATOM      8  C   UNL A   1      30.564  24.848  23.739  1.00  0.00     0.038 C 
BRANCH   8   9
ATOM      9  C   UNL A   1      30.288  26.373  23.725  1.00  0.00    -0.015 C 
ATOM     10  C   UNL A   1      30.722  27.159  22.481  1.00  0.00     0.007 C 
ATOM     11  C   UNL A   1      28.758  26.560  23.819  1.00  0.00     0.007 C 
ENDBRANCH   8   9
ENDBRANCH   7   8
BRANCH   7  12
ATOM     12  N   UNL A   1      31.442  22.729  24.912  1.00  0.00    -0.339 N 
ATOM     13  C   UNL A   1      32.250  21.697  25.257  1.00  0.00     0.291 C 
ATOM     14  H   UNL A   1      30.503  22.451  24.811  1.00  0.00     0.164 HD
ATOM     15  O   UNL A   1      31.690  20.591  25.146  1.00  0.00    -0.267 OA
BRANCH  13  16
ATOM     16  C   UNL A   1      33.730  21.739  25.733  1.00  0.00     0.267 C 
ATOM     17  C   UNL A   1      34.650  22.564  24.842  1.00  0.00     0.100 C 
BRANCH  16  18
ATOM     18  N   UNL A   1      34.251  20.308  25.595  1.00  0.00    -0.337 N 
ATOM     19  H   UNL A   1      35.142  20.317  25.097  1.00  0.00     0.345 HD
ATOM     20  H   UNL A   1      33.575  19.749  25.073  1.00  0.00     0.345 HD
ATOM     21  H   UNL A   1      34.383  19.904  26.521  1.00  0.00     0.345 HD
ENDBRANCH  16  18
BRANCH  16  22
ATOM     22  C   UNL A   1      33.791  22.216  27.203  1.00  0.00     0.453 C 
ATOM     23  F   UNL A   1      34.514  21.360  27.966  1.00  0.00    -0.164 F 
ATOM     24  F   UNL A   1      34.359  23.425  27.342  1.00  0.00    -0.164 F 
ATOM     25  F   UNL A   1      32.553  22.280  27.750  1.00  0.00    -0.164 F 
ENDBRANCH  16  22
ENDBRANCH  13  16
ENDBRANCH   7  12
ENDBRANCH   4   7
ENDBRANCH   2   3
ENDBRANCH   1   2
BRANCH   1  26
ATOM     26  C   UNL A   1      33.257  28.636  25.116  1.00  0.00     0.023 C 
BRANCH  26  27
ATOM     27  C   UNL A   1      33.727  28.843  26.547  1.00  0.00     0.116 C 
BRANCH  27  28
ATOM     28  N   UNL A   1      33.715  30.240  26.958  1.00  0.00    -0.352 N 
ATOM     29  C   UNL A   1      34.649  30.917  27.704  1.00  0.00     0.251 C 
ATOM     30  H   UNL A   1      32.937  30.767  26.665  1.00  0.00     0.163 HD
ATOM     31  O   UNL A   1      34.440  32.076  28.054  1.00  0.00    -0.269 OA
BRANCH  29  32
ATOM     32  C   UNL A   1      35.885  30.220  28.109  1.00  0.00     0.039 A 
ATOM     33  C   UNL A   1      37.002  30.288  27.274  1.00  0.00     0.014 A 
ATOM     34  C   UNL A   1      35.957  29.558  29.338  1.00  0.00     0.014 A 
ATOM     35  C   UNL A   1      38.214  29.746  27.703  1.00  0.00     0.010 A 
ATOM     36  C   UNL A   1      37.184  29.100  29.800  1.00  0.00     0.010 A 
ATOM     37  C   UNL A   1      38.323  29.180  28.985  1.00  0.00    -0.014 A 
BRANCH  37  38
ATOM     38  C   UNL A   1      39.619  28.666  29.494  1.00  0.00     0.031 A 
ATOM     39  C   UNL A   1      40.310  29.367  30.632  1.00  0.00     0.074 A 
ATOM     40  C   UNL A   1      40.217  27.630  28.874  1.00  0.00     0.049 A 
ATOM     41  N   UNL A   1      41.468  29.106  31.179  1.00  0.00    -0.248 NA
ATOM     42  C   UNL A   1      39.624  30.535  31.213  1.00  0.00     0.031 C 
ATOM     43  C   UNL A   1      39.690  26.922  27.705  1.00  0.00     0.029 A 
ATOM     44  N   UNL A   1      41.415  27.007  29.125  1.00  0.00    -0.354 N 
ATOM     45  C   UNL A   1      41.670  30.096  32.134  1.00  0.00     0.074 A 
ATOM     46  C   UNL A   1      40.531  30.985  32.068  1.00  0.00     0.031 C 
ATOM     47  C   UNL A   1      40.551  25.957  27.348  1.00  0.00     0.029 A 
ATOM     48  C   UNL A   1      41.706  25.994  28.240  1.00  0.00     0.049 A 
ATOM     49  H   UNL A   1      42.008  27.261  29.866  1.00  0.00     0.167 HD
ATOM     50  C   UNL A   1      42.693  30.236  33.008  1.00  0.00     0.034 A 
ATOM     51  C   UNL A   1      42.783  25.189  28.157  1.00  0.00     0.034 A 
ATOM     52  C   UNL A   1      43.794  29.318  33.106  1.00  0.00     0.049 A 
ATOM     53  C   UNL A   1      43.883  25.335  29.174  1.00  0.00     0.074 A 
ATOM     54  C   UNL A   1      44.827  29.310  34.027  1.00  0.00     0.029 A 
ATOM     55  N   UNL A   1      44.012  28.248  32.251  1.00  0.00    -0.354 N 
ATOM     56  N   UNL A   1      43.971  26.171  30.181  1.00  0.00    -0.248 NA
ATOM     57  C   UNL A   1      45.014  24.402  29.068  1.00  0.00     0.031 C 
ATOM     58  C   UNL A   1      45.683  28.249  33.713  1.00  0.00     0.029 A 
ATOM     59  C   UNL A   1      45.168  27.581  32.614  1.00  0.00     0.049 A 
ATOM     60  H   UNL A   1      43.430  28.002  31.497  1.00  0.00     0.167 HD
ATOM     61  C   UNL A   1      45.145  25.842  30.848  1.00  0.00     0.074 A 
ATOM     62  C   UNL A   1      45.724  24.716  30.144  1.00  0.00     0.031 C 
ATOM     63  C   UNL A   1      45.701  26.426  31.938  1.00  0.00     0.034 A 
BRANCH  50  64
ATOM     64  C   UNL A   1      42.641  31.396  33.967  1.00  0.00     0.023 A 
ATOM     65  C   UNL A   1      43.346  32.580  33.668  1.00  0.00     0.012 A 
ATOM     66  C   UNL A   1      41.852  31.337  35.132  1.00  0.00     0.148 A 
ATOM     67  C   UNL A   1      43.298  33.674  34.532  1.00  0.00     0.002 A 
ATOM     68  C   UNL A   1      41.771  32.449  35.964  1.00  0.00     0.091 A 
ATOM     69  F   UNL A   1      41.206  30.197  35.412  1.00  0.00    -0.205 F 
ATOM     70  C   UNL A   1      42.503  33.612  35.672  1.00  0.00     0.022 A 
BRANCH  68  71
ATOM     71  S   UNL A   1      40.712  32.498  37.414  1.00  0.00     0.127 S 
ATOM     72  O   UNL A   1      41.594  31.949  38.442  1.00  0.00    -0.237 OA
ATOM     73  O   UNL A   1      40.439  33.931  37.547  1.00  0.00    -0.237 OA
ATOM     74  O   UNL A   1      39.548  31.686  37.089  1.00  0.00    -0.744 OA
ENDBRANCH  68  71
ENDBRANCH  50  64
BRANCH  51  75
ATOM     75  C   UNL A   1      42.839  24.121  27.119  1.00  0.00     0.023 A 
ATOM     76  C   UNL A   1      43.582  24.343  25.943  1.00  0.00     0.012 A 
ATOM     77  C   UNL A   1      42.188  22.885  27.296  1.00  0.00     0.148 A 
ATOM     78  C   UNL A   1      43.648  23.369  24.947  1.00  0.00     0.002 A 
ATOM     79  C   UNL A   1      42.301  21.898  26.323  1.00  0.00     0.091 A 
ATOM     80  F   UNL A   1      41.477  22.697  28.417  1.00  0.00    -0.205 F 
ATOM     81  C   UNL A   1      43.016  22.143  25.141  1.00  0.00     0.022 A 
BRANCH  79  82
ATOM     82  S   UNL A   1      41.628  20.247  26.541  1.00  0.00     0.127 S 
ATOM     83  O   UNL A   1      42.248  19.835  27.797  1.00  0.00    -0.237 OA
ATOM     84  O   UNL A   1      40.192  20.515  26.621  1.00  0.00    -0.237 OA
ATOM     85  O   UNL A   1      42.034  19.499  25.359  1.00  0.00    -0.744 OA
ENDBRANCH  79  82
ENDBRANCH  51  75
BRANCH  63  86
ATOM     86  C   UNL A   1      46.985  25.842  32.467  1.00  0.00     0.023 A 
ATOM     87  C   UNL A   1      48.221  26.293  31.965  1.00  0.00     0.012 A 
ATOM     88  C   UNL A   1      46.965  24.905  33.519  1.00  0.00     0.148 A 
ATOM     89  C   UNL A   1      49.418  25.796  32.479  1.00  0.00     0.002 A 
ATOM     90  C   UNL A   1      48.162  24.453  34.061  1.00  0.00     0.091 A 
ATOM     91  F   UNL A   1      45.778  24.475  33.971  1.00  0.00    -0.205 F 
ATOM     92  C   UNL A   1      49.389  24.887  33.534  1.00  0.00     0.022 A 
BRANCH  90  93
ATOM     93  S   UNL A   1      48.220  23.359  35.485  1.00  0.00     0.127 S 
ATOM     94  O   UNL A   1      47.636  22.133  34.943  1.00  0.00    -0.237 OA
ATOM     95  O   UNL A   1      49.655  23.281  35.759  1.00  0.00    -0.237 OA
ATOM     96  O   UNL A   1      47.442  24.015  36.527  1.00  0.00    -0.744 OA
ENDBRANCH  90  93
ENDBRANCH  63  86
ENDBRANCH  37  38
ENDBRANCH  29  32
ENDBRANCH  27  28
ENDBRANCH  26  27
ENDBRANCH   1  26
TORSDOF 20
ENDMDL
MODEL 3
REMARK VINA RESULT:     -10.3      5.987      8.547
REMARK SMILES CC(C)C[C@H](NC(=O)[C@](C)([NH3+])C(F)(F)F)C(=O)NCCCCNC(=O)c1ccc(-c2c3nc(c(-c4cccc(S(=O)(=O)[O-])c4F)c4ccc([nH]4)c(-c4cccc(S(=O)(=O)[O-])c4F)c4nc(c(-c5cccc(S(=O)(=O)[O-])c5F)c5ccc2[nH]5)C=C4)C=C3)cc1
REMARK SMILES IDX 20 1 19 2 18 3 16 4 17 5 5 7 4 8 2 9 1 10 3 11 6 12 7 13
REMARK SMILES IDX 8 15 9 16 10 17 11 18 12 22 13 23 14 24 15 25 21 26 22 27
REMARK SMILES IDX 23 28 24 29 25 31 26 32 27 33 88 34 28 35 87 36 29 37 30 38
REMARK SMILES IDX 31 39 81 40 32 41 86 42 80 43 82 44 33 45 85 46 79 47 78 48
REMARK SMILES IDX 34 50 66 51 46 52 65 53 47 54 50 55 64 56 83 57 48 58 49 59
REMARK SMILES IDX 63 61 84 62 51 63 35 64 36 65 44 66 37 67 39 68 45 69 38 70
REMARK SMILES IDX 40 71 41 72 42 73 43 74 67 75 68 76 76 77 69 78 71 79 77 80
REMARK SMILES IDX 70 81 72 82 73 83 74 84 75 85 52 86 53 87 61 88 54 89 56 90
REMARK SMILES IDX 62 91 55 92 57 93 58 94 59 95 60 96
REMARK H PARENT 18 6 6 14 11 19 11 20 11 21 23 30 82 49 50 60
REMARK Flexibility Score: inf
ROOT
ATOM      1  C   UNL A   1      32.939  30.086  27.009  1.00  0.00     0.023 C 
ENDROOT
BRANCH   1   2
ATOM      2  C   UNL A   1      32.282  29.314  25.873  1.00  0.00     0.116 C 
BRANCH   2   3
ATOM      3  N   UNL A   1      33.129  29.096  24.721  1.00  0.00    -0.354 N 
ATOM      4  C   UNL A   1      32.783  28.794  23.433  1.00  0.00     0.242 C 
ATOM      5  O   UNL A   1      33.641  28.876  22.552  1.00  0.00    -0.273 OA
ATOM      6  H   UNL A   1      34.096  29.180  24.888  1.00  0.00     0.163 HD
BRANCH   4   7
ATOM      7  C   UNL A   1      31.314  28.499  23.066  1.00  0.00     0.171 C 
BRANCH   7   8
ATOM      8  C   UNL A   1      31.243  26.952  22.827  1.00  0.00     0.038 C 
BRANCH   8   9
ATOM      9  C   UNL A   1      30.214  26.013  23.506  1.00  0.00    -0.015 C 
ATOM     10  C   UNL A   1      30.488  24.504  23.449  1.00  0.00     0.007 C 
ATOM     11  C   UNL A   1      30.190  26.372  25.007  1.00  0.00     0.007 C 
ENDBRANCH   8   9
ENDBRANCH   7   8
BRANCH   7  12
ATOM     12  N   UNL A   1      30.826  29.349  21.983  1.00  0.00    -0.339 N 
ATOM     13  C   UNL A   1      29.861  30.293  21.856  1.00  0.00     0.291 C 
ATOM     14  H   UNL A   1      31.318  29.203  21.142  1.00  0.00     0.164 HD
ATOM     15  O   UNL A   1      29.644  30.602  20.671  1.00  0.00    -0.267 OA
BRANCH  13  16
ATOM     16  C   UNL A   1      29.024  30.981  22.973  1.00  0.00     0.267 C 
ATOM     17  C   UNL A   1      28.707  32.446  22.703  1.00  0.00     0.100 C 
BRANCH  16  18
ATOM     18  N   UNL A   1      29.926  31.010  24.208  1.00  0.00    -0.337 N 
ATOM     19  H   UNL A   1      30.045  31.974  24.520  1.00  0.00     0.345 HD
ATOM     20  H   UNL A   1      30.835  30.612  23.973  1.00  0.00     0.345 HD
ATOM     21  H   UNL A   1      29.498  30.462  24.953  1.00  0.00     0.345 HD
ENDBRANCH  16  18
BRANCH  16  22
ATOM     22  C   UNL A   1      27.739  30.164  23.239  1.00  0.00     0.453 C 
ATOM     23  F   UNL A   1      26.978  30.745  24.198  1.00  0.00    -0.164 F 
ATOM     24  F   UNL A   1      26.957  30.042  22.153  1.00  0.00    -0.164 F 
ATOM     25  F   UNL A   1      28.031  28.915  23.673  1.00  0.00    -0.164 F 
ENDBRANCH  16  22
ENDBRANCH  13  16
ENDBRANCH   7  12
ENDBRANCH   4   7
ENDBRANCH   2   3
ENDBRANCH   1   2
BRANCH   1  26
ATOM     26  C   UNL A   1      32.358  31.471  27.264  1.00  0.00     0.023 C 
BRANCH  26  27
ATOM     27  C   UNL A   1      33.366  32.607  27.198  1.00  0.00     0.116 C 
BRANCH  27  28
ATOM     28  N   UNL A   1      32.818  33.886  27.629  1.00  0.00    -0.352 N 
ATOM     29  C   UNL A   1      33.191  34.654  28.705  1.00  0.00     0.251 C 
ATOM     30  H   UNL A   1      32.086  34.247  27.079  1.00  0.00     0.163 HD
ATOM     31  O   UNL A   1      32.558  35.665  28.994  1.00  0.00    -0.269 OA
BRANCH  29  32
ATOM     32  C   UNL A   1      34.338  34.223  29.529  1.00  0.00     0.039 A 
ATOM     33  C   UNL A   1      34.098  33.451  30.668  1.00  0.00     0.014 A 
ATOM     34  C   UNL A   1      35.645  34.528  29.141  1.00  0.00     0.014 A 
ATOM     35  C   UNL A   1      35.176  32.928  31.382  1.00  0.00     0.010 A 
ATOM     36  C   UNL A   1      36.713  33.933  29.800  1.00  0.00     0.010 A 
ATOM     37  C   UNL A   1      36.492  33.135  30.933  1.00  0.00    -0.014 A 
BRANCH  37  38
ATOM     38  C   UNL A   1      37.651  32.525  31.631  1.00  0.00     0.031 A 
ATOM     39  C   UNL A   1      38.401  31.389  30.990  1.00  0.00     0.074 A 
ATOM     40  C   UNL A   1      37.969  32.930  32.876  1.00  0.00     0.049 A 
ATOM     41  N   UNL A   1      39.400  30.692  31.463  1.00  0.00    -0.248 NA
ATOM     42  C   UNL A   1      37.949  30.958  29.656  1.00  0.00     0.031 C 
ATOM     43  C   UNL A   1      37.263  33.962  33.639  1.00  0.00     0.029 A 
ATOM     44  N   UNL A   1      38.954  32.503  33.732  1.00  0.00    -0.354 N 
ATOM     45  C   UNL A   1      39.669  29.717  30.509  1.00  0.00     0.074 A 
ATOM     46  C   UNL A   1      38.704  29.889  29.445  1.00  0.00     0.031 C 
ATOM     47  C   UNL A   1      37.843  34.096  34.842  1.00  0.00     0.029 A 
ATOM     48  C   UNL A   1      38.942  33.142  34.951  1.00  0.00     0.049 A 
ATOM     49  H   UNL A   1      39.606  31.806  33.496  1.00  0.00     0.167 HD
ATOM     50  C   UNL A   1      40.648  28.783  30.502  1.00  0.00     0.034 A 
ATOM     51  C   UNL A   1      39.726  32.974  36.033  1.00  0.00     0.034 A 
ATOM     52  C   UNL A   1      41.639  28.653  31.535  1.00  0.00     0.049 A 
ATOM     53  C   UNL A   1      40.840  31.963  35.978  1.00  0.00     0.074 A 
ATOM     54  C   UNL A   1      42.736  27.811  31.572  1.00  0.00     0.029 A 
ATOM     55  N   UNL A   1      41.650  29.379  32.716  1.00  0.00    -0.354 N 
ATOM     56  N   UNL A   1      41.185  31.168  34.993  1.00  0.00    -0.248 NA
ATOM     57  C   UNL A   1      41.696  31.851  37.168  1.00  0.00     0.031 C 
ATOM     58  C   UNL A   1      43.397  28.010  32.788  1.00  0.00     0.029 A 
ATOM     59  C   UNL A   1      42.727  28.996  33.495  1.00  0.00     0.049 A 
ATOM     60  H   UNL A   1      40.989  30.064  32.964  1.00  0.00     0.167 HD
ATOM     61  C   UNL A   1      42.317  30.490  35.430  1.00  0.00     0.074 A 
ATOM     62  C   UNL A   1      42.613  30.984  36.760  1.00  0.00     0.031 C 
ATOM     63  C   UNL A   1      43.041  29.537  34.793  1.00  0.00     0.034 A 
BRANCH  50  64
ATOM     64  C   UNL A   1      40.731  27.864  29.311  1.00  0.00     0.023 A 
ATOM     65  C   UNL A   1      39.910  26.718  29.256  1.00  0.00     0.012 A 
ATOM     66  C   UNL A   1      41.575  28.162  28.224  1.00  0.00     0.148 A 
ATOM     67  C   UNL A   1      39.956  25.863  28.157  1.00  0.00     0.002 A 
ATOM     68  C   UNL A   1      41.580  27.329  27.110  1.00  0.00     0.091 A 
ATOM     69  F   UNL A   1      42.363  29.242  28.302  1.00  0.00    -0.205 F 
ATOM     70  C   UNL A   1      40.780  26.174  27.081  1.00  0.00     0.022 A 
BRANCH  68  71
ATOM     71  S   UNL A   1      42.547  27.685  25.639  1.00  0.00     0.127 S 
ATOM     72  O   UNL A   1      43.899  27.767  26.188  1.00  0.00    -0.237 OA
ATOM     73  O   UNL A   1      42.296  26.504  24.812  1.00  0.00    -0.237 OA
ATOM     74  O   UNL A   1      42.014  28.928  25.099  1.00  0.00    -0.744 OA
ENDBRANCH  68  71
ENDBRANCH  50  64
BRANCH  51  75
ATOM     75  C   UNL A   1      39.537  33.837  37.234  1.00  0.00     0.023 A 
ATOM     76  C   UNL A   1      40.009  35.163  37.208  1.00  0.00     0.012 A 
ATOM     77  C   UNL A   1      38.876  33.365  38.384  1.00  0.00     0.148 A 
ATOM     78  C   UNL A   1      39.857  35.996  38.318  1.00  0.00     0.002 A 
ATOM     79  C   UNL A   1      38.681  34.216  39.467  1.00  0.00     0.091 A 
ATOM     80  F   UNL A   1      38.444  32.097  38.393  1.00  0.00    -0.205 F 
ATOM     81  C   UNL A   1      39.185  35.525  39.443  1.00  0.00     0.022 A 
BRANCH  79  82
ATOM     82  S   UNL A   1      37.718  33.739  40.906  1.00  0.00     0.127 S 
ATOM     83  O   UNL A   1      38.612  32.789  41.562  1.00  0.00    -0.237 OA
ATOM     84  O   UNL A   1      37.560  35.018  41.601  1.00  0.00    -0.237 OA
ATOM     85  O   UNL A   1      36.478  33.184  40.381  1.00  0.00    -0.744 OA
ENDBRANCH  79  82
ENDBRANCH  51  75
BRANCH  63  86
ATOM     86  C   UNL A   1      44.248  28.982  35.503  1.00  0.00     0.023 A 
ATOM     87  C   UNL A   1      45.510  29.578  35.312  1.00  0.00     0.012 A 
ATOM     88  C   UNL A   1      44.115  27.922  36.421  1.00  0.00     0.148 A 
ATOM     89  C   UNL A   1      46.627  29.106  35.998  1.00  0.00     0.002 A 
ATOM     90  C   UNL A   1      45.224  27.491  37.140  1.00  0.00     0.091 A 
ATOM     91  F   UNL A   1      42.909  27.357  36.576  1.00  0.00    -0.205 F 
ATOM     92  C   UNL A   1      46.483  28.072  36.920  1.00  0.00     0.022 A 
BRANCH  90  93
ATOM     93  S   UNL A   1      45.110  26.234  38.419  1.00  0.00     0.127 S 
ATOM     94  O   UNL A   1      44.138  26.828  39.336  1.00  0.00    -0.237 OA
ATOM     95  O   UNL A   1      44.616  25.076  37.673  1.00  0.00    -0.237 OA
ATOM     96  O   UNL A   1      46.457  26.079  38.950  1.00  0.00    -0.744 OA
ENDBRANCH  90  93
ENDBRANCH  63  86
ENDBRANCH  37  38
ENDBRANCH  29  32
ENDBRANCH  27  28
ENDBRANCH  26  27
ENDBRANCH   1  26
TORSDOF 20
ENDMDL
