MODEL 1
REMARK VINA RESULT:     -13.4      0.000      0.000
REMARK SMILES Cc1ccccc1C(=O)Nc1cc(C(=O)NCCCCNC(=O)c2ccc(-c3c4nc(c(-c5cccc(S(=O)(=O)[O-])c5F)c5ccc([nH]5)c(-c5cccc(S(=O)(=O)[O-])c5F)c5nc(c(-c6cccc(S(=O)(=O)[O-])c6F)c6ccc3[nH]6)C=C5)C=C4)cc2)ccc1N1CC[NH+](CC(=O)Nc2ccc(F)cc2)CC1
REMARK SMILES IDX 18 1 17 2 16 3 14 4 15 5 13 7 11 8 12 9 89 10 88 11 87 12
REMARK SMILES IDX 10 13 8 14 9 15 7 17 1 18 2 19 3 20 4 21 6 22 5 23 90 24
REMARK SMILES IDX 91 25 106 26 92 27 105 28 93 29 94 31 95 32 96 33 97 34
REMARK SMILES IDX 98 36 99 37 104 38 100 39 103 40 101 41 102 42 19 43 20 44
REMARK SMILES IDX 21 45 22 46 23 48 24 49 25 50 86 51 26 52 85 53 27 54 28 55
REMARK SMILES IDX 29 56 79 57 30 58 84 59 78 60 80 61 31 62 83 63 77 64 76 65
REMARK SMILES IDX 32 67 64 68 44 69 63 70 45 71 48 72 62 73 81 74 46 75 47 76
REMARK SMILES IDX 61 78 82 79 49 80 33 81 34 82 42 83 35 84 37 85 43 86 36 87
REMARK SMILES IDX 38 88 39 89 40 90 41 91 65 92 66 93 74 94 67 95 69 96 75 97
REMARK SMILES IDX 68 98 70 99 71 100 72 101 73 102 50 103 51 104 59 105 52 106
REMARK SMILES IDX 54 107 60 108 53 109 55 110 56 111 57 112 58 113
REMARK H PARENT 16 6 10 16 93 30 97 35 21 47 80 66 48 77
REMARK Flexibility Score: inf
ROOT
ATOM      1  C   UNL A   1      40.484  22.596  27.084  1.00  0.00     0.023 C 
ENDROOT
BRANCH   1   2
ATOM      2  C   UNL A   1      39.073  22.580  26.463  1.00  0.00     0.116 C 
BRANCH   2   3
ATOM      3  N   UNL A   1      38.714  21.283  25.910  1.00  0.00    -0.352 N 
ATOM      4  C   UNL A   1      37.692  20.852  25.097  1.00  0.00     0.251 C 
ATOM      5  O   UNL A   1      37.693  19.666  24.761  1.00  0.00    -0.269 OA
ATOM      6  H   UNL A   1      39.331  20.562  26.174  1.00  0.00     0.163 HD
BRANCH   4   7
ATOM      7  C   UNL A   1      36.606  21.734  24.576  1.00  0.00     0.042 A 
ATOM      8  C   UNL A   1      34.327  22.541  24.581  1.00  0.00     0.065 A 
ATOM      9  C   UNL A   1      35.281  21.602  24.935  1.00  0.00     0.042 A 
ATOM     10  C   UNL A   1      34.606  23.594  23.678  1.00  0.00     0.061 A 
ATOM     11  C   UNL A   1      35.938  23.682  23.247  1.00  0.00     0.029 A 
ATOM     12  C   UNL A   1      36.928  22.794  23.718  1.00  0.00     0.016 A 
BRANCH   8  13
ATOM     13  N   UNL A   1      33.067  22.403  25.184  1.00  0.00    -0.320 N 
ATOM     14  C   UNL A   1      32.275  21.263  25.237  1.00  0.00     0.255 C 
ATOM     15  O   UNL A   1      31.352  21.249  26.058  1.00  0.00    -0.269 OA
ATOM     16  H   UNL A   1      32.702  23.207  25.619  1.00  0.00     0.170 HD
BRANCH  14  17
ATOM     17  C   UNL A   1      32.458  20.065  24.361  1.00  0.00     0.043 A 
ATOM     18  C   UNL A   1      31.869  21.067  22.038  1.00  0.00     0.045 C 
ATOM     19  C   UNL A   1      32.245  19.951  22.967  1.00  0.00    -0.038 A 
ATOM     20  C   UNL A   1      32.401  18.687  22.356  1.00  0.00     0.004 A 
ATOM     21  C   UNL A   1      32.833  17.582  23.082  1.00  0.00     0.000 A 
ATOM     22  C   UNL A   1      32.948  18.949  25.063  1.00  0.00     0.014 A 
ATOM     23  C   UNL A   1      33.126  17.722  24.430  1.00  0.00     0.001 A 
ENDBRANCH  14  17
ENDBRANCH   8  13
BRANCH  10  24
ATOM     24  N   UNL A   1      33.646  24.524  23.306  1.00  0.00    -0.359 N 
ATOM     25  C   UNL A   1      33.124  24.695  21.929  1.00  0.00     0.178 C 
ATOM     26  C   UNL A   1      33.540  25.762  24.071  1.00  0.00     0.178 C 
ATOM     27  C   UNL A   1      31.797  25.558  21.893  1.00  0.00     0.284 C 
ATOM     28  C   UNL A   1      32.050  26.074  24.203  1.00  0.00     0.284 C 
ATOM     29  N   UNL A   1      31.547  26.584  22.936  1.00  0.00    -0.324 N 
ATOM     30  H   UNL A   1      30.534  26.701  22.929  1.00  0.00     0.348 HD
BRANCH  29  31
ATOM     31  C   UNL A   1      31.932  27.998  22.695  1.00  0.00     0.364 C 
BRANCH  31  32
ATOM     32  C   UNL A   1      31.071  29.119  23.277  1.00  0.00     0.279 C 
ATOM     33  O   UNL A   1      30.118  29.550  22.606  1.00  0.00    -0.268 OA
ATOM     34  N   UNL A   1      31.196  29.659  24.531  1.00  0.00    -0.321 N 
ATOM     35  H   UNL A   1      30.355  30.096  24.797  1.00  0.00     0.170 HD
BRANCH  34  36
ATOM     36  C   UNL A   1      32.158  29.787  25.565  1.00  0.00     0.041 A 
ATOM     37  C   UNL A   1      31.980  30.877  26.439  1.00  0.00     0.029 A 
ATOM     38  C   UNL A   1      33.316  29.035  25.732  1.00  0.00     0.029 A 
ATOM     39  C   UNL A   1      32.932  31.210  27.416  1.00  0.00     0.041 A 
ATOM     40  C   UNL A   1      34.308  29.400  26.662  1.00  0.00     0.041 A 
ATOM     41  C   UNL A   1      34.103  30.479  27.504  1.00  0.00     0.123 A 
ATOM     42  F   UNL A   1      35.031  30.812  28.410  1.00  0.00    -0.207 F 
ENDBRANCH  34  36
ENDBRANCH  31  32
ENDBRANCH  29  31
ENDBRANCH  10  24
ENDBRANCH   4   7
ENDBRANCH   2   3
ENDBRANCH   1   2
BRANCH   1  43
ATOM     43  C   UNL A   1      41.589  22.247  26.095  1.00  0.00     0.023 C 
BRANCH  43  44
ATOM     44  C   UNL A   1      42.315  20.975  26.490  1.00  0.00     0.116 C 
BRANCH  44  45
ATOM     45  N   UNL A   1      43.167  20.426  25.459  1.00  0.00    -0.352 N 
ATOM     46  C   UNL A   1      44.194  21.038  24.767  1.00  0.00     0.251 C 
ATOM     47  H   UNL A   1      42.990  19.488  25.217  1.00  0.00     0.163 HD
ATOM     48  O   UNL A   1      44.567  20.505  23.719  1.00  0.00    -0.269 OA
BRANCH  46  49
ATOM     49  C   UNL A   1      44.940  22.194  25.344  1.00  0.00     0.039 A 
ATOM     50  C   UNL A   1      45.047  22.255  26.741  1.00  0.00     0.014 A 
ATOM     51  C   UNL A   1      45.286  23.313  24.592  1.00  0.00     0.014 A 
ATOM     52  C   UNL A   1      45.207  23.482  27.379  1.00  0.00     0.010 A 
ATOM     53  C   UNL A   1      45.326  24.540  25.207  1.00  0.00     0.010 A 
ATOM     54  C   UNL A   1      45.208  24.624  26.596  1.00  0.00    -0.014 A 
BRANCH  54  55
ATOM     55  C   UNL A   1      45.048  25.978  27.083  1.00  0.00     0.031 A 
ATOM     56  C   UNL A   1      43.725  26.611  27.026  1.00  0.00     0.074 A 
ATOM     57  C   UNL A   1      46.010  26.416  27.924  1.00  0.00     0.049 A 
ATOM     58  N   UNL A   1      43.491  27.805  27.437  1.00  0.00    -0.248 NA
ATOM     59  C   UNL A   1      42.556  25.949  26.454  1.00  0.00     0.031 C 
ATOM     60  C   UNL A   1      45.873  27.341  29.037  1.00  0.00     0.029 A 
ATOM     61  N   UNL A   1      47.387  26.217  27.805  1.00  0.00    -0.354 N 
ATOM     62  C   UNL A   1      42.124  27.937  27.509  1.00  0.00     0.074 A 
ATOM     63  C   UNL A   1      41.602  26.845  26.729  1.00  0.00     0.031 C 
ATOM     64  C   UNL A   1      47.085  27.829  29.343  1.00  0.00     0.029 A 
ATOM     65  C   UNL A   1      48.000  27.375  28.311  1.00  0.00     0.049 A 
ATOM     66  H   UNL A   1      47.839  25.422  27.440  1.00  0.00     0.167 HD
ATOM     67  C   UNL A   1      41.613  28.855  28.374  1.00  0.00     0.034 A 
ATOM     68  C   UNL A   1      48.828  28.175  27.579  1.00  0.00     0.034 A 
ATOM     69  C   UNL A   1      42.680  29.744  28.868  1.00  0.00     0.049 A 
ATOM     70  C   UNL A   1      48.262  29.576  27.445  1.00  0.00     0.074 A 
ATOM     71  C   UNL A   1      43.348  29.852  30.075  1.00  0.00     0.029 A 
ATOM     72  N   UNL A   1      43.407  30.506  27.953  1.00  0.00    -0.354 N 
ATOM     73  N   UNL A   1      47.058  29.901  27.835  1.00  0.00    -0.248 NA
ATOM     74  C   UNL A   1      48.977  30.719  26.890  1.00  0.00     0.031 C 
ATOM     75  C   UNL A   1      44.556  30.573  29.842  1.00  0.00     0.029 A 
ATOM     76  C   UNL A   1      44.596  30.955  28.509  1.00  0.00     0.049 A 
ATOM     77  H   UNL A   1      43.113  30.701  27.033  1.00  0.00     0.167 HD
ATOM     78  C   UNL A   1      46.788  31.203  27.531  1.00  0.00     0.074 A 
ATOM     79  C   UNL A   1      48.048  31.690  26.989  1.00  0.00     0.031 C 
ATOM     80  C   UNL A   1      45.541  31.740  27.709  1.00  0.00     0.034 A 
BRANCH  67  81
ATOM     81  C   UNL A   1      40.201  28.845  28.943  1.00  0.00     0.023 A 
ATOM     82  C   UNL A   1      39.137  28.931  28.018  1.00  0.00     0.012 A 
ATOM     83  C   UNL A   1      39.826  28.863  30.313  1.00  0.00     0.148 A 
ATOM     84  C   UNL A   1      37.797  29.036  28.417  1.00  0.00     0.002 A 
ATOM     85  C   UNL A   1      38.486  28.892  30.711  1.00  0.00     0.091 A 
ATOM     86  F   UNL A   1      40.753  28.951  31.267  1.00  0.00    -0.205 F 
ATOM     87  C   UNL A   1      37.467  28.998  29.764  1.00  0.00     0.022 A 
BRANCH  85  88
ATOM     88  S   UNL A   1      37.988  28.793  32.444  1.00  0.00     0.127 S 
ATOM     89  O   UNL A   1      38.949  29.683  33.093  1.00  0.00    -0.237 OA
ATOM     90  O   UNL A   1      36.616  29.301  32.406  1.00  0.00    -0.237 OA
ATOM     91  O   UNL A   1      38.094  27.387  32.820  1.00  0.00    -0.744 OA
ENDBRANCH  85  88
ENDBRANCH  67  81
BRANCH  68  92
ATOM     92  C   UNL A   1      49.648  27.409  26.592  1.00  0.00     0.023 A 
ATOM     93  C   UNL A   1      49.227  27.517  25.242  1.00  0.00     0.012 A 
ATOM     94  C   UNL A   1      50.987  27.070  26.857  1.00  0.00     0.148 A 
ATOM     95  C   UNL A   1      50.152  27.478  24.196  1.00  0.00     0.002 A 
ATOM     96  C   UNL A   1      51.905  27.039  25.805  1.00  0.00     0.091 A 
ATOM     97  F   UNL A   1      51.363  26.905  28.132  1.00  0.00    -0.205 F 
ATOM     98  C   UNL A   1      51.497  27.287  24.483  1.00  0.00     0.022 A 
BRANCH  96  99
ATOM     99  S   UNL A   1      53.674  26.878  26.107  1.00  0.00     0.127 S 
ATOM    100  O   UNL A   1      53.967  28.117  26.820  1.00  0.00    -0.237 OA
ATOM    101  O   UNL A   1      53.748  25.666  26.921  1.00  0.00    -0.237 OA
ATOM    102  O   UNL A   1      54.263  26.740  24.783  1.00  0.00    -0.744 OA
ENDBRANCH  96  99
ENDBRANCH  68  92
BRANCH  80 103
ATOM    103  C   UNL A   1      45.081  33.060  27.119  1.00  0.00     0.023 A 
ATOM    104  C   UNL A   1      44.447  33.142  25.865  1.00  0.00     0.012 A 
ATOM    105  C   UNL A   1      45.109  34.246  27.898  1.00  0.00     0.148 A 
ATOM    106  C   UNL A   1      43.913  34.342  25.383  1.00  0.00     0.002 A 
ATOM    107  C   UNL A   1      44.463  35.401  27.468  1.00  0.00     0.091 A 
ATOM    108  F   UNL A   1      45.774  34.269  29.062  1.00  0.00    -0.205 F 
ATOM    109  C   UNL A   1      43.894  35.465  26.196  1.00  0.00     0.022 A 
BRANCH 107 110
ATOM    110  S   UNL A   1      44.176  36.764  28.605  1.00  0.00     0.127 S 
ATOM    111  O   UNL A   1      45.529  37.271  28.823  1.00  0.00    -0.237 OA
ATOM    112  O   UNL A   1      43.310  37.650  27.825  1.00  0.00    -0.237 OA
ATOM    113  O   UNL A   1      43.520  36.158  29.757  1.00  0.00    -0.744 OA
ENDBRANCH 107 110
ENDBRANCH  80 103
ENDBRANCH  54  55
ENDBRANCH  46  49
ENDBRANCH  44  45
ENDBRANCH  43  44
ENDBRANCH   1  43
TORSDOF 20
ENDMDL
MODEL 2
REMARK VINA RESULT:     -12.9      1.717      2.355
REMARK SMILES Cc1ccccc1C(=O)Nc1cc(C(=O)NCCCCNC(=O)c2ccc(-c3c4nc(c(-c5cccc(S(=O)(=O)[O-])c5F)c5ccc([nH]5)c(-c5cccc(S(=O)(=O)[O-])c5F)c5nc(c(-c6cccc(S(=O)(=O)[O-])c6F)c6ccc3[nH]6)C=C5)C=C4)cc2)ccc1N1CC[NH+](CC(=O)Nc2ccc(F)cc2)CC1
REMARK SMILES IDX 18 1 17 2 16 3 14 4 15 5 13 7 11 8 12 9 89 10 88 11 87 12
REMARK SMILES IDX 10 13 8 14 9 15 7 17 1 18 2 19 3 20 4 21 6 22 5 23 90 24
REMARK SMILES IDX 91 25 106 26 92 27 105 28 93 29 94 31 95 32 96 33 97 34
REMARK SMILES IDX 98 36 99 37 104 38 100 39 103 40 101 41 102 42 19 43 20 44
REMARK SMILES IDX 21 45 22 46 23 48 24 49 25 50 86 51 26 52 85 53 27 54 28 55
REMARK SMILES IDX 29 56 79 57 30 58 84 59 78 60 80 61 31 62 83 63 77 64 76 65
REMARK SMILES IDX 32 67 64 68 44 69 63 70 45 71 48 72 62 73 81 74 46 75 47 76
REMARK SMILES IDX 61 78 82 79 49 80 33 81 34 82 42 83 35 84 37 85 43 86 36 87
REMARK SMILES IDX 38 88 39 89 40 90 41 91 65 92 66 93 74 94 67 95 69 96 75 97
REMARK SMILES IDX 68 98 70 99 71 100 72 101 73 102 50 103 51 104 59 105 52 106
REMARK SMILES IDX 54 107 60 108 53 109 55 110 56 111 57 112 58 113
REMARK H PARENT 16 6 10 16 93 30 97 35 21 47 80 66 48 77
REMARK Flexibility Score: inf
ROOT
ATOM      1  C   UNL A   1      40.356  22.638  27.032  1.00  0.00     0.023 C 
ENDROOT
BRANCH   1   2
ATOM      2  C   UNL A   1      38.965  22.654  26.367  1.00  0.00     0.116 C 
BRANCH   2   3
ATOM      3  N   UNL A   1      38.592  21.363  25.808  1.00  0.00    -0.352 N 
ATOM      4  C   UNL A   1      37.555  20.945  25.006  1.00  0.00     0.251 C 
ATOM      5  O   UNL A   1      37.545  19.762  24.659  1.00  0.00    -0.269 OA
ATOM      6  H   UNL A   1      39.209  20.638  26.056  1.00  0.00     0.163 HD
BRANCH   4   7
ATOM      7  C   UNL A   1      36.466  21.837  24.510  1.00  0.00     0.042 A 
ATOM      8  C   UNL A   1      34.178  22.620  24.523  1.00  0.00     0.065 A 
ATOM      9  C   UNL A   1      35.138  21.676  24.848  1.00  0.00     0.042 A 
ATOM     10  C   UNL A   1      34.455  23.713  23.669  1.00  0.00     0.061 A 
ATOM     11  C   UNL A   1      35.791  23.833  23.258  1.00  0.00     0.029 A 
ATOM     12  C   UNL A   1      36.786  22.936  23.702  1.00  0.00     0.016 A 
BRANCH   8  13
ATOM     13  N   UNL A   1      32.913  22.443  25.105  1.00  0.00    -0.320 N 
ATOM     14  C   UNL A   1      32.170  21.271  25.176  1.00  0.00     0.255 C 
ATOM     15  O   UNL A   1      31.232  21.239  25.978  1.00  0.00    -0.269 OA
ATOM     16  H   UNL A   1      32.505  23.242  25.509  1.00  0.00     0.170 HD
BRANCH  14  17
ATOM     17  C   UNL A   1      32.424  20.059  24.338  1.00  0.00     0.043 A 
ATOM     18  C   UNL A   1      31.870  20.977  21.971  1.00  0.00     0.045 C 
ATOM     19  C   UNL A   1      32.258  19.901  22.942  1.00  0.00    -0.038 A 
ATOM     20  C   UNL A   1      32.478  18.628  22.370  1.00  0.00     0.004 A 
ATOM     21  C   UNL A   1      32.927  17.559  23.138  1.00  0.00     0.000 A 
ATOM     22  C   UNL A   1      32.931  18.980  25.084  1.00  0.00     0.014 A 
ATOM     23  C   UNL A   1      33.173  17.744  24.490  1.00  0.00     0.001 A 
ENDBRANCH  14  17
ENDBRANCH   8  13
BRANCH  10  24
ATOM     24  N   UNL A   1      33.490  24.647  23.325  1.00  0.00    -0.359 N 
ATOM     25  C   UNL A   1      33.170  25.062  21.938  1.00  0.00     0.178 C 
ATOM     26  C   UNL A   1      33.168  25.701  24.281  1.00  0.00     0.178 C 
ATOM     27  C   UNL A   1      31.797  25.845  21.846  1.00  0.00     0.284 C 
ATOM     28  C   UNL A   1      31.654  25.904  24.222  1.00  0.00     0.284 C 
ATOM     29  N   UNL A   1      31.308  26.629  23.008  1.00  0.00    -0.324 N 
ATOM     30  H   UNL A   1      30.301  26.692  22.857  1.00  0.00     0.348 HD
BRANCH  29  31
ATOM     31  C   UNL A   1      31.607  28.080  23.103  1.00  0.00     0.364 C 
BRANCH  31  32
ATOM     32  C   UNL A   1      31.022  28.893  24.259  1.00  0.00     0.279 C 
ATOM     33  O   UNL A   1      31.327  28.581  25.422  1.00  0.00    -0.268 OA
ATOM     34  N   UNL A   1      30.236  30.010  24.139  1.00  0.00    -0.321 N 
ATOM     35  H   UNL A   1      30.270  30.538  24.969  1.00  0.00     0.170 HD
BRANCH  34  36
ATOM     36  C   UNL A   1      29.390  30.643  23.194  1.00  0.00     0.041 A 
ATOM     37  C   UNL A   1      28.894  29.818  22.164  1.00  0.00     0.029 A 
ATOM     38  C   UNL A   1      29.101  32.000  23.101  1.00  0.00     0.029 A 
ATOM     39  C   UNL A   1      28.166  30.337  21.082  1.00  0.00     0.041 A 
ATOM     40  C   UNL A   1      28.430  32.539  21.986  1.00  0.00     0.041 A 
ATOM     41  C   UNL A   1      27.958  31.702  20.991  1.00  0.00     0.123 A 
ATOM     42  F   UNL A   1      27.295  32.208  19.944  1.00  0.00    -0.207 F 
ENDBRANCH  34  36
ENDBRANCH  31  32
ENDBRANCH  29  31
ENDBRANCH  10  24
ENDBRANCH   4   7
ENDBRANCH   2   3
ENDBRANCH   1   2
BRANCH   1  43
ATOM     43  C   UNL A   1      41.484  22.269  26.076  1.00  0.00     0.023 C 
BRANCH  43  44
ATOM     44  C   UNL A   1      42.262  21.062  26.563  1.00  0.00     0.116 C 
BRANCH  44  45
ATOM     45  N   UNL A   1      43.113  20.455  25.565  1.00  0.00    -0.352 N 
ATOM     46  C   UNL A   1      44.160  21.016  24.862  1.00  0.00     0.251 C 
ATOM     47  H   UNL A   1      42.919  19.512  25.359  1.00  0.00     0.163 HD
ATOM     48  O   UNL A   1      44.533  20.435  23.841  1.00  0.00    -0.269 OA
BRANCH  46  49
ATOM     49  C   UNL A   1      44.924  22.179  25.401  1.00  0.00     0.039 A 
ATOM     50  C   UNL A   1      45.133  22.222  26.788  1.00  0.00     0.014 A 
ATOM     51  C   UNL A   1      45.193  23.316  24.645  1.00  0.00     0.014 A 
ATOM     52  C   UNL A   1      45.315  23.442  27.432  1.00  0.00     0.010 A 
ATOM     53  C   UNL A   1      45.254  24.535  25.275  1.00  0.00     0.010 A 
ATOM     54  C   UNL A   1      45.238  24.595  26.670  1.00  0.00    -0.014 A 
BRANCH  54  55
ATOM     55  C   UNL A   1      45.087  25.938  27.188  1.00  0.00     0.031 A 
ATOM     56  C   UNL A   1      43.748  26.533  27.270  1.00  0.00     0.074 A 
ATOM     57  C   UNL A   1      46.115  26.395  27.938  1.00  0.00     0.049 A 
ATOM     58  N   UNL A   1      43.522  27.715  27.718  1.00  0.00    -0.248 NA
ATOM     59  C   UNL A   1      42.548  25.844  26.805  1.00  0.00     0.031 C 
ATOM     60  C   UNL A   1      46.061  27.303  29.072  1.00  0.00     0.029 A 
ATOM     61  N   UNL A   1      47.479  26.237  27.683  1.00  0.00    -0.354 N 
ATOM     62  C   UNL A   1      42.166  27.806  27.924  1.00  0.00     0.074 A 
ATOM     63  C   UNL A   1      41.601  26.708  27.184  1.00  0.00     0.031 C 
ATOM     64  C   UNL A   1      47.283  27.823  29.266  1.00  0.00     0.029 A 
ATOM     65  C   UNL A   1      48.105  27.407  28.143  1.00  0.00     0.049 A 
ATOM     66  H   UNL A   1      47.915  25.460  27.264  1.00  0.00     0.167 HD
ATOM     67  C   UNL A   1      41.716  28.698  28.848  1.00  0.00     0.034 A 
ATOM     68  C   UNL A   1      48.835  28.239  27.345  1.00  0.00     0.034 A 
ATOM     69  C   UNL A   1      42.801  29.613  29.249  1.00  0.00     0.049 A 
ATOM     70  C   UNL A   1      48.219  29.625  27.287  1.00  0.00     0.074 A 
ATOM     71  C   UNL A   1      43.580  29.727  30.386  1.00  0.00     0.029 A 
ATOM     72  N   UNL A   1      43.413  30.407  28.278  1.00  0.00    -0.354 N 
ATOM     73  N   UNL A   1      47.051  29.910  27.796  1.00  0.00    -0.248 NA
ATOM     74  C   UNL A   1      48.845  30.795  26.681  1.00  0.00     0.031 C 
ATOM     75  C   UNL A   1      44.739  30.486  30.046  1.00  0.00     0.029 A 
ATOM     76  C   UNL A   1      44.637  30.883  28.722  1.00  0.00     0.049 A 
ATOM     77  H   UNL A   1      43.026  30.603  27.393  1.00  0.00     0.167 HD
ATOM     78  C   UNL A   1      46.716  31.206  27.538  1.00  0.00     0.074 A 
ATOM     79  C   UNL A   1      47.902  31.736  26.883  1.00  0.00     0.031 C 
ATOM     80  C   UNL A   1      45.478  31.705  27.844  1.00  0.00     0.034 A 
BRANCH  67  81
ATOM     81  C   UNL A   1      40.367  28.641  29.552  1.00  0.00     0.023 A 
ATOM     82  C   UNL A   1      40.233  27.703  30.601  1.00  0.00     0.012 A 
ATOM     83  C   UNL A   1      39.187  29.351  29.209  1.00  0.00     0.148 A 
ATOM     84  C   UNL A   1      39.015  27.478  31.260  1.00  0.00     0.002 A 
ATOM     85  C   UNL A   1      37.991  29.181  29.914  1.00  0.00     0.091 A 
ATOM     86  F   UNL A   1      39.158  30.137  28.132  1.00  0.00    -0.205 F 
ATOM     87  C   UNL A   1      37.897  28.230  30.930  1.00  0.00     0.022 A 
BRANCH  85  88
ATOM     88  S   UNL A   1      36.516  30.164  29.570  1.00  0.00     0.127 S 
ATOM     89  O   UNL A   1      36.111  29.664  28.257  1.00  0.00    -0.237 OA
ATOM     90  O   UNL A   1      35.624  29.785  30.667  1.00  0.00    -0.237 OA
ATOM     91  O   UNL A   1      36.938  31.560  29.599  1.00  0.00    -0.744 OA
ENDBRANCH  85  88
ENDBRANCH  67  81
BRANCH  68  92
ATOM     92  C   UNL A   1      49.576  27.509  26.273  1.00  0.00     0.023 A 
ATOM     93  C   UNL A   1      48.976  27.548  24.988  1.00  0.00     0.012 A 
ATOM     94  C   UNL A   1      50.960  27.278  26.365  1.00  0.00     0.148 A 
ATOM     95  C   UNL A   1      49.756  27.548  23.830  1.00  0.00     0.002 A 
ATOM     96  C   UNL A   1      51.733  27.285  25.201  1.00  0.00     0.091 A 
ATOM     97  F   UNL A   1      51.511  27.176  27.581  1.00  0.00    -0.205 F 
ATOM     98  C   UNL A   1      51.138  27.465  23.940  1.00  0.00     0.022 A 
BRANCH  96  99
ATOM     99  S   UNL A   1      53.533  27.264  25.269  1.00  0.00     0.127 S 
ATOM    100  O   UNL A   1      53.813  28.441  26.086  1.00  0.00    -0.237 OA
ATOM    101  O   UNL A   1      53.811  25.984  25.917  1.00  0.00    -0.237 OA
ATOM    102  O   UNL A   1      53.955  27.328  23.877  1.00  0.00    -0.744 OA
ENDBRANCH  96  99
ENDBRANCH  68  92
BRANCH  80 103
ATOM    103  C   UNL A   1      44.926  33.017  27.321  1.00  0.00     0.023 A 
ATOM    104  C   UNL A   1      44.546  33.190  25.976  1.00  0.00     0.012 A 
ATOM    105  C   UNL A   1      44.598  34.069  28.215  1.00  0.00     0.148 A 
ATOM    106  C   UNL A   1      43.922  34.358  25.527  1.00  0.00     0.002 A 
ATOM    107  C   UNL A   1      43.863  35.171  27.788  1.00  0.00     0.091 A 
ATOM    108  F   UNL A   1      45.007  34.018  29.491  1.00  0.00    -0.205 F 
ATOM    109  C   UNL A   1      43.552  35.337  26.437  1.00  0.00     0.022 A 
BRANCH 107 110
ATOM    110  S   UNL A   1      43.130  36.300  28.981  1.00  0.00     0.127 S 
ATOM    111  O   UNL A   1      42.497  35.380  29.923  1.00  0.00    -0.237 OA
ATOM    112  O   UNL A   1      44.300  37.004  29.509  1.00  0.00    -0.237 OA
ATOM    113  O   UNL A   1      42.235  37.141  28.198  1.00  0.00    -0.744 OA
ENDBRANCH 107 110
ENDBRANCH  80 103
ENDBRANCH  54  55
ENDBRANCH  46  49
ENDBRANCH  44  45
ENDBRANCH  43  44
ENDBRANCH   1  43
TORSDOF 20
ENDMDL
MODEL 3
REMARK VINA RESULT:     -11.8      4.121      6.091
REMARK SMILES Cc1ccccc1C(=O)Nc1cc(C(=O)NCCCCNC(=O)c2ccc(-c3c4nc(c(-c5cccc(S(=O)(=O)[O-])c5F)c5ccc([nH]5)c(-c5cccc(S(=O)(=O)[O-])c5F)c5nc(c(-c6cccc(S(=O)(=O)[O-])c6F)c6ccc3[nH]6)C=C5)C=C4)cc2)ccc1N1CC[NH+](CC(=O)Nc2ccc(F)cc2)CC1
REMARK SMILES IDX 18 1 17 2 16 3 14 4 15 5 13 7 11 8 12 9 89 10 88 11 87 12
REMARK SMILES IDX 10 13 8 14 9 15 7 17 1 18 2 19 3 20 4 21 6 22 5 23 90 24
REMARK SMILES IDX 91 25 106 26 92 27 105 28 93 29 94 31 95 32 96 33 97 34
REMARK SMILES IDX 98 36 99 37 104 38 100 39 103 40 101 41 102 42 19 43 20 44
REMARK SMILES IDX 21 45 22 46 23 48 24 49 25 50 86 51 26 52 85 53 27 54 28 55
REMARK SMILES IDX 29 56 79 57 30 58 84 59 78 60 80 61 31 62 83 63 77 64 76 65
REMARK SMILES IDX 32 67 64 68 44 69 63 70 45 71 48 72 62 73 81 74 46 75 47 76
REMARK SMILES IDX 61 78 82 79 49 80 33 81 34 82 42 83 35 84 37 85 43 86 36 87
REMARK SMILES IDX 38 88 39 89 40 90 41 91 65 92 66 93 74 94 67 95 69 96 75 97
REMARK SMILES IDX 68 98 70 99 71 100 72 101 73 102 50 103 51 104 59 105 52 106
REMARK SMILES IDX 54 107 60 108 53 109 55 110 56 111 57 112 58 113
REMARK H PARENT 16 6 10 16 93 30 97 35 21 47 80 66 48 77
REMARK Flexibility Score: inf
ROOT
ATOM      1  C   UNL A   1      40.787  22.265  26.556  1.00  0.00     0.023 C 
ENDROOT
BRANCH   1   2
ATOM      2  C   UNL A   1      39.252  22.343  26.441  1.00  0.00     0.116 C 
BRANCH   2   3
ATOM      3  N   UNL A   1      38.679  21.202  25.741  1.00  0.00    -0.352 N 
ATOM      4  C   UNL A   1      37.496  21.002  25.067  1.00  0.00     0.251 C 
ATOM      5  O   UNL A   1      37.325  19.907  24.531  1.00  0.00    -0.269 OA
ATOM      6  H   UNL A   1      39.259  20.407  25.753  1.00  0.00     0.163 HD
BRANCH   4   7
ATOM      7  C   UNL A   1      36.429  22.037  24.923  1.00  0.00     0.042 A 
ATOM      8  C   UNL A   1      34.395  22.876  23.921  1.00  0.00     0.065 A 
ATOM      9  C   UNL A   1      35.477  22.011  23.926  1.00  0.00     0.042 A 
ATOM     10  C   UNL A   1      34.292  23.958  24.827  1.00  0.00     0.061 A 
ATOM     11  C   UNL A   1      35.306  24.033  25.793  1.00  0.00     0.029 A 
ATOM     12  C   UNL A   1      36.333  23.068  25.866  1.00  0.00     0.016 A 
BRANCH   8  13
ATOM     13  N   UNL A   1      33.392  22.610  22.977  1.00  0.00    -0.320 N 
ATOM     14  C   UNL A   1      32.457  21.582  23.002  1.00  0.00     0.255 C 
ATOM     15  O   UNL A   1      31.477  21.685  22.256  1.00  0.00    -0.269 OA
ATOM     16  H   UNL A   1      33.345  23.222  22.207  1.00  0.00     0.170 HD
BRANCH  14  17
ATOM     17  C   UNL A   1      32.567  20.361  23.858  1.00  0.00     0.043 A 
ATOM     18  C   UNL A   1      32.491  18.493  22.054  1.00  0.00     0.045 C 
ATOM     19  C   UNL A   1      32.542  19.002  23.463  1.00  0.00    -0.038 A 
ATOM     20  C   UNL A   1      32.576  18.004  24.462  1.00  0.00     0.004 A 
ATOM     21  C   UNL A   1      32.711  18.331  25.807  1.00  0.00     0.000 A 
ATOM     22  C   UNL A   1      32.760  20.667  25.216  1.00  0.00     0.014 A 
ATOM     23  C   UNL A   1      32.825  19.662  26.178  1.00  0.00     0.001 A 
ENDBRANCH  14  17
ENDBRANCH   8  13
BRANCH  10  24
ATOM     24  N   UNL A   1      33.220  24.838  24.811  1.00  0.00    -0.359 N 
ATOM     25  C   UNL A   1      31.852  24.514  25.281  1.00  0.00     0.178 C 
ATOM     26  C   UNL A   1      33.199  25.892  23.802  1.00  0.00     0.178 C 
ATOM     27  C   UNL A   1      30.963  25.808  25.482  1.00  0.00     0.284 C 
ATOM     28  C   UNL A   1      32.661  27.148  24.486  1.00  0.00     0.284 C 
ATOM     29  N   UNL A   1      31.222  27.023  24.669  1.00  0.00    -0.324 N 
ATOM     30  H   UNL A   1      30.825  27.781  25.224  1.00  0.00     0.348 HD
BRANCH  29  31
ATOM     31  C   UNL A   1      30.463  27.252  23.413  1.00  0.00     0.364 C 
BRANCH  31  32
ATOM     32  C   UNL A   1      28.936  27.298  23.458  1.00  0.00     0.279 C 
ATOM     33  O   UNL A   1      28.317  26.264  23.760  1.00  0.00    -0.268 OA
ATOM     34  N   UNL A   1      28.160  28.413  23.272  1.00  0.00    -0.321 N 
ATOM     35  H   UNL A   1      27.271  28.278  23.674  1.00  0.00     0.170 HD
BRANCH  34  36
ATOM     36  C   UNL A   1      28.235  29.699  22.681  1.00  0.00     0.041 A 
ATOM     37  C   UNL A   1      28.173  30.789  23.571  1.00  0.00     0.029 A 
ATOM     38  C   UNL A   1      28.238  30.001  21.323  1.00  0.00     0.029 A 
ATOM     39  C   UNL A   1      28.091  32.115  23.118  1.00  0.00     0.041 A 
ATOM     40  C   UNL A   1      28.088  31.322  20.858  1.00  0.00     0.041 A 
ATOM     41  C   UNL A   1      28.026  32.370  21.760  1.00  0.00     0.123 A 
ATOM     42  F   UNL A   1      27.913  33.629  21.321  1.00  0.00    -0.207 F 
ENDBRANCH  34  36
ENDBRANCH  31  32
ENDBRANCH  29  31
ENDBRANCH  10  24
ENDBRANCH   4   7
ENDBRANCH   2   3
ENDBRANCH   1   2
BRANCH   1  43
ATOM     43  C   UNL A   1      41.316  22.658  27.930  1.00  0.00     0.023 C 
BRANCH  43  44
ATOM     44  C   UNL A   1      41.549  24.153  28.035  1.00  0.00     0.116 C 
BRANCH  44  45
ATOM     45  N   UNL A   1      41.885  24.796  26.785  1.00  0.00    -0.352 N 
ATOM     46  C   UNL A   1      41.277  25.877  26.177  1.00  0.00     0.251 C 
ATOM     47  H   UNL A   1      42.650  24.411  26.301  1.00  0.00     0.163 HD
ATOM     48  O   UNL A   1      41.507  26.057  24.979  1.00  0.00    -0.269 OA
BRANCH  46  49
ATOM     49  C   UNL A   1      40.515  26.888  26.968  1.00  0.00     0.039 A 
ATOM     50  C   UNL A   1      40.525  28.209  26.498  1.00  0.00     0.014 A 
ATOM     51  C   UNL A   1      40.039  26.632  28.250  1.00  0.00     0.014 A 
ATOM     52  C   UNL A   1      40.347  29.269  27.383  1.00  0.00     0.010 A 
ATOM     53  C   UNL A   1      39.978  27.664  29.154  1.00  0.00     0.010 A 
ATOM     54  C   UNL A   1      40.209  28.973  28.728  1.00  0.00    -0.014 A 
BRANCH  54  55
ATOM     55  C   UNL A   1      40.328  29.922  29.815  1.00  0.00     0.031 A 
ATOM     56  C   UNL A   1      39.389  31.046  29.896  1.00  0.00     0.074 A 
ATOM     57  C   UNL A   1      41.017  29.492  30.895  1.00  0.00     0.049 A 
ATOM     58  N   UNL A   1      39.420  31.933  30.825  1.00  0.00    -0.248 NA
ATOM     59  C   UNL A   1      38.352  31.284  28.895  1.00  0.00     0.031 C 
ATOM     60  C   UNL A   1      40.798  29.835  32.292  1.00  0.00     0.029 A 
ATOM     61  N   UNL A   1      42.205  28.759  30.900  1.00  0.00    -0.354 N 
ATOM     62  C   UNL A   1      38.235  32.627  30.748  1.00  0.00     0.074 A 
ATOM     63  C   UNL A   1      37.703  32.314  29.447  1.00  0.00     0.031 C 
ATOM     64  C   UNL A   1      41.911  29.549  32.984  1.00  0.00     0.029 A 
ATOM     65  C   UNL A   1      42.936  29.195  32.017  1.00  0.00     0.049 A 
ATOM     66  H   UNL A   1      42.477  28.072  30.249  1.00  0.00     0.167 HD
ATOM     67  C   UNL A   1      37.774  33.234  31.874  1.00  0.00     0.034 A 
ATOM     68  C   UNL A   1      44.178  29.752  31.940  1.00  0.00     0.034 A 
ATOM     69  C   UNL A   1      38.821  33.256  32.912  1.00  0.00     0.049 A 
ATOM     70  C   UNL A   1      44.176  31.175  32.468  1.00  0.00     0.074 A 
ATOM     71  C   UNL A   1      39.015  32.548  34.085  1.00  0.00     0.029 A 
ATOM     72  N   UNL A   1      40.027  33.904  32.645  1.00  0.00    -0.354 N 
ATOM     73  N   UNL A   1      43.084  31.819  32.783  1.00  0.00    -0.248 NA
ATOM     74  C   UNL A   1      45.367  31.984  32.700  1.00  0.00     0.031 C 
ATOM     75  C   UNL A   1      40.390  32.669  34.444  1.00  0.00     0.029 A 
ATOM     76  C   UNL A   1      41.018  33.496  33.525  1.00  0.00     0.049 A 
ATOM     77  H   UNL A   1      40.157  34.566  31.927  1.00  0.00     0.167 HD
ATOM     78  C   UNL A   1      43.371  33.098  33.160  1.00  0.00     0.074 A 
ATOM     79  C   UNL A   1      44.826  33.134  33.145  1.00  0.00     0.031 C 
ATOM     80  C   UNL A   1      42.384  34.016  33.400  1.00  0.00     0.034 A 
BRANCH  67  81
ATOM     81  C   UNL A   1      36.328  33.634  32.136  1.00  0.00     0.023 A 
ATOM     82  C   UNL A   1      35.742  33.167  33.334  1.00  0.00     0.012 A 
ATOM     83  C   UNL A   1      35.459  34.340  31.263  1.00  0.00     0.148 A 
ATOM     84  C   UNL A   1      34.390  33.376  33.644  1.00  0.00     0.002 A 
ATOM     85  C   UNL A   1      34.130  34.614  31.604  1.00  0.00     0.091 A 
ATOM     86  F   UNL A   1      35.861  34.682  30.038  1.00  0.00    -0.205 F 
ATOM     87  C   UNL A   1      33.587  34.117  32.789  1.00  0.00     0.022 A 
BRANCH  85  88
ATOM     88  S   UNL A   1      33.049  35.615  30.561  1.00  0.00     0.127 S 
ATOM     89  O   UNL A   1      32.551  34.632  29.600  1.00  0.00    -0.237 OA
ATOM     90  O   UNL A   1      32.048  36.094  31.516  1.00  0.00    -0.237 OA
ATOM     91  O   UNL A   1      33.885  36.666  29.994  1.00  0.00    -0.744 OA
ENDBRANCH  85  88
ENDBRANCH  67  81
BRANCH  68  92
ATOM     92  C   UNL A   1      45.003  29.174  30.836  1.00  0.00     0.023 A 
ATOM     93  C   UNL A   1      45.285  27.789  30.954  1.00  0.00     0.012 A 
ATOM     94  C   UNL A   1      45.038  29.765  29.561  1.00  0.00     0.148 A 
ATOM     95  C   UNL A   1      45.409  26.982  29.821  1.00  0.00     0.002 A 
ATOM     96  C   UNL A   1      45.158  28.949  28.433  1.00  0.00     0.091 A 
ATOM     97  F   UNL A   1      44.836  31.085  29.463  1.00  0.00    -0.205 F 
ATOM     98  C   UNL A   1      45.298  27.557  28.561  1.00  0.00     0.022 A 
BRANCH  96  99
ATOM     99  S   UNL A   1      44.941  29.608  26.770  1.00  0.00     0.127 S 
ATOM    100  O   UNL A   1      43.692  30.351  26.905  1.00  0.00    -0.237 OA
ATOM    101  O   UNL A   1      46.134  30.436  26.600  1.00  0.00    -0.237 OA
ATOM    102  O   UNL A   1      44.906  28.435  25.910  1.00  0.00    -0.744 OA
ENDBRANCH  96  99
ENDBRANCH  68  92
BRANCH  80 103
ATOM    103  C   UNL A   1      42.611  35.512  33.518  1.00  0.00     0.023 A 
ATOM    104  C   UNL A   1      42.383  36.214  34.717  1.00  0.00     0.012 A 
ATOM    105  C   UNL A   1      43.240  36.230  32.469  1.00  0.00     0.148 A 
ATOM    106  C   UNL A   1      42.712  37.566  34.857  1.00  0.00     0.002 A 
ATOM    107  C   UNL A   1      43.682  37.536  32.658  1.00  0.00     0.091 A 
ATOM    108  F   UNL A   1      43.407  35.657  31.268  1.00  0.00    -0.205 F 
ATOM    109  C   UNL A   1      43.389  38.221  33.839  1.00  0.00     0.022 A 
BRANCH 107 110
ATOM    110  S   UNL A   1      44.800  38.304  31.478  1.00  0.00     0.127 S 
ATOM    111  O   UNL A   1      45.099  37.195  30.575  1.00  0.00    -0.237 OA
ATOM    112  O   UNL A   1      43.970  39.359  30.895  1.00  0.00    -0.237 OA
ATOM    113  O   UNL A   1      45.910  38.799  32.283  1.00  0.00    -0.744 OA
ENDBRANCH 107 110
ENDBRANCH  80 103
ENDBRANCH  54  55
ENDBRANCH  46  49
ENDBRANCH  44  45
ENDBRANCH  43  44
ENDBRANCH   1  43
TORSDOF 20
ENDMDL
