MODEL 1
REMARK VINA RESULT:     -11.3      0.000      0.000
REMARK SMILES C#CC[C@]1(C(=O)NCCCCNC(=O)c2ccc(-c3c4nc(c(-c5cccc(S(=O)(=O)[O-])c5F)c5ccc([nH]5)c(-c5cccc(S(=O)(=O)[O-])c5F)c5nc(c(-c6cccc(S(=O)(=O)[O-])c6F)c6ccc3[nH]6)C=C5)C=C4)cc2)CC[C@@H](C)C1
REMARK SMILES IDX 10 1 9 2 8 3 7 4 5 5 6 6 4 8 78 9 82 10 79 11 80 12 81 13
REMARK SMILES IDX 3 14 2 15 1 16 11 17 12 18 13 19 14 21 15 22 16 23 77 24
REMARK SMILES IDX 17 25 76 26 18 27 19 28 20 29 70 30 21 31 75 32 69 33 71 34
REMARK SMILES IDX 22 35 74 36 68 37 67 38 23 40 55 41 35 42 54 43 36 44 39 45
REMARK SMILES IDX 53 46 72 47 37 48 38 49 52 51 73 52 40 53 24 54 25 55 33 56
REMARK SMILES IDX 26 57 28 58 34 59 27 60 29 61 30 62 31 63 32 64 56 65 57 66
REMARK SMILES IDX 65 67 58 68 60 69 66 70 59 71 61 72 62 73 63 74 64 75 41 76
REMARK SMILES IDX 42 77 50 78 43 79 45 80 51 81 44 82 46 83 47 84 48 85 49 86
REMARK H PARENT 7 7 12 20 71 39 39 50
REMARK Flexibility Score: inf
ROOT
ATOM      1  C   UNL A   1      31.803  28.992  26.129  1.00  0.00     0.023 C 
ENDROOT
BRANCH   1   2
ATOM      2  C   UNL A   1      31.935  27.704  26.944  1.00  0.00     0.023 C 
BRANCH   2   3
ATOM      3  C   UNL A   1      32.138  26.448  26.102  1.00  0.00     0.116 C 
BRANCH   3   4
ATOM      4  N   UNL A   1      31.464  25.286  26.642  1.00  0.00    -0.356 N 
ATOM      5  C   UNL A   1      31.764  23.968  26.697  1.00  0.00     0.227 C 
ATOM      6  O   UNL A   1      31.076  23.314  27.496  1.00  0.00    -0.274 OA
ATOM      7  H   UNL A   1      30.599  25.502  27.060  1.00  0.00     0.163 HD
BRANCH   5   8
ATOM      8  C   UNL A   1      32.854  23.231  25.878  1.00  0.00     0.060 C 
ATOM      9  C   UNL A   1      32.612  21.753  25.483  1.00  0.00     0.018 C 
ATOM     10  C   UNL A   1      32.998  23.913  24.495  1.00  0.00     0.021 C 
ATOM     11  C   UNL A   1      32.061  21.722  24.050  1.00  0.00     0.004 C 
ATOM     12  C   UNL A   1      32.085  23.154  23.526  1.00  0.00    -0.013 C 
ATOM     13  C   UNL A   1      30.694  23.767  23.393  1.00  0.00     0.007 C 
BRANCH   8  14
ATOM     14  C   UNL A   1      34.171  23.478  26.732  1.00  0.00     0.106 C 
BRANCH  14  15
ATOM     15  C   UNL A   1      35.387  23.601  25.830  1.00  0.00    -0.106 C 
ATOM     16  C   UNL A   1      36.431  23.706  25.054  1.00  0.00     0.004 C 
ENDBRANCH  14  15
ENDBRANCH   8  14
ENDBRANCH   5   8
ENDBRANCH   3   4
ENDBRANCH   2   3
ENDBRANCH   1   2
BRANCH   1  17
ATOM     17  C   UNL A   1      33.025  29.907  26.145  1.00  0.00     0.116 C 
BRANCH  17  18
ATOM     18  N   UNL A   1      32.753  31.261  26.613  1.00  0.00    -0.352 N 
ATOM     19  C   UNL A   1      33.523  32.024  27.462  1.00  0.00     0.251 C 
ATOM     20  H   UNL A   1      31.925  31.677  26.282  1.00  0.00     0.163 HD
ATOM     21  O   UNL A   1      33.139  33.124  27.836  1.00  0.00    -0.269 OA
BRANCH  19  22
ATOM     22  C   UNL A   1      34.801  31.464  27.949  1.00  0.00     0.039 A 
ATOM     23  C   UNL A   1      35.922  32.292  28.011  1.00  0.00     0.014 A 
ATOM     24  C   UNL A   1      34.859  30.148  28.414  1.00  0.00     0.014 A 
ATOM     25  C   UNL A   1      37.093  31.815  28.605  1.00  0.00     0.010 A 
ATOM     26  C   UNL A   1      35.998  29.705  29.074  1.00  0.00     0.010 A 
ATOM     27  C   UNL A   1      37.130  30.528  29.169  1.00  0.00    -0.014 A 
BRANCH  27  28
ATOM     28  C   UNL A   1      38.346  30.021  29.851  1.00  0.00     0.031 A 
ATOM     29  C   UNL A   1      38.685  30.502  31.236  1.00  0.00     0.074 A 
ATOM     30  C   UNL A   1      39.188  29.198  29.195  1.00  0.00     0.049 A 
ATOM     31  N   UNL A   1      39.713  30.198  31.985  1.00  0.00    -0.248 NA
ATOM     32  C   UNL A   1      37.771  31.482  31.847  1.00  0.00     0.031 C 
ATOM     33  C   UNL A   1      39.022  28.740  27.814  1.00  0.00     0.029 A 
ATOM     34  N   UNL A   1      40.364  28.618  29.596  1.00  0.00    -0.354 N 
ATOM     35  C   UNL A   1      39.594  30.980  33.126  1.00  0.00     0.074 A 
ATOM     36  C   UNL A   1      38.417  31.801  32.958  1.00  0.00     0.031 C 
ATOM     37  C   UNL A   1      40.048  27.935  27.490  1.00  0.00     0.029 A 
ATOM     38  C   UNL A   1      40.952  27.832  28.631  1.00  0.00     0.049 A 
ATOM     39  H   UNL A   1      40.753  28.751  30.491  1.00  0.00     0.167 HD
ATOM     40  C   UNL A   1      40.371  30.988  34.235  1.00  0.00     0.034 A 
ATOM     41  C   UNL A   1      42.082  27.099  28.671  1.00  0.00     0.034 A 
ATOM     42  C   UNL A   1      41.495  30.114  34.431  1.00  0.00     0.049 A 
ATOM     43  C   UNL A   1      42.876  27.053  29.950  1.00  0.00     0.074 A 
ATOM     44  C   UNL A   1      42.278  29.957  35.561  1.00  0.00     0.029 A 
ATOM     45  N   UNL A   1      41.993  29.245  33.473  1.00  0.00    -0.354 N 
ATOM     46  N   UNL A   1      42.641  27.659  31.089  1.00  0.00    -0.248 NA
ATOM     47  C   UNL A   1      44.063  26.187  29.964  1.00  0.00     0.031 C 
ATOM     48  C   UNL A   1      43.255  28.995  35.282  1.00  0.00     0.029 A 
ATOM     49  C   UNL A   1      43.073  28.547  33.984  1.00  0.00     0.049 A 
ATOM     50  H   UNL A   1      41.631  29.140  32.564  1.00  0.00     0.167 HD
ATOM     51  C   UNL A   1      43.625  27.215  31.967  1.00  0.00     0.074 A 
ATOM     52  C   UNL A   1      44.446  26.276  31.231  1.00  0.00     0.031 C 
ATOM     53  C   UNL A   1      43.837  27.564  33.260  1.00  0.00     0.034 A 
BRANCH  40  54
ATOM     54  C   UNL A   1      39.986  31.924  35.350  1.00  0.00     0.023 A 
ATOM     55  C   UNL A   1      40.581  33.201  35.419  1.00  0.00     0.012 A 
ATOM     56  C   UNL A   1      39.015  31.563  36.303  1.00  0.00     0.148 A 
ATOM     57  C   UNL A   1      40.244  34.089  36.439  1.00  0.00     0.002 A 
ATOM     58  C   UNL A   1      38.652  32.470  37.292  1.00  0.00     0.091 A 
ATOM     59  F   UNL A   1      38.479  30.335  36.239  1.00  0.00    -0.205 F 
ATOM     60  C   UNL A   1      39.274  33.727  37.369  1.00  0.00     0.022 A 
BRANCH  58  61
ATOM     61  S   UNL A   1      37.357  32.125  38.487  1.00  0.00     0.127 S 
ATOM     62  O   UNL A   1      37.966  32.599  39.729  1.00  0.00    -0.237 OA
ATOM     63  O   UNL A   1      36.253  32.953  37.997  1.00  0.00    -0.237 OA
ATOM     64  O   UNL A   1      37.116  30.691  38.410  1.00  0.00    -0.744 OA
ENDBRANCH  58  61
ENDBRANCH  40  54
BRANCH  41  65
ATOM     65  C   UNL A   1      42.468  26.257  27.504  1.00  0.00     0.023 A 
ATOM     66  C   UNL A   1      43.254  26.827  26.481  1.00  0.00     0.012 A 
ATOM     67  C   UNL A   1      42.095  24.904  27.407  1.00  0.00     0.148 A 
ATOM     68  C   UNL A   1      43.631  26.076  25.368  1.00  0.00     0.002 A 
ATOM     69  C   UNL A   1      42.517  24.146  26.319  1.00  0.00     0.091 A 
ATOM     70  F   UNL A   1      41.339  24.381  28.383  1.00  0.00    -0.205 F 
ATOM     71  C   UNL A   1      43.271  24.734  25.292  1.00  0.00     0.022 A 
BRANCH  69  72
ATOM     72  S   UNL A   1      42.207  22.380  26.199  1.00  0.00     0.127 S 
ATOM     73  O   UNL A   1      42.789  21.889  27.445  1.00  0.00    -0.237 OA
ATOM     74  O   UNL A   1      40.746  22.331  26.140  1.00  0.00    -0.237 OA
ATOM     75  O   UNL A   1      42.868  21.951  24.975  1.00  0.00    -0.744 OA
ENDBRANCH  69  72
ENDBRANCH  41  65
BRANCH  53  76
ATOM     76  C   UNL A   1      44.977  26.902  33.984  1.00  0.00     0.023 A 
ATOM     77  C   UNL A   1      46.267  27.462  33.918  1.00  0.00     0.012 A 
ATOM     78  C   UNL A   1      44.754  25.770  34.794  1.00  0.00     0.148 A 
ATOM     79  C   UNL A   1      47.326  26.889  34.623  1.00  0.00     0.002 A 
ATOM     80  C   UNL A   1      45.803  25.233  35.530  1.00  0.00     0.091 A 
ATOM     81  F   UNL A   1      43.524  25.237  34.827  1.00  0.00    -0.205 F 
ATOM     82  C   UNL A   1      47.091  25.784  35.438  1.00  0.00     0.022 A 
BRANCH  80  83
ATOM     83  S   UNL A   1      45.560  23.872  36.677  1.00  0.00     0.127 S 
ATOM     84  O   UNL A   1      44.642  24.461  37.651  1.00  0.00    -0.237 OA
ATOM     85  O   UNL A   1      44.965  22.842  35.825  1.00  0.00    -0.237 OA
ATOM     86  O   UNL A   1      46.886  23.539  37.180  1.00  0.00    -0.744 OA
ENDBRANCH  80  83
ENDBRANCH  53  76
ENDBRANCH  27  28
ENDBRANCH  19  22
ENDBRANCH  17  18
ENDBRANCH   1  17
TORSDOF 16
ENDMDL
MODEL 2
REMARK VINA RESULT:     -11.0      5.596     11.399
REMARK SMILES C#CC[C@]1(C(=O)NCCCCNC(=O)c2ccc(-c3c4nc(c(-c5cccc(S(=O)(=O)[O-])c5F)c5ccc([nH]5)c(-c5cccc(S(=O)(=O)[O-])c5F)c5nc(c(-c6cccc(S(=O)(=O)[O-])c6F)c6ccc3[nH]6)C=C5)C=C4)cc2)CC[C@@H](C)C1
REMARK SMILES IDX 10 1 9 2 8 3 7 4 5 5 6 6 4 8 78 9 82 10 79 11 80 12 81 13
REMARK SMILES IDX 3 14 2 15 1 16 11 17 12 18 13 19 14 21 15 22 16 23 77 24
REMARK SMILES IDX 17 25 76 26 18 27 19 28 20 29 70 30 21 31 75 32 69 33 71 34
REMARK SMILES IDX 22 35 74 36 68 37 67 38 23 40 55 41 35 42 54 43 36 44 39 45
REMARK SMILES IDX 53 46 72 47 37 48 38 49 52 51 73 52 40 53 24 54 25 55 33 56
REMARK SMILES IDX 26 57 28 58 34 59 27 60 29 61 30 62 31 63 32 64 56 65 57 66
REMARK SMILES IDX 65 67 58 68 60 69 66 70 59 71 61 72 62 73 63 74 64 75 41 76
REMARK SMILES IDX 42 77 50 78 43 79 45 80 51 81 44 82 46 83 47 84 48 85 49 86
REMARK H PARENT 7 7 12 20 71 39 39 50
REMARK Flexibility Score: inf
ROOT
ATOM      1  C   UNL A   1      42.573  21.860  26.888  1.00  0.00     0.023 C 
ENDROOT
BRANCH   1   2
ATOM      2  C   UNL A   1      42.484  22.283  25.420  1.00  0.00     0.023 C 
BRANCH   2   3
ATOM      3  C   UNL A   1      43.776  22.866  24.856  1.00  0.00     0.116 C 
BRANCH   3   4
ATOM      4  N   UNL A   1      43.862  24.304  25.002  1.00  0.00    -0.356 N 
ATOM      5  C   UNL A   1      44.866  25.158  25.309  1.00  0.00     0.227 C 
ATOM      6  O   UNL A   1      44.627  26.349  25.058  1.00  0.00    -0.274 OA
ATOM      7  H   UNL A   1      43.004  24.759  24.843  1.00  0.00     0.163 HD
BRANCH   5   8
ATOM      8  C   UNL A   1      46.239  24.789  25.927  1.00  0.00     0.060 C 
ATOM      9  C   UNL A   1      46.923  25.807  26.873  1.00  0.00     0.018 C 
ATOM     10  C   UNL A   1      46.067  23.558  26.850  1.00  0.00     0.021 C 
ATOM     11  C   UNL A   1      46.600  25.410  28.321  1.00  0.00     0.004 C 
ATOM     12  C   UNL A   1      45.834  24.092  28.267  1.00  0.00    -0.013 C 
ATOM     13  C   UNL A   1      44.359  24.241  28.627  1.00  0.00     0.007 C 
BRANCH   8  14
ATOM     14  C   UNL A   1      47.105  24.385  24.657  1.00  0.00     0.106 C 
BRANCH  14  15
ATOM     15  C   UNL A   1      48.061  25.502  24.274  1.00  0.00    -0.106 C 
ATOM     16  C   UNL A   1      48.882  26.462  23.947  1.00  0.00     0.004 C 
ENDBRANCH  14  15
ENDBRANCH   8  14
ENDBRANCH   5   8
ENDBRANCH   3   4
ENDBRANCH   2   3
ENDBRANCH   1   2
BRANCH   1  17
ATOM     17  C   UNL A   1      41.272  21.958  27.680  1.00  0.00     0.116 C 
BRANCH  17  18
ATOM     18  N   UNL A   1      40.068  21.772  26.879  1.00  0.00    -0.352 N 
ATOM     19  C   UNL A   1      39.152  22.731  26.509  1.00  0.00     0.251 C 
ATOM     20  H   UNL A   1      39.891  20.855  26.566  1.00  0.00     0.163 HD
ATOM     21  O   UNL A   1      38.139  22.425  25.894  1.00  0.00    -0.269 OA
BRANCH  19  22
ATOM     22  C   UNL A   1      39.397  24.131  26.912  1.00  0.00     0.039 A 
ATOM     23  C   UNL A   1      39.112  24.518  28.222  1.00  0.00     0.014 A 
ATOM     24  C   UNL A   1      39.980  25.028  26.014  1.00  0.00     0.014 A 
ATOM     25  C   UNL A   1      39.476  25.796  28.652  1.00  0.00     0.010 A 
ATOM     26  C   UNL A   1      40.413  26.268  26.468  1.00  0.00     0.010 A 
ATOM     27  C   UNL A   1      40.157  26.669  27.788  1.00  0.00    -0.014 A 
BRANCH  27  28
ATOM     28  C   UNL A   1      40.600  28.012  28.240  1.00  0.00     0.031 A 
ATOM     29  C   UNL A   1      42.062  28.365  28.221  1.00  0.00     0.074 A 
ATOM     30  C   UNL A   1      39.701  28.878  28.749  1.00  0.00     0.049 A 
ATOM     31  N   UNL A   1      42.648  29.471  28.600  1.00  0.00    -0.248 NA
ATOM     32  C   UNL A   1      42.996  27.327  27.751  1.00  0.00     0.031 C 
ATOM     33  C   UNL A   1      38.269  28.615  28.914  1.00  0.00     0.029 A 
ATOM     34  N   UNL A   1      39.862  30.148  29.240  1.00  0.00    -0.354 N 
ATOM     35  C   UNL A   1      44.011  29.246  28.459  1.00  0.00     0.074 A 
ATOM     36  C   UNL A   1      44.171  27.885  27.997  1.00  0.00     0.031 C 
ATOM     37  C   UNL A   1      37.681  29.698  29.450  1.00  0.00     0.029 A 
ATOM     38  C   UNL A   1      38.693  30.724  29.681  1.00  0.00     0.049 A 
ATOM     39  H   UNL A   1      40.733  30.606  29.273  1.00  0.00     0.167 HD
ATOM     40  C   UNL A   1      45.039  30.104  28.657  1.00  0.00     0.034 A 
ATOM     41  C   UNL A   1      38.463  31.948  30.198  1.00  0.00     0.034 A 
ATOM     42  C   UNL A   1      44.870  31.479  29.041  1.00  0.00     0.049 A 
ATOM     43  C   UNL A   1      39.611  32.915  30.319  1.00  0.00     0.074 A 
ATOM     44  C   UNL A   1      45.833  32.465  29.155  1.00  0.00     0.029 A 
ATOM     45  N   UNL A   1      43.656  32.062  29.369  1.00  0.00    -0.354 N 
ATOM     46  N   UNL A   1      40.872  32.743  30.002  1.00  0.00    -0.248 NA
ATOM     47  C   UNL A   1      39.297  34.258  30.825  1.00  0.00     0.031 C 
ATOM     48  C   UNL A   1      45.200  33.646  29.559  1.00  0.00     0.029 A 
ATOM     49  C   UNL A   1      43.843  33.396  29.685  1.00  0.00     0.049 A 
ATOM     50  H   UNL A   1      42.789  31.596  29.375  1.00  0.00     0.167 HD
ATOM     51  C   UNL A   1      41.492  33.967  30.228  1.00  0.00     0.074 A 
ATOM     52  C   UNL A   1      40.464  34.876  30.693  1.00  0.00     0.031 C 
ATOM     53  C   UNL A   1      42.797  34.304  30.079  1.00  0.00     0.034 A 
BRANCH  40  54
ATOM     54  C   UNL A   1      46.432  29.598  28.391  1.00  0.00     0.023 A 
ATOM     55  C   UNL A   1      46.999  29.769  27.111  1.00  0.00     0.012 A 
ATOM     56  C   UNL A   1      47.193  28.991  29.408  1.00  0.00     0.148 A 
ATOM     57  C   UNL A   1      48.286  29.311  26.836  1.00  0.00     0.002 A 
ATOM     58  C   UNL A   1      48.492  28.575  29.138  1.00  0.00     0.091 A 
ATOM     59  F   UNL A   1      46.629  28.812  30.611  1.00  0.00    -0.205 F 
ATOM     60  C   UNL A   1      49.035  28.723  27.851  1.00  0.00     0.022 A 
BRANCH  58  61
ATOM     61  S   UNL A   1      49.562  27.878  30.401  1.00  0.00     0.127 S 
ATOM     62  O   UNL A   1      49.572  28.945  31.402  1.00  0.00    -0.237 OA
ATOM     63  O   UNL A   1      48.829  26.676  30.801  1.00  0.00    -0.237 OA
ATOM     64  O   UNL A   1      50.836  27.619  29.744  1.00  0.00    -0.744 OA
ENDBRANCH  58  61
ENDBRANCH  40  54
BRANCH  41  65
ATOM     65  C   UNL A   1      37.073  32.369  30.530  1.00  0.00     0.023 A 
ATOM     66  C   UNL A   1      36.610  32.215  31.853  1.00  0.00     0.012 A 
ATOM     67  C   UNL A   1      36.220  32.942  29.568  1.00  0.00     0.148 A 
ATOM     68  C   UNL A   1      35.314  32.590  32.204  1.00  0.00     0.002 A 
ATOM     69  C   UNL A   1      34.945  33.361  29.937  1.00  0.00     0.091 A 
ATOM     70  F   UNL A   1      36.672  33.072  28.314  1.00  0.00    -0.205 F 
ATOM     71  C   UNL A   1      34.486  33.171  31.249  1.00  0.00     0.022 A 
BRANCH  69  72
ATOM     72  S   UNL A   1      33.856  34.234  28.806  1.00  0.00     0.127 S 
ATOM     73  O   UNL A   1      32.782  34.663  29.697  1.00  0.00    -0.237 OA
ATOM     74  O   UNL A   1      34.720  35.309  28.319  1.00  0.00    -0.237 OA
ATOM     75  O   UNL A   1      33.488  33.258  27.789  1.00  0.00    -0.744 OA
ENDBRANCH  69  72
ENDBRANCH  41  65
BRANCH  53  76
ATOM     76  C   UNL A   1      43.190  35.725  30.381  1.00  0.00     0.023 A 
ATOM     77  C   UNL A   1      43.630  36.070  31.673  1.00  0.00     0.012 A 
ATOM     78  C   UNL A   1      43.199  36.700  29.363  1.00  0.00     0.148 A 
ATOM     79  C   UNL A   1      44.045  37.371  31.957  1.00  0.00     0.002 A 
ATOM     80  C   UNL A   1      43.659  37.981  29.641  1.00  0.00     0.091 A 
ATOM     81  F   UNL A   1      42.757  36.359  28.144  1.00  0.00    -0.205 F 
ATOM     82  C   UNL A   1      44.072  38.321  30.939  1.00  0.00     0.022 A 
BRANCH  80  83
ATOM     83  S   UNL A   1      43.816  39.233  28.362  1.00  0.00     0.127 S 
ATOM     84  O   UNL A   1      42.419  39.583  28.112  1.00  0.00    -0.237 OA
ATOM     85  O   UNL A   1      44.595  40.275  29.033  1.00  0.00    -0.237 OA
ATOM     86  O   UNL A   1      44.511  38.584  27.259  1.00  0.00    -0.744 OA
ENDBRANCH  80  83
ENDBRANCH  53  76
ENDBRANCH  27  28
ENDBRANCH  19  22
ENDBRANCH  17  18
ENDBRANCH   1  17
TORSDOF 16
ENDMDL
MODEL 3
REMARK VINA RESULT:     -11.0      1.443      2.075
REMARK SMILES C#CC[C@]1(C(=O)NCCCCNC(=O)c2ccc(-c3c4nc(c(-c5cccc(S(=O)(=O)[O-])c5F)c5ccc([nH]5)c(-c5cccc(S(=O)(=O)[O-])c5F)c5nc(c(-c6cccc(S(=O)(=O)[O-])c6F)c6ccc3[nH]6)C=C5)C=C4)cc2)CC[C@@H](C)C1
REMARK SMILES IDX 10 1 9 2 8 3 7 4 5 5 6 6 4 8 78 9 82 10 79 11 80 12 81 13
REMARK SMILES IDX 3 14 2 15 1 16 11 17 12 18 13 19 14 21 15 22 16 23 77 24
REMARK SMILES IDX 17 25 76 26 18 27 19 28 20 29 70 30 21 31 75 32 69 33 71 34
REMARK SMILES IDX 22 35 74 36 68 37 67 38 23 40 55 41 35 42 54 43 36 44 39 45
REMARK SMILES IDX 53 46 72 47 37 48 38 49 52 51 73 52 40 53 24 54 25 55 33 56
REMARK SMILES IDX 26 57 28 58 34 59 27 60 29 61 30 62 31 63 32 64 56 65 57 66
REMARK SMILES IDX 65 67 58 68 60 69 66 70 59 71 61 72 62 73 63 74 64 75 41 76
REMARK SMILES IDX 42 77 50 78 43 79 45 80 51 81 44 82 46 83 47 84 48 85 49 86
REMARK H PARENT 7 7 12 20 71 39 39 50
REMARK Flexibility Score: inf
ROOT
ATOM      1  C   UNL A   1      31.733  28.651  27.228  1.00  0.00     0.023 C 
ENDROOT
BRANCH   1   2
ATOM      2  C   UNL A   1      31.243  27.388  26.518  1.00  0.00     0.023 C 
BRANCH   2   3
ATOM      3  C   UNL A   1      32.345  26.385  26.191  1.00  0.00     0.116 C 
BRANCH   3   4
ATOM      4  N   UNL A   1      31.837  25.087  25.803  1.00  0.00    -0.356 N 
ATOM      5  C   UNL A   1      32.387  24.002  25.209  1.00  0.00     0.227 C 
ATOM      6  O   UNL A   1      31.712  22.965  25.299  1.00  0.00    -0.274 OA
ATOM      7  H   UNL A   1      30.884  24.966  26.020  1.00  0.00     0.163 HD
BRANCH   5   8
ATOM      8  C   UNL A   1      33.737  23.946  24.451  1.00  0.00     0.060 C 
ATOM      9  C   UNL A   1      34.947  24.719  25.033  1.00  0.00     0.018 C 
ATOM     10  C   UNL A   1      34.260  22.488  24.450  1.00  0.00     0.021 C 
ATOM     11  C   UNL A   1      35.802  23.735  25.843  1.00  0.00     0.004 C 
ATOM     12  C   UNL A   1      35.196  22.348  25.655  1.00  0.00    -0.013 C 
ATOM     13  C   UNL A   1      34.502  21.823  26.908  1.00  0.00     0.007 C 
BRANCH   8  14
ATOM     14  C   UNL A   1      33.335  24.368  22.972  1.00  0.00     0.106 C 
BRANCH  14  15
ATOM     15  C   UNL A   1      33.461  25.870  22.784  1.00  0.00    -0.106 C 
ATOM     16  C   UNL A   1      33.570  27.160  22.623  1.00  0.00     0.004 C 
ENDBRANCH  14  15
ENDBRANCH   8  14
ENDBRANCH   5   8
ENDBRANCH   3   4
ENDBRANCH   2   3
ENDBRANCH   1   2
BRANCH   1  17
ATOM     17  C   UNL A   1      32.631  29.565  26.398  1.00  0.00     0.116 C 
BRANCH  17  18
ATOM     18  N   UNL A   1      32.406  30.988  26.621  1.00  0.00    -0.352 N 
ATOM     19  C   UNL A   1      33.229  31.873  27.280  1.00  0.00     0.251 C 
ATOM     20  H   UNL A   1      31.570  31.359  26.257  1.00  0.00     0.163 HD
ATOM     21  O   UNL A   1      32.884  33.033  27.462  1.00  0.00    -0.269 OA
BRANCH  19  22
ATOM     22  C   UNL A   1      34.519  31.378  27.804  1.00  0.00     0.039 A 
ATOM     23  C   UNL A   1      35.563  32.283  27.997  1.00  0.00     0.014 A 
ATOM     24  C   UNL A   1      34.660  30.038  28.173  1.00  0.00     0.014 A 
ATOM     25  C   UNL A   1      36.734  31.855  28.626  1.00  0.00     0.010 A 
ATOM     26  C   UNL A   1      35.792  29.635  28.870  1.00  0.00     0.010 A 
ATOM     27  C   UNL A   1      36.845  30.535  29.095  1.00  0.00    -0.014 A 
BRANCH  27  28
ATOM     28  C   UNL A   1      38.058  30.072  29.813  1.00  0.00     0.031 A 
ATOM     29  C   UNL A   1      38.321  30.537  31.219  1.00  0.00     0.074 A 
ATOM     30  C   UNL A   1      38.965  29.307  29.173  1.00  0.00     0.049 A 
ATOM     31  N   UNL A   1      39.334  30.267  32.001  1.00  0.00    -0.248 NA
ATOM     32  C   UNL A   1      37.337  31.457  31.815  1.00  0.00     0.031 C 
ATOM     33  C   UNL A   1      38.874  28.873  27.777  1.00  0.00     0.029 A 
ATOM     34  N   UNL A   1      40.153  28.776  29.607  1.00  0.00    -0.354 N 
ATOM     35  C   UNL A   1      39.134  31.016  33.154  1.00  0.00     0.074 A 
ATOM     36  C   UNL A   1      37.924  31.782  32.957  1.00  0.00     0.031 C 
ATOM     37  C   UNL A   1      39.950  28.127  27.476  1.00  0.00     0.029 A 
ATOM     38  C   UNL A   1      40.814  28.042  28.649  1.00  0.00     0.049 A 
ATOM     39  H   UNL A   1      40.500  28.907  30.519  1.00  0.00     0.167 HD
ATOM     40  C   UNL A   1      39.867  31.036  34.292  1.00  0.00     0.034 A 
ATOM     41  C   UNL A   1      41.978  27.365  28.717  1.00  0.00     0.034 A 
ATOM     42  C   UNL A   1      41.025  30.214  34.512  1.00  0.00     0.049 A 
ATOM     43  C   UNL A   1      42.724  27.329  30.024  1.00  0.00     0.074 A 
ATOM     44  C   UNL A   1      41.771  30.070  35.668  1.00  0.00     0.029 A 
ATOM     45  N   UNL A   1      41.601  29.393  33.556  1.00  0.00    -0.354 N 
ATOM     46  N   UNL A   1      42.417  27.896  31.166  1.00  0.00    -0.248 NA
ATOM     47  C   UNL A   1      43.952  26.522  30.066  1.00  0.00     0.031 C 
ATOM     48  C   UNL A   1      42.805  29.164  35.407  1.00  0.00     0.029 A 
ATOM     49  C   UNL A   1      42.694  28.737  34.094  1.00  0.00     0.049 A 
ATOM     50  H   UNL A   1      41.279  29.291  32.631  1.00  0.00     0.167 HD
ATOM     51  C   UNL A   1      43.388  27.481  32.072  1.00  0.00     0.074 A 
ATOM     52  C   UNL A   1      44.282  26.600  31.349  1.00  0.00     0.031 C 
ATOM     53  C   UNL A   1      43.534  27.810  33.379  1.00  0.00     0.034 A 
BRANCH  40  54
ATOM     54  C   UNL A   1      39.394  31.926  35.410  1.00  0.00     0.023 A 
ATOM     55  C   UNL A   1      38.497  31.413  36.371  1.00  0.00     0.012 A 
ATOM     56  C   UNL A   1      39.860  33.249  35.537  1.00  0.00     0.148 A 
ATOM     57  C   UNL A   1      38.042  32.214  37.418  1.00  0.00     0.002 A 
ATOM     58  C   UNL A   1      39.435  34.027  36.608  1.00  0.00     0.091 A 
ATOM     59  F   UNL A   1      40.690  33.728  34.600  1.00  0.00    -0.205 F 
ATOM     60  C   UNL A   1      38.518  33.516  37.541  1.00  0.00     0.022 A 
BRANCH  58  61
ATOM     61  S   UNL A   1      40.052  35.689  36.895  1.00  0.00     0.127 S 
ATOM     62  O   UNL A   1      39.409  36.028  38.164  1.00  0.00    -0.237 OA
ATOM     63  O   UNL A   1      41.497  35.473  36.985  1.00  0.00    -0.237 OA
ATOM     64  O   UNL A   1      39.630  36.475  35.744  1.00  0.00    -0.744 OA
ENDBRANCH  58  61
ENDBRANCH  40  54
BRANCH  41  65
ATOM     65  C   UNL A   1      42.449  26.571  27.548  1.00  0.00     0.023 A 
ATOM     66  C   UNL A   1      43.275  27.191  26.589  1.00  0.00     0.012 A 
ATOM     67  C   UNL A   1      42.117  25.212  27.390  1.00  0.00     0.148 A 
ATOM     68  C   UNL A   1      43.732  26.486  25.476  1.00  0.00     0.002 A 
ATOM     69  C   UNL A   1      42.618  24.500  26.304  1.00  0.00     0.091 A 
ATOM     70  F   UNL A   1      41.323  24.640  28.305  1.00  0.00    -0.205 F 
ATOM     71  C   UNL A   1      43.411  25.139  25.339  1.00  0.00     0.022 A 
BRANCH  69  72
ATOM     72  S   UNL A   1      42.360  22.732  26.113  1.00  0.00     0.127 S 
ATOM     73  O   UNL A   1      42.966  22.481  24.808  1.00  0.00    -0.237 OA
ATOM     74  O   UNL A   1      43.104  22.191  27.252  1.00  0.00    -0.237 OA
ATOM     75  O   UNL A   1      40.920  22.537  26.195  1.00  0.00    -0.744 OA
ENDBRANCH  69  72
ENDBRANCH  41  65
BRANCH  53  76
ATOM     76  C   UNL A   1      44.678  27.188  34.132  1.00  0.00     0.023 A 
ATOM     77  C   UNL A   1      45.937  27.817  34.137  1.00  0.00     0.012 A 
ATOM     78  C   UNL A   1      44.483  26.022  34.901  1.00  0.00     0.148 A 
ATOM     79  C   UNL A   1      46.995  27.281  34.870  1.00  0.00     0.002 A 
ATOM     80  C   UNL A   1      45.528  25.520  35.666  1.00  0.00     0.091 A 
ATOM     81  F   UNL A   1      43.284  25.424  34.867  1.00  0.00    -0.205 F 
ATOM     82  C   UNL A   1      46.787  26.141  35.644  1.00  0.00     0.022 A 
BRANCH  80  83
ATOM     83  S   UNL A   1      45.313  24.115  36.764  1.00  0.00     0.127 S 
ATOM     84  O   UNL A   1      44.373  24.646  37.750  1.00  0.00    -0.237 OA
ATOM     85  O   UNL A   1      44.751  23.099  35.872  1.00  0.00    -0.237 OA
ATOM     86  O   UNL A   1      46.644  23.800  37.266  1.00  0.00    -0.744 OA
ENDBRANCH  80  83
ENDBRANCH  53  76
ENDBRANCH  27  28
ENDBRANCH  19  22
ENDBRANCH  17  18
ENDBRANCH   1  17
TORSDOF 16
ENDMDL
