MODEL 1
REMARK VINA RESULT:     -12.0      0.000      0.000
REMARK SMILES CC(C)(C)N(CC(=O)NCCCCNC(=O)c1ccc(-c2c3nc(c(-c4cccc(S(=O)(=O)[O-])c4F)c4ccc([nH]4)c(-c4cccc(S(=O)(=O)[O-])c4F)c4nc(c(-c5cccc(S(=O)(=O)[O-])c5F)c5ccc2[nH]5)C=C4)C=C3)cc1)C(=O)Nc1ccc([N+](=O)[O-])cc1
REMARK SMILES IDX 11 1 10 2 9 3 7 4 8 5 6 7 5 8 2 9 1 10 3 11 4 12 80 13 81 14
REMARK SMILES IDX 82 15 83 17 84 18 91 19 85 20 90 21 86 22 87 23 88 24 89 25
REMARK SMILES IDX 12 26 13 27 14 28 15 29 16 31 17 32 18 33 79 34 19 35 78 36
REMARK SMILES IDX 20 37 21 38 22 39 72 40 23 41 77 42 71 43 73 44 24 45 76 46
REMARK SMILES IDX 70 47 69 48 25 50 57 51 37 52 56 53 38 54 41 55 55 56 74 57
REMARK SMILES IDX 39 58 40 59 54 61 75 62 42 63 26 64 27 65 35 66 28 67 30 68
REMARK SMILES IDX 36 69 29 70 31 71 32 72 33 73 34 74 58 75 59 76 67 77 60 78
REMARK SMILES IDX 62 79 68 80 61 81 63 82 64 83 65 84 66 85 43 86 44 87 52 88
REMARK SMILES IDX 45 89 47 90 53 91 46 92 48 93 49 94 50 95 51 96
REMARK H PARENT 9 6 82 16 14 30 73 49 41 60
REMARK Flexibility Score: inf
ROOT
ATOM      1  C   UNL A   1      31.725  27.626  26.966  1.00  0.00     0.023 C 
ENDROOT
BRANCH   1   2
ATOM      2  C   UNL A   1      32.064  26.196  26.564  1.00  0.00     0.116 C 
BRANCH   2   3
ATOM      3  N   UNL A   1      30.970  25.264  26.644  1.00  0.00    -0.355 N 
ATOM      4  C   UNL A   1      31.029  23.904  26.657  1.00  0.00     0.239 C 
ATOM      5  O   UNL A   1      30.149  23.320  27.304  1.00  0.00    -0.273 OA
ATOM      6  H   UNL A   1      30.070  25.659  26.695  1.00  0.00     0.163 HD
BRANCH   4   7
ATOM      7  C   UNL A   1      32.161  23.081  26.002  1.00  0.00     0.221 C 
BRANCH   7   8
ATOM      8  N   UNL A   1      32.686  23.403  24.661  1.00  0.00    -0.310 N 
BRANCH   8   9
ATOM      9  C   UNL A   1      34.180  23.724  24.526  1.00  0.00     0.037 C 
ATOM     10  C   UNL A   1      34.913  22.968  23.378  1.00  0.00     0.034 C 
ATOM     11  C   UNL A   1      34.997  23.417  25.808  1.00  0.00     0.034 C 
ATOM     12  C   UNL A   1      34.351  25.227  24.181  1.00  0.00     0.034 C 
ENDBRANCH   8   9
BRANCH   8  13
ATOM     13  C   UNL A   1      32.007  23.111  23.478  1.00  0.00     0.322 C 
ATOM     14  O   UNL A   1      32.055  21.989  22.958  1.00  0.00    -0.248 OA
ATOM     15  N   UNL A   1      31.056  23.909  22.928  1.00  0.00    -0.308 N 
ATOM     16  H   UNL A   1      30.437  23.390  22.365  1.00  0.00     0.171 HD
BRANCH  15  17
ATOM     17  C   UNL A   1      30.716  25.259  22.942  1.00  0.00     0.043 A 
ATOM     18  C   UNL A   1      31.593  26.156  22.320  1.00  0.00     0.033 A 
ATOM     19  C   UNL A   1      29.597  25.744  23.611  1.00  0.00     0.033 A 
ATOM     20  C   UNL A   1      31.250  27.506  22.201  1.00  0.00     0.088 A 
ATOM     21  C   UNL A   1      29.238  27.093  23.496  1.00  0.00     0.088 A 
ATOM     22  C   UNL A   1      30.047  27.959  22.753  1.00  0.00     0.269 A 
BRANCH  22  23
ATOM     23  N   UNL A   1      29.620  29.343  22.520  1.00  0.00     0.062 N 
ATOM     24  O   UNL A   1      29.499  30.079  23.512  1.00  0.00    -0.258 OA
ATOM     25  O   UNL A   1      29.432  29.704  21.351  1.00  0.00    -0.258 OA
ENDBRANCH  22  23
ENDBRANCH  15  17
ENDBRANCH   8  13
ENDBRANCH   7   8
ENDBRANCH   4   7
ENDBRANCH   2   3
ENDBRANCH   1   2
BRANCH   1  26
ATOM     26  C   UNL A   1      31.669  28.647  25.832  1.00  0.00     0.023 C 
BRANCH  26  27
ATOM     27  C   UNL A   1      32.766  29.706  25.828  1.00  0.00     0.116 C 
BRANCH  27  28
ATOM     28  N   UNL A   1      32.364  30.994  26.381  1.00  0.00    -0.352 N 
ATOM     29  C   UNL A   1      33.067  31.815  27.233  1.00  0.00     0.251 C 
ATOM     30  H   UNL A   1      31.476  31.318  26.110  1.00  0.00     0.163 HD
ATOM     31  O   UNL A   1      32.579  32.875  27.615  1.00  0.00    -0.269 OA
BRANCH  29  32
ATOM     32  C   UNL A   1      34.387  31.377  27.729  1.00  0.00     0.039 A 
ATOM     33  C   UNL A   1      35.387  32.337  27.902  1.00  0.00     0.014 A 
ATOM     34  C   UNL A   1      34.607  30.048  28.100  1.00  0.00     0.014 A 
ATOM     35  C   UNL A   1      36.581  31.981  28.532  1.00  0.00     0.010 A 
ATOM     36  C   UNL A   1      35.765  29.714  28.793  1.00  0.00     0.010 A 
ATOM     37  C   UNL A   1      36.760  30.677  29.022  1.00  0.00    -0.014 A 
BRANCH  37  38
ATOM     38  C   UNL A   1      37.967  30.304  29.799  1.00  0.00     0.031 A 
ATOM     39  C   UNL A   1      38.956  29.324  29.231  1.00  0.00     0.074 A 
ATOM     40  C   UNL A   1      38.118  30.766  31.057  1.00  0.00     0.049 A 
ATOM     41  N   UNL A   1      40.025  28.818  29.784  1.00  0.00    -0.248 NA
ATOM     42  C   UNL A   1      38.686  28.819  27.873  1.00  0.00     0.031 C 
ATOM     43  C   UNL A   1      37.179  31.648  31.755  1.00  0.00     0.029 A 
ATOM     44  N   UNL A   1      39.103  30.534  31.985  1.00  0.00    -0.354 N 
ATOM     45  C   UNL A   1      40.534  27.908  28.866  1.00  0.00     0.074 A 
ATOM     46  C   UNL A   1      39.635  27.905  27.731  1.00  0.00     0.031 C 
ATOM     47  C   UNL A   1      37.634  31.884  32.996  1.00  0.00     0.029 A 
ATOM     48  C   UNL A   1      38.884  31.157  33.192  1.00  0.00     0.049 A 
ATOM     49  H   UNL A   1      39.892  29.974  31.803  1.00  0.00     0.167 HD
ATOM     50  C   UNL A   1      41.664  27.167  28.942  1.00  0.00     0.034 A 
ATOM     51  C   UNL A   1      39.610  31.144  34.327  1.00  0.00     0.034 A 
ATOM     52  C   UNL A   1      42.587  27.224  30.041  1.00  0.00     0.049 A 
ATOM     53  C   UNL A   1      40.901  30.372  34.356  1.00  0.00     0.074 A 
ATOM     54  C   UNL A   1      43.812  26.593  30.170  1.00  0.00     0.029 A 
ATOM     55  N   UNL A   1      42.391  27.958  31.201  1.00  0.00    -0.354 N 
ATOM     56  N   UNL A   1      41.453  29.652  33.409  1.00  0.00    -0.248 NA
ATOM     57  C   UNL A   1      41.693  30.444  35.594  1.00  0.00     0.031 C 
ATOM     58  C   UNL A   1      44.354  26.941  31.412  1.00  0.00     0.029 A 
ATOM     59  C   UNL A   1      43.470  27.798  32.051  1.00  0.00     0.049 A 
ATOM     60  H   UNL A   1      41.599  28.512  31.390  1.00  0.00     0.167 HD
ATOM     61  C   UNL A   1      42.668  29.212  33.923  1.00  0.00     0.074 A 
ATOM     62  C   UNL A   1      42.783  29.766  35.257  1.00  0.00     0.031 C 
ATOM     63  C   UNL A   1      43.596  28.408  33.349  1.00  0.00     0.034 A 
BRANCH  50  64
ATOM     64  C   UNL A   1      42.002  26.290  27.767  1.00  0.00     0.023 A 
ATOM     65  C   UNL A   1      42.755  26.824  26.701  1.00  0.00     0.012 A 
ATOM     66  C   UNL A   1      41.622  24.934  27.734  1.00  0.00     0.148 A 
ATOM     67  C   UNL A   1      43.095  26.034  25.604  1.00  0.00     0.002 A 
ATOM     68  C   UNL A   1      42.002  24.140  26.657  1.00  0.00     0.091 A 
ATOM     69  F   UNL A   1      40.886  24.449  28.745  1.00  0.00    -0.205 F 
ATOM     70  C   UNL A   1      42.728  24.690  25.588  1.00  0.00     0.022 A 
BRANCH  68  71
ATOM     71  S   UNL A   1      41.640  22.383  26.577  1.00  0.00     0.127 S 
ATOM     72  O   UNL A   1      42.227  21.903  27.826  1.00  0.00    -0.237 OA
ATOM     73  O   UNL A   1      40.177  22.368  26.546  1.00  0.00    -0.237 OA
ATOM     74  O   UNL A   1      42.275  21.901  25.357  1.00  0.00    -0.744 OA
ENDBRANCH  68  71
ENDBRANCH  50  64
BRANCH  51  75
ATOM     75  C   UNL A   1      39.176  31.959  35.497  1.00  0.00     0.023 A 
ATOM     76  C   UNL A   1      39.455  33.340  35.510  1.00  0.00     0.012 A 
ATOM     77  C   UNL A   1      38.466  31.393  36.573  1.00  0.00     0.148 A 
ATOM     78  C   UNL A   1      39.061  34.137  36.586  1.00  0.00     0.002 A 
ATOM     79  C   UNL A   1      38.030  32.201  37.617  1.00  0.00     0.091 A 
ATOM     80  F   UNL A   1      38.222  30.075  36.550  1.00  0.00    -0.205 F 
ATOM     81  C   UNL A   1      38.340  33.570  37.633  1.00  0.00     0.022 A 
BRANCH  79  82
ATOM     82  S   UNL A   1      36.985  31.577  38.939  1.00  0.00     0.127 S 
ATOM     83  O   UNL A   1      37.864  31.695  40.098  1.00  0.00    -0.237 OA
ATOM     84  O   UNL A   1      35.865  32.520  38.914  1.00  0.00    -0.237 OA
ATOM     85  O   UNL A   1      36.629  30.221  38.541  1.00  0.00    -0.744 OA
ENDBRANCH  79  82
ENDBRANCH  51  75
BRANCH  63  86
ATOM     86  C   UNL A   1      44.835  28.094  34.144  1.00  0.00     0.023 A 
ATOM     87  C   UNL A   1      45.949  28.953  34.063  1.00  0.00     0.012 A 
ATOM     88  C   UNL A   1      44.864  27.002  35.032  1.00  0.00     0.148 A 
ATOM     89  C   UNL A   1      47.084  28.715  34.836  1.00  0.00     0.002 A 
ATOM     90  C   UNL A   1      45.982  26.796  35.833  1.00  0.00     0.091 A 
ATOM     91  F   UNL A   1      43.802  26.184  35.077  1.00  0.00    -0.205 F 
ATOM     92  C   UNL A   1      47.095  27.646  35.730  1.00  0.00     0.022 A 
BRANCH  90  93
ATOM     93  S   UNL A   1      46.043  25.499  37.074  1.00  0.00     0.127 S 
ATOM     94  O   UNL A   1      46.479  24.349  36.285  1.00  0.00    -0.237 OA
ATOM     95  O   UNL A   1      47.044  26.009  38.013  1.00  0.00    -0.237 OA
ATOM     96  O   UNL A   1      44.696  25.410  37.623  1.00  0.00    -0.744 OA
ENDBRANCH  90  93
ENDBRANCH  63  86
ENDBRANCH  37  38
ENDBRANCH  29  32
ENDBRANCH  27  28
ENDBRANCH  26  27
ENDBRANCH   1  26
TORSDOF 19
ENDMDL
MODEL 2
REMARK VINA RESULT:     -11.9      2.081      7.724
REMARK SMILES CC(C)(C)N(CC(=O)NCCCCNC(=O)c1ccc(-c2c3nc(c(-c4cccc(S(=O)(=O)[O-])c4F)c4ccc([nH]4)c(-c4cccc(S(=O)(=O)[O-])c4F)c4nc(c(-c5cccc(S(=O)(=O)[O-])c5F)c5ccc2[nH]5)C=C4)C=C3)cc1)C(=O)Nc1ccc([N+](=O)[O-])cc1
REMARK SMILES IDX 11 1 10 2 9 3 7 4 8 5 6 7 5 8 2 9 1 10 3 11 4 12 80 13 81 14
REMARK SMILES IDX 82 15 83 17 84 18 91 19 85 20 90 21 86 22 87 23 88 24 89 25
REMARK SMILES IDX 12 26 13 27 14 28 15 29 16 31 17 32 18 33 79 34 19 35 78 36
REMARK SMILES IDX 20 37 21 38 22 39 72 40 23 41 77 42 71 43 73 44 24 45 76 46
REMARK SMILES IDX 70 47 69 48 25 50 57 51 37 52 56 53 38 54 41 55 55 56 74 57
REMARK SMILES IDX 39 58 40 59 54 61 75 62 42 63 26 64 27 65 35 66 28 67 30 68
REMARK SMILES IDX 36 69 29 70 31 71 32 72 33 73 34 74 58 75 59 76 67 77 60 78
REMARK SMILES IDX 62 79 68 80 61 81 63 82 64 83 65 84 66 85 43 86 44 87 52 88
REMARK SMILES IDX 45 89 47 90 53 91 46 92 48 93 49 94 50 95 51 96
REMARK H PARENT 9 6 82 16 14 30 73 49 41 60
REMARK Flexibility Score: inf
ROOT
ATOM      1  C   UNL A   1      31.306  27.435  26.622  1.00  0.00     0.023 C 
ENDROOT
BRANCH   1   2
ATOM      2  C   UNL A   1      31.801  26.000  26.495  1.00  0.00     0.116 C 
BRANCH   2   3
ATOM      3  N   UNL A   1      30.786  24.990  26.635  1.00  0.00    -0.355 N 
ATOM      4  C   UNL A   1      30.953  23.642  26.723  1.00  0.00     0.239 C 
ATOM      5  O   UNL A   1      30.124  23.027  27.407  1.00  0.00    -0.273 OA
ATOM      6  H   UNL A   1      29.857  25.314  26.670  1.00  0.00     0.163 HD
BRANCH   4   7
ATOM      7  C   UNL A   1      32.145  22.876  26.107  1.00  0.00     0.221 C 
BRANCH   7   8
ATOM      8  N   UNL A   1      32.633  23.156  24.742  1.00  0.00    -0.310 N 
BRANCH   8   9
ATOM      9  C   UNL A   1      34.140  23.360  24.540  1.00  0.00     0.037 C 
ATOM     10  C   UNL A   1      34.810  24.341  25.546  1.00  0.00     0.034 C 
ATOM     11  C   UNL A   1      34.509  23.897  23.133  1.00  0.00     0.034 C 
ATOM     12  C   UNL A   1      34.871  22.008  24.759  1.00  0.00     0.034 C 
ENDBRANCH   8   9
BRANCH   8  13
ATOM     13  C   UNL A   1      31.881  22.918  23.592  1.00  0.00     0.322 C 
ATOM     14  O   UNL A   1      31.837  21.801  23.061  1.00  0.00    -0.248 OA
ATOM     15  N   UNL A   1      30.953  23.776  23.097  1.00  0.00    -0.308 N 
ATOM     16  H   UNL A   1      30.277  23.301  22.561  1.00  0.00     0.171 HD
BRANCH  15  17
ATOM     17  C   UNL A   1      30.694  25.143  23.138  1.00  0.00     0.043 A 
ATOM     18  C   UNL A   1      31.731  26.012  22.776  1.00  0.00     0.033 A 
ATOM     19  C   UNL A   1      29.489  25.665  23.597  1.00  0.00     0.033 A 
ATOM     20  C   UNL A   1      31.497  27.387  22.687  1.00  0.00     0.088 A 
ATOM     21  C   UNL A   1      29.239  27.040  23.509  1.00  0.00     0.088 A 
ATOM     22  C   UNL A   1      30.233  27.890  23.012  1.00  0.00     0.269 A 
BRANCH  22  23
ATOM     23  N   UNL A   1      29.943  29.312  22.798  1.00  0.00     0.062 N 
ATOM     24  O   UNL A   1      29.554  29.654  21.670  1.00  0.00    -0.258 OA
ATOM     25  O   UNL A   1      30.076  30.083  23.758  1.00  0.00    -0.258 OA
ENDBRANCH  22  23
ENDBRANCH  15  17
ENDBRANCH   8  13
ENDBRANCH   7   8
ENDBRANCH   4   7
ENDBRANCH   2   3
ENDBRANCH   1   2
BRANCH   1  26
ATOM     26  C   UNL A   1      32.297  28.526  26.222  1.00  0.00     0.023 C 
BRANCH  26  27
ATOM     27  C   UNL A   1      33.319  28.927  27.280  1.00  0.00     0.116 C 
BRANCH  27  28
ATOM     28  N   UNL A   1      33.518  30.366  27.413  1.00  0.00    -0.352 N 
ATOM     29  C   UNL A   1      34.653  31.040  27.797  1.00  0.00     0.251 C 
ATOM     30  H   UNL A   1      32.737  30.926  27.201  1.00  0.00     0.163 HD
ATOM     31  O   UNL A   1      34.653  32.265  27.866  1.00  0.00    -0.269 OA
BRANCH  29  32
ATOM     32  C   UNL A   1      35.852  30.268  28.184  1.00  0.00     0.039 A 
ATOM     33  C   UNL A   1      36.941  30.245  27.308  1.00  0.00     0.014 A 
ATOM     34  C   UNL A   1      35.932  29.648  29.433  1.00  0.00     0.014 A 
ATOM     35  C   UNL A   1      38.145  29.672  27.723  1.00  0.00     0.010 A 
ATOM     36  C   UNL A   1      37.153  29.148  29.871  1.00  0.00     0.010 A 
ATOM     37  C   UNL A   1      38.272  29.160  29.024  1.00  0.00    -0.014 A 
BRANCH  37  38
ATOM     38  C   UNL A   1      39.572  28.656  29.532  1.00  0.00     0.031 A 
ATOM     39  C   UNL A   1      40.280  29.383  30.642  1.00  0.00     0.074 A 
ATOM     40  C   UNL A   1      40.163  27.607  28.924  1.00  0.00     0.049 A 
ATOM     41  N   UNL A   1      41.451  29.143  31.168  1.00  0.00    -0.248 NA
ATOM     42  C   UNL A   1      39.595  30.556  31.212  1.00  0.00     0.031 C 
ATOM     43  C   UNL A   1      39.620  26.877  27.775  1.00  0.00     0.029 A 
ATOM     44  N   UNL A   1      41.366  26.992  29.167  1.00  0.00    -0.354 N 
ATOM     45  C   UNL A   1      41.664  30.153  32.097  1.00  0.00     0.074 A 
ATOM     46  C   UNL A   1      40.513  31.030  32.040  1.00  0.00     0.031 C 
ATOM     47  C   UNL A   1      40.484  25.913  27.417  1.00  0.00     0.029 A 
ATOM     48  C   UNL A   1      41.649  25.967  28.294  1.00  0.00     0.049 A 
ATOM     49  H   UNL A   1      41.969  27.259  29.897  1.00  0.00     0.167 HD
ATOM     50  C   UNL A   1      42.703  30.319  32.948  1.00  0.00     0.034 A 
ATOM     51  C   UNL A   1      42.726  25.161  28.211  1.00  0.00     0.034 A 
ATOM     52  C   UNL A   1      43.811  29.409  33.047  1.00  0.00     0.049 A 
ATOM     53  C   UNL A   1      43.833  25.320  29.218  1.00  0.00     0.074 A 
ATOM     54  C   UNL A   1      44.863  29.428  33.945  1.00  0.00     0.029 A 
ATOM     55  N   UNL A   1      44.007  28.311  32.223  1.00  0.00    -0.354 N 
ATOM     56  N   UNL A   1      43.933  26.179  30.205  1.00  0.00    -0.248 NA
ATOM     57  C   UNL A   1      44.955  24.373  29.130  1.00  0.00     0.031 C 
ATOM     58  C   UNL A   1      45.701  28.344  33.659  1.00  0.00     0.029 A 
ATOM     59  C   UNL A   1      45.163  27.645  32.590  1.00  0.00     0.049 A 
ATOM     60  H   UNL A   1      43.412  28.046  31.485  1.00  0.00     0.167 HD
ATOM     61  C   UNL A   1      45.109  25.856  30.873  1.00  0.00     0.074 A 
ATOM     62  C   UNL A   1      45.675  24.709  30.193  1.00  0.00     0.031 C 
ATOM     63  C   UNL A   1      45.678  26.466  31.941  1.00  0.00     0.034 A 
BRANCH  50  64
ATOM     64  C   UNL A   1      42.652  31.489  33.892  1.00  0.00     0.023 A 
ATOM     65  C   UNL A   1      43.199  32.725  33.489  1.00  0.00     0.012 A 
ATOM     66  C   UNL A   1      42.026  31.388  35.149  1.00  0.00     0.148 A 
ATOM     67  C   UNL A   1      43.157  33.832  34.335  1.00  0.00     0.002 A 
ATOM     68  C   UNL A   1      41.948  32.507  35.971  1.00  0.00     0.091 A 
ATOM     69  F   UNL A   1      41.532  30.199  35.526  1.00  0.00    -0.205 F 
ATOM     70  C   UNL A   1      42.522  33.726  35.570  1.00  0.00     0.022 A 
BRANCH  68  71
ATOM     71  S   UNL A   1      41.089  32.491  37.548  1.00  0.00     0.127 S 
ATOM     72  O   UNL A   1      41.970  31.651  38.356  1.00  0.00    -0.237 OA
ATOM     73  O   UNL A   1      41.092  33.908  37.916  1.00  0.00    -0.237 OA
ATOM     74  O   UNL A   1      39.768  31.940  37.277  1.00  0.00    -0.744 OA
ENDBRANCH  68  71
ENDBRANCH  50  64
BRANCH  51  75
ATOM     75  C   UNL A   1      42.766  24.075  27.191  1.00  0.00     0.023 A 
ATOM     76  C   UNL A   1      43.456  24.296  25.983  1.00  0.00     0.012 A 
ATOM     77  C   UNL A   1      42.162  22.824  27.417  1.00  0.00     0.148 A 
ATOM     78  C   UNL A   1      43.520  23.301  25.006  1.00  0.00     0.002 A 
ATOM     79  C   UNL A   1      42.273  21.819  26.462  1.00  0.00     0.091 A 
ATOM     80  F   UNL A   1      41.498  22.637  28.566  1.00  0.00    -0.205 F 
ATOM     81  C   UNL A   1      42.938  22.061  25.250  1.00  0.00     0.022 A 
BRANCH  79  82
ATOM     82  S   UNL A   1      41.666  20.153  26.751  1.00  0.00     0.127 S 
ATOM     83  O   UNL A   1      41.879  19.526  25.449  1.00  0.00    -0.237 OA
ATOM     84  O   UNL A   1      42.555  19.683  27.814  1.00  0.00    -0.237 OA
ATOM     85  O   UNL A   1      40.278  20.314  27.164  1.00  0.00    -0.744 OA
ENDBRANCH  79  82
ENDBRANCH  51  75
BRANCH  63  86
ATOM     86  C   UNL A   1      46.967  25.895  32.466  1.00  0.00     0.023 A 
ATOM     87  C   UNL A   1      48.194  26.420  32.017  1.00  0.00     0.012 A 
ATOM     88  C   UNL A   1      46.961  24.902  33.465  1.00  0.00     0.148 A 
ATOM     89  C   UNL A   1      49.399  25.948  32.535  1.00  0.00     0.002 A 
ATOM     90  C   UNL A   1      48.165  24.467  34.009  1.00  0.00     0.091 A 
ATOM     91  F   UNL A   1      45.784  24.400  33.863  1.00  0.00    -0.205 F 
ATOM     92  C   UNL A   1      49.384  24.982  33.540  1.00  0.00     0.022 A 
BRANCH  90  93
ATOM     93  S   UNL A   1      48.231  23.295  35.369  1.00  0.00     0.127 S 
ATOM     94  O   UNL A   1      49.612  23.442  35.824  1.00  0.00    -0.237 OA
ATOM     95  O   UNL A   1      47.226  23.826  36.291  1.00  0.00    -0.237 OA
ATOM     96  O   UNL A   1      47.893  22.000  34.794  1.00  0.00    -0.744 OA
ENDBRANCH  90  93
ENDBRANCH  63  86
ENDBRANCH  37  38
ENDBRANCH  29  32
ENDBRANCH  27  28
ENDBRANCH  26  27
ENDBRANCH   1  26
TORSDOF 19
ENDMDL
MODEL 3
REMARK VINA RESULT:     -11.8      2.225      8.335
REMARK SMILES CC(C)(C)N(CC(=O)NCCCCNC(=O)c1ccc(-c2c3nc(c(-c4cccc(S(=O)(=O)[O-])c4F)c4ccc([nH]4)c(-c4cccc(S(=O)(=O)[O-])c4F)c4nc(c(-c5cccc(S(=O)(=O)[O-])c5F)c5ccc2[nH]5)C=C4)C=C3)cc1)C(=O)Nc1ccc([N+](=O)[O-])cc1
REMARK SMILES IDX 11 1 10 2 9 3 7 4 8 5 6 7 5 8 2 9 1 10 3 11 4 12 80 13 81 14
REMARK SMILES IDX 82 15 83 17 84 18 91 19 85 20 90 21 86 22 87 23 88 24 89 25
REMARK SMILES IDX 12 26 13 27 14 28 15 29 16 31 17 32 18 33 79 34 19 35 78 36
REMARK SMILES IDX 20 37 21 38 22 39 72 40 23 41 77 42 71 43 73 44 24 45 76 46
REMARK SMILES IDX 70 47 69 48 25 50 57 51 37 52 56 53 38 54 41 55 55 56 74 57
REMARK SMILES IDX 39 58 40 59 54 61 75 62 42 63 26 64 27 65 35 66 28 67 30 68
REMARK SMILES IDX 36 69 29 70 31 71 32 72 33 73 34 74 58 75 59 76 67 77 60 78
REMARK SMILES IDX 62 79 68 80 61 81 63 82 64 83 65 84 66 85 43 86 44 87 52 88
REMARK SMILES IDX 45 89 47 90 53 91 46 92 48 93 49 94 50 95 51 96
REMARK H PARENT 9 6 82 16 14 30 73 49 41 60
REMARK Flexibility Score: inf
ROOT
ATOM      1  C   UNL A   1      32.509  27.545  26.351  1.00  0.00     0.023 C 
ENDROOT
BRANCH   1   2
ATOM      2  C   UNL A   1      31.553  26.360  26.293  1.00  0.00     0.116 C 
BRANCH   2   3
ATOM      3  N   UNL A   1      30.868  26.189  25.039  1.00  0.00    -0.355 N 
ATOM      4  C   UNL A   1      31.019  25.185  24.133  1.00  0.00     0.239 C 
ATOM      5  O   UNL A   1      30.013  24.873  23.482  1.00  0.00    -0.273 OA
ATOM      6  H   UNL A   1      30.211  26.885  24.809  1.00  0.00     0.163 HD
BRANCH   4   7
ATOM      7  C   UNL A   1      32.323  24.375  23.949  1.00  0.00     0.221 C 
BRANCH   7   8
ATOM      8  N   UNL A   1      32.770  23.378  24.942  1.00  0.00    -0.310 N 
BRANCH   8   9
ATOM      9  C   UNL A   1      34.248  23.382  25.354  1.00  0.00     0.037 C 
ATOM     10  C   UNL A   1      35.151  22.385  24.568  1.00  0.00     0.034 C 
ATOM     11  C   UNL A   1      34.474  23.050  26.852  1.00  0.00     0.034 C 
ATOM     12  C   UNL A   1      34.856  24.780  25.062  1.00  0.00     0.034 C 
ENDBRANCH   8   9
BRANCH   8  13
ATOM     13  C   UNL A   1      31.899  22.671  25.769  1.00  0.00     0.322 C 
ATOM     14  O   UNL A   1      31.154  23.244  26.575  1.00  0.00    -0.248 OA
ATOM     15  N   UNL A   1      31.597  21.357  25.612  1.00  0.00    -0.308 N 
ATOM     16  H   UNL A   1      30.717  21.144  25.999  1.00  0.00     0.171 HD
BRANCH  15  17
ATOM     17  C   UNL A   1      32.190  20.228  25.055  1.00  0.00     0.043 A 
ATOM     18  C   UNL A   1      32.885  19.367  25.913  1.00  0.00     0.033 A 
ATOM     19  C   UNL A   1      32.184  19.975  23.687  1.00  0.00     0.033 A 
ATOM     20  C   UNL A   1      33.403  18.161  25.433  1.00  0.00     0.088 A 
ATOM     21  C   UNL A   1      32.694  18.768  23.191  1.00  0.00     0.088 A 
ATOM     22  C   UNL A   1      33.263  17.846  24.077  1.00  0.00     0.269 A 
BRANCH  22  23
ATOM     23  N   UNL A   1      33.688  16.529  23.592  1.00  0.00     0.062 N 
ATOM     24  O   UNL A   1      33.364  15.539  24.266  1.00  0.00    -0.258 OA
ATOM     25  O   UNL A   1      34.320  16.478  22.528  1.00  0.00    -0.258 OA
ENDBRANCH  22  23
ENDBRANCH  15  17
ENDBRANCH   8  13
ENDBRANCH   7   8
ENDBRANCH   4   7
ENDBRANCH   2   3
ENDBRANCH   1   2
BRANCH   1  26
ATOM     26  C   UNL A   1      31.863  28.929  26.357  1.00  0.00     0.023 C 
BRANCH  26  27
ATOM     27  C   UNL A   1      32.726  30.076  25.845  1.00  0.00     0.116 C 
BRANCH  27  28
ATOM     28  N   UNL A   1      32.432  31.370  26.450  1.00  0.00    -0.352 N 
ATOM     29  C   UNL A   1      33.205  32.102  27.321  1.00  0.00     0.251 C 
ATOM     30  H   UNL A   1      31.569  31.772  26.202  1.00  0.00     0.163 HD
ATOM     31  O   UNL A   1      32.806  33.181  27.748  1.00  0.00    -0.269 OA
BRANCH  29  32
ATOM     32  C   UNL A   1      34.492  31.543  27.784  1.00  0.00     0.039 A 
ATOM     33  C   UNL A   1      35.554  32.421  28.018  1.00  0.00     0.014 A 
ATOM     34  C   UNL A   1      34.621  30.181  28.066  1.00  0.00     0.014 A 
ATOM     35  C   UNL A   1      36.720  31.945  28.620  1.00  0.00     0.010 A 
ATOM     36  C   UNL A   1      35.753  29.725  28.734  1.00  0.00     0.010 A 
ATOM     37  C   UNL A   1      36.810  30.602  29.023  1.00  0.00    -0.014 A 
BRANCH  37  38
ATOM     38  C   UNL A   1      37.987  30.098  29.771  1.00  0.00     0.031 A 
ATOM     39  C   UNL A   1      38.251  30.577  31.172  1.00  0.00     0.074 A 
ATOM     40  C   UNL A   1      38.873  29.291  29.153  1.00  0.00     0.049 A 
ATOM     41  N   UNL A   1      39.260  30.311  31.957  1.00  0.00    -0.248 NA
ATOM     42  C   UNL A   1      37.266  31.505  31.754  1.00  0.00     0.031 C 
ATOM     43  C   UNL A   1      38.778  28.833  27.765  1.00  0.00     0.029 A 
ATOM     44  N   UNL A   1      40.046  28.738  29.603  1.00  0.00    -0.354 N 
ATOM     45  C   UNL A   1      39.058  31.067  33.105  1.00  0.00     0.074 A 
ATOM     46  C   UNL A   1      37.845  31.829  32.900  1.00  0.00     0.031 C 
ATOM     47  C   UNL A   1      39.843  28.067  27.479  1.00  0.00     0.029 A 
ATOM     48  C   UNL A   1      40.708  27.995  28.652  1.00  0.00     0.049 A 
ATOM     49  H   UNL A   1      40.383  28.860  30.519  1.00  0.00     0.167 HD
ATOM     50  C   UNL A   1      39.793  31.099  34.241  1.00  0.00     0.034 A 
ATOM     51  C   UNL A   1      41.878  27.330  28.719  1.00  0.00     0.034 A 
ATOM     52  C   UNL A   1      40.959  30.290  34.464  1.00  0.00     0.049 A 
ATOM     53  C   UNL A   1      42.636  27.321  30.019  1.00  0.00     0.074 A 
ATOM     54  C   UNL A   1      41.717  30.170  35.616  1.00  0.00     0.029 A 
ATOM     55  N   UNL A   1      41.536  29.458  33.517  1.00  0.00    -0.354 N 
ATOM     56  N   UNL A   1      42.335  27.907  31.153  1.00  0.00    -0.248 NA
ATOM     57  C   UNL A   1      43.872  26.526  30.065  1.00  0.00     0.031 C 
ATOM     58  C   UNL A   1      42.756  29.268  35.363  1.00  0.00     0.029 A 
ATOM     59  C   UNL A   1      42.639  28.820  34.056  1.00  0.00     0.049 A 
ATOM     60  H   UNL A   1      41.209  29.338  32.596  1.00  0.00     0.167 HD
ATOM     61  C   UNL A   1      43.323  27.527  32.054  1.00  0.00     0.074 A 
ATOM     62  C   UNL A   1      44.220  26.641  31.340  1.00  0.00     0.031 C 
ATOM     63  C   UNL A   1      43.484  27.892  33.349  1.00  0.00     0.034 A 
BRANCH  50  64
ATOM     64  C   UNL A   1      39.311  31.983  35.358  1.00  0.00     0.023 A 
ATOM     65  C   UNL A   1      38.377  31.477  36.285  1.00  0.00     0.012 A 
ATOM     66  C   UNL A   1      39.810  33.289  35.524  1.00  0.00     0.148 A 
ATOM     67  C   UNL A   1      37.920  32.266  37.339  1.00  0.00     0.002 A 
ATOM     68  C   UNL A   1      39.382  34.057  36.602  1.00  0.00     0.091 A 
ATOM     69  F   UNL A   1      40.679  33.764  34.619  1.00  0.00    -0.205 F 
ATOM     70  C   UNL A   1      38.430  33.552  37.503  1.00  0.00     0.022 A 
BRANCH  68  71
ATOM     71  S   UNL A   1      40.034  35.696  36.941  1.00  0.00     0.127 S 
ATOM     72  O   UNL A   1      39.345  36.036  38.185  1.00  0.00    -0.237 OA
ATOM     73  O   UNL A   1      41.467  35.435  37.091  1.00  0.00    -0.237 OA
ATOM     74  O   UNL A   1      39.685  36.511  35.786  1.00  0.00    -0.744 OA
ENDBRANCH  68  71
ENDBRANCH  50  64
BRANCH  51  75
ATOM     75  C   UNL A   1      42.357  26.545  27.546  1.00  0.00     0.023 A 
ATOM     76  C   UNL A   1      43.176  27.176  26.589  1.00  0.00     0.012 A 
ATOM     77  C   UNL A   1      42.041  25.182  27.388  1.00  0.00     0.148 A 
ATOM     78  C   UNL A   1      43.648  26.472  25.480  1.00  0.00     0.002 A 
ATOM     79  C   UNL A   1      42.556  24.473  26.308  1.00  0.00     0.091 A 
ATOM     80  F   UNL A   1      41.249  24.603  28.300  1.00  0.00    -0.205 F 
ATOM     81  C   UNL A   1      43.346  25.120  25.345  1.00  0.00     0.022 A 
BRANCH  79  82
ATOM     82  S   UNL A   1      42.325  22.700  26.129  1.00  0.00     0.127 S 
ATOM     83  O   UNL A   1      42.960  22.191  27.342  1.00  0.00    -0.237 OA
ATOM     84  O   UNL A   1      40.867  22.583  26.101  1.00  0.00    -0.237 OA
ATOM     85  O   UNL A   1      42.975  22.352  24.872  1.00  0.00    -0.744 OA
ENDBRANCH  79  82
ENDBRANCH  51  75
BRANCH  63  86
ATOM     86  C   UNL A   1      44.657  27.317  34.096  1.00  0.00     0.023 A 
ATOM     87  C   UNL A   1      45.893  27.992  34.075  1.00  0.00     0.012 A 
ATOM     88  C   UNL A   1      44.511  26.161  34.887  1.00  0.00     0.148 A 
ATOM     89  C   UNL A   1      46.976  27.510  34.809  1.00  0.00     0.002 A 
ATOM     90  C   UNL A   1      45.582  25.711  35.651  1.00  0.00     0.091 A 
ATOM     91  F   UNL A   1      43.333  25.521  34.876  1.00  0.00    -0.205 F 
ATOM     92  C   UNL A   1      46.817  26.378  35.606  1.00  0.00     0.022 A 
BRANCH  90  93
ATOM     93  S   UNL A   1      45.435  24.317  36.775  1.00  0.00     0.127 S 
ATOM     94  O   UNL A   1      45.104  23.228  35.859  1.00  0.00    -0.237 OA
ATOM     95  O   UNL A   1      46.777  24.239  37.356  1.00  0.00    -0.237 OA
ATOM     96  O   UNL A   1      44.391  24.680  37.724  1.00  0.00    -0.744 OA
ENDBRANCH  90  93
ENDBRANCH  63  86
ENDBRANCH  37  38
ENDBRANCH  29  32
ENDBRANCH  27  28
ENDBRANCH  26  27
ENDBRANCH   1  26
TORSDOF 19
ENDMDL
