MODEL 1
REMARK VINA RESULT:     -12.4      0.000      0.000
REMARK SMILES Cc1cccc(C[N@@H+]2CCn3nc(CCC(=O)NCCCCNC(=O)c4ccc(-c5c6nc(c(-c7cccc(S(=O)(=O)[O-])c7F)c7ccc([nH]7)c(-c7cccc(S(=O)(=O)[O-])c7F)c7nc(c(-c8cccc(S(=O)(=O)[O-])c8F)c8ccc5[nH]8)C=C7)C=C6)cc4)cc3C2)c1
REMARK SMILES IDX 20 1 19 2 18 3 16 4 17 5 15 7 14 8 13 9 8 10 9 11 91 12
REMARK SMILES IDX 10 14 90 15 11 16 89 17 12 18 7 19 6 20 1 21 2 22 3 23 92 24
REMARK SMILES IDX 4 25 5 26 21 27 22 28 23 29 24 30 25 32 26 33 27 34 88 35
REMARK SMILES IDX 28 36 87 37 29 38 30 39 31 40 81 41 32 42 86 43 80 44 82 45
REMARK SMILES IDX 33 46 85 47 79 48 78 49 34 51 66 52 46 53 65 54 47 55 50 56
REMARK SMILES IDX 64 57 83 58 48 59 49 60 63 62 84 63 51 64 35 65 36 66 44 67
REMARK SMILES IDX 37 68 39 69 45 70 38 71 40 72 41 73 42 74 43 75 67 76 68 77
REMARK SMILES IDX 76 78 69 79 71 80 77 81 70 82 72 83 73 84 74 85 75 86 52 87
REMARK SMILES IDX 53 88 61 89 54 90 56 91 62 92 55 93 57 94 58 95 59 96 60 97
REMARK H PARENT 18 6 8 13 23 31 82 50 50 61
REMARK Flexibility Score: inf
ROOT
ATOM      1  C   UNL A   1      36.161  23.967  25.917  1.00  0.00     0.023 C 
ENDROOT
BRANCH   1   2
ATOM      2  C   UNL A   1      34.766  24.254  25.375  1.00  0.00     0.116 C 
BRANCH   2   3
ATOM      3  N   UNL A   1      33.771  24.048  26.405  1.00  0.00    -0.356 N 
ATOM      4  C   UNL A   1      32.861  23.034  26.484  1.00  0.00     0.220 C 
ATOM      5  O   UNL A   1      31.945  23.131  27.304  1.00  0.00    -0.275 OA
ATOM      6  H   UNL A   1      33.749  24.713  27.130  1.00  0.00     0.163 HD
BRANCH   4   7
ATOM      7  C   UNL A   1      33.001  21.792  25.614  1.00  0.00     0.106 C 
BRANCH   7   8
ATOM      8  C   UNL A   1      31.998  21.722  24.459  1.00  0.00     0.068 C 
BRANCH   8   9
ATOM      9  C   UNL A   1      31.787  23.010  23.715  1.00  0.00     0.063 A 
ATOM     10  N   UNL A   1      32.004  27.221  22.136  1.00  0.00    -0.325 N 
ATOM     11  C   UNL A   1      30.752  27.337  22.885  1.00  0.00     0.286 C 
ATOM     12  C   UNL A   1      32.259  25.937  21.508  1.00  0.00     0.319 C 
ATOM     13  H   UNL A   1      31.792  27.796  21.321  1.00  0.00     0.348 HD
ATOM     14  C   UNL A   1      30.146  26.067  23.513  1.00  0.00     0.206 C 
ATOM     15  C   UNL A   1      31.992  24.812  22.427  1.00  0.00     0.093 A 
ATOM     16  N   UNL A   1      30.897  24.863  23.228  1.00  0.00    -0.258 N 
ATOM     17  C   UNL A   1      32.638  23.643  22.767  1.00  0.00     0.055 A 
ATOM     18  N   UNL A   1      30.647  23.704  23.865  1.00  0.00    -0.177 NA
BRANCH  10  19
ATOM     19  C   UNL A   1      33.159  27.948  22.656  1.00  0.00     0.299 C 
BRANCH  19  20
ATOM     20  C   UNL A   1      33.147  28.316  24.121  1.00  0.00     0.006 A 
ATOM     21  C   UNL A   1      31.663  30.983  26.427  1.00  0.00     0.044 C 
ATOM     22  C   UNL A   1      32.428  29.790  25.941  1.00  0.00    -0.051 A 
ATOM     23  C   UNL A   1      33.053  28.947  26.855  1.00  0.00     0.003 A 
ATOM     24  C   UNL A   1      32.509  29.487  24.575  1.00  0.00     0.013 A 
ATOM     25  C   UNL A   1      33.667  27.777  26.418  1.00  0.00     0.001 A 
ATOM     26  C   UNL A   1      33.697  27.448  25.065  1.00  0.00     0.009 A 
ENDBRANCH  19  20
ENDBRANCH  10  19
ENDBRANCH   8   9
ENDBRANCH   7   8
ENDBRANCH   4   7
ENDBRANCH   2   3
ENDBRANCH   1   2
BRANCH   1  27
ATOM     27  C   UNL A   1      36.652  22.527  25.880  1.00  0.00     0.023 C 
BRANCH  27  28
ATOM     28  C   UNL A   1      38.092  22.428  25.431  1.00  0.00     0.116 C 
BRANCH  28  29
ATOM     29  N   UNL A   1      39.061  22.090  26.460  1.00  0.00    -0.352 N 
ATOM     30  C   UNL A   1      39.924  22.917  27.166  1.00  0.00     0.251 C 
ATOM     31  H   UNL A   1      39.115  21.134  26.690  1.00  0.00     0.163 HD
ATOM     32  O   UNL A   1      40.809  22.385  27.833  1.00  0.00    -0.269 OA
BRANCH  30  33
ATOM     33  C   UNL A   1      39.677  24.386  27.259  1.00  0.00     0.039 A 
ATOM     34  C   UNL A   1      40.407  25.239  26.423  1.00  0.00     0.014 A 
ATOM     35  C   UNL A   1      39.037  24.922  28.362  1.00  0.00     0.014 A 
ATOM     36  C   UNL A   1      40.754  26.509  26.871  1.00  0.00     0.010 A 
ATOM     37  C   UNL A   1      39.560  26.052  28.917  1.00  0.00     0.010 A 
ATOM     38  C   UNL A   1      40.465  26.821  28.183  1.00  0.00    -0.014 A 
BRANCH  38  39
ATOM     39  C   UNL A   1      40.824  28.040  28.874  1.00  0.00     0.031 A 
ATOM     40  C   UNL A   1      39.846  29.135  28.748  1.00  0.00     0.074 A 
ATOM     41  C   UNL A   1      41.644  27.855  29.929  1.00  0.00     0.049 A 
ATOM     42  N   UNL A   1      39.971  30.303  29.259  1.00  0.00    -0.248 NA
ATOM     43  C   UNL A   1      38.608  28.967  27.984  1.00  0.00     0.031 C 
ATOM     44  C   UNL A   1      41.600  28.490  31.238  1.00  0.00     0.029 A 
ATOM     45  N   UNL A   1      42.786  27.057  29.980  1.00  0.00    -0.354 N 
ATOM     46  C   UNL A   1      38.727  30.902  29.181  1.00  0.00     0.074 A 
ATOM     47  C   UNL A   1      37.967  30.100  28.261  1.00  0.00     0.031 C 
ATOM     48  C   UNL A   1      42.764  28.250  31.871  1.00  0.00     0.029 A 
ATOM     49  C   UNL A   1      43.664  27.644  30.894  1.00  0.00     0.049 A 
ATOM     50  H   UNL A   1      42.944  26.232  29.466  1.00  0.00     0.167 HD
ATOM     51  C   UNL A   1      38.422  31.885  30.071  1.00  0.00     0.034 A 
ATOM     52  C   UNL A   1      44.879  28.152  30.532  1.00  0.00     0.034 A 
ATOM     53  C   UNL A   1      39.580  32.116  30.955  1.00  0.00     0.049 A 
ATOM     54  C   UNL A   1      44.905  29.654  30.722  1.00  0.00     0.074 A 
ATOM     55  C   UNL A   1      39.888  31.626  32.215  1.00  0.00     0.029 A 
ATOM     56  N   UNL A   1      40.771  32.606  30.424  1.00  0.00    -0.354 N 
ATOM     57  N   UNL A   1      43.833  30.375  30.901  1.00  0.00    -0.248 NA
ATOM     58  C   UNL A   1      46.122  30.459  30.736  1.00  0.00     0.031 C 
ATOM     59  C   UNL A   1      41.296  31.733  32.392  1.00  0.00     0.029 A 
ATOM     60  C   UNL A   1      41.843  32.315  31.258  1.00  0.00     0.049 A 
ATOM     61  H   UNL A   1      40.842  33.092  29.571  1.00  0.00     0.167 HD
ATOM     62  C   UNL A   1      44.156  31.694  30.921  1.00  0.00     0.074 A 
ATOM     63  C   UNL A   1      45.611  31.694  30.885  1.00  0.00     0.031 C 
ATOM     64  C   UNL A   1      43.208  32.677  30.876  1.00  0.00     0.034 A 
BRANCH  51  65
ATOM     65  C   UNL A   1      37.024  32.409  30.385  1.00  0.00     0.023 A 
ATOM     66  C   UNL A   1      36.463  31.996  31.616  1.00  0.00     0.012 A 
ATOM     67  C   UNL A   1      36.196  33.242  29.589  1.00  0.00     0.148 A 
ATOM     68  C   UNL A   1      35.161  32.323  32.006  1.00  0.00     0.002 A 
ATOM     69  C   UNL A   1      34.876  33.537  29.957  1.00  0.00     0.091 A 
ATOM     70  F   UNL A   1      36.682  33.830  28.497  1.00  0.00    -0.205 F 
ATOM     71  C   UNL A   1      34.356  33.077  31.168  1.00  0.00     0.022 A 
BRANCH  69  72
ATOM     72  S   UNL A   1      33.754  34.491  28.912  1.00  0.00     0.127 S 
ATOM     73  O   UNL A   1      33.361  33.505  27.903  1.00  0.00    -0.237 OA
ATOM     74  O   UNL A   1      32.694  34.858  29.848  1.00  0.00    -0.237 OA
ATOM     75  O   UNL A   1      34.534  35.603  28.382  1.00  0.00    -0.744 OA
ENDBRANCH  69  72
ENDBRANCH  51  65
BRANCH  52  76
ATOM     76  C   UNL A   1      45.553  27.412  29.422  1.00  0.00     0.023 A 
ATOM     77  C   UNL A   1      45.906  26.067  29.667  1.00  0.00     0.012 A 
ATOM     78  C   UNL A   1      45.411  27.845  28.086  1.00  0.00     0.148 A 
ATOM     79  C   UNL A   1      45.987  25.146  28.621  1.00  0.00     0.002 A 
ATOM     80  C   UNL A   1      45.420  26.903  27.059  1.00  0.00     0.091 A 
ATOM     81  F   UNL A   1      45.106  29.130  27.868  1.00  0.00    -0.205 F 
ATOM     82  C   UNL A   1      45.684  25.552  27.327  1.00  0.00     0.022 A 
BRANCH  80  83
ATOM     83  S   UNL A   1      44.883  27.285  25.386  1.00  0.00     0.127 S 
ATOM     84  O   UNL A   1      45.922  28.216  24.942  1.00  0.00    -0.237 OA
ATOM     85  O   UNL A   1      44.945  25.964  24.756  1.00  0.00    -0.237 OA
ATOM     86  O   UNL A   1      43.552  27.841  25.516  1.00  0.00    -0.744 OA
ENDBRANCH  80  83
ENDBRANCH  52  76
BRANCH  64  87
ATOM     87  C   UNL A   1      43.535  34.080  30.434  1.00  0.00     0.023 A 
ATOM     88  C   UNL A   1      43.937  35.060  31.367  1.00  0.00     0.012 A 
ATOM     89  C   UNL A   1      43.614  34.422  29.067  1.00  0.00     0.148 A 
ATOM     90  C   UNL A   1      44.282  36.352  30.977  1.00  0.00     0.002 A 
ATOM     91  C   UNL A   1      44.085  35.671  28.678  1.00  0.00     0.091 A 
ATOM     92  F   UNL A   1      43.224  33.541  28.134  1.00  0.00    -0.205 F 
ATOM     93  C   UNL A   1      44.372  36.653  29.628  1.00  0.00     0.022 A 
BRANCH  91  94
ATOM     94  S   UNL A   1      44.493  36.016  26.963  1.00  0.00     0.127 S 
ATOM     95  O   UNL A   1      45.115  37.334  27.064  1.00  0.00    -0.237 OA
ATOM     96  O   UNL A   1      45.417  34.928  26.638  1.00  0.00    -0.237 OA
ATOM     97  O   UNL A   1      43.226  35.955  26.249  1.00  0.00    -0.744 OA
ENDBRANCH  91  94
ENDBRANCH  64  87
ENDBRANCH  38  39
ENDBRANCH  30  33
ENDBRANCH  28  29
ENDBRANCH  27  28
ENDBRANCH   1  27
TORSDOF 18
ENDMDL
MODEL 2
REMARK VINA RESULT:     -11.9      3.834      9.078
REMARK SMILES Cc1cccc(C[N@@H+]2CCn3nc(CCC(=O)NCCCCNC(=O)c4ccc(-c5c6nc(c(-c7cccc(S(=O)(=O)[O-])c7F)c7ccc([nH]7)c(-c7cccc(S(=O)(=O)[O-])c7F)c7nc(c(-c8cccc(S(=O)(=O)[O-])c8F)c8ccc5[nH]8)C=C7)C=C6)cc4)cc3C2)c1
REMARK SMILES IDX 20 1 19 2 18 3 16 4 17 5 15 7 14 8 13 9 8 10 9 11 91 12
REMARK SMILES IDX 10 14 90 15 11 16 89 17 12 18 7 19 6 20 1 21 2 22 3 23 92 24
REMARK SMILES IDX 4 25 5 26 21 27 22 28 23 29 24 30 25 32 26 33 27 34 88 35
REMARK SMILES IDX 28 36 87 37 29 38 30 39 31 40 81 41 32 42 86 43 80 44 82 45
REMARK SMILES IDX 33 46 85 47 79 48 78 49 34 51 66 52 46 53 65 54 47 55 50 56
REMARK SMILES IDX 64 57 83 58 48 59 49 60 63 62 84 63 51 64 35 65 36 66 44 67
REMARK SMILES IDX 37 68 39 69 45 70 38 71 40 72 41 73 42 74 43 75 67 76 68 77
REMARK SMILES IDX 76 78 69 79 71 80 77 81 70 82 72 83 73 84 74 85 75 86 52 87
REMARK SMILES IDX 53 88 61 89 54 90 56 91 62 92 55 93 57 94 58 95 59 96 60 97
REMARK H PARENT 18 6 8 13 23 31 82 50 50 61
REMARK Flexibility Score: inf
ROOT
ATOM      1  C   UNL A   1      31.851  30.032  25.395  1.00  0.00     0.023 C 
ENDROOT
BRANCH   1   2
ATOM      2  C   UNL A   1      31.386  28.606  25.123  1.00  0.00     0.116 C 
BRANCH   2   3
ATOM      3  N   UNL A   1      32.405  27.870  24.408  1.00  0.00    -0.356 N 
ATOM      4  C   UNL A   1      33.134  26.811  24.863  1.00  0.00     0.220 C 
ATOM      5  O   UNL A   1      34.112  26.445  24.207  1.00  0.00    -0.275 OA
ATOM      6  H   UNL A   1      32.594  28.168  23.488  1.00  0.00     0.163 HD
BRANCH   4   7
ATOM      7  C   UNL A   1      32.721  26.068  26.127  1.00  0.00     0.106 C 
BRANCH   7   8
ATOM      8  C   UNL A   1      31.549  25.103  25.930  1.00  0.00     0.068 C 
BRANCH   8   9
ATOM      9  C   UNL A   1      31.919  23.647  25.883  1.00  0.00     0.063 A 
ATOM     10  N   UNL A   1      33.966  19.685  25.267  1.00  0.00    -0.325 N 
ATOM     11  C   UNL A   1      32.933  19.555  24.240  1.00  0.00     0.286 C 
ATOM     12  C   UNL A   1      33.586  20.402  26.472  1.00  0.00     0.319 C 
ATOM     13  H   UNL A   1      34.008  18.728  25.618  1.00  0.00     0.348 HD
ATOM     14  C   UNL A   1      31.840  20.637  24.148  1.00  0.00     0.206 C 
ATOM     15  C   UNL A   1      32.872  21.657  26.163  1.00  0.00     0.093 A 
ATOM     16  N   UNL A   1      31.950  21.660  25.165  1.00  0.00    -0.258 N 
ATOM     17  C   UNL A   1      32.928  22.959  26.611  1.00  0.00     0.055 A 
ATOM     18  N   UNL A   1      31.224  22.793  25.113  1.00  0.00    -0.177 NA
BRANCH  10  19
ATOM     19  C   UNL A   1      35.344  19.840  24.808  1.00  0.00     0.299 C 
BRANCH  19  20
ATOM     20  C   UNL A   1      35.938  21.228  24.850  1.00  0.00     0.006 A 
ATOM     21  C   UNL A   1      38.893  23.071  26.433  1.00  0.00     0.044 C 
ATOM     22  C   UNL A   1      37.651  22.789  25.644  1.00  0.00    -0.051 A 
ATOM     23  C   UNL A   1      37.089  23.789  24.855  1.00  0.00     0.003 A 
ATOM     24  C   UNL A   1      37.049  21.523  25.663  1.00  0.00     0.013 A 
ATOM     25  C   UNL A   1      36.003  23.501  24.033  1.00  0.00     0.001 A 
ATOM     26  C   UNL A   1      35.443  22.226  24.010  1.00  0.00     0.009 A 
ENDBRANCH  19  20
ENDBRANCH  10  19
ENDBRANCH   8   9
ENDBRANCH   7   8
ENDBRANCH   4   7
ENDBRANCH   2   3
ENDBRANCH   1   2
BRANCH   1  27
ATOM     27  C   UNL A   1      32.290  30.375  26.811  1.00  0.00     0.023 C 
BRANCH  27  28
ATOM     28  C   UNL A   1      33.769  30.145  27.019  1.00  0.00     0.116 C 
BRANCH  28  29
ATOM     29  N   UNL A   1      34.558  31.316  27.365  1.00  0.00    -0.352 N 
ATOM     30  C   UNL A   1      35.715  31.408  28.127  1.00  0.00     0.251 C 
ATOM     31  H   UNL A   1      34.222  32.170  27.007  1.00  0.00     0.163 HD
ATOM     32  O   UNL A   1      36.086  32.529  28.468  1.00  0.00    -0.269 OA
BRANCH  30  33
ATOM     33  C   UNL A   1      36.573  30.212  28.368  1.00  0.00     0.039 A 
ATOM     34  C   UNL A   1      36.664  29.708  29.672  1.00  0.00     0.014 A 
ATOM     35  C   UNL A   1      37.526  29.832  27.440  1.00  0.00     0.014 A 
ATOM     36  C   UNL A   1      37.851  29.125  30.102  1.00  0.00     0.010 A 
ATOM     37  C   UNL A   1      38.763  29.490  27.899  1.00  0.00     0.010 A 
ATOM     38  C   UNL A   1      38.934  29.185  29.250  1.00  0.00    -0.014 A 
BRANCH  38  39
ATOM     39  C   UNL A   1      40.277  28.731  29.538  1.00  0.00     0.031 A 
ATOM     40  C   UNL A   1      40.532  27.314  29.225  1.00  0.00     0.074 A 
ATOM     41  C   UNL A   1      41.207  29.708  29.509  1.00  0.00     0.049 A 
ATOM     42  N   UNL A   1      41.640  26.700  29.417  1.00  0.00    -0.248 NA
ATOM     43  C   UNL A   1      39.487  26.459  28.656  1.00  0.00     0.031 C 
ATOM     44  C   UNL A   1      42.551  29.668  28.951  1.00  0.00     0.029 A 
ATOM     45  N   UNL A   1      41.119  30.974  30.087  1.00  0.00    -0.354 N 
ATOM     46  C   UNL A   1      41.560  25.513  28.712  1.00  0.00     0.074 A 
ATOM     47  C   UNL A   1      40.169  25.348  28.386  1.00  0.00     0.031 C 
ATOM     48  C   UNL A   1      43.235  30.736  29.403  1.00  0.00     0.029 A 
ATOM     49  C   UNL A   1      42.414  31.363  30.436  1.00  0.00     0.049 A 
ATOM     50  H   UNL A   1      40.296  31.496  30.223  1.00  0.00     0.167 HD
ATOM     51  C   UNL A   1      42.714  24.919  28.305  1.00  0.00     0.034 A 
ATOM     52  C   UNL A   1      42.805  31.561  31.729  1.00  0.00     0.034 A 
ATOM     53  C   UNL A   1      43.862  25.724  28.766  1.00  0.00     0.049 A 
ATOM     54  C   UNL A   1      43.837  30.532  32.137  1.00  0.00     0.074 A 
ATOM     55  C   UNL A   1      44.614  26.702  28.133  1.00  0.00     0.029 A 
ATOM     56  N   UNL A   1      44.107  25.863  30.131  1.00  0.00    -0.354 N 
ATOM     57  N   UNL A   1      44.074  29.443  31.458  1.00  0.00    -0.248 NA
ATOM     58  C   UNL A   1      44.685  30.642  33.319  1.00  0.00     0.031 C 
ATOM     59  C   UNL A   1      45.232  27.495  29.140  1.00  0.00     0.029 A 
ATOM     60  C   UNL A   1      44.885  26.986  30.383  1.00  0.00     0.049 A 
ATOM     61  H   UNL A   1      43.773  25.248  30.822  1.00  0.00     0.167 HD
ATOM     62  C   UNL A   1      44.961  28.660  32.126  1.00  0.00     0.074 A 
ATOM     63  C   UNL A   1      45.369  29.486  33.252  1.00  0.00     0.031 C 
ATOM     64  C   UNL A   1      45.219  27.371  31.754  1.00  0.00     0.034 A 
BRANCH  51  65
ATOM     65  C   UNL A   1      42.839  23.836  27.238  1.00  0.00     0.023 A 
ATOM     66  C   UNL A   1      43.350  24.248  25.985  1.00  0.00     0.012 A 
ATOM     67  C   UNL A   1      42.486  22.465  27.329  1.00  0.00     0.148 A 
ATOM     68  C   UNL A   1      43.444  23.391  24.883  1.00  0.00     0.002 A 
ATOM     69  C   UNL A   1      42.540  21.614  26.217  1.00  0.00     0.091 A 
ATOM     70  F   UNL A   1      42.160  21.930  28.506  1.00  0.00    -0.205 F 
ATOM     71  C   UNL A   1      43.019  22.078  24.991  1.00  0.00     0.022 A 
BRANCH  69  72
ATOM     72  S   UNL A   1      41.982  19.898  26.265  1.00  0.00     0.127 S 
ATOM     73  O   UNL A   1      40.527  20.044  26.176  1.00  0.00    -0.237 OA
ATOM     74  O   UNL A   1      42.609  19.333  25.072  1.00  0.00    -0.237 OA
ATOM     75  O   UNL A   1      42.446  19.351  27.535  1.00  0.00    -0.744 OA
ENDBRANCH  69  72
ENDBRANCH  51  65
BRANCH  52  76
ATOM     76  C   UNL A   1      41.738  32.110  32.620  1.00  0.00     0.023 A 
ATOM     77  C   UNL A   1      41.328  33.441  32.386  1.00  0.00     0.012 A 
ATOM     78  C   UNL A   1      40.865  31.241  33.308  1.00  0.00     0.148 A 
ATOM     79  C   UNL A   1      40.035  33.860  32.711  1.00  0.00     0.002 A 
ATOM     80  C   UNL A   1      39.556  31.646  33.559  1.00  0.00     0.091 A 
ATOM     81  F   UNL A   1      41.280  29.991  33.549  1.00  0.00    -0.205 F 
ATOM     82  C   UNL A   1      39.133  32.944  33.240  1.00  0.00     0.022 A 
BRANCH  80  83
ATOM     83  S   UNL A   1      38.269  30.504  34.083  1.00  0.00     0.127 S 
ATOM     84  O   UNL A   1      38.431  30.516  35.538  1.00  0.00    -0.237 OA
ATOM     85  O   UNL A   1      37.065  31.188  33.603  1.00  0.00    -0.237 OA
ATOM     86  O   UNL A   1      38.564  29.248  33.426  1.00  0.00    -0.744 OA
ENDBRANCH  80  83
ENDBRANCH  52  76
BRANCH  64  87
ATOM     87  C   UNL A   1      45.809  26.368  32.711  1.00  0.00     0.023 A 
ATOM     88  C   UNL A   1      47.207  26.248  32.868  1.00  0.00     0.012 A 
ATOM     89  C   UNL A   1      44.996  25.634  33.602  1.00  0.00     0.148 A 
ATOM     90  C   UNL A   1      47.774  25.357  33.775  1.00  0.00     0.002 A 
ATOM     91  C   UNL A   1      45.569  24.845  34.593  1.00  0.00     0.091 A 
ATOM     92  F   UNL A   1      43.661  25.689  33.488  1.00  0.00    -0.205 F 
ATOM     93  C   UNL A   1      46.953  24.665  34.651  1.00  0.00     0.022 A 
BRANCH  91  94
ATOM     94  S   UNL A   1      44.577  24.162  35.924  1.00  0.00     0.127 S 
ATOM     95  O   UNL A   1      44.050  22.945  35.310  1.00  0.00    -0.237 OA
ATOM     96  O   UNL A   1      45.574  23.934  36.971  1.00  0.00    -0.237 OA
ATOM     97  O   UNL A   1      43.603  25.196  36.244  1.00  0.00    -0.744 OA
ENDBRANCH  91  94
ENDBRANCH  64  87
ENDBRANCH  38  39
ENDBRANCH  30  33
ENDBRANCH  28  29
ENDBRANCH  27  28
ENDBRANCH   1  27
TORSDOF 18
ENDMDL
MODEL 3
REMARK VINA RESULT:     -11.8      4.169      9.385
REMARK SMILES Cc1cccc(C[N@@H+]2CCn3nc(CCC(=O)NCCCCNC(=O)c4ccc(-c5c6nc(c(-c7cccc(S(=O)(=O)[O-])c7F)c7ccc([nH]7)c(-c7cccc(S(=O)(=O)[O-])c7F)c7nc(c(-c8cccc(S(=O)(=O)[O-])c8F)c8ccc5[nH]8)C=C7)C=C6)cc4)cc3C2)c1
REMARK SMILES IDX 20 1 19 2 18 3 16 4 17 5 15 7 14 8 13 9 8 10 9 11 91 12
REMARK SMILES IDX 10 14 90 15 11 16 89 17 12 18 7 19 6 20 1 21 2 22 3 23 92 24
REMARK SMILES IDX 4 25 5 26 21 27 22 28 23 29 24 30 25 32 26 33 27 34 88 35
REMARK SMILES IDX 28 36 87 37 29 38 30 39 31 40 81 41 32 42 86 43 80 44 82 45
REMARK SMILES IDX 33 46 85 47 79 48 78 49 34 51 66 52 46 53 65 54 47 55 50 56
REMARK SMILES IDX 64 57 83 58 48 59 49 60 63 62 84 63 51 64 35 65 36 66 44 67
REMARK SMILES IDX 37 68 39 69 45 70 38 71 40 72 41 73 42 74 43 75 67 76 68 77
REMARK SMILES IDX 76 78 69 79 71 80 77 81 70 82 72 83 73 84 74 85 75 86 52 87
REMARK SMILES IDX 53 88 61 89 54 90 56 91 62 92 55 93 57 94 58 95 59 96 60 97
REMARK H PARENT 18 6 8 13 23 31 82 50 50 61
REMARK Flexibility Score: inf
ROOT
ATOM      1  C   UNL A   1      34.594  28.772  26.943  1.00  0.00     0.023 C 
ENDROOT
BRANCH   1   2
ATOM      2  C   UNL A   1      33.805  27.687  26.222  1.00  0.00     0.116 C 
BRANCH   2   3
ATOM      3  N   UNL A   1      33.841  27.901  24.791  1.00  0.00    -0.356 N 
ATOM      4  C   UNL A   1      32.779  28.095  23.957  1.00  0.00     0.220 C 
ATOM      5  O   UNL A   1      32.970  28.040  22.740  1.00  0.00    -0.275 OA
ATOM      6  H   UNL A   1      34.732  27.910  24.374  1.00  0.00     0.163 HD
BRANCH   4   7
ATOM      7  C   UNL A   1      31.399  28.417  24.515  1.00  0.00     0.106 C 
BRANCH   7   8
ATOM      8  C   UNL A   1      30.301  27.450  24.064  1.00  0.00     0.068 C 
BRANCH   8   9
ATOM      9  C   UNL A   1      30.426  26.048  24.590  1.00  0.00     0.063 A 
ATOM     10  N   UNL A   1      31.801  22.221  26.520  1.00  0.00    -0.325 N 
ATOM     11  C   UNL A   1      31.919  21.810  25.121  1.00  0.00     0.286 C 
ATOM     12  C   UNL A   1      30.709  23.125  26.833  1.00  0.00     0.319 C 
ATOM     13  H   UNL A   1      31.464  21.357  26.945  1.00  0.00     0.348 HD
ATOM     14  C   UNL A   1      31.403  22.761  24.025  1.00  0.00     0.206 C 
ATOM     15  C   UNL A   1      30.618  24.234  25.862  1.00  0.00     0.093 A 
ATOM     16  N   UNL A   1      30.797  23.969  24.543  1.00  0.00    -0.258 N 
ATOM     17  C   UNL A   1      30.441  25.599  25.939  1.00  0.00     0.055 A 
ATOM     18  N   UNL A   1      30.489  25.007  23.743  1.00  0.00    -0.177 NA
BRANCH  10  19
ATOM     19  C   UNL A   1      33.044  22.394  27.269  1.00  0.00     0.299 C 
BRANCH  19  20
ATOM     20  C   UNL A   1      34.286  22.741  26.483  1.00  0.00     0.006 A 
ATOM     21  C   UNL A   1      37.355  21.008  24.997  1.00  0.00     0.044 C 
ATOM     22  C   UNL A   1      36.374  22.068  25.392  1.00  0.00    -0.051 A 
ATOM     23  C   UNL A   1      36.549  23.376  24.946  1.00  0.00     0.003 A 
ATOM     24  C   UNL A   1      35.260  21.768  26.188  1.00  0.00     0.013 A 
ATOM     25  C   UNL A   1      35.580  24.340  25.215  1.00  0.00     0.001 A 
ATOM     26  C   UNL A   1      34.446  24.024  25.958  1.00  0.00     0.009 A 
ENDBRANCH  19  20
ENDBRANCH  10  19
ENDBRANCH   8   9
ENDBRANCH   7   8
ENDBRANCH   4   7
ENDBRANCH   2   3
ENDBRANCH   1   2
BRANCH   1  27
ATOM     27  C   UNL A   1      33.843  30.022  27.378  1.00  0.00     0.023 C 
BRANCH  27  28
ATOM     28  C   UNL A   1      34.772  31.086  27.916  1.00  0.00     0.116 C 
BRANCH  28  29
ATOM     29  N   UNL A   1      34.207  32.418  28.059  1.00  0.00    -0.352 N 
ATOM     30  C   UNL A   1      34.534  33.423  28.959  1.00  0.00     0.251 C 
ATOM     31  H   UNL A   1      33.485  32.639  27.427  1.00  0.00     0.163 HD
ATOM     32  O   UNL A   1      33.776  34.387  29.039  1.00  0.00    -0.269 OA
BRANCH  30  33
ATOM     33  C   UNL A   1      35.846  33.422  29.670  1.00  0.00     0.039 A 
ATOM     34  C   UNL A   1      37.014  33.588  28.914  1.00  0.00     0.014 A 
ATOM     35  C   UNL A   1      35.950  32.914  30.952  1.00  0.00     0.014 A 
ATOM     36  C   UNL A   1      38.185  32.953  29.312  1.00  0.00     0.010 A 
ATOM     37  C   UNL A   1      37.003  32.096  31.232  1.00  0.00     0.010 A 
ATOM     38  C   UNL A   1      38.105  32.079  30.375  1.00  0.00    -0.014 A 
BRANCH  38  39
ATOM     39  C   UNL A   1      39.174  31.248  30.884  1.00  0.00     0.031 A 
ATOM     40  C   UNL A   1      39.277  29.919  30.256  1.00  0.00     0.074 A 
ATOM     41  C   UNL A   1      40.209  31.938  31.407  1.00  0.00     0.049 A 
ATOM     42  N   UNL A   1      40.134  29.018  30.565  1.00  0.00    -0.248 NA
ATOM     43  C   UNL A   1      38.360  29.505  29.191  1.00  0.00     0.031 C 
ATOM     44  C   UNL A   1      41.635  31.685  31.265  1.00  0.00     0.029 A 
ATOM     45  N   UNL A   1      40.144  33.023  32.280  1.00  0.00    -0.354 N 
ATOM     46  C   UNL A   1      40.100  28.078  29.551  1.00  0.00     0.074 A 
ATOM     47  C   UNL A   1      38.896  28.347  28.812  1.00  0.00     0.031 C 
ATOM     48  C   UNL A   1      42.294  32.416  32.184  1.00  0.00     0.029 A 
ATOM     49  C   UNL A   1      41.289  32.984  33.078  1.00  0.00     0.049 A 
ATOM     50  H   UNL A   1      39.424  33.693  32.325  1.00  0.00     0.167 HD
ATOM     51  C   UNL A   1      41.207  27.318  29.331  1.00  0.00     0.034 A 
ATOM     52  C   UNL A   1      41.245  32.783  34.428  1.00  0.00     0.034 A 
ATOM     53  C   UNL A   1      42.247  27.682  30.312  1.00  0.00     0.049 A 
ATOM     54  C   UNL A   1      41.888  31.462  34.791  1.00  0.00     0.074 A 
ATOM     55  C   UNL A   1      43.323  28.553  30.232  1.00  0.00     0.029 A 
ATOM     56  N   UNL A   1      42.034  27.446  31.669  1.00  0.00    -0.354 N 
ATOM     57  N   UNL A   1      42.155  30.528  33.919  1.00  0.00    -0.248 NA
ATOM     58  C   UNL A   1      42.289  31.087  36.142  1.00  0.00     0.031 C 
ATOM     59  C   UNL A   1      43.685  28.918  31.559  1.00  0.00     0.029 A 
ATOM     60  C   UNL A   1      42.857  28.249  32.448  1.00  0.00     0.049 A 
ATOM     61  H   UNL A   1      41.386  26.797  32.026  1.00  0.00     0.167 HD
ATOM     62  C   UNL A   1      42.616  29.418  34.552  1.00  0.00     0.074 A 
ATOM     63  C   UNL A   1      42.750  29.840  35.937  1.00  0.00     0.031 C 
ATOM     64  C   UNL A   1      42.765  28.222  33.907  1.00  0.00     0.034 A 
BRANCH  51  65
ATOM     65  C   UNL A   1      41.502  26.504  28.075  1.00  0.00     0.023 A 
ATOM     66  C   UNL A   1      41.272  27.154  26.841  1.00  0.00     0.012 A 
ATOM     67  C   UNL A   1      41.958  25.164  27.981  1.00  0.00     0.148 A 
ATOM     68  C   UNL A   1      41.415  26.513  25.606  1.00  0.00     0.002 A 
ATOM     69  C   UNL A   1      42.063  24.506  26.748  1.00  0.00     0.091 A 
ATOM     70  F   UNL A   1      42.373  24.515  29.069  1.00  0.00    -0.205 F 
ATOM     71  C   UNL A   1      41.790  25.182  25.557  1.00  0.00     0.022 A 
BRANCH  69  72
ATOM     72  S   UNL A   1      42.521  22.766  26.598  1.00  0.00     0.127 S 
ATOM     73  O   UNL A   1      42.379  22.533  25.159  1.00  0.00    -0.237 OA
ATOM     74  O   UNL A   1      43.900  22.764  27.080  1.00  0.00    -0.237 OA
ATOM     75  O   UNL A   1      41.571  22.020  27.415  1.00  0.00    -0.744 OA
ENDBRANCH  69  72
ENDBRANCH  51  65
BRANCH  52  76
ATOM     76  C   UNL A   1      40.047  33.371  35.101  1.00  0.00     0.023 A 
ATOM     77  C   UNL A   1      38.876  32.582  35.135  1.00  0.00     0.012 A 
ATOM     78  C   UNL A   1      40.196  34.406  36.049  1.00  0.00     0.148 A 
ATOM     79  C   UNL A   1      37.942  32.730  36.163  1.00  0.00     0.002 A 
ATOM     80  C   UNL A   1      39.297  34.496  37.110  1.00  0.00     0.091 A 
ATOM     81  F   UNL A   1      41.296  35.166  35.985  1.00  0.00    -0.205 F 
ATOM     82  C   UNL A   1      38.185  33.644  37.181  1.00  0.00     0.022 A 
BRANCH  80  83
ATOM     83  S   UNL A   1      39.600  35.519  38.556  1.00  0.00     0.127 S 
ATOM     84  O   UNL A   1      40.962  35.125  38.923  1.00  0.00    -0.237 OA
ATOM     85  O   UNL A   1      39.494  36.864  37.985  1.00  0.00    -0.237 OA
ATOM     86  O   UNL A   1      38.566  35.174  39.509  1.00  0.00    -0.744 OA
ENDBRANCH  80  83
ENDBRANCH  52  76
BRANCH  64  87
ATOM     87  C   UNL A   1      42.817  26.915  34.655  1.00  0.00     0.023 A 
ATOM     88  C   UNL A   1      41.634  26.279  35.088  1.00  0.00     0.012 A 
ATOM     89  C   UNL A   1      44.024  26.199  34.803  1.00  0.00     0.148 A 
ATOM     90  C   UNL A   1      41.654  25.051  35.746  1.00  0.00     0.002 A 
ATOM     91  C   UNL A   1      44.023  24.917  35.341  1.00  0.00     0.091 A 
ATOM     92  F   UNL A   1      45.184  26.759  34.432  1.00  0.00    -0.205 F 
ATOM     93  C   UNL A   1      42.850  24.360  35.858  1.00  0.00     0.022 A 
BRANCH  91  94
ATOM     94  S   UNL A   1      45.479  23.870  35.250  1.00  0.00     0.127 S 
ATOM     95  O   UNL A   1      46.420  24.593  36.101  1.00  0.00    -0.237 OA
ATOM     96  O   UNL A   1      44.992  22.609  35.811  1.00  0.00    -0.237 OA
ATOM     97  O   UNL A   1      45.811  23.802  33.834  1.00  0.00    -0.744 OA
ENDBRANCH  91  94
ENDBRANCH  64  87
ENDBRANCH  38  39
ENDBRANCH  30  33
ENDBRANCH  28  29
ENDBRANCH  27  28
ENDBRANCH   1  27
TORSDOF 18
ENDMDL
