MODEL 1
REMARK VINA RESULT:     -10.8      0.000      0.000
REMARK SMILES Nc1ccc(O)c(C(=O)NCCCCNC(=O)c2ccc(-c3c4nc(c(-c5cccc(S(=O)(=O)[O-])c5F)c5ccc([nH]5)c(-c5cccc(S(=O)(=O)[O-])c5F)c5nc(c(-c6cccc(S(=O)(=O)[O-])c6F)c6ccc3[nH]6)C=C5)C=C4)cc2)c1
REMARK SMILES IDX 13 1 12 2 11 3 10 4 8 5 9 6 7 8 2 9 3 10 81 11 4 12 5 13
REMARK SMILES IDX 1 14 6 17 14 19 15 20 16 21 17 23 18 24 19 25 80 26 20 27
REMARK SMILES IDX 79 28 21 29 22 30 23 31 73 32 24 33 78 34 72 35 74 36 25 37
REMARK SMILES IDX 77 38 71 39 70 40 26 42 58 43 38 44 57 45 39 46 42 47 56 48
REMARK SMILES IDX 75 49 40 50 41 51 55 53 76 54 43 55 27 56 28 57 36 58 29 59
REMARK SMILES IDX 31 60 37 61 30 62 32 63 33 64 34 65 35 66 59 67 60 68 68 69
REMARK SMILES IDX 61 70 63 71 69 72 62 73 64 74 65 75 66 76 67 77 44 78 45 79
REMARK SMILES IDX 53 80 46 81 48 82 54 83 47 84 49 85 50 86 51 87 52 88
REMARK H PARENT 10 7 1 15 1 16 6 18 15 22 74 41 42 52
REMARK Flexibility Score: inf
ROOT
ATOM      1  C   UNL A   1      34.053  35.376  28.746  1.00  0.00     0.023 C 
ENDROOT
BRANCH   1   2
ATOM      2  C   UNL A   1      32.928  35.769  29.712  1.00  0.00     0.023 C 
BRANCH   2   3
ATOM      3  C   UNL A   1      33.389  35.992  31.154  1.00  0.00     0.116 C 
BRANCH   3   4
ATOM      4  N   UNL A   1      33.148  34.809  31.955  1.00  0.00    -0.352 N 
ATOM      5  C   UNL A   1      33.966  33.995  32.695  1.00  0.00     0.255 C 
ATOM      6  O   UNL A   1      33.427  33.067  33.307  1.00  0.00    -0.269 OA
ATOM      7  H   UNL A   1      32.203  34.532  31.971  1.00  0.00     0.163 HD
BRANCH   5   8
ATOM      8  C   UNL A   1      35.437  34.177  32.867  1.00  0.00     0.083 A 
ATOM      9  C   UNL A   1      37.698  34.615  32.037  1.00  0.00     0.032 A 
ATOM     10  C   UNL A   1      38.190  34.549  33.339  1.00  0.00     0.029 A 
ATOM     11  C   UNL A   1      36.338  34.361  31.809  1.00  0.00     0.043 A 
ATOM     12  C   UNL A   1      37.328  34.303  34.406  1.00  0.00     0.049 A 
ATOM     13  C   UNL A   1      35.966  34.126  34.170  1.00  0.00     0.128 A 
BRANCH   9  14
ATOM     14  N   UNL A   1      38.566  34.797  30.969  1.00  0.00    -0.399 N 
ATOM     15  H   UNL A   1      39.509  34.524  31.050  1.00  0.00     0.156 HD
ATOM     16  H   UNL A   1      38.239  35.197  30.132  1.00  0.00     0.156 HD
ENDBRANCH   9  14
BRANCH  13  17
ATOM     17  O   UNL A   1      35.208  33.884  35.288  1.00  0.00    -0.507 OA
ATOM     18  H   UNL A   1      34.690  33.105  35.344  1.00  0.00     0.293 HD
ENDBRANCH  13  17
ENDBRANCH   5   8
ENDBRANCH   3   4
ENDBRANCH   2   3
ENDBRANCH   1   2
BRANCH   1  19
ATOM     19  C   UNL A   1      34.487  33.914  28.818  1.00  0.00     0.116 C 
BRANCH  19  20
ATOM     20  N   UNL A   1      33.701  33.037  27.963  1.00  0.00    -0.352 N 
ATOM     21  C   UNL A   1      33.992  31.757  27.548  1.00  0.00     0.251 C 
ATOM     22  H   UNL A   1      32.848  33.407  27.639  1.00  0.00     0.163 HD
ATOM     23  O   UNL A   1      33.268  31.191  26.745  1.00  0.00    -0.269 OA
BRANCH  21  24
ATOM     24  C   UNL A   1      35.216  31.098  28.053  1.00  0.00     0.039 A 
ATOM     25  C   UNL A   1      36.444  31.742  27.884  1.00  0.00     0.014 A 
ATOM     26  C   UNL A   1      35.146  29.871  28.717  1.00  0.00     0.014 A 
ATOM     27  C   UNL A   1      37.597  31.188  28.443  1.00  0.00     0.010 A 
ATOM     28  C   UNL A   1      36.283  29.353  29.328  1.00  0.00     0.010 A 
ATOM     29  C   UNL A   1      37.520  30.006  29.199  1.00  0.00    -0.014 A 
BRANCH  29  30
ATOM     30  C   UNL A   1      38.711  29.449  29.885  1.00  0.00     0.031 A 
ATOM     31  C   UNL A   1      39.117  29.963  31.238  1.00  0.00     0.074 A 
ATOM     32  C   UNL A   1      39.487  28.553  29.242  1.00  0.00     0.049 A 
ATOM     33  N   UNL A   1      40.159  29.647  31.961  1.00  0.00    -0.248 NA
ATOM     34  C   UNL A   1      38.254  30.990  31.846  1.00  0.00     0.031 C 
ATOM     35  C   UNL A   1      39.249  28.045  27.889  1.00  0.00     0.029 A 
ATOM     36  N   UNL A   1      40.650  27.936  29.627  1.00  0.00    -0.354 N 
ATOM     37  C   UNL A   1      40.101  30.459  33.087  1.00  0.00     0.074 A 
ATOM     38  C   UNL A   1      38.938  31.305  32.937  1.00  0.00     0.031 C 
ATOM     39  C   UNL A   1      40.233  27.194  27.559  1.00  0.00     0.029 A 
ATOM     40  C   UNL A   1      41.184  27.112  28.664  1.00  0.00     0.049 A 
ATOM     41  H   UNL A   1      41.063  28.069  30.511  1.00  0.00     0.167 HD
ATOM     42  C   UNL A   1      40.923  30.477  34.163  1.00  0.00     0.034 A 
ATOM     43  C   UNL A   1      42.312  26.376  28.668  1.00  0.00     0.034 A 
ATOM     44  C   UNL A   1      42.046  29.596  34.332  1.00  0.00     0.049 A 
ATOM     45  C   UNL A   1      43.172  26.364  29.903  1.00  0.00     0.074 A 
ATOM     46  C   UNL A   1      42.879  29.465  35.429  1.00  0.00     0.029 A 
ATOM     47  N   UNL A   1      42.495  28.695  33.379  1.00  0.00    -0.354 N 
ATOM     48  N   UNL A   1      43.004  27.012  31.029  1.00  0.00    -0.248 NA
ATOM     49  C   UNL A   1      44.355  25.492  29.882  1.00  0.00     0.031 C 
ATOM     50  C   UNL A   1      43.840  28.491  35.134  1.00  0.00     0.029 A 
ATOM     51  C   UNL A   1      43.596  28.007  33.859  1.00  0.00     0.049 A 
ATOM     52  H   UNL A   1      42.090  28.563  32.491  1.00  0.00     0.167 HD
ATOM     53  C   UNL A   1      44.037  26.601  31.864  1.00  0.00     0.074 A 
ATOM     54  C   UNL A   1      44.814  25.632  31.119  1.00  0.00     0.031 C 
ATOM     55  C   UNL A   1      44.324  27.001  33.127  1.00  0.00     0.034 A 
BRANCH  42  56
ATOM     56  C   UNL A   1      40.594  31.438  35.274  1.00  0.00     0.023 A 
ATOM     57  C   UNL A   1      41.369  32.607  35.428  1.00  0.00     0.012 A 
ATOM     58  C   UNL A   1      39.499  31.218  36.132  1.00  0.00     0.148 A 
ATOM     59  C   UNL A   1      41.082  33.522  36.440  1.00  0.00     0.002 A 
ATOM     60  C   UNL A   1      39.194  32.156  37.113  1.00  0.00     0.091 A 
ATOM     61  F   UNL A   1      38.789  30.090  35.987  1.00  0.00    -0.205 F 
ATOM     62  C   UNL A   1      39.991  33.302  37.274  1.00  0.00     0.022 A 
BRANCH  60  63
ATOM     63  S   UNL A   1      37.763  31.997  38.186  1.00  0.00     0.127 S 
ATOM     64  O   UNL A   1      38.343  32.296  39.495  1.00  0.00    -0.237 OA
ATOM     65  O   UNL A   1      36.867  33.031  37.666  1.00  0.00    -0.237 OA
ATOM     66  O   UNL A   1      37.281  30.635  38.009  1.00  0.00    -0.744 OA
ENDBRANCH  60  63
ENDBRANCH  42  56
BRANCH  43  67
ATOM     67  C   UNL A   1      42.642  25.520  27.494  1.00  0.00     0.023 A 
ATOM     68  C   UNL A   1      43.476  26.035  26.483  1.00  0.00     0.012 A 
ATOM     69  C   UNL A   1      42.178  24.194  27.394  1.00  0.00     0.148 A 
ATOM     70  C   UNL A   1      43.820  25.254  25.379  1.00  0.00     0.002 A 
ATOM     71  C   UNL A   1      42.568  23.405  26.317  1.00  0.00     0.091 A 
ATOM     72  F   UNL A   1      41.376  23.726  28.361  1.00  0.00    -0.205 F 
ATOM     73  C   UNL A   1      43.376  23.937  25.301  1.00  0.00     0.022 A 
BRANCH  71  74
ATOM     74  S   UNL A   1      42.151  21.661  26.204  1.00  0.00     0.127 S 
ATOM     75  O   UNL A   1      43.041  21.209  25.139  1.00  0.00    -0.237 OA
ATOM     76  O   UNL A   1      42.495  21.179  27.542  1.00  0.00    -0.237 OA
ATOM     77  O   UNL A   1      40.726  21.619  25.903  1.00  0.00    -0.744 OA
ENDBRANCH  71  74
ENDBRANCH  43  67
BRANCH  55  78
ATOM     78  C   UNL A   1      45.514  26.375  33.806  1.00  0.00     0.023 A 
ATOM     79  C   UNL A   1      46.737  27.071  33.851  1.00  0.00     0.012 A 
ATOM     80  C   UNL A   1      45.395  25.138  34.469  1.00  0.00     0.148 A 
ATOM     81  C   UNL A   1      47.832  26.534  34.526  1.00  0.00     0.002 A 
ATOM     82  C   UNL A   1      46.478  24.630  35.178  1.00  0.00     0.091 A 
ATOM     83  F   UNL A   1      44.228  24.480  34.396  1.00  0.00    -0.205 F 
ATOM     84  C   UNL A   1      47.700  25.322  35.199  1.00  0.00     0.022 A 
BRANCH  82  85
ATOM     85  S   UNL A   1      46.366  23.122  36.149  1.00  0.00     0.127 S 
ATOM     86  O   UNL A   1      46.420  22.094  35.111  1.00  0.00    -0.237 OA
ATOM     87  O   UNL A   1      47.561  23.204  36.991  1.00  0.00    -0.237 OA
ATOM     88  O   UNL A   1      45.109  23.212  36.880  1.00  0.00    -0.744 OA
ENDBRANCH  82  85
ENDBRANCH  55  78
ENDBRANCH  29  30
ENDBRANCH  21  24
ENDBRANCH  19  20
ENDBRANCH   1  19
TORSDOF 16
ENDMDL
MODEL 2
REMARK VINA RESULT:     -10.4      3.263      5.619
REMARK SMILES Nc1ccc(O)c(C(=O)NCCCCNC(=O)c2ccc(-c3c4nc(c(-c5cccc(S(=O)(=O)[O-])c5F)c5ccc([nH]5)c(-c5cccc(S(=O)(=O)[O-])c5F)c5nc(c(-c6cccc(S(=O)(=O)[O-])c6F)c6ccc3[nH]6)C=C5)C=C4)cc2)c1
REMARK SMILES IDX 13 1 12 2 11 3 10 4 8 5 9 6 7 8 2 9 3 10 81 11 4 12 5 13
REMARK SMILES IDX 1 14 6 17 14 19 15 20 16 21 17 23 18 24 19 25 80 26 20 27
REMARK SMILES IDX 79 28 21 29 22 30 23 31 73 32 24 33 78 34 72 35 74 36 25 37
REMARK SMILES IDX 77 38 71 39 70 40 26 42 58 43 38 44 57 45 39 46 42 47 56 48
REMARK SMILES IDX 75 49 40 50 41 51 55 53 76 54 43 55 27 56 28 57 36 58 29 59
REMARK SMILES IDX 31 60 37 61 30 62 32 63 33 64 34 65 35 66 59 67 60 68 68 69
REMARK SMILES IDX 61 70 63 71 69 72 62 73 64 74 65 75 66 76 67 77 44 78 45 79
REMARK SMILES IDX 53 80 46 81 48 82 54 83 47 84 49 85 50 86 51 87 52 88
REMARK H PARENT 10 7 1 15 1 16 6 18 15 22 74 41 42 52
REMARK Flexibility Score: inf
ROOT
ATOM      1  C   UNL A   1      31.672  28.910  26.657  1.00  0.00     0.023 C 
ENDROOT
BRANCH   1   2
ATOM      2  C   UNL A   1      32.096  27.438  26.722  1.00  0.00     0.023 C 
BRANCH   2   3
ATOM      3  C   UNL A   1      32.948  26.978  25.538  1.00  0.00     0.116 C 
BRANCH   3   4
ATOM      4  N   UNL A   1      32.305  25.882  24.841  1.00  0.00    -0.352 N 
ATOM      5  C   UNL A   1      31.260  25.816  23.957  1.00  0.00     0.255 C 
ATOM      6  O   UNL A   1      30.977  24.702  23.506  1.00  0.00    -0.269 OA
ATOM      7  H   UNL A   1      32.700  25.003  25.046  1.00  0.00     0.163 HD
BRANCH   5   8
ATOM      8  C   UNL A   1      30.483  26.986  23.453  1.00  0.00     0.083 A 
ATOM      9  C   UNL A   1      30.253  29.099  22.239  1.00  0.00     0.032 A 
ATOM     10  C   UNL A   1      28.888  29.114  22.523  1.00  0.00     0.029 A 
ATOM     11  C   UNL A   1      31.046  28.070  22.766  1.00  0.00     0.043 A 
ATOM     12  C   UNL A   1      28.311  28.084  23.260  1.00  0.00     0.049 A 
ATOM     13  C   UNL A   1      29.100  27.029  23.714  1.00  0.00     0.128 A 
BRANCH   9  14
ATOM     14  N   UNL A   1      30.838  30.159  21.560  1.00  0.00    -0.399 N 
ATOM     15  H   UNL A   1      31.701  30.033  21.101  1.00  0.00     0.156 HD
ATOM     16  H   UNL A   1      30.390  31.035  21.537  1.00  0.00     0.156 HD
ENDBRANCH   9  14
BRANCH  13  17
ATOM     17  O   UNL A   1      28.434  26.070  24.434  1.00  0.00    -0.507 OA
ATOM     18  H   UNL A   1      27.507  25.971  24.339  1.00  0.00     0.293 HD
ENDBRANCH  13  17
ENDBRANCH   5   8
ENDBRANCH   3   4
ENDBRANCH   2   3
ENDBRANCH   1   2
BRANCH   1  19
ATOM     19  C   UNL A   1      32.706  29.858  26.053  1.00  0.00     0.116 C 
BRANCH  19  20
ATOM     20  N   UNL A   1      32.503  31.248  26.433  1.00  0.00    -0.352 N 
ATOM     21  C   UNL A   1      33.275  32.032  27.262  1.00  0.00     0.251 C 
ATOM     22  H   UNL A   1      31.711  31.686  26.047  1.00  0.00     0.163 HD
ATOM     23  O   UNL A   1      32.910  33.159  27.558  1.00  0.00    -0.269 OA
BRANCH  21  24
ATOM     24  C   UNL A   1      34.526  31.475  27.820  1.00  0.00     0.039 A 
ATOM     25  C   UNL A   1      35.637  32.314  27.946  1.00  0.00     0.014 A 
ATOM     26  C   UNL A   1      34.591  30.146  28.244  1.00  0.00     0.014 A 
ATOM     27  C   UNL A   1      36.794  31.837  28.565  1.00  0.00     0.010 A 
ATOM     28  C   UNL A   1      35.721  29.692  28.916  1.00  0.00     0.010 A 
ATOM     29  C   UNL A   1      36.833  30.533  29.084  1.00  0.00    -0.014 A 
BRANCH  29  30
ATOM     30  C   UNL A   1      38.015  30.035  29.831  1.00  0.00     0.031 A 
ATOM     31  C   UNL A   1      38.298  30.532  31.222  1.00  0.00     0.074 A 
ATOM     32  C   UNL A   1      38.889  29.213  29.217  1.00  0.00     0.049 A 
ATOM     33  N   UNL A   1      39.312  30.264  32.002  1.00  0.00    -0.248 NA
ATOM     34  C   UNL A   1      37.331  31.481  31.800  1.00  0.00     0.031 C 
ATOM     35  C   UNL A   1      38.771  28.732  27.838  1.00  0.00     0.029 A 
ATOM     36  N   UNL A   1      40.064  28.663  29.660  1.00  0.00    -0.354 N 
ATOM     37  C   UNL A   1      39.128  31.034  33.143  1.00  0.00     0.074 A 
ATOM     38  C   UNL A   1      37.922  31.806  32.940  1.00  0.00     0.031 C 
ATOM     39  C   UNL A   1      39.830  27.959  27.550  1.00  0.00     0.029 A 
ATOM     40  C   UNL A   1      40.712  27.906  28.711  1.00  0.00     0.049 A 
ATOM     41  H   UNL A   1      40.411  28.795  30.572  1.00  0.00     0.167 HD
ATOM     42  C   UNL A   1      39.877  31.074  34.270  1.00  0.00     0.034 A 
ATOM     43  C   UNL A   1      41.885  27.246  28.769  1.00  0.00     0.034 A 
ATOM     44  C   UNL A   1      41.045  30.264  34.488  1.00  0.00     0.049 A 
ATOM     45  C   UNL A   1      42.665  27.254  30.056  1.00  0.00     0.074 A 
ATOM     46  C   UNL A   1      41.814  30.154  35.633  1.00  0.00     0.029 A 
ATOM     47  N   UNL A   1      41.613  29.425  33.542  1.00  0.00    -0.354 N 
ATOM     48  N   UNL A   1      42.382  27.854  31.187  1.00  0.00    -0.248 NA
ATOM     49  C   UNL A   1      43.904  26.462  30.089  1.00  0.00     0.031 C 
ATOM     50  C   UNL A   1      42.856  29.256  35.375  1.00  0.00     0.029 A 
ATOM     51  C   UNL A   1      42.726  28.797  34.074  1.00  0.00     0.049 A 
ATOM     52  H   UNL A   1      41.275  29.294  32.627  1.00  0.00     0.167 HD
ATOM     53  C   UNL A   1      43.386  27.486  32.075  1.00  0.00     0.074 A 
ATOM     54  C   UNL A   1      44.273  26.595  31.357  1.00  0.00     0.031 C 
ATOM     55  C   UNL A   1      43.566  27.865  33.365  1.00  0.00     0.034 A 
BRANCH  42  56
ATOM     56  C   UNL A   1      39.415  31.976  35.383  1.00  0.00     0.023 A 
ATOM     57  C   UNL A   1      38.516  31.478  36.348  1.00  0.00     0.012 A 
ATOM     58  C   UNL A   1      39.900  33.294  35.505  1.00  0.00     0.148 A 
ATOM     59  C   UNL A   1      38.079  32.285  37.397  1.00  0.00     0.002 A 
ATOM     60  C   UNL A   1      39.491  34.080  36.577  1.00  0.00     0.091 A 
ATOM     61  F   UNL A   1      40.734  33.759  34.565  1.00  0.00    -0.205 F 
ATOM     62  C   UNL A   1      38.573  33.581  37.517  1.00  0.00     0.022 A 
BRANCH  60  63
ATOM     63  S   UNL A   1      40.130  35.734  36.859  1.00  0.00     0.127 S 
ATOM     64  O   UNL A   1      39.531  36.066  38.151  1.00  0.00    -0.237 OA
ATOM     65  O   UNL A   1      41.576  35.508  36.897  1.00  0.00    -0.237 OA
ATOM     66  O   UNL A   1      39.674  36.534  35.731  1.00  0.00    -0.744 OA
ENDBRANCH  60  63
ENDBRANCH  42  56
BRANCH  43  67
ATOM     67  C   UNL A   1      42.347  26.451  27.597  1.00  0.00     0.023 A 
ATOM     68  C   UNL A   1      43.201  27.053  26.652  1.00  0.00     0.012 A 
ATOM     69  C   UNL A   1      41.987  25.099  27.435  1.00  0.00     0.148 A 
ATOM     70  C   UNL A   1      43.665  26.332  25.552  1.00  0.00     0.002 A 
ATOM     71  C   UNL A   1      42.496  24.372  26.364  1.00  0.00     0.091 A 
ATOM     72  F   UNL A   1      41.164  24.548  28.338  1.00  0.00    -0.205 F 
ATOM     73  C   UNL A   1      43.323  24.990  25.413  1.00  0.00     0.022 A 
BRANCH  71  74
ATOM     74  S   UNL A   1      42.214  22.607  26.181  1.00  0.00     0.127 S 
ATOM     75  O   UNL A   1      42.897  22.324  24.923  1.00  0.00    -0.237 OA
ATOM     76  O   UNL A   1      42.870  22.070  27.375  1.00  0.00    -0.237 OA
ATOM     77  O   UNL A   1      40.766  22.443  26.170  1.00  0.00    -0.744 OA
ENDBRANCH  71  74
ENDBRANCH  43  67
BRANCH  55  78
ATOM     78  C   UNL A   1      44.750  27.297  34.103  1.00  0.00     0.023 A 
ATOM     79  C   UNL A   1      45.965  28.009  34.120  1.00  0.00     0.012 A 
ATOM     80  C   UNL A   1      44.633  26.106  34.844  1.00  0.00     0.148 A 
ATOM     81  C   UNL A   1      47.054  27.530  34.846  1.00  0.00     0.002 A 
ATOM     82  C   UNL A   1      45.709  25.658  35.602  1.00  0.00     0.091 A 
ATOM     83  F   UNL A   1      43.474  25.433  34.797  1.00  0.00    -0.205 F 
ATOM     84  C   UNL A   1      46.923  26.363  35.596  1.00  0.00     0.022 A 
BRANCH  82  85
ATOM     85  S   UNL A   1      45.596  24.217  36.669  1.00  0.00     0.127 S 
ATOM     86  O   UNL A   1      46.962  24.117  37.182  1.00  0.00    -0.237 OA
ATOM     87  O   UNL A   1      44.602  24.637  37.658  1.00  0.00    -0.237 OA
ATOM     88  O   UNL A   1      45.165  23.120  35.812  1.00  0.00    -0.744 OA
ENDBRANCH  82  85
ENDBRANCH  55  78
ENDBRANCH  29  30
ENDBRANCH  21  24
ENDBRANCH  19  20
ENDBRANCH   1  19
TORSDOF 16
ENDMDL
MODEL 3
REMARK VINA RESULT:     -10.4      3.605      9.987
REMARK SMILES Nc1ccc(O)c(C(=O)NCCCCNC(=O)c2ccc(-c3c4nc(c(-c5cccc(S(=O)(=O)[O-])c5F)c5ccc([nH]5)c(-c5cccc(S(=O)(=O)[O-])c5F)c5nc(c(-c6cccc(S(=O)(=O)[O-])c6F)c6ccc3[nH]6)C=C5)C=C4)cc2)c1
REMARK SMILES IDX 13 1 12 2 11 3 10 4 8 5 9 6 7 8 2 9 3 10 81 11 4 12 5 13
REMARK SMILES IDX 1 14 6 17 14 19 15 20 16 21 17 23 18 24 19 25 80 26 20 27
REMARK SMILES IDX 79 28 21 29 22 30 23 31 73 32 24 33 78 34 72 35 74 36 25 37
REMARK SMILES IDX 77 38 71 39 70 40 26 42 58 43 38 44 57 45 39 46 42 47 56 48
REMARK SMILES IDX 75 49 40 50 41 51 55 53 76 54 43 55 27 56 28 57 36 58 29 59
REMARK SMILES IDX 31 60 37 61 30 62 32 63 33 64 34 65 35 66 59 67 60 68 68 69
REMARK SMILES IDX 61 70 63 71 69 72 62 73 64 74 65 75 66 76 67 77 44 78 45 79
REMARK SMILES IDX 53 80 46 81 48 82 54 83 47 84 49 85 50 86 51 87 52 88
REMARK H PARENT 10 7 1 15 1 16 6 18 15 22 74 41 42 52
REMARK Flexibility Score: inf
ROOT
ATOM      1  C   UNL A   1      31.845  31.476  26.735  1.00  0.00     0.023 C 
ENDROOT
BRANCH   1   2
ATOM      2  C   UNL A   1      32.280  30.227  25.958  1.00  0.00     0.023 C 
BRANCH   2   3
ATOM      3  C   UNL A   1      31.578  28.940  26.396  1.00  0.00     0.116 C 
BRANCH   3   4
ATOM      4  N   UNL A   1      31.899  27.851  25.495  1.00  0.00    -0.352 N 
ATOM      5  C   UNL A   1      31.432  27.488  24.260  1.00  0.00     0.255 C 
ATOM      6  O   UNL A   1      31.956  26.502  23.731  1.00  0.00    -0.269 OA
ATOM      7  H   UNL A   1      32.595  27.247  25.844  1.00  0.00     0.163 HD
BRANCH   5   8
ATOM      8  C   UNL A   1      30.391  28.221  23.481  1.00  0.00     0.083 A 
ATOM      9  C   UNL A   1      28.077  28.760  22.891  1.00  0.00     0.032 A 
ATOM     10  C   UNL A   1      28.531  29.710  21.977  1.00  0.00     0.029 A 
ATOM     11  C   UNL A   1      29.014  27.980  23.583  1.00  0.00     0.043 A 
ATOM     12  C   UNL A   1      29.896  29.927  21.807  1.00  0.00     0.049 A 
ATOM     13  C   UNL A   1      30.814  29.194  22.556  1.00  0.00     0.128 A 
BRANCH   9  14
ATOM     14  N   UNL A   1      26.720  28.500  23.014  1.00  0.00    -0.399 N 
ATOM     15  H   UNL A   1      26.332  27.699  22.590  1.00  0.00     0.156 HD
ATOM     16  H   UNL A   1      26.145  29.115  23.523  1.00  0.00     0.156 HD
ENDBRANCH   9  14
BRANCH  13  17
ATOM     17  O   UNL A   1      32.132  29.482  22.307  1.00  0.00    -0.507 OA
ATOM     18  H   UNL A   1      32.605  28.994  21.662  1.00  0.00     0.293 HD
ENDBRANCH  13  17
ENDBRANCH   5   8
ENDBRANCH   3   4
ENDBRANCH   2   3
ENDBRANCH   1   2
BRANCH   1  19
ATOM     19  C   UNL A   1      32.987  32.342  27.263  1.00  0.00     0.116 C 
BRANCH  19  20
ATOM     20  N   UNL A   1      32.579  33.704  27.574  1.00  0.00    -0.352 N 
ATOM     21  C   UNL A   1      33.091  34.555  28.528  1.00  0.00     0.251 C 
ATOM     22  H   UNL A   1      31.841  34.064  27.032  1.00  0.00     0.163 HD
ATOM     23  O   UNL A   1      32.567  35.639  28.730  1.00  0.00    -0.269 OA
BRANCH  21  24
ATOM     24  C   UNL A   1      34.254  34.120  29.332  1.00  0.00     0.039 A 
ATOM     25  C   UNL A   1      34.024  33.416  30.517  1.00  0.00     0.014 A 
ATOM     26  C   UNL A   1      35.557  34.377  28.902  1.00  0.00     0.014 A 
ATOM     27  C   UNL A   1      35.106  32.907  31.236  1.00  0.00     0.010 A 
ATOM     28  C   UNL A   1      36.631  33.815  29.586  1.00  0.00     0.010 A 
ATOM     29  C   UNL A   1      36.417  33.073  30.759  1.00  0.00    -0.014 A 
BRANCH  29  30
ATOM     30  C   UNL A   1      37.576  32.460  31.453  1.00  0.00     0.031 A 
ATOM     31  C   UNL A   1      38.319  31.316  30.820  1.00  0.00     0.074 A 
ATOM     32  C   UNL A   1      37.892  32.865  32.698  1.00  0.00     0.049 A 
ATOM     33  N   UNL A   1      39.310  30.612  31.301  1.00  0.00    -0.248 NA
ATOM     34  C   UNL A   1      37.870  30.886  29.485  1.00  0.00     0.031 C 
ATOM     35  C   UNL A   1      37.189  33.904  33.454  1.00  0.00     0.029 A 
ATOM     36  N   UNL A   1      38.867  32.431  33.560  1.00  0.00    -0.354 N 
ATOM     37  C   UNL A   1      39.579  29.635  30.349  1.00  0.00     0.074 A 
ATOM     38  C   UNL A   1      38.625  29.817  29.278  1.00  0.00     0.031 C 
ATOM     39  C   UNL A   1      37.754  34.026  34.665  1.00  0.00     0.029 A 
ATOM     40  C   UNL A   1      38.845  33.063  34.782  1.00  0.00     0.049 A 
ATOM     41  H   UNL A   1      39.521  31.734  33.327  1.00  0.00     0.167 HD
ATOM     42  C   UNL A   1      40.551  28.692  30.353  1.00  0.00     0.034 A 
ATOM     43  C   UNL A   1      39.614  32.886  35.874  1.00  0.00     0.034 A 
ATOM     44  C   UNL A   1      41.531  28.551  31.395  1.00  0.00     0.049 A 
ATOM     45  C   UNL A   1      40.729  31.876  35.826  1.00  0.00     0.074 A 
ATOM     46  C   UNL A   1      42.617  27.696  31.445  1.00  0.00     0.029 A 
ATOM     47  N   UNL A   1      41.544  29.283  32.572  1.00  0.00    -0.354 N 
ATOM     48  N   UNL A   1      41.076  31.078  34.846  1.00  0.00    -0.248 NA
ATOM     49  C   UNL A   1      41.582  31.769  37.018  1.00  0.00     0.031 C 
ATOM     50  C   UNL A   1      43.281  27.903  32.658  1.00  0.00     0.029 A 
ATOM     51  C   UNL A   1      42.616  28.897  33.358  1.00  0.00     0.049 A 
ATOM     52  H   UNL A   1      40.888  29.976  32.814  1.00  0.00     0.167 HD
ATOM     53  C   UNL A   1      42.206  30.401  35.287  1.00  0.00     0.074 A 
ATOM     54  C   UNL A   1      42.497  30.896  36.616  1.00  0.00     0.031 C 
ATOM     55  C   UNL A   1      42.928  29.443  34.654  1.00  0.00     0.034 A 
BRANCH  42  56
ATOM     56  C   UNL A   1      40.642  27.783  29.157  1.00  0.00     0.023 A 
ATOM     57  C   UNL A   1      39.798  26.656  29.079  1.00  0.00     0.012 A 
ATOM     58  C   UNL A   1      41.521  28.062  28.091  1.00  0.00     0.148 A 
ATOM     59  C   UNL A   1      39.851  25.801  27.979  1.00  0.00     0.002 A 
ATOM     60  C   UNL A   1      41.539  27.228  26.979  1.00  0.00     0.091 A 
ATOM     61  F   UNL A   1      42.334  29.123  28.193  1.00  0.00    -0.205 F 
ATOM     62  C   UNL A   1      40.713  26.092  26.927  1.00  0.00     0.022 A 
BRANCH  60  63
ATOM     63  S   UNL A   1      42.561  27.562  25.540  1.00  0.00     0.127 S 
ATOM     64  O   UNL A   1      42.280  26.396  24.702  1.00  0.00    -0.237 OA
ATOM     65  O   UNL A   1      41.999  28.819  25.043  1.00  0.00    -0.237 OA
ATOM     66  O   UNL A   1      43.926  27.665  26.036  1.00  0.00    -0.744 OA
ENDBRANCH  60  63
ENDBRANCH  42  56
BRANCH  43  67
ATOM     67  C   UNL A   1      39.409  33.747  37.072  1.00  0.00     0.023 A 
ATOM     68  C   UNL A   1      39.806  35.098  37.022  1.00  0.00     0.012 A 
ATOM     69  C   UNL A   1      38.787  33.256  38.236  1.00  0.00     0.148 A 
ATOM     70  C   UNL A   1      39.613  35.936  38.120  1.00  0.00     0.002 A 
ATOM     71  C   UNL A   1      38.551  34.111  39.307  1.00  0.00     0.091 A 
ATOM     72  F   UNL A   1      38.427  31.965  38.268  1.00  0.00    -0.205 F 
ATOM     73  C   UNL A   1      38.977  35.447  39.258  1.00  0.00     0.022 A 
BRANCH  71  74
ATOM     74  S   UNL A   1      37.620  33.601  40.757  1.00  0.00     0.127 S 
ATOM     75  O   UNL A   1      38.530  32.641  41.373  1.00  0.00    -0.237 OA
ATOM     76  O   UNL A   1      37.471  34.864  41.482  1.00  0.00    -0.237 OA
ATOM     77  O   UNL A   1      36.370  33.055  40.245  1.00  0.00    -0.744 OA
ENDBRANCH  71  74
ENDBRANCH  43  67
BRANCH  55  78
ATOM     78  C   UNL A   1      44.127  28.881  35.374  1.00  0.00     0.023 A 
ATOM     79  C   UNL A   1      45.394  29.463  35.175  1.00  0.00     0.012 A 
ATOM     80  C   UNL A   1      43.982  27.835  36.306  1.00  0.00     0.148 A 
ATOM     81  C   UNL A   1      46.504  28.996  35.877  1.00  0.00     0.002 A 
ATOM     82  C   UNL A   1      45.085  27.405  37.034  1.00  0.00     0.091 A 
ATOM     83  F   UNL A   1      42.771  27.281  36.464  1.00  0.00    -0.205 F 
ATOM     84  C   UNL A   1      46.348  27.978  36.814  1.00  0.00     0.022 A 
BRANCH  82  85
ATOM     85  S   UNL A   1      44.956  26.164  38.327  1.00  0.00     0.127 S 
ATOM     86  O   UNL A   1      44.323  25.055  37.614  1.00  0.00    -0.237 OA
ATOM     87  O   UNL A   1      46.357  25.939  38.686  1.00  0.00    -0.237 OA
ATOM     88  O   UNL A   1      44.155  26.770  39.382  1.00  0.00    -0.744 OA
ENDBRANCH  82  85
ENDBRANCH  55  78
ENDBRANCH  29  30
ENDBRANCH  21  24
ENDBRANCH  19  20
ENDBRANCH   1  19
TORSDOF 16
ENDMDL
