MODEL 1
REMARK VINA RESULT:     -12.4      0.000      0.000
REMARK SMILES CC(C)c1noc(C[N@@H+]2[C@@H](C(=O)NCCCCNC(=O)c3ccc(-c4c5nc(c(-c6cccc(S(=O)(=O)[O-])c6F)c6ccc([nH]6)c(-c6cccc(S(=O)(=O)[O-])c6F)c6nc(c(-c7cccc(S(=O)(=O)[O-])c7F)c7ccc4[nH]7)C=C6)C=C5)cc3)C[C@H]3CCCC[C@@H]32)n1
REMARK SMILES IDX 15 1 14 2 13 3 11 4 12 5 10 7 9 8 90 9 84 11 85 12 89 13
REMARK SMILES IDX 86 14 88 15 87 16 8 17 7 18 4 19 5 20 91 21 6 22 2 23 1 24
REMARK SMILES IDX 3 25 16 26 17 27 18 28 19 29 20 31 21 32 22 33 83 34 23 35
REMARK SMILES IDX 82 36 24 37 25 38 26 39 76 40 27 41 81 42 75 43 77 44 28 45
REMARK SMILES IDX 80 46 74 47 73 48 29 50 61 51 41 52 60 53 42 54 45 55 59 56
REMARK SMILES IDX 78 57 43 58 44 59 58 61 79 62 46 63 30 64 31 65 39 66 32 67
REMARK SMILES IDX 34 68 40 69 33 70 35 71 36 72 37 73 38 74 62 75 63 76 71 77
REMARK SMILES IDX 64 78 66 79 72 80 65 81 67 82 68 83 69 84 70 85 47 86 48 87
REMARK SMILES IDX 56 88 49 89 51 90 57 91 50 92 52 93 53 94 54 95 55 96
REMARK H PARENT 13 6 9 10 18 30 77 49 45 60
REMARK Flexibility Score: inf
ROOT
ATOM      1  C   UNL A   1      36.423  19.949  24.993  1.00  0.00     0.023 C 
ENDROOT
BRANCH   1   2
ATOM      2  C   UNL A   1      36.400  21.401  25.456  1.00  0.00     0.116 C 
BRANCH   2   3
ATOM      3  N   UNL A   1      36.206  22.315  24.345  1.00  0.00    -0.351 N 
ATOM      4  C   UNL A   1      35.151  23.154  24.096  1.00  0.00     0.278 C 
ATOM      5  O   UNL A   1      35.180  23.843  23.077  1.00  0.00    -0.268 OA
ATOM      6  H   UNL A   1      36.933  22.335  23.680  1.00  0.00     0.163 HD
BRANCH   4   7
ATOM      7  C   UNL A   1      34.023  23.213  25.145  1.00  0.00     0.275 C 
ATOM      8  N   UNL A   1      32.684  23.026  24.514  1.00  0.00    -0.314 N 
ATOM      9  C   UNL A   1      32.096  24.369  24.427  1.00  0.00     0.188 C 
ATOM     10  H   UNL A   1      32.735  22.650  23.568  1.00  0.00     0.349 HD
ATOM     11  C   UNL A   1      34.024  24.610  25.796  1.00  0.00     0.085 C 
ATOM     12  C   UNL A   1      32.583  25.064  25.694  1.00  0.00     0.054 C 
ATOM     13  C   UNL A   1      30.594  24.567  24.221  1.00  0.00     0.065 C 
ATOM     14  C   UNL A   1      32.327  26.559  25.632  1.00  0.00     0.010 C 
ATOM     15  C   UNL A   1      30.227  26.059  24.281  1.00  0.00     0.006 C 
ATOM     16  C   UNL A   1      30.819  26.787  25.495  1.00  0.00     0.001 C 
BRANCH   8  17
ATOM     17  C   UNL A   1      31.889  21.953  25.142  1.00  0.00     0.364 C 
BRANCH  17  18
ATOM     18  C   UNL A   1      32.153  20.557  24.677  1.00  0.00     0.281 A 
ATOM     19  C   UNL A   1      32.859  18.607  24.386  1.00  0.00     0.174 A 
ATOM     20  N   UNL A   1      32.556  19.009  23.143  1.00  0.00    -0.062 NA
ATOM     21  N   UNL A   1      32.578  19.520  25.366  1.00  0.00    -0.191 NA
ATOM     22  O   UNL A   1      32.077  20.309  23.335  1.00  0.00    -0.333 OA
BRANCH  19  23
ATOM     23  C   UNL A   1      33.526  17.314  24.724  1.00  0.00     0.055 C 
ATOM     24  C   UNL A   1      32.584  16.409  25.520  1.00  0.00     0.016 C 
ATOM     25  C   UNL A   1      34.086  16.567  23.514  1.00  0.00     0.016 C 
ENDBRANCH  19  23
ENDBRANCH  17  18
ENDBRANCH   8  17
ENDBRANCH   4   7
ENDBRANCH   2   3
ENDBRANCH   1   2
BRANCH   1  26
ATOM     26  C   UNL A   1      37.824  19.342  24.890  1.00  0.00     0.023 C 
BRANCH  26  27
ATOM     27  C   UNL A   1      38.895  20.042  25.720  1.00  0.00     0.116 C 
BRANCH  27  28
ATOM     28  N   UNL A   1      40.075  19.217  25.937  1.00  0.00    -0.352 N 
ATOM     29  C   UNL A   1      41.341  19.600  26.309  1.00  0.00     0.251 C 
ATOM     30  H   UNL A   1      39.948  18.250  25.797  1.00  0.00     0.163 HD
ATOM     31  O   UNL A   1      42.255  18.781  26.310  1.00  0.00    -0.269 OA
BRANCH  29  32
ATOM     32  C   UNL A   1      41.600  21.009  26.676  1.00  0.00     0.039 A 
ATOM     33  C   UNL A   1      42.081  21.295  27.957  1.00  0.00     0.014 A 
ATOM     34  C   UNL A   1      41.397  22.038  25.753  1.00  0.00     0.014 A 
ATOM     35  C   UNL A   1      42.425  22.609  28.287  1.00  0.00     0.010 A 
ATOM     36  C   UNL A   1      41.810  23.331  26.059  1.00  0.00     0.010 A 
ATOM     37  C   UNL A   1      42.329  23.631  27.328  1.00  0.00    -0.014 A 
BRANCH  37  38
ATOM     38  C   UNL A   1      42.791  25.012  27.621  1.00  0.00     0.031 A 
ATOM     39  C   UNL A   1      41.853  26.015  28.237  1.00  0.00     0.074 A 
ATOM     40  C   UNL A   1      44.025  25.396  27.235  1.00  0.00     0.049 A 
ATOM     41  N   UNL A   1      42.055  27.280  28.497  1.00  0.00    -0.248 NA
ATOM     42  C   UNL A   1      40.502  25.540  28.577  1.00  0.00     0.031 C 
ATOM     43  C   UNL A   1      44.998  24.547  26.546  1.00  0.00     0.029 A 
ATOM     44  N   UNL A   1      44.657  26.612  27.333  1.00  0.00    -0.354 N 
ATOM     45  C   UNL A   1      40.849  27.764  28.989  1.00  0.00     0.074 A 
ATOM     46  C   UNL A   1      39.912  26.661  28.965  1.00  0.00     0.031 C 
ATOM     47  C   UNL A   1      46.097  25.266  26.276  1.00  0.00     0.029 A 
ATOM     48  C   UNL A   1      45.899  26.635  26.743  1.00  0.00     0.049 A 
ATOM     49  H   UNL A   1      44.259  27.392  27.782  1.00  0.00     0.167 HD
ATOM     50  C   UNL A   1      40.553  29.006  29.443  1.00  0.00     0.034 A 
ATOM     51  C   UNL A   1      46.775  27.647  26.578  1.00  0.00     0.034 A 
ATOM     52  C   UNL A   1      41.499  30.086  29.506  1.00  0.00     0.049 A 
ATOM     53  C   UNL A   1      46.441  29.004  27.135  1.00  0.00     0.074 A 
ATOM     54  C   UNL A   1      41.330  31.344  30.058  1.00  0.00     0.029 A 
ATOM     55  N   UNL A   1      42.783  30.047  28.988  1.00  0.00    -0.354 N 
ATOM     56  N   UNL A   1      45.361  29.393  27.768  1.00  0.00    -0.248 NA
ATOM     57  C   UNL A   1      47.460  30.053  26.986  1.00  0.00     0.031 C 
ATOM     58  C   UNL A   1      42.502  32.076  29.844  1.00  0.00     0.029 A 
ATOM     59  C   UNL A   1      43.412  31.265  29.186  1.00  0.00     0.049 A 
ATOM     60  H   UNL A   1      43.189  29.268  28.543  1.00  0.00     0.167 HD
ATOM     61  C   UNL A   1      45.579  30.721  28.116  1.00  0.00     0.074 A 
ATOM     62  C   UNL A   1      46.907  31.062  27.646  1.00  0.00     0.031 C 
ATOM     63  C   UNL A   1      44.750  31.583  28.753  1.00  0.00     0.034 A 
BRANCH  50  64
ATOM     64  C   UNL A   1      39.156  29.252  29.948  1.00  0.00     0.023 A 
ATOM     65  C   UNL A   1      38.800  28.838  31.249  1.00  0.00     0.012 A 
ATOM     66  C   UNL A   1      38.212  29.939  29.161  1.00  0.00     0.148 A 
ATOM     67  C   UNL A   1      37.517  29.070  31.743  1.00  0.00     0.002 A 
ATOM     68  C   UNL A   1      36.949  30.207  29.678  1.00  0.00     0.091 A 
ATOM     69  F   UNL A   1      38.559  30.305  27.919  1.00  0.00    -0.205 F 
ATOM     70  C   UNL A   1      36.596  29.763  30.963  1.00  0.00     0.022 A 
BRANCH  68  71
ATOM     71  S   UNL A   1      35.720  31.163  28.782  1.00  0.00     0.127 S 
ATOM     72  O   UNL A   1      34.947  31.749  29.876  1.00  0.00    -0.237 OA
ATOM     73  O   UNL A   1      36.550  32.116  28.044  1.00  0.00    -0.237 OA
ATOM     74  O   UNL A   1      35.001  30.211  27.948  1.00  0.00    -0.744 OA
ENDBRANCH  68  71
ENDBRANCH  50  64
BRANCH  51  75
ATOM     75  C   UNL A   1      48.074  27.394  25.894  1.00  0.00     0.023 A 
ATOM     76  C   UNL A   1      49.175  26.933  26.641  1.00  0.00     0.012 A 
ATOM     77  C   UNL A   1      48.212  27.568  24.504  1.00  0.00     0.148 A 
ATOM     78  C   UNL A   1      50.398  26.674  26.020  1.00  0.00     0.002 A 
ATOM     79  C   UNL A   1      49.415  27.255  23.882  1.00  0.00     0.091 A 
ATOM     80  F   UNL A   1      47.155  28.019  23.812  1.00  0.00    -0.205 F 
ATOM     81  C   UNL A   1      50.514  26.824  24.641  1.00  0.00     0.022 A 
BRANCH  79  82
ATOM     82  S   UNL A   1      49.615  27.285  22.097  1.00  0.00     0.127 S 
ATOM     83  O   UNL A   1      51.030  26.957  21.950  1.00  0.00    -0.237 OA
ATOM     84  O   UNL A   1      48.690  26.232  21.674  1.00  0.00    -0.237 OA
ATOM     85  O   UNL A   1      49.229  28.626  21.680  1.00  0.00    -0.744 OA
ENDBRANCH  79  82
ENDBRANCH  51  75
BRANCH  63  86
ATOM     86  C   UNL A   1      45.250  32.982  29.004  1.00  0.00     0.023 A 
ATOM     87  C   UNL A   1      45.958  33.270  30.188  1.00  0.00     0.012 A 
ATOM     88  C   UNL A   1      45.090  33.989  28.032  1.00  0.00     0.148 A 
ATOM     89  C   UNL A   1      46.472  34.546  30.414  1.00  0.00     0.002 A 
ATOM     90  C   UNL A   1      45.649  35.245  28.242  1.00  0.00     0.091 A 
ATOM     91  F   UNL A   1      44.400  33.700  26.920  1.00  0.00    -0.205 F 
ATOM     92  C   UNL A   1      46.329  35.529  29.437  1.00  0.00     0.022 A 
BRANCH  90  93
ATOM     93  S   UNL A   1      45.598  36.543  27.001  1.00  0.00     0.127 S 
ATOM     94  O   UNL A   1      46.208  35.880  25.850  1.00  0.00    -0.237 OA
ATOM     95  O   UNL A   1      44.162  36.791  26.872  1.00  0.00    -0.237 OA
ATOM     96  O   UNL A   1      46.357  37.657  27.554  1.00  0.00    -0.744 OA
ENDBRANCH  90  93
ENDBRANCH  63  86
ENDBRANCH  37  38
ENDBRANCH  29  32
ENDBRANCH  27  28
ENDBRANCH  26  27
ENDBRANCH   1  26
TORSDOF 17
ENDMDL
MODEL 2
REMARK VINA RESULT:     -12.3      6.478     11.755
REMARK SMILES CC(C)c1noc(C[N@@H+]2[C@@H](C(=O)NCCCCNC(=O)c3ccc(-c4c5nc(c(-c6cccc(S(=O)(=O)[O-])c6F)c6ccc([nH]6)c(-c6cccc(S(=O)(=O)[O-])c6F)c6nc(c(-c7cccc(S(=O)(=O)[O-])c7F)c7ccc4[nH]7)C=C6)C=C5)cc3)C[C@H]3CCCC[C@@H]32)n1
REMARK SMILES IDX 15 1 14 2 13 3 11 4 12 5 10 7 9 8 90 9 84 11 85 12 89 13
REMARK SMILES IDX 86 14 88 15 87 16 8 17 7 18 4 19 5 20 91 21 6 22 2 23 1 24
REMARK SMILES IDX 3 25 16 26 17 27 18 28 19 29 20 31 21 32 22 33 83 34 23 35
REMARK SMILES IDX 82 36 24 37 25 38 26 39 76 40 27 41 81 42 75 43 77 44 28 45
REMARK SMILES IDX 80 46 74 47 73 48 29 50 61 51 41 52 60 53 42 54 45 55 59 56
REMARK SMILES IDX 78 57 43 58 44 59 58 61 79 62 46 63 30 64 31 65 39 66 32 67
REMARK SMILES IDX 34 68 40 69 33 70 35 71 36 72 37 73 38 74 62 75 63 76 71 77
REMARK SMILES IDX 64 78 66 79 72 80 65 81 67 82 68 83 69 84 70 85 47 86 48 87
REMARK SMILES IDX 56 88 49 89 51 90 57 91 50 92 52 93 53 94 54 95 55 96
REMARK H PARENT 13 6 9 10 18 30 77 49 45 60
REMARK Flexibility Score: inf
ROOT
ATOM      1  C   UNL A   1      32.536  30.238  26.889  1.00  0.00     0.023 C 
ENDROOT
BRANCH   1   2
ATOM      2  C   UNL A   1      31.516  29.394  26.133  1.00  0.00     0.116 C 
BRANCH   2   3
ATOM      3  N   UNL A   1      31.339  28.091  26.746  1.00  0.00    -0.351 N 
ATOM      4  C   UNL A   1      31.693  26.858  26.261  1.00  0.00     0.278 C 
ATOM      5  O   UNL A   1      31.438  25.866  26.942  1.00  0.00    -0.268 OA
ATOM      6  H   UNL A   1      30.908  28.092  27.631  1.00  0.00     0.163 HD
BRANCH   4   7
ATOM      7  C   UNL A   1      32.437  26.808  24.912  1.00  0.00     0.275 C 
ATOM      8  N   UNL A   1      31.828  25.805  23.991  1.00  0.00    -0.314 N 
ATOM      9  C   UNL A   1      32.713  24.633  24.040  1.00  0.00     0.188 C 
ATOM     10  H   UNL A   1      30.900  25.502  24.285  1.00  0.00     0.349 HD
ATOM     11  C   UNL A   1      33.891  26.365  25.164  1.00  0.00     0.085 C 
ATOM     12  C   UNL A   1      34.107  25.235  24.178  1.00  0.00     0.054 C 
ATOM     13  C   UNL A   1      32.671  23.560  22.951  1.00  0.00     0.065 C 
ATOM     14  C   UNL A   1      35.127  24.173  24.549  1.00  0.00     0.010 C 
ATOM     15  C   UNL A   1      33.771  22.510  23.178  1.00  0.00     0.006 C 
ATOM     16  C   UNL A   1      35.155  23.120  23.439  1.00  0.00     0.001 C 
BRANCH   8  17
ATOM     17  C   UNL A   1      31.477  26.363  22.671  1.00  0.00     0.364 C 
BRANCH  17  18
ATOM     18  C   UNL A   1      30.659  27.614  22.662  1.00  0.00     0.281 A 
ATOM     19  C   UNL A   1      29.138  29.052  22.606  1.00  0.00     0.174 A 
ATOM     20  N   UNL A   1      30.156  29.661  21.981  1.00  0.00    -0.062 NA
ATOM     21  N   UNL A   1      29.427  27.802  23.084  1.00  0.00    -0.191 NA
ATOM     22  O   UNL A   1      31.176  28.706  22.024  1.00  0.00    -0.333 OA
BRANCH  19  23
ATOM     23  C   UNL A   1      27.757  29.608  22.726  1.00  0.00     0.055 C 
ATOM     24  C   UNL A   1      26.810  28.581  23.349  1.00  0.00     0.016 C 
ATOM     25  C   UNL A   1      27.682  30.931  23.487  1.00  0.00     0.016 C 
ENDBRANCH  19  23
ENDBRANCH  17  18
ENDBRANCH   8  17
ENDBRANCH   4   7
ENDBRANCH   2   3
ENDBRANCH   1   2
BRANCH   1  26
ATOM     26  C   UNL A   1      32.077  31.667  27.186  1.00  0.00     0.023 C 
BRANCH  26  27
ATOM     27  C   UNL A   1      33.196  32.701  27.272  1.00  0.00     0.116 C 
BRANCH  27  28
ATOM     28  N   UNL A   1      32.728  34.007  27.714  1.00  0.00    -0.352 N 
ATOM     29  C   UNL A   1      33.167  34.769  28.770  1.00  0.00     0.251 C 
ATOM     30  H   UNL A   1      31.997  34.398  27.183  1.00  0.00     0.163 HD
ATOM     31  O   UNL A   1      32.561  35.790  29.084  1.00  0.00    -0.269 OA
BRANCH  29  32
ATOM     32  C   UNL A   1      34.350  34.336  29.544  1.00  0.00     0.039 A 
ATOM     33  C   UNL A   1      34.157  33.689  30.767  1.00  0.00     0.014 A 
ATOM     34  C   UNL A   1      35.641  34.542  29.051  1.00  0.00     0.014 A 
ATOM     35  C   UNL A   1      35.260  33.185  31.463  1.00  0.00     0.010 A 
ATOM     36  C   UNL A   1      36.729  33.975  29.708  1.00  0.00     0.010 A 
ATOM     37  C   UNL A   1      36.551  33.291  30.920  1.00  0.00    -0.014 A 
BRANCH  37  38
ATOM     38  C   UNL A   1      37.723  32.668  31.587  1.00  0.00     0.031 A 
ATOM     39  C   UNL A   1      38.441  31.512  30.944  1.00  0.00     0.074 A 
ATOM     40  C   UNL A   1      38.077  33.072  32.824  1.00  0.00     0.049 A 
ATOM     41  N   UNL A   1      39.433  30.797  31.407  1.00  0.00    -0.248 NA
ATOM     42  C   UNL A   1      37.962  31.086  29.619  1.00  0.00     0.031 C 
ATOM     43  C   UNL A   1      37.404  34.120  33.595  1.00  0.00     0.029 A 
ATOM     44  N   UNL A   1      39.065  32.624  33.666  1.00  0.00    -0.354 N 
ATOM     45  C   UNL A   1      39.668  29.813  30.456  1.00  0.00     0.074 A 
ATOM     46  C   UNL A   1      38.697  30.005  29.401  1.00  0.00     0.031 C 
ATOM     47  C   UNL A   1      37.992  34.228  34.797  1.00  0.00     0.029 A 
ATOM     48  C   UNL A   1      39.062  33.240  34.896  1.00  0.00     0.049 A 
ATOM     49  H   UNL A   1      39.714  31.928  33.413  1.00  0.00     0.167 HD
ATOM     50  C   UNL A   1      40.622  28.850  30.448  1.00  0.00     0.034 A 
ATOM     51  C   UNL A   1      39.820  33.023  35.989  1.00  0.00     0.034 A 
ATOM     52  C   UNL A   1      41.614  28.690  31.476  1.00  0.00     0.049 A 
ATOM     53  C   UNL A   1      40.904  31.981  35.936  1.00  0.00     0.074 A 
ATOM     54  C   UNL A   1      42.692  27.823  31.501  1.00  0.00     0.029 A 
ATOM     55  N   UNL A   1      41.641  29.397  32.668  1.00  0.00    -0.354 N 
ATOM     56  N   UNL A   1      41.232  31.182  34.949  1.00  0.00    -0.248 NA
ATOM     57  C   UNL A   1      41.744  31.832  37.133  1.00  0.00     0.031 C 
ATOM     58  C   UNL A   1      43.353  27.984  32.724  1.00  0.00     0.029 A 
ATOM     59  C   UNL A   1      42.704  28.972  33.447  1.00  0.00     0.049 A 
ATOM     60  H   UNL A   1      40.999  30.098  32.923  1.00  0.00     0.167 HD
ATOM     61  C   UNL A   1      42.331  30.457  35.394  1.00  0.00     0.074 A 
ATOM     62  C   UNL A   1      42.628  30.929  36.731  1.00  0.00     0.031 C 
ATOM     63  C   UNL A   1      43.020  29.477  34.759  1.00  0.00     0.034 A 
BRANCH  50  64
ATOM     64  C   UNL A   1      40.666  27.919  29.265  1.00  0.00     0.023 A 
ATOM     65  C   UNL A   1      39.797  26.809  29.217  1.00  0.00     0.012 A 
ATOM     66  C   UNL A   1      41.524  28.170  28.177  1.00  0.00     0.148 A 
ATOM     67  C   UNL A   1      39.809  25.943  28.125  1.00  0.00     0.002 A 
ATOM     68  C   UNL A   1      41.498  27.328  27.071  1.00  0.00     0.091 A 
ATOM     69  F   UNL A   1      42.359  29.216  28.249  1.00  0.00    -0.205 F 
ATOM     70  C   UNL A   1      40.651  26.208  27.048  1.00  0.00     0.022 A 
BRANCH  68  71
ATOM     71  S   UNL A   1      42.486  27.630  25.602  1.00  0.00     0.127 S 
ATOM     72  O   UNL A   1      43.840  27.638  26.153  1.00  0.00    -0.237 OA
ATOM     73  O   UNL A   1      42.171  26.465  24.774  1.00  0.00    -0.237 OA
ATOM     74  O   UNL A   1      42.023  28.901  25.062  1.00  0.00    -0.744 OA
ENDBRANCH  68  71
ENDBRANCH  50  64
BRANCH  51  75
ATOM     75  C   UNL A   1      39.606  33.848  37.211  1.00  0.00     0.023 A 
ATOM     76  C   UNL A   1      40.078  35.175  37.244  1.00  0.00     0.012 A 
ATOM     77  C   UNL A   1      38.904  33.341  38.320  1.00  0.00     0.148 A 
ATOM     78  C   UNL A   1      39.877  35.973  38.372  1.00  0.00     0.002 A 
ATOM     79  C   UNL A   1      38.657  34.158  39.417  1.00  0.00     0.091 A 
ATOM     80  F   UNL A   1      38.472  32.072  38.273  1.00  0.00    -0.205 F 
ATOM     81  C   UNL A   1      39.156  35.469  39.452  1.00  0.00     0.022 A 
BRANCH  79  82
ATOM     82  S   UNL A   1      37.622  33.641  40.791  1.00  0.00     0.127 S 
ATOM     83  O   UNL A   1      37.401  34.905  41.490  1.00  0.00    -0.237 OA
ATOM     84  O   UNL A   1      36.449  33.105  40.099  1.00  0.00    -0.237 OA
ATOM     85  O   UNL A   1      38.399  32.645  41.516  1.00  0.00    -0.744 OA
ENDBRANCH  79  82
ENDBRANCH  51  75
BRANCH  63  86
ATOM     86  C   UNL A   1      44.183  28.854  35.486  1.00  0.00     0.023 A 
ATOM     87  C   UNL A   1      45.481  29.373  35.305  1.00  0.00     0.012 A 
ATOM     88  C   UNL A   1      43.980  27.809  36.408  1.00  0.00     0.148 A 
ATOM     89  C   UNL A   1      46.562  28.842  36.008  1.00  0.00     0.002 A 
ATOM     90  C   UNL A   1      45.054  27.318  37.142  1.00  0.00     0.091 A 
ATOM     91  F   UNL A   1      42.741  27.317  36.553  1.00  0.00    -0.205 F 
ATOM     92  C   UNL A   1      46.347  27.825  36.934  1.00  0.00     0.022 A 
BRANCH  90  93
ATOM     93  S   UNL A   1      44.858  26.075  38.424  1.00  0.00     0.127 S 
ATOM     94  O   UNL A   1      44.493  24.895  37.644  1.00  0.00    -0.237 OA
ATOM     95  O   UNL A   1      46.196  26.026  39.014  1.00  0.00    -0.237 OA
ATOM     96  O   UNL A   1      43.822  26.578  39.317  1.00  0.00    -0.744 OA
ENDBRANCH  90  93
ENDBRANCH  63  86
ENDBRANCH  37  38
ENDBRANCH  29  32
ENDBRANCH  27  28
ENDBRANCH  26  27
ENDBRANCH   1  26
TORSDOF 17
ENDMDL
MODEL 3
REMARK VINA RESULT:     -12.1      5.517     10.803
REMARK SMILES CC(C)c1noc(C[N@@H+]2[C@@H](C(=O)NCCCCNC(=O)c3ccc(-c4c5nc(c(-c6cccc(S(=O)(=O)[O-])c6F)c6ccc([nH]6)c(-c6cccc(S(=O)(=O)[O-])c6F)c6nc(c(-c7cccc(S(=O)(=O)[O-])c7F)c7ccc4[nH]7)C=C6)C=C5)cc3)C[C@H]3CCCC[C@@H]32)n1
REMARK SMILES IDX 15 1 14 2 13 3 11 4 12 5 10 7 9 8 90 9 84 11 85 12 89 13
REMARK SMILES IDX 86 14 88 15 87 16 8 17 7 18 4 19 5 20 91 21 6 22 2 23 1 24
REMARK SMILES IDX 3 25 16 26 17 27 18 28 19 29 20 31 21 32 22 33 83 34 23 35
REMARK SMILES IDX 82 36 24 37 25 38 26 39 76 40 27 41 81 42 75 43 77 44 28 45
REMARK SMILES IDX 80 46 74 47 73 48 29 50 61 51 41 52 60 53 42 54 45 55 59 56
REMARK SMILES IDX 78 57 43 58 44 59 58 61 79 62 46 63 30 64 31 65 39 66 32 67
REMARK SMILES IDX 34 68 40 69 33 70 35 71 36 72 37 73 38 74 62 75 63 76 71 77
REMARK SMILES IDX 64 78 66 79 72 80 65 81 67 82 68 83 69 84 70 85 47 86 48 87
REMARK SMILES IDX 56 88 49 89 51 90 57 91 50 92 52 93 53 94 54 95 55 96
REMARK H PARENT 13 6 9 10 18 30 77 49 45 60
REMARK Flexibility Score: inf
ROOT
ATOM      1  C   UNL A   1      31.991  27.976  27.245  1.00  0.00     0.023 C 
ENDROOT
BRANCH   1   2
ATOM      2  C   UNL A   1      31.404  26.952  26.279  1.00  0.00     0.116 C 
BRANCH   2   3
ATOM      3  N   UNL A   1      31.044  25.721  26.958  1.00  0.00    -0.351 N 
ATOM      4  C   UNL A   1      31.446  24.439  26.684  1.00  0.00     0.278 C 
ATOM      5  O   UNL A   1      31.006  23.526  27.382  1.00  0.00    -0.268 OA
ATOM      6  H   UNL A   1      30.427  25.820  27.719  1.00  0.00     0.163 HD
BRANCH   4   7
ATOM      7  C   UNL A   1      32.469  24.239  25.548  1.00  0.00     0.275 C 
ATOM      8  N   UNL A   1      32.015  23.193  24.586  1.00  0.00    -0.314 N 
ATOM      9  C   UNL A   1      32.786  21.987  24.919  1.00  0.00     0.188 C 
ATOM     10  H   UNL A   1      31.027  22.962  24.680  1.00  0.00     0.349 HD
ATOM     11  C   UNL A   1      33.796  23.747  26.157  1.00  0.00     0.085 C 
ATOM     12  C   UNL A   1      34.151  22.529  25.330  1.00  0.00     0.054 C 
ATOM     13  C   UNL A   1      32.917  20.830  23.929  1.00  0.00     0.065 C 
ATOM     14  C   UNL A   1      34.988  21.453  25.999  1.00  0.00     0.010 C 
ATOM     15  C   UNL A   1      33.865  19.749  24.475  1.00  0.00     0.006 C 
ATOM     16  C   UNL A   1      35.193  20.309  25.001  1.00  0.00     0.001 C 
BRANCH   8  17
ATOM     17  C   UNL A   1      32.008  23.654  23.185  1.00  0.00     0.364 C 
BRANCH  17  18
ATOM     18  C   UNL A   1      31.399  24.994  22.918  1.00  0.00     0.281 A 
ATOM     19  C   UNL A   1      30.989  27.034  22.688  1.00  0.00     0.174 A 
ATOM     20  N   UNL A   1      29.811  26.529  23.081  1.00  0.00    -0.062 NA
ATOM     21  N   UNL A   1      31.983  26.106  22.529  1.00  0.00    -0.191 NA
ATOM     22  O   UNL A   1      30.080  25.165  23.228  1.00  0.00    -0.333 OA
BRANCH  19  23
ATOM     23  C   UNL A   1      31.274  28.489  22.503  1.00  0.00     0.055 C 
ATOM     24  C   UNL A   1      30.287  29.340  23.304  1.00  0.00     0.016 C 
ATOM     25  C   UNL A   1      32.712  28.889  22.831  1.00  0.00     0.016 C 
ENDBRANCH  19  23
ENDBRANCH  17  18
ENDBRANCH   8  17
ENDBRANCH   4   7
ENDBRANCH   2   3
ENDBRANCH   1   2
BRANCH   1  26
ATOM     26  C   UNL A   1      31.503  29.408  27.020  1.00  0.00     0.023 C 
BRANCH  26  27
ATOM     27  C   UNL A   1      32.485  30.318  26.288  1.00  0.00     0.116 C 
BRANCH  27  28
ATOM     28  N   UNL A   1      32.289  31.728  26.595  1.00  0.00    -0.352 N 
ATOM     29  C   UNL A   1      33.063  32.559  27.367  1.00  0.00     0.251 C 
ATOM     30  H   UNL A   1      31.490  32.142  26.194  1.00  0.00     0.163 HD
ATOM     31  O   UNL A   1      32.671  33.692  27.634  1.00  0.00    -0.269 OA
BRANCH  29  32
ATOM     32  C   UNL A   1      34.354  32.072  27.900  1.00  0.00     0.039 A 
ATOM     33  C   UNL A   1      35.404  32.980  28.060  1.00  0.00     0.014 A 
ATOM     34  C   UNL A   1      34.517  30.733  28.265  1.00  0.00     0.014 A 
ATOM     35  C   UNL A   1      36.597  32.558  28.654  1.00  0.00     0.010 A 
ATOM     36  C   UNL A   1      35.676  30.334  28.923  1.00  0.00     0.010 A 
ATOM     37  C   UNL A   1      36.728  31.240  29.125  1.00  0.00    -0.014 A 
BRANCH  37  38
ATOM     38  C   UNL A   1      37.943  30.800  29.857  1.00  0.00     0.031 A 
ATOM     39  C   UNL A   1      38.878  29.792  29.244  1.00  0.00     0.074 A 
ATOM     40  C   UNL A   1      38.151  31.225  31.120  1.00  0.00     0.049 A 
ATOM     41  N   UNL A   1      39.944  29.236  29.759  1.00  0.00    -0.248 NA
ATOM     42  C   UNL A   1      38.556  29.326  27.885  1.00  0.00     0.031 C 
ATOM     43  C   UNL A   1      37.270  32.130  31.862  1.00  0.00     0.029 A 
ATOM     44  N   UNL A   1      39.146  30.922  32.016  1.00  0.00    -0.354 N 
ATOM     45  C   UNL A   1      40.394  28.327  28.811  1.00  0.00     0.074 A 
ATOM     46  C   UNL A   1      39.470  28.385  27.699  1.00  0.00     0.031 C 
ATOM     47  C   UNL A   1      37.759  32.303  33.099  1.00  0.00     0.029 A 
ATOM     48  C   UNL A   1      38.968  31.499  33.252  1.00  0.00     0.049 A 
ATOM     49  H   UNL A   1      39.914  30.348  31.795  1.00  0.00     0.167 HD
ATOM     50  C   UNL A   1      41.491  27.532  28.849  1.00  0.00     0.034 A 
ATOM     51  C   UNL A   1      39.684  31.381  34.388  1.00  0.00     0.034 A 
ATOM     52  C   UNL A   1      42.431  27.510  29.936  1.00  0.00     0.049 A 
ATOM     53  C   UNL A   1      40.925  30.530  34.389  1.00  0.00     0.074 A 
ATOM     54  C   UNL A   1      43.634  26.829  30.017  1.00  0.00     0.029 A 
ATOM     55  N   UNL A   1      42.271  28.182  31.137  1.00  0.00    -0.354 N 
ATOM     56  N   UNL A   1      41.438  29.820  33.414  1.00  0.00    -0.248 NA
ATOM     57  C   UNL A   1      41.704  30.490  35.634  1.00  0.00     0.031 C 
ATOM     58  C   UNL A   1      44.184  27.064  31.281  1.00  0.00     0.029 A 
ATOM     59  C   UNL A   1      43.340  27.916  31.976  1.00  0.00     0.049 A 
ATOM     60  H   UNL A   1      41.508  28.763  31.361  1.00  0.00     0.167 HD
ATOM     61  C   UNL A   1      42.612  29.272  33.917  1.00  0.00     0.074 A 
ATOM     62  C   UNL A   1      42.747  29.753  35.277  1.00  0.00     0.031 C 
ATOM     63  C   UNL A   1      43.489  28.433  33.313  1.00  0.00     0.034 A 
BRANCH  50  64
ATOM     64  C   UNL A   1      41.758  26.650  27.658  1.00  0.00     0.023 A 
ATOM     65  C   UNL A   1      42.406  27.183  26.524  1.00  0.00     0.012 A 
ATOM     66  C   UNL A   1      41.419  25.282  27.680  1.00  0.00     0.148 A 
ATOM     67  C   UNL A   1      42.677  26.380  25.417  1.00  0.00     0.002 A 
ATOM     68  C   UNL A   1      41.734  24.478  26.590  1.00  0.00     0.091 A 
ATOM     69  F   UNL A   1      40.783  24.797  28.755  1.00  0.00    -0.205 F 
ATOM     70  C   UNL A   1      42.352  25.027  25.454  1.00  0.00     0.022 A 
BRANCH  68  71
ATOM     71  S   UNL A   1      41.428  22.709  26.574  1.00  0.00     0.127 S 
ATOM     72  O   UNL A   1      39.971  22.662  26.456  1.00  0.00    -0.237 OA
ATOM     73  O   UNL A   1      42.149  22.282  25.374  1.00  0.00    -0.237 OA
ATOM     74  O   UNL A   1      41.972  22.196  27.824  1.00  0.00    -0.744 OA
ENDBRANCH  68  71
ENDBRANCH  50  64
BRANCH  51  75
ATOM     75  C   UNL A   1      39.264  32.130  35.606  1.00  0.00     0.023 A 
ATOM     76  C   UNL A   1      39.593  33.494  35.730  1.00  0.00     0.012 A 
ATOM     77  C   UNL A   1      38.508  31.511  36.619  1.00  0.00     0.148 A 
ATOM     78  C   UNL A   1      39.199  34.221  36.854  1.00  0.00     0.002 A 
ATOM     79  C   UNL A   1      38.069  32.254  37.708  1.00  0.00     0.091 A 
ATOM     80  F   UNL A   1      38.215  30.209  36.487  1.00  0.00    -0.205 F 
ATOM     81  C   UNL A   1      38.428  33.605  37.836  1.00  0.00     0.022 A 
BRANCH  79  82
ATOM     82  S   UNL A   1      36.959  31.582  38.950  1.00  0.00     0.127 S 
ATOM     83  O   UNL A   1      37.765  31.691  40.162  1.00  0.00    -0.237 OA
ATOM     84  O   UNL A   1      35.828  32.510  38.875  1.00  0.00    -0.237 OA
ATOM     85  O   UNL A   1      36.652  30.227  38.512  1.00  0.00    -0.744 OA
ENDBRANCH  79  82
ENDBRANCH  51  75
BRANCH  63  86
ATOM     86  C   UNL A   1      44.693  27.990  34.103  1.00  0.00     0.023 A 
ATOM     87  C   UNL A   1      45.871  28.761  34.076  1.00  0.00     0.012 A 
ATOM     88  C   UNL A   1      44.629  26.854  34.934  1.00  0.00     0.148 A 
ATOM     89  C   UNL A   1      46.978  28.394  34.840  1.00  0.00     0.002 A 
ATOM     90  C   UNL A   1      45.718  26.521  35.732  1.00  0.00     0.091 A 
ATOM     91  F   UNL A   1      43.505  26.123  34.934  1.00  0.00    -0.205 F 
ATOM     92  C   UNL A   1      46.898  27.282  35.677  1.00  0.00     0.022 A 
BRANCH  90  93
ATOM     93  S   UNL A   1      45.674  25.166  36.910  1.00  0.00     0.127 S 
ATOM     94  O   UNL A   1      45.518  24.010  36.029  1.00  0.00    -0.237 OA
ATOM     95  O   UNL A   1      46.984  25.271  37.552  1.00  0.00    -0.237 OA
ATOM     96  O   UNL A   1      44.545  25.435  37.790  1.00  0.00    -0.744 OA
ENDBRANCH  90  93
ENDBRANCH  63  86
ENDBRANCH  37  38
ENDBRANCH  29  32
ENDBRANCH  27  28
ENDBRANCH  26  27
ENDBRANCH   1  26
TORSDOF 17
ENDMDL
