MODEL 1
REMARK VINA RESULT:     -11.5      0.000      0.000
REMARK SMILES O=C(CSc1nc(-c2cccc(F)c2)n[nH]1)NCCCCNC(=O)c1ccc(-c2c3nc(c(-c4cccc(S(=O)(=O)[O-])c4F)c4ccc([nH]4)c(-c4cccc(S(=O)(=O)[O-])c4F)c4nc(c(-c5cccc(S(=O)(=O)[O-])c5F)c5ccc2[nH]5)C=C4)C=C3)cc1
REMARK SMILES IDX 19 1 18 2 17 3 1 4 2 5 3 7 4 8 5 9 6 10 16 11 7 12 15 13
REMARK SMILES IDX 8 15 9 16 14 17 10 18 12 19 11 20 13 21 20 22 21 23 22 24
REMARK SMILES IDX 23 25 24 27 25 28 26 29 87 30 27 31 86 32 28 33 29 34 30 35
REMARK SMILES IDX 80 36 31 37 85 38 79 39 81 40 32 41 84 42 78 43 77 44 33 46
REMARK SMILES IDX 65 47 45 48 64 49 46 50 49 51 63 52 82 53 47 54 48 55 62 57
REMARK SMILES IDX 83 58 50 59 34 60 35 61 43 62 36 63 38 64 44 65 37 66 39 67
REMARK SMILES IDX 40 68 41 69 42 70 66 71 67 72 75 73 68 74 70 75 76 76 69 77
REMARK SMILES IDX 71 78 72 79 73 80 74 81 51 82 52 83 60 84 53 85 55 86 61 87
REMARK SMILES IDX 54 88 56 89 57 90 58 91 59 92
REMARK H PARENT 17 6 16 14 22 26 81 45 49 56
REMARK Flexibility Score: inf
ROOT
ATOM      1  C   UNL A   1      31.763  29.947  26.461  1.00  0.00     0.023 C 
ENDROOT
BRANCH   1   2
ATOM      2  C   UNL A   1      32.868  29.449  25.532  1.00  0.00     0.116 C 
BRANCH   2   3
ATOM      3  N   UNL A   1      32.396  28.456  24.591  1.00  0.00    -0.355 N 
ATOM      4  O   UNL A   1      33.218  26.633  25.722  1.00  0.00    -0.274 OA
ATOM      5  C   UNL A   1      32.565  27.102  24.791  1.00  0.00     0.230 C 
ATOM      6  H   UNL A   1      31.937  28.759  23.775  1.00  0.00     0.163 HD
BRANCH   5   7
ATOM      7  C   UNL A   1      32.000  26.211  23.698  1.00  0.00     0.178 C 
BRANCH   7   8
ATOM      8  S   UNL A   1      30.358  25.533  24.083  1.00  0.00    -0.077 SA
BRANCH   8   9
ATOM      9  C   UNL A   1      29.357  26.869  23.682  1.00  0.00     0.184 A 
ATOM     10  N   UNL A   1      29.724  28.066  23.310  1.00  0.00    -0.201 NA
ATOM     11  N   UNL A   1      28.003  26.777  23.683  1.00  0.00    -0.254 N 
ATOM     12  C   UNL A   1      28.524  28.720  23.137  1.00  0.00     0.182 A 
ATOM     13  N   UNL A   1      27.440  27.965  23.394  1.00  0.00    -0.153 NA
ATOM     14  H   UNL A   1      27.498  25.952  23.869  1.00  0.00     0.192 HD
BRANCH  12  15
ATOM     15  C   UNL A   1      28.456  30.102  22.694  1.00  0.00     0.024 A 
ATOM     16  C   UNL A   1      28.775  31.139  23.584  1.00  0.00     0.012 A 
ATOM     17  C   UNL A   1      28.080  30.414  21.383  1.00  0.00     0.051 A 
ATOM     18  C   UNL A   1      28.731  32.471  23.167  1.00  0.00     0.004 A 
ATOM     19  C   UNL A   1      28.022  31.746  20.986  1.00  0.00     0.123 A 
ATOM     20  C   UNL A   1      28.348  32.775  21.863  1.00  0.00     0.039 A 
ATOM     21  F   UNL A   1      27.645  32.044  19.736  1.00  0.00    -0.207 F 
ENDBRANCH  12  15
ENDBRANCH   8   9
ENDBRANCH   7   8
ENDBRANCH   5   7
ENDBRANCH   2   3
ENDBRANCH   1   2
BRANCH   1  22
ATOM     22  C   UNL A   1      31.611  31.470  26.536  1.00  0.00     0.023 C 
BRANCH  22  23
ATOM     23  C   UNL A   1      32.875  32.244  26.892  1.00  0.00     0.116 C 
BRANCH  23  24
ATOM     24  N   UNL A   1      32.605  33.592  27.369  1.00  0.00    -0.352 N 
ATOM     25  C   UNL A   1      33.190  34.288  28.401  1.00  0.00     0.251 C 
ATOM     26  H   UNL A   1      31.899  34.076  26.883  1.00  0.00     0.163 HD
ATOM     27  O   UNL A   1      32.730  35.378  28.737  1.00  0.00    -0.269 OA
BRANCH  25  28
ATOM     28  C   UNL A   1      34.351  33.722  29.126  1.00  0.00     0.039 A 
ATOM     29  C   UNL A   1      34.125  32.742  30.097  1.00  0.00     0.014 A 
ATOM     30  C   UNL A   1      35.654  34.146  28.857  1.00  0.00     0.014 A 
ATOM     31  C   UNL A   1      35.209  32.140  30.744  1.00  0.00     0.010 A 
ATOM     32  C   UNL A   1      36.735  33.492  29.446  1.00  0.00     0.010 A 
ATOM     33  C   UNL A   1      36.526  32.482  30.396  1.00  0.00    -0.014 A 
BRANCH  33  34
ATOM     34  C   UNL A   1      37.692  31.774  30.991  1.00  0.00     0.031 A 
ATOM     35  C   UNL A   1      38.118  32.054  32.406  1.00  0.00     0.074 A 
ATOM     36  C   UNL A   1      38.421  30.934  30.227  1.00  0.00     0.049 A 
ATOM     37  N   UNL A   1      39.140  31.573  33.068  1.00  0.00    -0.248 NA
ATOM     38  C   UNL A   1      37.307  33.014  33.174  1.00  0.00     0.031 C 
ATOM     39  C   UNL A   1      38.156  30.629  28.820  1.00  0.00     0.029 A 
ATOM     40  N   UNL A   1      39.546  30.202  30.518  1.00  0.00    -0.354 N 
ATOM     41  C   UNL A   1      39.116  32.195  34.310  1.00  0.00     0.074 A 
ATOM     42  C   UNL A   1      37.996  33.111  34.302  1.00  0.00     0.031 C 
ATOM     43  C   UNL A   1      39.082  29.765  28.375  1.00  0.00     0.029 A 
ATOM     44  C   UNL A   1      40.030  29.483  29.449  1.00  0.00     0.049 A 
ATOM     45  H   UNL A   1      39.968  30.191  31.408  1.00  0.00     0.167 HD
ATOM     46  C   UNL A   1      39.933  31.999  35.373  1.00  0.00     0.034 A 
ATOM     47  C   UNL A   1      41.118  28.694  29.336  1.00  0.00     0.034 A 
ATOM     48  C   UNL A   1      41.019  31.056  35.393  1.00  0.00     0.049 A 
ATOM     49  C   UNL A   1      41.995  28.474  30.538  1.00  0.00     0.074 A 
ATOM     50  C   UNL A   1      41.845  30.727  36.454  1.00  0.00     0.029 A 
ATOM     51  N   UNL A   1      41.438  30.301  34.311  1.00  0.00    -0.354 N 
ATOM     52  N   UNL A   1      41.871  28.963  31.747  1.00  0.00    -0.248 NA
ATOM     53  C   UNL A   1      43.144  27.570  30.371  1.00  0.00     0.031 C 
ATOM     54  C   UNL A   1      42.787  29.799  36.002  1.00  0.00     0.029 A 
ATOM     55  C   UNL A   1      42.521  29.518  34.671  1.00  0.00     0.049 A 
ATOM     56  H   UNL A   1      41.027  30.318  33.417  1.00  0.00     0.167 HD
ATOM     57  C   UNL A   1      42.902  28.403  32.494  1.00  0.00     0.074 A 
ATOM     58  C   UNL A   1      43.634  27.526  31.604  1.00  0.00     0.031 C 
ATOM     59  C   UNL A   1      43.217  28.610  33.795  1.00  0.00     0.034 A 
BRANCH  46  60
ATOM     60  C   UNL A   1      39.659  32.781  36.633  1.00  0.00     0.023 A 
ATOM     61  C   UNL A   1      40.280  34.033  36.823  1.00  0.00     0.012 A 
ATOM     62  C   UNL A   1      38.715  32.327  37.574  1.00  0.00     0.148 A 
ATOM     63  C   UNL A   1      39.986  34.808  37.944  1.00  0.00     0.002 A 
ATOM     64  C   UNL A   1      38.390  33.127  38.663  1.00  0.00     0.091 A 
ATOM     65  F   UNL A   1      38.149  31.127  37.385  1.00  0.00    -0.205 F 
ATOM     66  C   UNL A   1      39.032  34.362  38.855  1.00  0.00     0.022 A 
BRANCH  64  67
ATOM     67  S   UNL A   1      37.110  32.688  39.845  1.00  0.00     0.127 S 
ATOM     68  O   UNL A   1      35.925  32.637  38.990  1.00  0.00    -0.237 OA
ATOM     69  O   UNL A   1      37.572  31.385  40.326  1.00  0.00    -0.237 OA
ATOM     70  O   UNL A   1      37.108  33.742  40.849  1.00  0.00    -0.744 OA
ENDBRANCH  64  67
ENDBRANCH  46  60
BRANCH  47  71
ATOM     71  C   UNL A   1      41.389  28.000  28.045  1.00  0.00     0.023 A 
ATOM     72  C   UNL A   1      41.882  28.740  26.953  1.00  0.00     0.012 A 
ATOM     73  C   UNL A   1      41.230  26.606  27.914  1.00  0.00     0.148 A 
ATOM     74  C   UNL A   1      42.196  28.109  25.749  1.00  0.00     0.002 A 
ATOM     75  C   UNL A   1      41.600  25.975  26.733  1.00  0.00     0.091 A 
ATOM     76  F   UNL A   1      40.751  25.923  28.963  1.00  0.00    -0.205 F 
ATOM     77  C   UNL A   1      42.068  26.726  25.643  1.00  0.00     0.022 A 
BRANCH  75  78
ATOM     78  S   UNL A   1      41.606  24.188  26.553  1.00  0.00     0.127 S 
ATOM     79  O   UNL A   1      40.181  23.894  26.419  1.00  0.00    -0.237 OA
ATOM     80  O   UNL A   1      42.389  24.014  25.328  1.00  0.00    -0.237 OA
ATOM     81  O   UNL A   1      42.244  23.669  27.754  1.00  0.00    -0.744 OA
ENDBRANCH  75  78
ENDBRANCH  47  71
BRANCH  59  82
ATOM     82  C   UNL A   1      44.391  27.862  34.374  1.00  0.00     0.023 A 
ATOM     83  C   UNL A   1      45.671  28.450  34.367  1.00  0.00     0.012 A 
ATOM     84  C   UNL A   1      44.199  26.632  35.036  1.00  0.00     0.148 A 
ATOM     85  C   UNL A   1      46.744  27.818  34.994  1.00  0.00     0.002 A 
ATOM     86  C   UNL A   1      45.261  26.034  35.704  1.00  0.00     0.091 A 
ATOM     87  F   UNL A   1      42.976  26.081  35.018  1.00  0.00    -0.205 F 
ATOM     88  C   UNL A   1      46.536  26.620  35.675  1.00  0.00     0.022 A 
BRANCH  86  89
ATOM     89  S   UNL A   1      45.067  24.550  36.698  1.00  0.00     0.127 S 
ATOM     90  O   UNL A   1      44.505  23.613  35.726  1.00  0.00    -0.237 OA
ATOM     91  O   UNL A   1      46.445  24.263  37.097  1.00  0.00    -0.237 OA
ATOM     92  O   UNL A   1      44.180  24.912  37.795  1.00  0.00    -0.744 OA
ENDBRANCH  86  89
ENDBRANCH  59  82
ENDBRANCH  33  34
ENDBRANCH  25  28
ENDBRANCH  23  24
ENDBRANCH  22  23
ENDBRANCH   1  22
TORSDOF 17
ENDMDL
MODEL 2
REMARK VINA RESULT:     -11.4      1.791      2.318
REMARK SMILES O=C(CSc1nc(-c2cccc(F)c2)n[nH]1)NCCCCNC(=O)c1ccc(-c2c3nc(c(-c4cccc(S(=O)(=O)[O-])c4F)c4ccc([nH]4)c(-c4cccc(S(=O)(=O)[O-])c4F)c4nc(c(-c5cccc(S(=O)(=O)[O-])c5F)c5ccc2[nH]5)C=C4)C=C3)cc1
REMARK SMILES IDX 19 1 18 2 17 3 1 4 2 5 3 7 4 8 5 9 6 10 16 11 7 12 15 13
REMARK SMILES IDX 8 15 9 16 14 17 10 18 12 19 11 20 13 21 20 22 21 23 22 24
REMARK SMILES IDX 23 25 24 27 25 28 26 29 87 30 27 31 86 32 28 33 29 34 30 35
REMARK SMILES IDX 80 36 31 37 85 38 79 39 81 40 32 41 84 42 78 43 77 44 33 46
REMARK SMILES IDX 65 47 45 48 64 49 46 50 49 51 63 52 82 53 47 54 48 55 62 57
REMARK SMILES IDX 83 58 50 59 34 60 35 61 43 62 36 63 38 64 44 65 37 66 39 67
REMARK SMILES IDX 40 68 41 69 42 70 66 71 67 72 75 73 68 74 70 75 76 76 69 77
REMARK SMILES IDX 71 78 72 79 73 80 74 81 51 82 52 83 60 84 53 85 55 86 61 87
REMARK SMILES IDX 54 88 56 89 57 90 58 91 59 92
REMARK H PARENT 17 6 16 14 22 26 81 45 49 56
REMARK Flexibility Score: inf
ROOT
ATOM      1  C   UNL A   1      33.547  29.340  24.215  1.00  0.00     0.023 C 
ENDROOT
BRANCH   1   2
ATOM      2  C   UNL A   1      33.958  28.223  23.257  1.00  0.00     0.116 C 
BRANCH   2   3
ATOM      3  N   UNL A   1      32.836  27.412  22.837  1.00  0.00    -0.355 N 
ATOM      4  O   UNL A   1      33.672  25.414  23.606  1.00  0.00    -0.274 OA
ATOM      5  C   UNL A   1      32.757  26.060  23.096  1.00  0.00     0.230 C 
ATOM      6  H   UNL A   1      32.099  27.842  22.346  1.00  0.00     0.163 HD
BRANCH   5   7
ATOM      7  C   UNL A   1      31.502  25.375  22.583  1.00  0.00     0.178 C 
BRANCH   7   8
ATOM      8  S   UNL A   1      30.218  25.153  23.850  1.00  0.00    -0.077 SA
BRANCH   8   9
ATOM      9  C   UNL A   1      29.265  26.558  23.591  1.00  0.00     0.184 A 
ATOM     10  N   UNL A   1      29.661  27.733  23.179  1.00  0.00    -0.201 NA
ATOM     11  N   UNL A   1      27.920  26.557  23.768  1.00  0.00    -0.254 N 
ATOM     12  C   UNL A   1      28.495  28.467  23.169  1.00  0.00     0.182 A 
ATOM     13  N   UNL A   1      27.406  27.783  23.562  1.00  0.00    -0.153 NA
ATOM     14  H   UNL A   1      27.390  25.764  24.015  1.00  0.00     0.192 HD
BRANCH  12  15
ATOM     15  C   UNL A   1      28.464  29.857  22.745  1.00  0.00     0.024 A 
ATOM     16  C   UNL A   1      28.859  30.869  23.634  1.00  0.00     0.012 A 
ATOM     17  C   UNL A   1      28.048  30.201  21.454  1.00  0.00     0.051 A 
ATOM     18  C   UNL A   1      28.850  32.207  23.235  1.00  0.00     0.004 A 
ATOM     19  C   UNL A   1      28.026  31.539  21.076  1.00  0.00     0.123 A 
ATOM     20  C   UNL A   1      28.427  32.543  21.951  1.00  0.00     0.039 A 
ATOM     21  F   UNL A   1      27.611  31.869  19.845  1.00  0.00    -0.207 F 
ENDBRANCH  12  15
ENDBRANCH   8   9
ENDBRANCH   7   8
ENDBRANCH   5   7
ENDBRANCH   2   3
ENDBRANCH   1   2
BRANCH   1  22
ATOM     22  C   UNL A   1      32.213  29.122  24.936  1.00  0.00     0.023 C 
BRANCH  22  23
ATOM     23  C   UNL A   1      32.163  29.582  26.389  1.00  0.00     0.116 C 
BRANCH  23  24
ATOM     24  N   UNL A   1      32.081  31.028  26.527  1.00  0.00    -0.352 N 
ATOM     25  C   UNL A   1      32.940  31.896  27.162  1.00  0.00     0.251 C 
ATOM     26  H   UNL A   1      31.297  31.448  26.106  1.00  0.00     0.163 HD
ATOM     27  O   UNL A   1      32.629  33.079  27.284  1.00  0.00    -0.269 OA
BRANCH  25  28
ATOM     28  C   UNL A   1      34.221  31.408  27.723  1.00  0.00     0.039 A 
ATOM     29  C   UNL A   1      35.237  32.332  27.984  1.00  0.00     0.014 A 
ATOM     30  C   UNL A   1      34.428  30.053  27.993  1.00  0.00     0.014 A 
ATOM     31  C   UNL A   1      36.429  31.907  28.580  1.00  0.00     0.010 A 
ATOM     32  C   UNL A   1      35.583  29.643  28.657  1.00  0.00     0.010 A 
ATOM     33  C   UNL A   1      36.597  30.564  28.958  1.00  0.00    -0.014 A 
BRANCH  33  34
ATOM     34  C   UNL A   1      37.809  30.114  29.695  1.00  0.00     0.031 A 
ATOM     35  C   UNL A   1      38.088  30.611  31.088  1.00  0.00     0.074 A 
ATOM     36  C   UNL A   1      38.707  29.319  29.077  1.00  0.00     0.049 A 
ATOM     37  N   UNL A   1      39.120  30.371  31.856  1.00  0.00    -0.248 NA
ATOM     38  C   UNL A   1      37.092  31.513  31.690  1.00  0.00     0.031 C 
ATOM     39  C   UNL A   1      38.591  28.823  27.704  1.00  0.00     0.029 A 
ATOM     40  N   UNL A   1      39.904  28.806  29.514  1.00  0.00    -0.354 N 
ATOM     41  C   UNL A   1      38.916  31.113  33.012  1.00  0.00     0.074 A 
ATOM     42  C   UNL A   1      37.677  31.839  32.834  1.00  0.00     0.031 C 
ATOM     43  C   UNL A   1      39.663  28.070  27.416  1.00  0.00     0.029 A 
ATOM     44  C   UNL A   1      40.563  28.057  28.565  1.00  0.00     0.049 A 
ATOM     45  H   UNL A   1      40.258  28.958  30.420  1.00  0.00     0.167 HD
ATOM     46  C   UNL A   1      39.675  31.165  34.132  1.00  0.00     0.034 A 
ATOM     47  C   UNL A   1      41.761  27.438  28.607  1.00  0.00     0.034 A 
ATOM     48  C   UNL A   1      40.884  30.409  34.323  1.00  0.00     0.049 A 
ATOM     49  C   UNL A   1      42.573  27.490  29.871  1.00  0.00     0.074 A 
ATOM     50  C   UNL A   1      41.672  30.331  35.458  1.00  0.00     0.029 A 
ATOM     51  N   UNL A   1      41.486  29.613  33.363  1.00  0.00    -0.354 N 
ATOM     52  N   UNL A   1      42.293  28.084  31.005  1.00  0.00    -0.248 NA
ATOM     53  C   UNL A   1      43.852  26.762  29.875  1.00  0.00     0.031 C 
ATOM     54  C   UNL A   1      42.771  29.515  35.171  1.00  0.00     0.029 A 
ATOM     55  C   UNL A   1      42.644  29.052  33.872  1.00  0.00     0.049 A 
ATOM     56  H   UNL A   1      41.141  29.468  32.453  1.00  0.00     0.167 HD
ATOM     57  C   UNL A   1      43.340  27.776  31.867  1.00  0.00     0.074 A 
ATOM     58  C   UNL A   1      44.253  26.930  31.129  1.00  0.00     0.031 C 
ATOM     59  C   UNL A   1      43.527  28.171  33.150  1.00  0.00     0.034 A 
BRANCH  46  60
ATOM     60  C   UNL A   1      39.200  32.029  35.273  1.00  0.00     0.023 A 
ATOM     61  C   UNL A   1      38.331  31.486  36.241  1.00  0.00     0.012 A 
ATOM     62  C   UNL A   1      39.693  33.338  35.442  1.00  0.00     0.148 A 
ATOM     63  C   UNL A   1      37.938  32.241  37.345  1.00  0.00     0.002 A 
ATOM     64  C   UNL A   1      39.336  34.066  36.570  1.00  0.00     0.091 A 
ATOM     65  F   UNL A   1      40.503  33.843  34.502  1.00  0.00    -0.205 F 
ATOM     66  C   UNL A   1      38.451  33.523  37.517  1.00  0.00     0.022 A 
BRANCH  64  67
ATOM     67  S   UNL A   1      40.011  35.691  36.932  1.00  0.00     0.127 S 
ATOM     68  O   UNL A   1      39.353  36.008  38.198  1.00  0.00    -0.237 OA
ATOM     69  O   UNL A   1      41.443  35.410  37.042  1.00  0.00    -0.237 OA
ATOM     70  O   UNL A   1      39.642  36.541  35.809  1.00  0.00    -0.744 OA
ENDBRANCH  64  67
ENDBRANCH  46  60
BRANCH  47  71
ATOM     71  C   UNL A   1      42.222  26.657  27.424  1.00  0.00     0.023 A 
ATOM     72  C   UNL A   1      42.997  27.293  26.435  1.00  0.00     0.012 A 
ATOM     73  C   UNL A   1      41.960  25.277  27.309  1.00  0.00     0.148 A 
ATOM     74  C   UNL A   1      43.488  26.574  25.344  1.00  0.00     0.002 A 
ATOM     75  C   UNL A   1      42.502  24.555  26.253  1.00  0.00     0.091 A 
ATOM     76  F   UNL A   1      41.214  24.694  28.258  1.00  0.00    -0.205 F 
ATOM     77  C   UNL A   1      43.252  25.204  25.260  1.00  0.00     0.022 A 
BRANCH  75  78
ATOM     78  S   UNL A   1      42.373  22.767  26.137  1.00  0.00     0.127 S 
ATOM     79  O   UNL A   1      43.092  22.336  27.334  1.00  0.00    -0.237 OA
ATOM     80  O   UNL A   1      40.924  22.568  26.183  1.00  0.00    -0.237 OA
ATOM     81  O   UNL A   1      42.991  22.406  24.869  1.00  0.00    -0.744 OA
ENDBRANCH  75  78
ENDBRANCH  47  71
BRANCH  59  82
ATOM     82  C   UNL A   1      44.754  27.682  33.876  1.00  0.00     0.023 A 
ATOM     83  C   UNL A   1      45.902  28.495  33.942  1.00  0.00     0.012 A 
ATOM     84  C   UNL A   1      44.723  26.471  34.597  1.00  0.00     0.148 A 
ATOM     85  C   UNL A   1      47.005  28.104  34.700  1.00  0.00     0.002 A 
ATOM     86  C   UNL A   1      45.805  26.113  35.392  1.00  0.00     0.091 A 
ATOM     87  F   UNL A   1      43.626  25.702  34.508  1.00  0.00    -0.205 F 
ATOM     88  C   UNL A   1      46.950  26.922  35.436  1.00  0.00     0.022 A 
BRANCH  86  89
ATOM     89  S   UNL A   1      45.784  24.668  36.460  1.00  0.00     0.127 S 
ATOM     90  O   UNL A   1      46.228  25.234  37.734  1.00  0.00    -0.237 OA
ATOM     91  O   UNL A   1      44.375  24.277  36.425  1.00  0.00    -0.237 OA
ATOM     92  O   UNL A   1      46.697  23.706  35.857  1.00  0.00    -0.744 OA
ENDBRANCH  86  89
ENDBRANCH  59  82
ENDBRANCH  33  34
ENDBRANCH  25  28
ENDBRANCH  23  24
ENDBRANCH  22  23
ENDBRANCH   1  22
TORSDOF 17
ENDMDL
MODEL 3
REMARK VINA RESULT:     -11.4      1.623      7.904
REMARK SMILES O=C(CSc1nc(-c2cccc(F)c2)n[nH]1)NCCCCNC(=O)c1ccc(-c2c3nc(c(-c4cccc(S(=O)(=O)[O-])c4F)c4ccc([nH]4)c(-c4cccc(S(=O)(=O)[O-])c4F)c4nc(c(-c5cccc(S(=O)(=O)[O-])c5F)c5ccc2[nH]5)C=C4)C=C3)cc1
REMARK SMILES IDX 19 1 18 2 17 3 1 4 2 5 3 7 4 8 5 9 6 10 16 11 7 12 15 13
REMARK SMILES IDX 8 15 9 16 14 17 10 18 12 19 11 20 13 21 20 22 21 23 22 24
REMARK SMILES IDX 23 25 24 27 25 28 26 29 87 30 27 31 86 32 28 33 29 34 30 35
REMARK SMILES IDX 80 36 31 37 85 38 79 39 81 40 32 41 84 42 78 43 77 44 33 46
REMARK SMILES IDX 65 47 45 48 64 49 46 50 49 51 63 52 82 53 47 54 48 55 62 57
REMARK SMILES IDX 83 58 50 59 34 60 35 61 43 62 36 63 38 64 44 65 37 66 39 67
REMARK SMILES IDX 40 68 41 69 42 70 66 71 67 72 75 73 68 74 70 75 76 76 69 77
REMARK SMILES IDX 71 78 72 79 73 80 74 81 51 82 52 83 60 84 53 85 55 86 61 87
REMARK SMILES IDX 54 88 56 89 57 90 58 91 59 92
REMARK H PARENT 17 6 16 14 22 26 81 45 49 56
REMARK Flexibility Score: inf
ROOT
ATOM      1  C   UNL A   1      32.101  30.054  26.202  1.00  0.00     0.023 C 
ENDROOT
BRANCH   1   2
ATOM      2  C   UNL A   1      33.344  29.343  26.735  1.00  0.00     0.116 C 
BRANCH   2   3
ATOM      3  N   UNL A   1      33.403  27.954  26.334  1.00  0.00    -0.355 N 
ATOM      4  O   UNL A   1      34.286  28.335  24.247  1.00  0.00    -0.274 OA
ATOM      5  C   UNL A   1      33.927  27.550  25.124  1.00  0.00     0.230 C 
ATOM      6  H   UNL A   1      33.054  27.269  26.950  1.00  0.00     0.163 HD
BRANCH   5   7
ATOM      7  C   UNL A   1      33.909  26.051  24.880  1.00  0.00     0.178 C 
BRANCH   7   8
ATOM      8  S   UNL A   1      32.243  25.326  24.897  1.00  0.00    -0.077 SA
BRANCH   8   9
ATOM      9  C   UNL A   1      31.379  26.485  23.969  1.00  0.00     0.184 A 
ATOM     10  N   UNL A   1      30.628  27.463  24.402  1.00  0.00    -0.201 NA
ATOM     11  N   UNL A   1      31.436  26.507  22.614  1.00  0.00    -0.254 N 
ATOM     12  C   UNL A   1      30.183  28.051  23.238  1.00  0.00     0.182 A 
ATOM     13  N   UNL A   1      30.632  27.464  22.114  1.00  0.00    -0.153 NA
ATOM     14  H   UNL A   1      31.990  25.904  22.068  1.00  0.00     0.192 HD
BRANCH  12  15
ATOM     15  C   UNL A   1      29.318  29.218  23.246  1.00  0.00     0.024 A 
ATOM     16  C   UNL A   1      27.987  29.106  22.817  1.00  0.00     0.012 A 
ATOM     17  C   UNL A   1      29.796  30.458  23.685  1.00  0.00     0.051 A 
ATOM     18  C   UNL A   1      27.139  30.217  22.836  1.00  0.00     0.004 A 
ATOM     19  C   UNL A   1      28.948  31.560  23.681  1.00  0.00     0.123 A 
ATOM     20  C   UNL A   1      27.624  31.450  23.266  1.00  0.00     0.039 A 
ATOM     21  F   UNL A   1      29.411  32.750  24.084  1.00  0.00    -0.207 F 
ENDBRANCH  12  15
ENDBRANCH   8   9
ENDBRANCH   7   8
ENDBRANCH   5   7
ENDBRANCH   2   3
ENDBRANCH   1   2
BRANCH   1  22
ATOM     22  C   UNL A   1      31.801  31.411  26.846  1.00  0.00     0.023 C 
BRANCH  22  23
ATOM     23  C   UNL A   1      33.018  32.250  27.222  1.00  0.00     0.116 C 
BRANCH  23  24
ATOM     24  N   UNL A   1      32.682  33.625  27.559  1.00  0.00    -0.352 N 
ATOM     25  C   UNL A   1      33.210  34.441  28.533  1.00  0.00     0.251 C 
ATOM     26  H   UNL A   1      31.972  34.031  27.010  1.00  0.00     0.163 HD
ATOM     27  O   UNL A   1      32.699  35.538  28.750  1.00  0.00    -0.269 OA
BRANCH  25  28
ATOM     28  C   UNL A   1      34.369  33.994  29.339  1.00  0.00     0.039 A 
ATOM     29  C   UNL A   1      34.143  33.170  30.445  1.00  0.00     0.014 A 
ATOM     30  C   UNL A   1      35.672  34.381  29.015  1.00  0.00     0.014 A 
ATOM     31  C   UNL A   1      35.226  32.677  31.179  1.00  0.00     0.010 A 
ATOM     32  C   UNL A   1      36.753  33.827  29.699  1.00  0.00     0.010 A 
ATOM     33  C   UNL A   1      36.543  32.969  30.789  1.00  0.00    -0.014 A 
BRANCH  33  34
ATOM     34  C   UNL A   1      37.709  32.363  31.487  1.00  0.00     0.031 A 
ATOM     35  C   UNL A   1      38.465  31.219  30.866  1.00  0.00     0.074 A 
ATOM     36  C   UNL A   1      38.040  32.788  32.724  1.00  0.00     0.049 A 
ATOM     37  N   UNL A   1      39.467  30.534  31.355  1.00  0.00    -0.248 NA
ATOM     38  C   UNL A   1      38.028  30.771  29.533  1.00  0.00     0.031 C 
ATOM     39  C   UNL A   1      37.345  33.841  33.468  1.00  0.00     0.029 A 
ATOM     40  N   UNL A   1      39.028  32.374  33.584  1.00  0.00    -0.354 N 
ATOM     41  C   UNL A   1      39.757  29.557  30.410  1.00  0.00     0.074 A 
ATOM     42  C   UNL A   1      38.805  29.717  29.333  1.00  0.00     0.031 C 
ATOM     43  C   UNL A   1      37.934  33.998  34.663  1.00  0.00     0.029 A 
ATOM     44  C   UNL A   1      39.023  33.035  34.791  1.00  0.00     0.049 A 
ATOM     45  H   UNL A   1      39.679  31.671  33.358  1.00  0.00     0.167 HD
ATOM     46  C   UNL A   1      40.744  28.629  30.425  1.00  0.00     0.034 A 
ATOM     47  C   UNL A   1      39.797  32.880  35.884  1.00  0.00     0.034 A 
ATOM     48  C   UNL A   1      41.716  28.501  31.477  1.00  0.00     0.049 A 
ATOM     49  C   UNL A   1      40.902  31.860  35.865  1.00  0.00     0.074 A 
ATOM     50  C   UNL A   1      42.804  27.648  31.536  1.00  0.00     0.029 A 
ATOM     51  N   UNL A   1      41.715  29.231  32.654  1.00  0.00    -0.354 N 
ATOM     52  N   UNL A   1      41.249  31.040  34.903  1.00  0.00    -0.248 NA
ATOM     53  C   UNL A   1      41.743  31.762  37.068  1.00  0.00     0.031 C 
ATOM     54  C   UNL A   1      43.441  27.837  32.765  1.00  0.00     0.029 A 
ATOM     55  C   UNL A   1      42.775  28.838  33.454  1.00  0.00     0.049 A 
ATOM     56  H   UNL A   1      41.060  29.926  32.888  1.00  0.00     0.167 HD
ATOM     57  C   UNL A   1      42.365  30.354  35.368  1.00  0.00     0.074 A 
ATOM     58  C   UNL A   1      42.647  30.864  36.694  1.00  0.00     0.031 C 
ATOM     59  C   UNL A   1      43.081  29.382  34.753  1.00  0.00     0.034 A 
BRANCH  46  60
ATOM     60  C   UNL A   1      40.866  27.704  29.240  1.00  0.00     0.023 A 
ATOM     61  C   UNL A   1      40.056  26.551  29.172  1.00  0.00     0.012 A 
ATOM     62  C   UNL A   1      41.703  28.026  28.155  1.00  0.00     0.148 A 
ATOM     63  C   UNL A   1      40.097  25.720  28.054  1.00  0.00     0.002 A 
ATOM     64  C   UNL A   1      41.701  27.220  27.023  1.00  0.00     0.091 A 
ATOM     65  F   UNL A   1      42.478  29.116  28.246  1.00  0.00    -0.205 F 
ATOM     66  C   UNL A   1      40.908  26.062  26.975  1.00  0.00     0.022 A 
BRANCH  64  67
ATOM     67  S   UNL A   1      42.639  27.621  25.543  1.00  0.00     0.127 S 
ATOM     68  O   UNL A   1      43.993  27.751  26.079  1.00  0.00    -0.237 OA
ATOM     69  O   UNL A   1      42.423  26.435  24.713  1.00  0.00    -0.237 OA
ATOM     70  O   UNL A   1      42.058  28.847  25.016  1.00  0.00    -0.744 OA
ENDBRANCH  64  67
ENDBRANCH  46  60
BRANCH  47  71
ATOM     71  C   UNL A   1      39.589  33.771  37.061  1.00  0.00     0.023 A 
ATOM     72  C   UNL A   1      39.968  35.124  36.979  1.00  0.00     0.012 A 
ATOM     73  C   UNL A   1      38.955  33.305  38.230  1.00  0.00     0.148 A 
ATOM     74  C   UNL A   1      39.735  35.994  38.045  1.00  0.00     0.002 A 
ATOM     75  C   UNL A   1      38.673  34.188  39.264  1.00  0.00     0.091 A 
ATOM     76  F   UNL A   1      38.611  32.010  38.290  1.00  0.00    -0.205 F 
ATOM     77  C   UNL A   1      39.077  35.531  39.181  1.00  0.00     0.022 A 
BRANCH  75  78
ATOM     78  S   UNL A   1      37.704  33.718  40.702  1.00  0.00     0.127 S 
ATOM     79  O   UNL A   1      38.610  32.799  41.387  1.00  0.00    -0.237 OA
ATOM     80  O   UNL A   1      37.513  35.007  41.368  1.00  0.00    -0.237 OA
ATOM     81  O   UNL A   1      36.482  33.122  40.179  1.00  0.00    -0.744 OA
ENDBRANCH  75  78
ENDBRANCH  47  71
BRANCH  59  82
ATOM     82  C   UNL A   1      44.269  28.802  35.478  1.00  0.00     0.023 A 
ATOM     83  C   UNL A   1      45.535  29.403  35.343  1.00  0.00     0.012 A 
ATOM     84  C   UNL A   1      44.101  27.741  36.391  1.00  0.00     0.148 A 
ATOM     85  C   UNL A   1      46.620  28.946  36.090  1.00  0.00     0.002 A 
ATOM     86  C   UNL A   1      45.174  27.325  37.170  1.00  0.00     0.091 A 
ATOM     87  F   UNL A   1      42.890  27.172  36.494  1.00  0.00    -0.205 F 
ATOM     88  C   UNL A   1      46.436  27.919  37.014  1.00  0.00     0.022 A 
BRANCH  86  89
ATOM     89  S   UNL A   1      45.008  26.087  38.463  1.00  0.00     0.127 S 
ATOM     90  O   UNL A   1      44.090  26.748  39.390  1.00  0.00    -0.237 OA
ATOM     91  O   UNL A   1      44.432  24.956  37.735  1.00  0.00    -0.237 OA
ATOM     92  O   UNL A   1      46.352  25.858  38.977  1.00  0.00    -0.744 OA
ENDBRANCH  86  89
ENDBRANCH  59  82
ENDBRANCH  33  34
ENDBRANCH  25  28
ENDBRANCH  23  24
ENDBRANCH  22  23
ENDBRANCH   1  22
TORSDOF 17
ENDMDL
