MODEL 1
REMARK VINA RESULT:     -12.5      0.000      0.000
REMARK SMILES Cc1c(Br)c(C)c2c(c1Br)O[C@H](C(F)(F)F)C(C(=O)NCCCCNC(=O)c1ccc(-c3c4nc(c(-c5cccc(S(=O)(=O)[O-])c5F)c5ccc([nH]5)c(-c5cccc(S(=O)(=O)[O-])c5F)c5nc(c(-c6cccc(S(=O)(=O)[O-])c6F)c6ccc3[nH]6)C=C5)C=C4)cc1)=C2
REMARK SMILES IDX 23 1 22 2 21 3 20 4 18 5 19 6 17 8 1 9 2 10 3 11 9 12 4 13
REMARK SMILES IDX 5 14 8 15 10 16 6 17 7 18 11 19 91 20 12 21 13 22 14 23
REMARK SMILES IDX 15 24 16 25 24 26 25 27 26 28 27 30 28 31 29 32 90 33 30 34
REMARK SMILES IDX 89 35 31 36 32 37 33 38 83 39 34 40 88 41 82 42 84 43 35 44
REMARK SMILES IDX 87 45 81 46 80 47 36 49 68 50 48 51 67 52 49 53 52 54 66 55
REMARK SMILES IDX 85 56 50 57 51 58 65 60 86 61 53 62 37 63 38 64 46 65 39 66
REMARK SMILES IDX 41 67 47 68 40 69 42 70 43 71 44 72 45 73 69 74 70 75 78 76
REMARK SMILES IDX 71 77 73 78 79 79 72 80 74 81 75 82 76 83 77 84 54 85 55 86
REMARK SMILES IDX 63 87 56 88 58 89 64 90 57 91 59 92 60 93 61 94 62 95
REMARK H PARENT 20 7 25 29 84 48 52 59
REMARK Flexibility Score: inf
ROOT
ATOM      1  C   UNL A   1      31.555  29.056  25.373  1.00  0.00     0.023 C 
ENDROOT
BRANCH   1   2
ATOM      2  C   UNL A   1      31.225  29.057  23.879  1.00  0.00     0.023 C 
BRANCH   2   3
ATOM      3  C   UNL A   1      31.797  27.868  23.112  1.00  0.00     0.116 C 
BRANCH   3   4
ATOM      4  N   UNL A   1      30.909  26.720  23.147  1.00  0.00    -0.352 N 
ATOM      5  C   UNL A   1      31.008  25.407  23.459  1.00  0.00     0.251 C 
ATOM      6  O   UNL A   1      29.963  24.757  23.351  1.00  0.00    -0.270 OA
ATOM      7  H   UNL A   1      29.995  26.959  22.871  1.00  0.00     0.163 HD
BRANCH   5   8
ATOM      8  C   UNL A   1      32.252  24.720  23.917  1.00  0.00     0.067 C 
ATOM      9  C   UNL A   1      37.073  20.516  25.368  1.00  0.00     0.047 C 
ATOM     10  C   UNL A   1      35.793  21.206  24.960  1.00  0.00    -0.019 A 
ATOM     11  C   UNL A   1      34.613  20.502  24.609  1.00  0.00     0.025 A 
ATOM     12  C   UNL A   1      35.756  22.616  24.929  1.00  0.00     0.064 A 
ATOM     13  Br  UNL A   1      34.626  18.582  24.625  1.00  0.00    -0.050 Br
ATOM     14  C   UNL A   1      33.426  21.186  24.231  1.00  0.00    -0.026 A 
ATOM     15  C   UNL A   1      34.595  23.302  24.547  1.00  0.00     0.142 A 
ATOM     16  Br  UNL A   1      37.296  23.649  25.423  1.00  0.00    -0.046 Br
ATOM     17  C   UNL A   1      32.153  20.459  23.855  1.00  0.00     0.046 C 
ATOM     18  C   UNL A   1      33.439  22.603  24.182  1.00  0.00     0.022 A 
ATOM     19  O   UNL A   1      34.654  24.670  24.490  1.00  0.00    -0.474 OA
ATOM     20  C   UNL A   1      32.288  23.389  23.719  1.00  0.00     0.026 C 
ATOM     21  C   UNL A   1      33.401  25.395  24.596  1.00  0.00     0.314 C 
BRANCH  21  22
ATOM     22  C   UNL A   1      33.116  25.729  26.071  1.00  0.00     0.429 C 
ATOM     23  F   UNL A   1      33.852  26.797  26.467  1.00  0.00    -0.167 F 
ATOM     24  F   UNL A   1      31.820  26.053  26.288  1.00  0.00    -0.167 F 
ATOM     25  F   UNL A   1      33.412  24.704  26.902  1.00  0.00    -0.167 F 
ENDBRANCH  21  22
ENDBRANCH   5   8
ENDBRANCH   3   4
ENDBRANCH   2   3
ENDBRANCH   1   2
BRANCH   1  26
ATOM     26  C   UNL A   1      32.762  29.900  25.781  1.00  0.00     0.116 C 
BRANCH  26  27
ATOM     27  N   UNL A   1      32.412  31.192  26.360  1.00  0.00    -0.352 N 
ATOM     28  C   UNL A   1      33.152  31.946  27.240  1.00  0.00     0.251 C 
ATOM     29  H   UNL A   1      31.545  31.570  26.087  1.00  0.00     0.163 HD
ATOM     30  O   UNL A   1      32.712  32.995  27.697  1.00  0.00    -0.269 OA
BRANCH  28  31
ATOM     31  C   UNL A   1      34.471  31.434  27.658  1.00  0.00     0.039 A 
ATOM     32  C   UNL A   1      35.522  32.338  27.814  1.00  0.00     0.014 A 
ATOM     33  C   UNL A   1      34.619  30.088  28.004  1.00  0.00     0.014 A 
ATOM     34  C   UNL A   1      36.711  31.903  28.400  1.00  0.00     0.010 A 
ATOM     35  C   UNL A   1      35.781  29.673  28.643  1.00  0.00     0.010 A 
ATOM     36  C   UNL A   1      36.831  30.579  28.855  1.00  0.00    -0.014 A 
BRANCH  36  37
ATOM     37  C   UNL A   1      38.041  30.139  29.588  1.00  0.00     0.031 A 
ATOM     38  C   UNL A   1      38.309  30.642  30.976  1.00  0.00     0.074 A 
ATOM     39  C   UNL A   1      38.929  29.332  28.973  1.00  0.00     0.049 A 
ATOM     40  N   UNL A   1      39.297  30.348  31.778  1.00  0.00    -0.248 NA
ATOM     41  C   UNL A   1      37.355  31.617  31.528  1.00  0.00     0.031 C 
ATOM     42  C   UNL A   1      38.817  28.849  27.595  1.00  0.00     0.029 A 
ATOM     43  N   UNL A   1      40.101  28.781  29.423  1.00  0.00    -0.354 N 
ATOM     44  C   UNL A   1      39.093  31.106  32.921  1.00  0.00     0.074 A 
ATOM     45  C   UNL A   1      37.916  31.915  32.692  1.00  0.00     0.031 C 
ATOM     46  C   UNL A   1      39.860  28.048  27.324  1.00  0.00     0.029 A 
ATOM     47  C   UNL A   1      40.721  27.970  28.500  1.00  0.00     0.049 A 
ATOM     48  H   UNL A   1      40.465  28.949  30.322  1.00  0.00     0.167 HD
ATOM     49  C   UNL A   1      39.792  31.094  34.080  1.00  0.00     0.034 A 
ATOM     50  C   UNL A   1      41.842  27.230  28.602  1.00  0.00     0.034 A 
ATOM     51  C   UNL A   1      40.930  30.253  34.321  1.00  0.00     0.049 A 
ATOM     52  C   UNL A   1      42.587  27.211  29.909  1.00  0.00     0.074 A 
ATOM     53  C   UNL A   1      41.662  30.111  35.486  1.00  0.00     0.029 A 
ATOM     54  N   UNL A   1      41.499  29.408  33.382  1.00  0.00    -0.354 N 
ATOM     55  N   UNL A   1      42.288  27.814  31.035  1.00  0.00    -0.248 NA
ATOM     56  C   UNL A   1      43.802  26.386  29.974  1.00  0.00     0.031 C 
ATOM     57  C   UNL A   1      42.677  29.177  35.249  1.00  0.00     0.029 A 
ATOM     58  C   UNL A   1      42.575  28.739  33.938  1.00  0.00     0.049 A 
ATOM     59  H   UNL A   1      41.183  29.299  32.455  1.00  0.00     0.167 HD
ATOM     60  C   UNL A   1      43.260  27.424  31.948  1.00  0.00     0.074 A 
ATOM     61  C   UNL A   1      44.147  26.515  31.249  1.00  0.00     0.031 C 
ATOM     62  C   UNL A   1      43.415  27.798  33.241  1.00  0.00     0.034 A 
BRANCH  49  63
ATOM     63  C   UNL A   1      39.277  31.950  35.205  1.00  0.00     0.023 A 
ATOM     64  C   UNL A   1      38.279  31.427  36.053  1.00  0.00     0.012 A 
ATOM     65  C   UNL A   1      39.793  33.235  35.452  1.00  0.00     0.148 A 
ATOM     66  C   UNL A   1      37.779  32.181  37.112  1.00  0.00     0.002 A 
ATOM     67  C   UNL A   1      39.314  33.968  36.533  1.00  0.00     0.091 A 
ATOM     68  F   UNL A   1      40.721  33.727  34.619  1.00  0.00    -0.205 F 
ATOM     69  C   UNL A   1      38.303  33.447  37.357  1.00  0.00     0.022 A 
BRANCH  67  70
ATOM     70  S   UNL A   1      39.973  35.583  36.967  1.00  0.00     0.127 S 
ATOM     71  O   UNL A   1      39.261  35.867  38.211  1.00  0.00    -0.237 OA
ATOM     72  O   UNL A   1      41.401  35.306  37.129  1.00  0.00    -0.237 OA
ATOM     73  O   UNL A   1      39.653  36.453  35.843  1.00  0.00    -0.744 OA
ENDBRANCH  67  70
ENDBRANCH  49  63
BRANCH  50  74
ATOM     74  C   UNL A   1      42.246  26.348  27.469  1.00  0.00     0.023 A 
ATOM     75  C   UNL A   1      43.114  26.864  26.487  1.00  0.00     0.012 A 
ATOM     76  C   UNL A   1      41.845  25.001  27.392  1.00  0.00     0.148 A 
ATOM     77  C   UNL A   1      43.564  26.060  25.440  1.00  0.00     0.002 A 
ATOM     78  C   UNL A   1      42.335  24.191  26.372  1.00  0.00     0.091 A 
ATOM     79  F   UNL A   1      41.009  24.532  28.330  1.00  0.00    -0.205 F 
ATOM     80  C   UNL A   1      43.185  24.722  25.389  1.00  0.00     0.022 A 
BRANCH  78  81
ATOM     81  S   UNL A   1      42.006  22.426  26.300  1.00  0.00     0.127 S 
ATOM     82  O   UNL A   1      42.677  22.047  25.059  1.00  0.00    -0.237 OA
ATOM     83  O   UNL A   1      42.652  21.945  27.522  1.00  0.00    -0.237 OA
ATOM     84  O   UNL A   1      40.554  22.299  26.300  1.00  0.00    -0.744 OA
ENDBRANCH  78  81
ENDBRANCH  50  74
BRANCH  62  85
ATOM     85  C   UNL A   1      44.585  27.236  34.003  1.00  0.00     0.023 A 
ATOM     86  C   UNL A   1      45.796  27.955  34.025  1.00  0.00     0.012 A 
ATOM     87  C   UNL A   1      44.447  26.080  34.795  1.00  0.00     0.148 A 
ATOM     88  C   UNL A   1      46.858  27.526  34.819  1.00  0.00     0.002 A 
ATOM     89  C   UNL A   1      45.496  25.682  35.616  1.00  0.00     0.091 A 
ATOM     90  F   UNL A   1      43.292  25.402  34.744  1.00  0.00    -0.205 F 
ATOM     91  C   UNL A   1      46.703  26.400  35.624  1.00  0.00     0.022 A 
BRANCH  89  92
ATOM     92  S   UNL A   1      45.354  24.301  36.758  1.00  0.00     0.127 S 
ATOM     93  O   UNL A   1      44.382  24.812  37.723  1.00  0.00    -0.237 OA
ATOM     94  O   UNL A   1      44.852  23.232  35.894  1.00  0.00    -0.237 OA
ATOM     95  O   UNL A   1      46.695  24.075  37.279  1.00  0.00    -0.744 OA
ENDBRANCH  89  92
ENDBRANCH  62  85
ENDBRANCH  36  37
ENDBRANCH  28  31
ENDBRANCH  26  27
ENDBRANCH   1  26
TORSDOF 15
ENDMDL
MODEL 2
REMARK VINA RESULT:     -12.5      1.807      2.364
REMARK SMILES Cc1c(Br)c(C)c2c(c1Br)O[C@H](C(F)(F)F)C(C(=O)NCCCCNC(=O)c1ccc(-c3c4nc(c(-c5cccc(S(=O)(=O)[O-])c5F)c5ccc([nH]5)c(-c5cccc(S(=O)(=O)[O-])c5F)c5nc(c(-c6cccc(S(=O)(=O)[O-])c6F)c6ccc3[nH]6)C=C5)C=C4)cc1)=C2
REMARK SMILES IDX 23 1 22 2 21 3 20 4 18 5 19 6 17 8 1 9 2 10 3 11 9 12 4 13
REMARK SMILES IDX 5 14 8 15 10 16 6 17 7 18 11 19 91 20 12 21 13 22 14 23
REMARK SMILES IDX 15 24 16 25 24 26 25 27 26 28 27 30 28 31 29 32 90 33 30 34
REMARK SMILES IDX 89 35 31 36 32 37 33 38 83 39 34 40 88 41 82 42 84 43 35 44
REMARK SMILES IDX 87 45 81 46 80 47 36 49 68 50 48 51 67 52 49 53 52 54 66 55
REMARK SMILES IDX 85 56 50 57 51 58 65 60 86 61 53 62 37 63 38 64 46 65 39 66
REMARK SMILES IDX 41 67 47 68 40 69 42 70 43 71 44 72 45 73 69 74 70 75 78 76
REMARK SMILES IDX 71 77 73 78 79 79 72 80 74 81 75 82 76 83 77 84 54 85 55 86
REMARK SMILES IDX 63 87 56 88 58 89 64 90 57 91 59 92 60 93 61 94 62 95
REMARK H PARENT 20 7 25 29 84 48 52 59
REMARK Flexibility Score: inf
ROOT
ATOM      1  C   UNL A   1      31.526  30.824  26.296  1.00  0.00     0.023 C 
ENDROOT
BRANCH   1   2
ATOM      2  C   UNL A   1      31.847  29.836  25.173  1.00  0.00     0.023 C 
BRANCH   2   3
ATOM      3  C   UNL A   1      33.324  29.467  25.070  1.00  0.00     0.116 C 
BRANCH   3   4
ATOM      4  N   UNL A   1      33.677  28.997  23.743  1.00  0.00    -0.352 N 
ATOM      5  C   UNL A   1      33.710  27.810  23.094  1.00  0.00     0.251 C 
ATOM      6  O   UNL A   1      34.086  27.859  21.918  1.00  0.00    -0.270 OA
ATOM      7  H   UNL A   1      33.969  29.736  23.161  1.00  0.00     0.163 HD
BRANCH   5   8
ATOM      8  C   UNL A   1      33.328  26.493  23.684  1.00  0.00     0.067 C 
ATOM      9  C   UNL A   1      33.085  20.447  26.218  1.00  0.00     0.047 C 
ATOM     10  C   UNL A   1      33.459  21.759  25.567  1.00  0.00    -0.019 A 
ATOM     11  C   UNL A   1      34.722  21.993  24.968  1.00  0.00     0.025 A 
ATOM     12  C   UNL A   1      32.511  22.803  25.542  1.00  0.00     0.064 A 
ATOM     13  Br  UNL A   1      36.044  20.600  24.991  1.00  0.00    -0.050 Br
ATOM     14  C   UNL A   1      35.036  23.240  24.363  1.00  0.00    -0.026 A 
ATOM     15  C   UNL A   1      32.813  24.042  24.959  1.00  0.00     0.142 A 
ATOM     16  Br  UNL A   1      30.764  22.562  26.298  1.00  0.00    -0.046 Br
ATOM     17  C   UNL A   1      36.376  23.514  23.714  1.00  0.00     0.046 C 
ATOM     18  C   UNL A   1      34.069  24.275  24.387  1.00  0.00     0.022 A 
ATOM     19  O   UNL A   1      31.860  25.025  25.023  1.00  0.00    -0.474 OA
ATOM     20  C   UNL A   1      34.338  25.622  23.865  1.00  0.00     0.026 C 
ATOM     21  C   UNL A   1      31.932  26.086  24.035  1.00  0.00     0.314 C 
BRANCH  21  22
ATOM     22  C   UNL A   1      31.089  25.710  22.804  1.00  0.00     0.429 C 
ATOM     23  F   UNL A   1      30.007  24.980  23.174  1.00  0.00    -0.167 F 
ATOM     24  F   UNL A   1      30.615  26.795  22.149  1.00  0.00    -0.167 F 
ATOM     25  F   UNL A   1      31.783  24.976  21.904  1.00  0.00    -0.167 F 
ENDBRANCH  21  22
ENDBRANCH   5   8
ENDBRANCH   3   4
ENDBRANCH   2   3
ENDBRANCH   1   2
BRANCH   1  26
ATOM     26  C   UNL A   1      32.704  31.213  27.189  1.00  0.00     0.116 C 
BRANCH  26  27
ATOM     27  N   UNL A   1      32.794  32.643  27.459  1.00  0.00    -0.352 N 
ATOM     28  C   UNL A   1      33.856  33.330  27.999  1.00  0.00     0.251 C 
ATOM     29  H   UNL A   1      32.003  33.180  27.226  1.00  0.00     0.163 HD
ATOM     30  O   UNL A   1      33.779  34.532  28.228  1.00  0.00    -0.269 OA
BRANCH  28  31
ATOM     31  C   UNL A   1      35.074  32.572  28.340  1.00  0.00     0.039 A 
ATOM     32  C   UNL A   1      36.313  33.203  28.216  1.00  0.00     0.014 A 
ATOM     33  C   UNL A   1      34.969  31.292  28.890  1.00  0.00     0.014 A 
ATOM     34  C   UNL A   1      37.449  32.574  28.724  1.00  0.00     0.010 A 
ATOM     35  C   UNL A   1      36.092  30.697  29.451  1.00  0.00     0.010 A 
ATOM     36  C   UNL A   1      37.338  31.337  29.381  1.00  0.00    -0.014 A 
BRANCH  36  37
ATOM     37  C   UNL A   1      38.517  30.719  30.032  1.00  0.00     0.031 A 
ATOM     38  C   UNL A   1      38.920  31.132  31.416  1.00  0.00     0.074 A 
ATOM     39  C   UNL A   1      39.258  29.827  29.344  1.00  0.00     0.049 A 
ATOM     40  N   UNL A   1      39.902  30.684  32.152  1.00  0.00    -0.248 NA
ATOM     41  C   UNL A   1      38.132  32.201  32.050  1.00  0.00     0.031 C 
ATOM     42  C   UNL A   1      39.013  29.412  27.961  1.00  0.00     0.029 A 
ATOM     43  N   UNL A   1      40.371  29.112  29.712  1.00  0.00    -0.354 N 
ATOM     44  C   UNL A   1      39.858  31.421  33.327  1.00  0.00     0.074 A 
ATOM     45  C   UNL A   1      38.787  32.382  33.188  1.00  0.00     0.031 C 
ATOM     46  C   UNL A   1      39.927  28.494  27.609  1.00  0.00     0.029 A 
ATOM     47  C   UNL A   1      40.830  28.263  28.732  1.00  0.00     0.049 A 
ATOM     48  H   UNL A   1      40.800  29.200  30.593  1.00  0.00     0.167 HD
ATOM     49  C   UNL A   1      40.609  31.277  34.444  1.00  0.00     0.034 A 
ATOM     50  C   UNL A   1      41.849  27.381  28.748  1.00  0.00     0.034 A 
ATOM     51  C   UNL A   1      41.639  30.287  34.596  1.00  0.00     0.049 A 
ATOM     52  C   UNL A   1      42.652  27.219  30.010  1.00  0.00     0.074 A 
ATOM     53  C   UNL A   1      42.406  30.010  35.713  1.00  0.00     0.029 A 
ATOM     54  N   UNL A   1      42.042  29.410  33.601  1.00  0.00    -0.354 N 
ATOM     55  N   UNL A   1      42.493  27.814  31.168  1.00  0.00    -0.248 NA
ATOM     56  C   UNL A   1      43.750  26.242  29.982  1.00  0.00     0.031 C 
ATOM     57  C   UNL A   1      43.276  28.962  35.392  1.00  0.00     0.029 A 
ATOM     58  C   UNL A   1      43.049  28.589  34.076  1.00  0.00     0.049 A 
ATOM     59  H   UNL A   1      41.667  29.376  32.691  1.00  0.00     0.167 HD
ATOM     60  C   UNL A   1      43.452  27.269  32.013  1.00  0.00     0.074 A 
ATOM     61  C   UNL A   1      44.175  26.279  31.240  1.00  0.00     0.031 C 
ATOM     62  C   UNL A   1      43.721  27.573  33.306  1.00  0.00     0.034 A 
BRANCH  49  63
ATOM     63  C   UNL A   1      40.270  32.150  35.620  1.00  0.00     0.023 A 
ATOM     64  C   UNL A   1      41.063  33.289  35.871  1.00  0.00     0.012 A 
ATOM     65  C   UNL A   1      39.166  31.879  36.449  1.00  0.00     0.148 A 
ATOM     66  C   UNL A   1      40.781  34.129  36.945  1.00  0.00     0.002 A 
ATOM     67  C   UNL A   1      38.868  32.742  37.497  1.00  0.00     0.091 A 
ATOM     68  F   UNL A   1      38.441  30.776  36.213  1.00  0.00    -0.205 F 
ATOM     69  C   UNL A   1      39.679  33.861  37.752  1.00  0.00     0.022 A 
BRANCH  67  70
ATOM     70  S   UNL A   1      37.432  32.515  38.553  1.00  0.00     0.127 S 
ATOM     71  O   UNL A   1      36.351  32.969  37.681  1.00  0.00    -0.237 OA
ATOM     72  O   UNL A   1      37.451  31.072  38.800  1.00  0.00    -0.237 OA
ATOM     73  O   UNL A   1      37.678  33.332  39.733  1.00  0.00    -0.744 OA
ENDBRANCH  67  70
ENDBRANCH  49  63
BRANCH  50  74
ATOM     74  C   UNL A   1      42.075  26.496  27.569  1.00  0.00     0.023 A 
ATOM     75  C   UNL A   1      42.806  27.000  26.476  1.00  0.00     0.012 A 
ATOM     76  C   UNL A   1      41.642  25.157  27.548  1.00  0.00     0.148 A 
ATOM     77  C   UNL A   1      43.091  26.191  25.376  1.00  0.00     0.002 A 
ATOM     78  C   UNL A   1      41.970  24.342  26.469  1.00  0.00     0.091 A 
ATOM     79  F   UNL A   1      40.937  24.700  28.593  1.00  0.00    -0.205 F 
ATOM     80  C   UNL A   1      42.684  24.861  25.377  1.00  0.00     0.022 A 
BRANCH  78  81
ATOM     81  S   UNL A   1      41.602  22.583  26.441  1.00  0.00     0.127 S 
ATOM     82  O   UNL A   1      42.292  22.152  25.229  1.00  0.00    -0.237 OA
ATOM     83  O   UNL A   1      42.208  22.125  27.692  1.00  0.00    -0.237 OA
ATOM     84  O   UNL A   1      40.148  22.489  26.411  1.00  0.00    -0.744 OA
ENDBRANCH  78  81
ENDBRANCH  50  74
BRANCH  62  85
ATOM     85  C   UNL A   1      44.846  26.838  33.984  1.00  0.00     0.023 A 
ATOM     86  C   UNL A   1      46.100  27.469  34.108  1.00  0.00     0.012 A 
ATOM     87  C   UNL A   1      44.629  25.594  34.607  1.00  0.00     0.148 A 
ATOM     88  C   UNL A   1      47.124  26.867  34.837  1.00  0.00     0.002 A 
ATOM     89  C   UNL A   1      45.642  25.019  35.366  1.00  0.00     0.091 A 
ATOM     90  F   UNL A   1      43.433  25.004  34.460  1.00  0.00    -0.205 F 
ATOM     91  C   UNL A   1      46.891  25.652  35.476  1.00  0.00     0.022 A 
BRANCH  89  92
ATOM     92  S   UNL A   1      45.401  23.506  36.304  1.00  0.00     0.127 S 
ATOM     93  O   UNL A   1      45.000  24.024  37.610  1.00  0.00    -0.237 OA
ATOM     94  O   UNL A   1      44.333  22.841  35.556  1.00  0.00    -0.237 OA
ATOM     95  O   UNL A   1      46.681  22.810  36.273  1.00  0.00    -0.744 OA
ENDBRANCH  89  92
ENDBRANCH  62  85
ENDBRANCH  36  37
ENDBRANCH  28  31
ENDBRANCH  26  27
ENDBRANCH   1  26
TORSDOF 15
ENDMDL
MODEL 3
REMARK VINA RESULT:     -12.2      5.485     10.312
REMARK SMILES Cc1c(Br)c(C)c2c(c1Br)O[C@H](C(F)(F)F)C(C(=O)NCCCCNC(=O)c1ccc(-c3c4nc(c(-c5cccc(S(=O)(=O)[O-])c5F)c5ccc([nH]5)c(-c5cccc(S(=O)(=O)[O-])c5F)c5nc(c(-c6cccc(S(=O)(=O)[O-])c6F)c6ccc3[nH]6)C=C5)C=C4)cc1)=C2
REMARK SMILES IDX 23 1 22 2 21 3 20 4 18 5 19 6 17 8 1 9 2 10 3 11 9 12 4 13
REMARK SMILES IDX 5 14 8 15 10 16 6 17 7 18 11 19 91 20 12 21 13 22 14 23
REMARK SMILES IDX 15 24 16 25 24 26 25 27 26 28 27 30 28 31 29 32 90 33 30 34
REMARK SMILES IDX 89 35 31 36 32 37 33 38 83 39 34 40 88 41 82 42 84 43 35 44
REMARK SMILES IDX 87 45 81 46 80 47 36 49 68 50 48 51 67 52 49 53 52 54 66 55
REMARK SMILES IDX 85 56 50 57 51 58 65 60 86 61 53 62 37 63 38 64 46 65 39 66
REMARK SMILES IDX 41 67 47 68 40 69 42 70 43 71 44 72 45 73 69 74 70 75 78 76
REMARK SMILES IDX 71 77 73 78 79 79 72 80 74 81 75 82 76 83 77 84 54 85 55 86
REMARK SMILES IDX 63 87 56 88 58 89 64 90 57 91 59 92 60 93 61 94 62 95
REMARK H PARENT 20 7 25 29 84 48 52 59
REMARK Flexibility Score: inf
ROOT
ATOM      1  C   UNL A   1      37.777  21.001  24.961  1.00  0.00     0.023 C 
ENDROOT
BRANCH   1   2
ATOM      2  C   UNL A   1      37.058  22.337  24.763  1.00  0.00     0.023 C 
BRANCH   2   3
ATOM      3  C   UNL A   1      36.874  23.143  26.046  1.00  0.00     0.116 C 
BRANCH   3   4
ATOM      4  N   UNL A   1      35.686  22.740  26.776  1.00  0.00    -0.352 N 
ATOM      5  C   UNL A   1      34.359  23.000  26.721  1.00  0.00     0.251 C 
ATOM      6  O   UNL A   1      33.669  22.418  27.565  1.00  0.00    -0.270 OA
ATOM      7  H   UNL A   1      35.902  22.112  27.503  1.00  0.00     0.163 HD
BRANCH   5   8
ATOM      8  C   UNL A   1      33.698  23.906  25.736  1.00  0.00     0.067 C 
ATOM      9  C   UNL A   1      31.065  28.912  22.413  1.00  0.00     0.047 C 
ATOM     10  C   UNL A   1      31.682  27.979  23.430  1.00  0.00    -0.019 A 
ATOM     11  C   UNL A   1      31.893  28.342  24.785  1.00  0.00     0.025 A 
ATOM     12  C   UNL A   1      32.062  26.683  23.026  1.00  0.00     0.064 A 
ATOM     13  Br  UNL A   1      31.401  30.103  25.372  1.00  0.00    -0.050 Br
ATOM     14  C   UNL A   1      32.473  27.436  25.713  1.00  0.00    -0.026 A 
ATOM     15  C   UNL A   1      32.647  25.784  23.929  1.00  0.00     0.142 A 
ATOM     16  Br  UNL A   1      31.780  26.095  21.221  1.00  0.00    -0.046 Br
ATOM     17  C   UNL A   1      32.707  27.798  27.164  1.00  0.00     0.046 C 
ATOM     18  C   UNL A   1      32.871  26.154  25.260  1.00  0.00     0.022 A 
ATOM     19  O   UNL A   1      33.038  24.562  23.448  1.00  0.00    -0.474 OA
ATOM     20  C   UNL A   1      33.558  25.187  26.126  1.00  0.00     0.026 C 
ATOM     21  C   UNL A   1      33.163  23.479  24.406  1.00  0.00     0.314 C 
BRANCH  21  22
ATOM     22  C   UNL A   1      31.830  22.719  24.510  1.00  0.00     0.429 C 
ATOM     23  F   UNL A   1      31.078  22.922  23.399  1.00  0.00    -0.167 F 
ATOM     24  F   UNL A   1      32.001  21.381  24.618  1.00  0.00    -0.167 F 
ATOM     25  F   UNL A   1      31.091  23.110  25.574  1.00  0.00    -0.167 F 
ENDBRANCH  21  22
ENDBRANCH   5   8
ENDBRANCH   3   4
ENDBRANCH   2   3
ENDBRANCH   1   2
BRANCH   1  26
ATOM     26  C   UNL A   1      38.934  21.017  25.960  1.00  0.00     0.116 C 
BRANCH  26  27
ATOM     27  N   UNL A   1      39.844  19.886  25.829  1.00  0.00    -0.352 N 
ATOM     28  C   UNL A   1      41.208  19.879  26.007  1.00  0.00     0.251 C 
ATOM     29  H   UNL A   1      39.434  19.024  25.586  1.00  0.00     0.163 HD
ATOM     30  O   UNL A   1      41.865  18.864  25.807  1.00  0.00    -0.269 OA
BRANCH  28  31
ATOM     31  C   UNL A   1      41.865  21.141  26.396  1.00  0.00     0.039 A 
ATOM     32  C   UNL A   1      42.183  22.066  25.401  1.00  0.00     0.014 A 
ATOM     33  C   UNL A   1      42.049  21.443  27.748  1.00  0.00     0.014 A 
ATOM     34  C   UNL A   1      42.615  23.339  25.771  1.00  0.00     0.010 A 
ATOM     35  C   UNL A   1      42.420  22.732  28.114  1.00  0.00     0.010 A 
ATOM     36  C   UNL A   1      42.696  23.692  27.129  1.00  0.00    -0.014 A 
BRANCH  36  37
ATOM     37  C   UNL A   1      43.035  25.077  27.531  1.00  0.00     0.031 A 
ATOM     38  C   UNL A   1      44.440  25.583  27.390  1.00  0.00     0.074 A 
ATOM     39  C   UNL A   1      42.082  25.857  28.080  1.00  0.00     0.049 A 
ATOM     40  N   UNL A   1      44.916  26.768  27.663  1.00  0.00    -0.248 NA
ATOM     41  C   UNL A   1      45.447  24.629  26.897  1.00  0.00     0.031 C 
ATOM     42  C   UNL A   1      40.702  25.444  28.346  1.00  0.00     0.029 A 
ATOM     43  N   UNL A   1      42.130  27.156  28.520  1.00  0.00    -0.354 N 
ATOM     44  C   UNL A   1      46.274  26.701  27.388  1.00  0.00     0.074 A 
ATOM     45  C   UNL A   1      46.559  25.345  26.976  1.00  0.00     0.031 C 
ATOM     46  C   UNL A   1      40.027  26.479  28.872  1.00  0.00     0.029 A 
ATOM     47  C   UNL A   1      40.926  27.623  28.993  1.00  0.00     0.049 A 
ATOM     48  H   UNL A   1      42.948  27.702  28.498  1.00  0.00     0.167 HD
ATOM     49  C   UNL A   1      47.194  27.693  27.426  1.00  0.00     0.034 A 
ATOM     50  C   UNL A   1      40.581  28.843  29.450  1.00  0.00     0.034 A 
ATOM     51  C   UNL A   1      46.896  29.050  27.787  1.00  0.00     0.049 A 
ATOM     52  C   UNL A   1      41.614  29.937  29.456  1.00  0.00     0.074 A 
ATOM     53  C   UNL A   1      47.741  30.146  27.784  1.00  0.00     0.029 A 
ATOM     54  N   UNL A   1      45.655  29.499  28.212  1.00  0.00    -0.354 N 
ATOM     55  N   UNL A   1      42.858  29.896  29.041  1.00  0.00    -0.248 NA
ATOM     56  C   UNL A   1      41.192  31.252  29.959  1.00  0.00     0.031 C 
ATOM     57  C   UNL A   1      47.007  31.259  28.209  1.00  0.00     0.029 A 
ATOM     58  C   UNL A   1      45.709  30.856  28.476  1.00  0.00     0.049 A 
ATOM     59  H   UNL A   1      44.854  28.935  28.311  1.00  0.00     0.167 HD
ATOM     60  C   UNL A   1      43.360  31.181  29.209  1.00  0.00     0.074 A 
ATOM     61  C   UNL A   1      42.278  31.984  29.744  1.00  0.00     0.031 C 
ATOM     62  C   UNL A   1      44.607  31.649  28.959  1.00  0.00     0.034 A 
BRANCH  49  63
ATOM     63  C   UNL A   1      48.587  27.359  26.968  1.00  0.00     0.023 A 
ATOM     64  C   UNL A   1      49.479  26.766  27.886  1.00  0.00     0.012 A 
ATOM     65  C   UNL A   1      49.006  27.588  25.645  1.00  0.00     0.148 A 
ATOM     66  C   UNL A   1      50.777  26.434  27.503  1.00  0.00     0.002 A 
ATOM     67  C   UNL A   1      50.291  27.221  25.260  1.00  0.00     0.091 A 
ATOM     68  F   UNL A   1      48.155  28.179  24.795  1.00  0.00    -0.205 F 
ATOM     69  C   UNL A   1      51.179  26.652  26.189  1.00  0.00     0.022 A 
BRANCH  67  70
ATOM     70  S   UNL A   1      50.879  27.405  23.572  1.00  0.00     0.127 S 
ATOM     71  O   UNL A   1      49.831  26.719  22.819  1.00  0.00    -0.237 OA
ATOM     72  O   UNL A   1      50.899  28.858  23.404  1.00  0.00    -0.237 OA
ATOM     73  O   UNL A   1      52.193  26.777  23.543  1.00  0.00    -0.744 OA
ENDBRANCH  67  70
ENDBRANCH  49  63
BRANCH  50  74
ATOM     74  C   UNL A   1      39.162  29.119  29.814  1.00  0.00     0.023 A 
ATOM     75  C   UNL A   1      38.730  28.827  31.122  1.00  0.00     0.012 A 
ATOM     76  C   UNL A   1      38.265  29.725  28.913  1.00  0.00     0.148 A 
ATOM     77  C   UNL A   1      37.427  29.120  31.524  1.00  0.00     0.002 A 
ATOM     78  C   UNL A   1      36.982  30.058  29.335  1.00  0.00     0.091 A 
ATOM     79  F   UNL A   1      38.692  29.984  27.669  1.00  0.00    -0.205 F 
ATOM     80  C   UNL A   1      36.557  29.745  30.637  1.00  0.00     0.022 A 
BRANCH  78  81
ATOM     81  S   UNL A   1      35.836  30.982  28.304  1.00  0.00     0.127 S 
ATOM     82  O   UNL A   1      36.641  32.140  27.926  1.00  0.00    -0.237 OA
ATOM     83  O   UNL A   1      35.571  30.035  27.219  1.00  0.00    -0.237 OA
ATOM     84  O   UNL A   1      34.684  31.259  29.151  1.00  0.00    -0.744 OA
ENDBRANCH  78  81
ENDBRANCH  50  74
BRANCH  62  85
ATOM     85  C   UNL A   1      44.891  33.096  29.260  1.00  0.00     0.023 A 
ATOM     86  C   UNL A   1      45.376  33.449  30.534  1.00  0.00     0.012 A 
ATOM     87  C   UNL A   1      44.804  34.077  28.253  1.00  0.00     0.148 A 
ATOM     88  C   UNL A   1      45.764  34.759  30.805  1.00  0.00     0.002 A 
ATOM     89  C   UNL A   1      45.232  35.373  28.517  1.00  0.00     0.091 A 
ATOM     90  F   UNL A   1      44.322  33.722  27.053  1.00  0.00    -0.205 F 
ATOM     91  C   UNL A   1      45.706  35.716  29.794  1.00  0.00     0.022 A 
BRANCH  89  92
ATOM     92  S   UNL A   1      45.284  36.647  27.251  1.00  0.00     0.127 S 
ATOM     93  O   UNL A   1      45.972  35.957  26.162  1.00  0.00    -0.237 OA
ATOM     94  O   UNL A   1      43.864  36.905  27.009  1.00  0.00    -0.237 OA
ATOM     95  O   UNL A   1      46.007  37.766  27.841  1.00  0.00    -0.744 OA
ENDBRANCH  89  92
ENDBRANCH  62  85
ENDBRANCH  36  37
ENDBRANCH  28  31
ENDBRANCH  26  27
ENDBRANCH   1  26
TORSDOF 15
ENDMDL
