MODEL 1
REMARK VINA RESULT:     -12.2      0.000      0.000
REMARK SMILES COc1ccccc1CCNC(=O)[C@@H]1[C@@H](C(=O)NCCCCNC(=O)c2ccc(-c3c4nc(c(-c5cccc(S(=O)(=O)[O-])c5F)c5ccc([nH]5)c(-c5cccc(S(=O)(=O)[O-])c5F)c5nc(c(-c6cccc(S(=O)(=O)[O-])c6F)c6ccc3[nH]6)C=C5)C=C4)cc2)[C@H]2C=C[C@@H]1CC2
REMARK SMILES IDX 19 1 18 2 16 3 17 4 15 6 14 7 92 8 89 9 91 10 93 11 90 12
REMARK SMILES IDX 94 13 12 14 11 15 13 17 10 18 9 19 8 20 3 21 4 22 5 23 7 24
REMARK SMILES IDX 6 25 2 26 1 27 20 28 21 29 22 30 23 31 24 32 25 34 26 35
REMARK SMILES IDX 27 36 88 37 28 38 87 39 29 40 30 41 31 42 81 43 32 44 86 45
REMARK SMILES IDX 80 46 82 47 33 48 85 49 79 50 78 51 34 53 66 54 46 55 65 56
REMARK SMILES IDX 47 57 50 58 64 59 83 60 48 61 49 62 63 64 84 65 51 66 35 67
REMARK SMILES IDX 36 68 44 69 37 70 39 71 45 72 38 73 40 74 41 75 42 76 43 77
REMARK SMILES IDX 67 78 68 79 76 80 69 81 71 82 77 83 70 84 72 85 73 86 74 87
REMARK SMILES IDX 75 88 52 89 53 90 61 91 54 92 56 93 62 94 55 95 57 96 58 97
REMARK SMILES IDX 59 98 60 99
REMARK H PARENT 18 5 11 16 23 33 82 52 50 63
REMARK Flexibility Score: inf
ROOT
ATOM      1  C   UNL A   1      32.719  27.935  26.909  1.00  0.00     0.116 C 
ENDROOT
BRANCH   1   2
ATOM      2  N   UNL A   1      33.758  27.530  25.996  1.00  0.00    -0.356 N 
ATOM      3  C   UNL A   1      33.681  26.735  24.900  1.00  0.00     0.224 C 
ATOM      4  O   UNL A   1      34.318  27.186  23.942  1.00  0.00    -0.275 OA
ATOM      5  H   UNL A   1      34.655  27.883  26.196  1.00  0.00     0.163 HD
BRANCH   3   6
ATOM      6  C   UNL A   1      32.858  25.398  24.821  1.00  0.00     0.098 C 
ATOM      7  C   UNL A   1      32.589  24.697  26.219  1.00  0.00     0.098 C 
ATOM      8  C   UNL A   1      33.543  23.438  26.331  1.00  0.00     0.025 C 
ATOM      9  C   UNL A   1      33.719  24.403  23.939  1.00  0.00     0.025 C 
ATOM     10  C   UNL A   1      34.951  23.797  25.921  1.00  0.00    -0.027 C 
ATOM     11  C   UNL A   1      33.106  22.367  25.279  1.00  0.00     0.009 C 
ATOM     12  C   UNL A   1      35.056  24.184  24.642  1.00  0.00    -0.027 C 
ATOM     13  C   UNL A   1      33.027  23.028  23.887  1.00  0.00     0.009 C 
BRANCH   7  14
ATOM     14  C   UNL A   1      31.181  24.112  26.566  1.00  0.00     0.224 C 
ATOM     15  N   UNL A   1      30.002  24.519  26.041  1.00  0.00    -0.355 N 
ATOM     16  H   UNL A   1      29.287  23.844  26.013  1.00  0.00     0.163 HD
ATOM     17  O   UNL A   1      31.051  23.229  27.425  1.00  0.00    -0.275 OA
BRANCH  15  18
ATOM     18  C   UNL A   1      29.667  25.810  25.519  1.00  0.00     0.120 C 
BRANCH  18  19
ATOM     19  C   UNL A   1      29.452  25.817  24.008  1.00  0.00     0.060 C 
BRANCH  19  20
ATOM     20  C   UNL A   1      28.889  27.125  23.512  1.00  0.00    -0.004 A 
ATOM     21  C   UNL A   1      29.711  28.085  22.902  1.00  0.00     0.122 A 
ATOM     22  C   UNL A   1      29.197  29.313  22.481  1.00  0.00     0.047 A 
ATOM     23  C   UNL A   1      27.838  29.582  22.645  1.00  0.00     0.004 A 
ATOM     24  C   UNL A   1      27.528  27.414  23.677  1.00  0.00     0.007 A 
ATOM     25  C   UNL A   1      27.007  28.634  23.243  1.00  0.00     0.001 A 
BRANCH  21  26
ATOM     26  O   UNL A   1      31.055  27.851  22.791  1.00  0.00    -0.496 OA
ATOM     27  C   UNL A   1      31.769  29.058  22.511  1.00  0.00     0.278 C 
ENDBRANCH  21  26
ENDBRANCH  19  20
ENDBRANCH  18  19
ENDBRANCH  15  18
ENDBRANCH   7  14
ENDBRANCH   3   6
ENDBRANCH   1   2
BRANCH   1  28
ATOM     28  C   UNL A   1      31.575  28.633  26.171  1.00  0.00     0.023 C 
BRANCH  28  29
ATOM     29  C   UNL A   1      31.668  30.153  26.173  1.00  0.00     0.023 C 
BRANCH  29  30
ATOM     30  C   UNL A   1      32.824  30.697  27.007  1.00  0.00     0.116 C 
BRANCH  30  31
ATOM     31  N   UNL A   1      32.789  32.143  27.216  1.00  0.00    -0.352 N 
ATOM     32  C   UNL A   1      33.774  32.947  27.751  1.00  0.00     0.251 C 
ATOM     33  H   UNL A   1      31.961  32.599  26.940  1.00  0.00     0.163 HD
ATOM     34  O   UNL A   1      33.597  34.142  27.933  1.00  0.00    -0.269 OA
BRANCH  32  35
ATOM     35  C   UNL A   1      35.053  32.317  28.130  1.00  0.00     0.039 A 
ATOM     36  C   UNL A   1      36.197  33.111  28.220  1.00  0.00     0.014 A 
ATOM     37  C   UNL A   1      35.081  30.971  28.501  1.00  0.00     0.014 A 
ATOM     38  C   UNL A   1      37.353  32.575  28.784  1.00  0.00     0.010 A 
ATOM     39  C   UNL A   1      36.202  30.469  29.144  1.00  0.00     0.010 A 
ATOM     40  C   UNL A   1      37.345  31.268  29.301  1.00  0.00    -0.014 A 
BRANCH  40  41
ATOM     41  C   UNL A   1      38.503  30.724  30.047  1.00  0.00     0.031 A 
ATOM     42  C   UNL A   1      39.397  29.701  29.405  1.00  0.00     0.074 A 
ATOM     43  C   UNL A   1      38.678  31.070  31.337  1.00  0.00     0.049 A 
ATOM     44  N   UNL A   1      40.415  29.061  29.916  1.00  0.00    -0.248 NA
ATOM     45  C   UNL A   1      39.080  29.317  28.019  1.00  0.00     0.031 C 
ATOM     46  C   UNL A   1      37.816  31.978  32.098  1.00  0.00     0.029 A 
ATOM     47  N   UNL A   1      39.629  30.682  32.247  1.00  0.00    -0.354 N 
ATOM     48  C   UNL A   1      40.835  28.175  28.934  1.00  0.00     0.074 A 
ATOM     49  C   UNL A   1      39.934  28.326  27.812  1.00  0.00     0.031 C 
ATOM     50  C   UNL A   1      38.290  32.096  33.348  1.00  0.00     0.029 A 
ATOM     51  C   UNL A   1      39.473  31.254  33.489  1.00  0.00     0.049 A 
ATOM     52  H   UNL A   1      40.354  30.051  32.033  1.00  0.00     0.167 HD
ATOM     53  C   UNL A   1      41.900  27.339  28.945  1.00  0.00     0.034 A 
ATOM     54  C   UNL A   1      40.211  31.123  34.608  1.00  0.00     0.034 A 
ATOM     55  C   UNL A   1      42.827  27.243  30.037  1.00  0.00     0.049 A 
ATOM     56  C   UNL A   1      41.427  30.240  34.574  1.00  0.00     0.074 A 
ATOM     57  C   UNL A   1      43.994  26.505  30.116  1.00  0.00     0.029 A 
ATOM     58  N   UNL A   1      42.693  27.913  31.245  1.00  0.00    -0.354 N 
ATOM     59  N   UNL A   1      41.907  29.535  33.575  1.00  0.00    -0.248 NA
ATOM     60  C   UNL A   1      42.225  30.159  35.805  1.00  0.00     0.031 C 
ATOM     61  C   UNL A   1      44.566  26.728  31.375  1.00  0.00     0.029 A 
ATOM     62  C   UNL A   1      43.757  27.608  32.076  1.00  0.00     0.049 A 
ATOM     63  H   UNL A   1      41.951  28.517  31.476  1.00  0.00     0.167 HD
ATOM     64  C   UNL A   1      43.081  28.959  34.046  1.00  0.00     0.074 A 
ATOM     65  C   UNL A   1      43.247  29.410  35.414  1.00  0.00     0.031 C 
ATOM     66  C   UNL A   1      43.934  28.117  33.412  1.00  0.00     0.034 A 
BRANCH  53  67
ATOM     67  C   UNL A   1      42.152  26.526  27.704  1.00  0.00     0.023 A 
ATOM     68  C   UNL A   1      42.712  27.154  26.571  1.00  0.00     0.012 A 
ATOM     69  C   UNL A   1      41.855  25.152  27.653  1.00  0.00     0.148 A 
ATOM     70  C   UNL A   1      42.934  26.439  25.396  1.00  0.00     0.002 A 
ATOM     71  C   UNL A   1      42.118  24.435  26.490  1.00  0.00     0.091 A 
ATOM     72  F   UNL A   1      41.296  24.575  28.726  1.00  0.00    -0.205 F 
ATOM     73  C   UNL A   1      42.645  25.078  25.358  1.00  0.00     0.022 A 
BRANCH  71  74
ATOM     74  S   UNL A   1      41.842  22.663  26.375  1.00  0.00     0.127 S 
ATOM     75  O   UNL A   1      40.382  22.591  26.382  1.00  0.00    -0.237 OA
ATOM     76  O   UNL A   1      42.462  22.332  25.092  1.00  0.00    -0.237 OA
ATOM     77  O   UNL A   1      42.512  22.086  27.533  1.00  0.00    -0.744 OA
ENDBRANCH  71  74
ENDBRANCH  53  67
BRANCH  54  78
ATOM     78  C   UNL A   1      39.885  31.936  35.813  1.00  0.00     0.023 A 
ATOM     79  C   UNL A   1      40.619  33.114  36.058  1.00  0.00     0.012 A 
ATOM     80  C   UNL A   1      38.840  31.585  36.688  1.00  0.00     0.148 A 
ATOM     81  C   UNL A   1      40.337  33.913  37.166  1.00  0.00     0.002 A 
ATOM     82  C   UNL A   1      38.531  32.412  37.764  1.00  0.00     0.091 A 
ATOM     83  F   UNL A   1      38.159  30.456  36.446  1.00  0.00    -0.205 F 
ATOM     84  C   UNL A   1      39.288  33.568  38.013  1.00  0.00     0.022 A 
BRANCH  82  85
ATOM     85  S   UNL A   1      37.119  32.112  38.834  1.00  0.00     0.127 S 
ATOM     86  O   UNL A   1      36.061  32.847  38.147  1.00  0.00    -0.237 OA
ATOM     87  O   UNL A   1      36.997  30.655  38.775  1.00  0.00    -0.237 OA
ATOM     88  O   UNL A   1      37.506  32.625  40.141  1.00  0.00    -0.744 OA
ENDBRANCH  82  85
ENDBRANCH  54  78
BRANCH  66  89
ATOM     89  C   UNL A   1      45.144  27.650  34.175  1.00  0.00     0.023 A 
ATOM     90  C   UNL A   1      46.320  28.426  34.152  1.00  0.00     0.012 A 
ATOM     91  C   UNL A   1      45.089  26.494  34.975  1.00  0.00     0.148 A 
ATOM     92  C   UNL A   1      47.434  28.042  34.898  1.00  0.00     0.002 A 
ATOM     93  C   UNL A   1      46.189  26.141  35.750  1.00  0.00     0.091 A 
ATOM     94  F   UNL A   1      43.969  25.757  34.964  1.00  0.00    -0.205 F 
ATOM     95  C   UNL A   1      47.364  26.909  35.705  1.00  0.00     0.022 A 
BRANCH  93  96
ATOM     96  S   UNL A   1      46.149  24.752  36.887  1.00  0.00     0.127 S 
ATOM     97  O   UNL A   1      46.035  23.618  35.971  1.00  0.00    -0.237 OA
ATOM     98  O   UNL A   1      47.443  24.862  37.562  1.00  0.00    -0.237 OA
ATOM     99  O   UNL A   1      44.999  24.980  37.752  1.00  0.00    -0.744 OA
ENDBRANCH  93  96
ENDBRANCH  66  89
ENDBRANCH  40  41
ENDBRANCH  32  35
ENDBRANCH  30  31
ENDBRANCH  29  30
ENDBRANCH  28  29
ENDBRANCH   1  28
TORSDOF 19
ENDMDL
MODEL 2
REMARK VINA RESULT:     -12.1      0.627      7.364
REMARK SMILES COc1ccccc1CCNC(=O)[C@@H]1[C@@H](C(=O)NCCCCNC(=O)c2ccc(-c3c4nc(c(-c5cccc(S(=O)(=O)[O-])c5F)c5ccc([nH]5)c(-c5cccc(S(=O)(=O)[O-])c5F)c5nc(c(-c6cccc(S(=O)(=O)[O-])c6F)c6ccc3[nH]6)C=C5)C=C4)cc2)[C@H]2C=C[C@@H]1CC2
REMARK SMILES IDX 19 1 18 2 16 3 17 4 15 6 14 7 92 8 89 9 91 10 93 11 90 12
REMARK SMILES IDX 94 13 12 14 11 15 13 17 10 18 9 19 8 20 3 21 4 22 5 23 7 24
REMARK SMILES IDX 6 25 2 26 1 27 20 28 21 29 22 30 23 31 24 32 25 34 26 35
REMARK SMILES IDX 27 36 88 37 28 38 87 39 29 40 30 41 31 42 81 43 32 44 86 45
REMARK SMILES IDX 80 46 82 47 33 48 85 49 79 50 78 51 34 53 66 54 46 55 65 56
REMARK SMILES IDX 47 57 50 58 64 59 83 60 48 61 49 62 63 64 84 65 51 66 35 67
REMARK SMILES IDX 36 68 44 69 37 70 39 71 45 72 38 73 40 74 41 75 42 76 43 77
REMARK SMILES IDX 67 78 68 79 76 80 69 81 71 82 77 83 70 84 72 85 73 86 74 87
REMARK SMILES IDX 75 88 52 89 53 90 61 91 54 92 56 93 62 94 55 95 57 96 58 97
REMARK SMILES IDX 59 98 60 99
REMARK H PARENT 18 5 11 16 23 33 82 52 50 63
REMARK Flexibility Score: inf
ROOT
ATOM      1  C   UNL A   1      32.364  28.033  26.994  1.00  0.00     0.116 C 
ENDROOT
BRANCH   1   2
ATOM      2  N   UNL A   1      33.540  27.360  26.504  1.00  0.00    -0.356 N 
ATOM      3  C   UNL A   1      33.667  26.484  25.477  1.00  0.00     0.224 C 
ATOM      4  O   UNL A   1      34.659  26.716  24.776  1.00  0.00    -0.275 OA
ATOM      5  H   UNL A   1      34.375  27.567  26.984  1.00  0.00     0.163 HD
BRANCH   3   6
ATOM      6  C   UNL A   1      32.665  25.313  25.171  1.00  0.00     0.098 C 
ATOM      7  C   UNL A   1      32.006  24.646  26.452  1.00  0.00     0.098 C 
ATOM      8  C   UNL A   1      32.694  23.239  26.683  1.00  0.00     0.025 C 
ATOM      9  C   UNL A   1      33.506  24.198  24.423  1.00  0.00     0.025 C 
ATOM     10  C   UNL A   1      34.195  23.352  26.574  1.00  0.00    -0.027 C 
ATOM     11  C   UNL A   1      32.303  22.278  25.513  1.00  0.00     0.009 C 
ATOM     12  C   UNL A   1      34.618  23.737  25.362  1.00  0.00    -0.027 C 
ATOM     13  C   UNL A   1      32.618  22.965  24.168  1.00  0.00     0.009 C 
BRANCH   7  14
ATOM     14  C   UNL A   1      30.480  24.311  26.487  1.00  0.00     0.224 C 
ATOM     15  N   UNL A   1      29.521  24.899  25.736  1.00  0.00    -0.355 N 
ATOM     16  H   UNL A   1      28.725  24.353  25.548  1.00  0.00     0.163 HD
ATOM     17  O   UNL A   1      30.029  23.477  27.284  1.00  0.00    -0.275 OA
BRANCH  15  18
ATOM     18  C   UNL A   1      29.522  26.219  25.179  1.00  0.00     0.120 C 
BRANCH  18  19
ATOM     19  C   UNL A   1      29.137  26.256  23.703  1.00  0.00     0.060 C 
BRANCH  19  20
ATOM     20  C   UNL A   1      28.965  27.663  23.187  1.00  0.00    -0.004 A 
ATOM     21  C   UNL A   1      29.974  28.292  22.442  1.00  0.00     0.122 A 
ATOM     22  C   UNL A   1      29.831  29.608  22.001  1.00  0.00     0.047 A 
ATOM     23  C   UNL A   1      28.654  30.304  22.281  1.00  0.00     0.004 A 
ATOM     24  C   UNL A   1      27.793  28.377  23.468  1.00  0.00     0.007 A 
ATOM     25  C   UNL A   1      27.639  29.689  23.014  1.00  0.00     0.001 A 
BRANCH  21  26
ATOM     26  O   UNL A   1      31.153  27.636  22.213  1.00  0.00    -0.496 OA
ATOM     27  C   UNL A   1      32.271  28.408  22.658  1.00  0.00     0.278 C 
ENDBRANCH  21  26
ENDBRANCH  19  20
ENDBRANCH  18  19
ENDBRANCH  15  18
ENDBRANCH   7  14
ENDBRANCH   3   6
ENDBRANCH   1   2
BRANCH   1  28
ATOM     28  C   UNL A   1      31.741  28.917  25.913  1.00  0.00     0.023 C 
BRANCH  28  29
ATOM     29  C   UNL A   1      31.728  30.402  26.251  1.00  0.00     0.023 C 
BRANCH  29  30
ATOM     30  C   UNL A   1      32.881  30.835  27.152  1.00  0.00     0.116 C 
BRANCH  30  31
ATOM     31  N   UNL A   1      32.953  32.276  27.386  1.00  0.00    -0.352 N 
ATOM     32  C   UNL A   1      34.008  32.999  27.902  1.00  0.00     0.251 C 
ATOM     33  H   UNL A   1      32.151  32.793  27.147  1.00  0.00     0.163 HD
ATOM     34  O   UNL A   1      33.920  34.200  28.111  1.00  0.00    -0.269 OA
BRANCH  32  35
ATOM     35  C   UNL A   1      35.253  32.276  28.227  1.00  0.00     0.039 A 
ATOM     36  C   UNL A   1      36.449  32.989  28.302  1.00  0.00     0.014 A 
ATOM     37  C   UNL A   1      35.200  30.922  28.565  1.00  0.00     0.014 A 
ATOM     38  C   UNL A   1      37.582  32.362  28.818  1.00  0.00     0.010 A 
ATOM     39  C   UNL A   1      36.302  30.330  29.162  1.00  0.00     0.010 A 
ATOM     40  C   UNL A   1      37.500  31.045  29.303  1.00  0.00    -0.014 A 
BRANCH  40  41
ATOM     41  C   UNL A   1      38.640  30.407  30.001  1.00  0.00     0.031 A 
ATOM     42  C   UNL A   1      38.985  30.813  31.405  1.00  0.00     0.074 A 
ATOM     43  C   UNL A   1      39.429  29.547  29.326  1.00  0.00     0.049 A 
ATOM     44  N   UNL A   1      39.980  30.421  32.155  1.00  0.00    -0.248 NA
ATOM     45  C   UNL A   1      38.120  31.825  32.036  1.00  0.00     0.031 C 
ATOM     46  C   UNL A   1      39.252  29.152  27.926  1.00  0.00     0.029 A 
ATOM     47  N   UNL A   1      40.552  28.864  29.720  1.00  0.00    -0.354 N 
ATOM     48  C   UNL A   1      39.885  31.161  33.326  1.00  0.00     0.074 A 
ATOM     49  C   UNL A   1      38.762  32.060  33.170  1.00  0.00     0.031 C 
ATOM     50  C   UNL A   1      40.215  28.280  27.587  1.00  0.00     0.029 A 
ATOM     51  C   UNL A   1      41.092  28.072  28.734  1.00  0.00     0.049 A 
ATOM     52  H   UNL A   1      40.936  28.935  30.624  1.00  0.00     0.167 HD
ATOM     53  C   UNL A   1      40.638  31.074  34.448  1.00  0.00     0.034 A 
ATOM     54  C   UNL A   1      42.167  27.261  28.759  1.00  0.00     0.034 A 
ATOM     55  C   UNL A   1      41.710  30.133  34.618  1.00  0.00     0.049 A 
ATOM     56  C   UNL A   1      42.947  27.131  30.038  1.00  0.00     0.074 A 
ATOM     57  C   UNL A   1      42.473  29.889  35.745  1.00  0.00     0.029 A 
ATOM     58  N   UNL A   1      42.168  29.275  33.629  1.00  0.00    -0.354 N 
ATOM     59  N   UNL A   1      42.738  27.717  31.194  1.00  0.00    -0.248 NA
ATOM     60  C   UNL A   1      44.087  26.203  30.031  1.00  0.00     0.031 C 
ATOM     61  C   UNL A   1      43.396  28.883  35.437  1.00  0.00     0.029 A 
ATOM     62  C   UNL A   1      43.203  28.498  34.119  1.00  0.00     0.049 A 
ATOM     63  H   UNL A   1      41.809  29.225  32.713  1.00  0.00     0.167 HD
ATOM     64  C   UNL A   1      43.696  27.202  32.059  1.00  0.00     0.074 A 
ATOM     65  C   UNL A   1      44.474  26.245  31.298  1.00  0.00     0.031 C 
ATOM     66  C   UNL A   1      43.924  27.507  33.361  1.00  0.00     0.034 A 
BRANCH  53  67
ATOM     67  C   UNL A   1      40.268  31.971  35.598  1.00  0.00     0.023 A 
ATOM     68  C   UNL A   1      41.054  33.113  35.860  1.00  0.00     0.012 A 
ATOM     69  C   UNL A   1      39.148  31.704  36.406  1.00  0.00     0.148 A 
ATOM     70  C   UNL A   1      40.757  33.951  36.932  1.00  0.00     0.002 A 
ATOM     71  C   UNL A   1      38.833  32.569  37.450  1.00  0.00     0.091 A 
ATOM     72  F   UNL A   1      38.428  30.600  36.163  1.00  0.00    -0.205 F 
ATOM     73  C   UNL A   1      39.642  33.684  37.722  1.00  0.00     0.022 A 
BRANCH  71  74
ATOM     74  S   UNL A   1      37.375  32.341  38.475  1.00  0.00     0.127 S 
ATOM     75  O   UNL A   1      36.363  33.071  37.715  1.00  0.00    -0.237 OA
ATOM     76  O   UNL A   1      37.211  30.887  38.467  1.00  0.00    -0.237 OA
ATOM     77  O   UNL A   1      37.718  32.900  39.775  1.00  0.00    -0.744 OA
ENDBRANCH  71  74
ENDBRANCH  53  67
BRANCH  54  78
ATOM     78  C   UNL A   1      42.495  26.424  27.570  1.00  0.00     0.023 A 
ATOM     79  C   UNL A   1      43.303  26.972  26.554  1.00  0.00     0.012 A 
ATOM     80  C   UNL A   1      42.059  25.091  27.455  1.00  0.00     0.148 A 
ATOM     81  C   UNL A   1      43.647  26.219  25.432  1.00  0.00     0.002 A 
ATOM     82  C   UNL A   1      42.446  24.329  26.356  1.00  0.00     0.091 A 
ATOM     83  F   UNL A   1      41.282  24.588  28.426  1.00  0.00    -0.205 F 
ATOM     84  C   UNL A   1      43.228  24.895  25.337  1.00  0.00     0.022 A 
BRANCH  82  85
ATOM     85  S   UNL A   1      42.056  22.581  26.212  1.00  0.00     0.127 S 
ATOM     86  O   UNL A   1      42.694  22.235  24.945  1.00  0.00    -0.237 OA
ATOM     87  O   UNL A   1      42.705  22.025  27.401  1.00  0.00    -0.237 OA
ATOM     88  O   UNL A   1      40.602  22.503  26.235  1.00  0.00    -0.744 OA
ENDBRANCH  82  85
ENDBRANCH  54  78
BRANCH  66  89
ATOM     89  C   UNL A   1      45.039  26.778  34.060  1.00  0.00     0.023 A 
ATOM     90  C   UNL A   1      46.355  27.269  33.965  1.00  0.00     0.012 A 
ATOM     91  C   UNL A   1      44.771  25.661  34.874  1.00  0.00     0.148 A 
ATOM     92  C   UNL A   1      47.395  26.643  34.651  1.00  0.00     0.002 A 
ATOM     93  C   UNL A   1      45.805  25.068  35.590  1.00  0.00     0.091 A 
ATOM     94  F   UNL A   1      43.514  25.195  34.931  1.00  0.00    -0.205 F 
ATOM     95  C   UNL A   1      47.117  25.552  35.472  1.00  0.00     0.022 A 
BRANCH  93  96
ATOM     96  S   UNL A   1      45.518  23.720  36.741  1.00  0.00     0.127 S 
ATOM     97  O   UNL A   1      44.585  24.328  37.688  1.00  0.00    -0.237 OA
ATOM     98  O   UNL A   1      44.930  22.692  35.881  1.00  0.00    -0.237 OA
ATOM     99  O   UNL A   1      46.826  23.374  37.281  1.00  0.00    -0.744 OA
ENDBRANCH  93  96
ENDBRANCH  66  89
ENDBRANCH  40  41
ENDBRANCH  32  35
ENDBRANCH  30  31
ENDBRANCH  29  30
ENDBRANCH  28  29
ENDBRANCH   1  28
TORSDOF 19
ENDMDL
MODEL 3
REMARK VINA RESULT:     -11.9      5.776     10.521
REMARK SMILES COc1ccccc1CCNC(=O)[C@@H]1[C@@H](C(=O)NCCCCNC(=O)c2ccc(-c3c4nc(c(-c5cccc(S(=O)(=O)[O-])c5F)c5ccc([nH]5)c(-c5cccc(S(=O)(=O)[O-])c5F)c5nc(c(-c6cccc(S(=O)(=O)[O-])c6F)c6ccc3[nH]6)C=C5)C=C4)cc2)[C@H]2C=C[C@@H]1CC2
REMARK SMILES IDX 19 1 18 2 16 3 17 4 15 6 14 7 92 8 89 9 91 10 93 11 90 12
REMARK SMILES IDX 94 13 12 14 11 15 13 17 10 18 9 19 8 20 3 21 4 22 5 23 7 24
REMARK SMILES IDX 6 25 2 26 1 27 20 28 21 29 22 30 23 31 24 32 25 34 26 35
REMARK SMILES IDX 27 36 88 37 28 38 87 39 29 40 30 41 31 42 81 43 32 44 86 45
REMARK SMILES IDX 80 46 82 47 33 48 85 49 79 50 78 51 34 53 66 54 46 55 65 56
REMARK SMILES IDX 47 57 50 58 64 59 83 60 48 61 49 62 63 64 84 65 51 66 35 67
REMARK SMILES IDX 36 68 44 69 37 70 39 71 45 72 38 73 40 74 41 75 42 76 43 77
REMARK SMILES IDX 67 78 68 79 76 80 69 81 71 82 77 83 70 84 72 85 73 86 74 87
REMARK SMILES IDX 75 88 52 89 53 90 61 91 54 92 56 93 62 94 55 95 57 96 58 97
REMARK SMILES IDX 59 98 60 99
REMARK H PARENT 18 5 11 16 23 33 82 52 50 63
REMARK Flexibility Score: inf
ROOT
ATOM      1  C   UNL A   1      36.524  22.489  24.070  1.00  0.00     0.116 C 
ENDROOT
BRANCH   1   2
ATOM      2  N   UNL A   1      35.942  23.807  24.120  1.00  0.00    -0.356 N 
ATOM      3  C   UNL A   1      34.742  24.201  24.611  1.00  0.00     0.224 C 
ATOM      4  O   UNL A   1      34.820  25.239  25.278  1.00  0.00    -0.275 OA
ATOM      5  H   UNL A   1      36.498  24.527  23.742  1.00  0.00     0.163 HD
BRANCH   3   6
ATOM      6  C   UNL A   1      33.389  23.429  24.395  1.00  0.00     0.098 C 
ATOM      7  C   UNL A   1      32.083  24.271  24.713  1.00  0.00     0.098 C 
ATOM      8  C   UNL A   1      31.494  23.765  26.094  1.00  0.00     0.025 C 
ATOM      9  C   UNL A   1      33.424  22.195  25.389  1.00  0.00     0.025 C 
ATOM     10  C   UNL A   1      32.587  23.641  27.128  1.00  0.00    -0.027 C 
ATOM     11  C   UNL A   1      30.969  22.302  25.923  1.00  0.00     0.009 C 
ATOM     12  C   UNL A   1      33.525  22.738  26.812  1.00  0.00    -0.027 C 
ATOM     13  C   UNL A   1      32.088  21.432  25.312  1.00  0.00     0.009 C 
BRANCH   7  14
ATOM     14  C   UNL A   1      30.846  24.226  23.757  1.00  0.00     0.224 C 
ATOM     15  N   UNL A   1      29.961  25.229  23.560  1.00  0.00    -0.355 N 
ATOM     16  H   UNL A   1      29.511  25.241  22.685  1.00  0.00     0.163 HD
ATOM     17  O   UNL A   1      30.563  23.197  23.129  1.00  0.00    -0.275 OA
BRANCH  15  18
ATOM     18  C   UNL A   1      29.597  26.277  24.466  1.00  0.00     0.120 C 
BRANCH  18  19
ATOM     19  C   UNL A   1      30.294  27.602  24.174  1.00  0.00     0.060 C 
BRANCH  19  20
ATOM     20  C   UNL A   1      31.467  27.852  25.088  1.00  0.00    -0.004 A 
ATOM     21  C   UNL A   1      32.689  28.326  24.588  1.00  0.00     0.122 A 
ATOM     22  C   UNL A   1      33.787  28.516  25.428  1.00  0.00     0.047 A 
ATOM     23  C   UNL A   1      33.662  28.257  26.793  1.00  0.00     0.004 A 
ATOM     24  C   UNL A   1      31.359  27.589  26.459  1.00  0.00     0.007 A 
ATOM     25  C   UNL A   1      32.450  27.793  27.306  1.00  0.00     0.001 A 
BRANCH  21  26
ATOM     26  O   UNL A   1      32.837  28.527  23.242  1.00  0.00    -0.496 OA
ATOM     27  C   UNL A   1      33.219  27.320  22.576  1.00  0.00     0.278 C 
ENDBRANCH  21  26
ENDBRANCH  19  20
ENDBRANCH  18  19
ENDBRANCH  15  18
ENDBRANCH   7  14
ENDBRANCH   3   6
ENDBRANCH   1   2
BRANCH   1  28
ATOM     28  C   UNL A   1      37.406  22.228  25.292  1.00  0.00     0.023 C 
BRANCH  28  29
ATOM     29  C   UNL A   1      38.143  20.895  25.256  1.00  0.00     0.023 C 
BRANCH  29  30
ATOM     30  C   UNL A   1      39.409  20.872  26.107  1.00  0.00     0.116 C 
BRANCH  30  31
ATOM     31  N   UNL A   1      40.183  19.636  26.003  1.00  0.00    -0.352 N 
ATOM     32  C   UNL A   1      41.550  19.481  26.092  1.00  0.00     0.251 C 
ATOM     33  H   UNL A   1      39.664  18.814  25.851  1.00  0.00     0.163 HD
ATOM     34  O   UNL A   1      42.085  18.395  25.922  1.00  0.00    -0.269 OA
BRANCH  32  35
ATOM     35  C   UNL A   1      42.367  20.678  26.372  1.00  0.00     0.039 A 
ATOM     36  C   UNL A   1      42.903  21.396  25.303  1.00  0.00     0.014 A 
ATOM     37  C   UNL A   1      42.498  21.136  27.684  1.00  0.00     0.014 A 
ATOM     38  C   UNL A   1      43.487  22.638  25.544  1.00  0.00     0.010 A 
ATOM     39  C   UNL A   1      42.996  22.411  27.910  1.00  0.00     0.010 A 
ATOM     40  C   UNL A   1      43.486  23.178  26.842  1.00  0.00    -0.014 A 
BRANCH  40  41
ATOM     41  C   UNL A   1      43.953  24.559  27.106  1.00  0.00     0.031 A 
ATOM     42  C   UNL A   1      42.994  25.589  27.631  1.00  0.00     0.074 A 
ATOM     43  C   UNL A   1      45.209  24.907  26.763  1.00  0.00     0.049 A 
ATOM     44  N   UNL A   1      43.195  26.859  27.860  1.00  0.00    -0.248 NA
ATOM     45  C   UNL A   1      41.616  25.141  27.897  1.00  0.00     0.031 C 
ATOM     46  C   UNL A   1      46.200  24.018  26.151  1.00  0.00     0.029 A 
ATOM     47  N   UNL A   1      45.862  26.110  26.859  1.00  0.00    -0.354 N 
ATOM     48  C   UNL A   1      41.966  27.370  28.258  1.00  0.00     0.074 A 
ATOM     49  C   UNL A   1      41.014  26.282  28.195  1.00  0.00     0.031 C 
ATOM     50  C   UNL A   1      47.340  24.697  25.951  1.00  0.00     0.029 A 
ATOM     51  C   UNL A   1      47.156  26.075  26.394  1.00  0.00     0.049 A 
ATOM     52  H   UNL A   1      45.444  26.922  27.226  1.00  0.00     0.167 HD
ATOM     53  C   UNL A   1      41.664  28.621  28.678  1.00  0.00     0.034 A 
ATOM     54  C   UNL A   1      48.091  27.044  26.344  1.00  0.00     0.034 A 
ATOM     55  C   UNL A   1      42.629  29.677  28.799  1.00  0.00     0.049 A 
ATOM     56  C   UNL A   1      47.750  28.407  26.878  1.00  0.00     0.074 A 
ATOM     57  C   UNL A   1      42.455  30.952  29.306  1.00  0.00     0.029 A 
ATOM     58  N   UNL A   1      43.957  29.578  28.410  1.00  0.00    -0.354 N 
ATOM     59  N   UNL A   1      46.625  28.827  27.409  1.00  0.00    -0.248 NA
ATOM     60  C   UNL A   1      48.813  29.421  26.841  1.00  0.00     0.031 C 
ATOM     61  C   UNL A   1      43.679  31.625  29.221  1.00  0.00     0.029 A 
ATOM     62  C   UNL A   1      44.616  30.767  28.666  1.00  0.00     0.049 A 
ATOM     63  H   UNL A   1      44.371  28.778  28.010  1.00  0.00     0.167 HD
ATOM     64  C   UNL A   1      46.857  30.139  27.803  1.00  0.00     0.074 A 
ATOM     65  C   UNL A   1      48.234  30.439  27.464  1.00  0.00     0.031 C 
ATOM     66  C   UNL A   1      46.004  31.024  28.376  1.00  0.00     0.034 A 
BRANCH  53  67
ATOM     67  C   UNL A   1      40.245  28.879  29.108  1.00  0.00     0.023 A 
ATOM     68  C   UNL A   1      39.273  29.179  28.129  1.00  0.00     0.012 A 
ATOM     69  C   UNL A   1      39.864  28.813  30.460  1.00  0.00     0.148 A 
ATOM     70  C   UNL A   1      37.956  29.450  28.493  1.00  0.00     0.002 A 
ATOM     71  C   UNL A   1      38.538  29.045  30.812  1.00  0.00     0.091 A 
ATOM     72  F   UNL A   1      40.804  28.557  31.381  1.00  0.00    -0.205 F 
ATOM     73  C   UNL A   1      37.586  29.375  29.833  1.00  0.00     0.022 A 
BRANCH  71  74
ATOM     74  S   UNL A   1      37.958  28.900  32.507  1.00  0.00     0.127 S 
ATOM     75  O   UNL A   1      36.591  29.405  32.395  1.00  0.00    -0.237 OA
ATOM     76  O   UNL A   1      38.057  27.460  32.750  1.00  0.00    -0.237 OA
ATOM     77  O   UNL A   1      38.870  29.708  33.304  1.00  0.00    -0.744 OA
ENDBRANCH  71  74
ENDBRANCH  53  67
BRANCH  54  78
ATOM     78  C   UNL A   1      49.469  26.725  25.875  1.00  0.00     0.023 A 
ATOM     79  C   UNL A   1      50.321  25.988  26.722  1.00  0.00     0.012 A 
ATOM     80  C   UNL A   1      49.927  27.099  24.598  1.00  0.00     0.148 A 
ATOM     81  C   UNL A   1      51.614  25.654  26.318  1.00  0.00     0.002 A 
ATOM     82  C   UNL A   1      51.200  26.721  24.182  1.00  0.00     0.091 A 
ATOM     83  F   UNL A   1      49.106  27.808  23.810  1.00  0.00    -0.205 F 
ATOM     84  C   UNL A   1      52.050  26.011  25.045  1.00  0.00     0.022 A 
BRANCH  82  85
ATOM     85  S   UNL A   1      51.798  27.029  22.516  1.00  0.00     0.127 S 
ATOM     86  O   UNL A   1      50.645  26.645  21.707  1.00  0.00    -0.237 OA
ATOM     87  O   UNL A   1      52.073  28.467  22.553  1.00  0.00    -0.237 OA
ATOM     88  O   UNL A   1      52.985  26.199  22.368  1.00  0.00    -0.744 OA
ENDBRANCH  82  85
ENDBRANCH  54  78
BRANCH  66  89
ATOM     89  C   UNL A   1      46.537  32.392  28.704  1.00  0.00     0.023 A 
ATOM     90  C   UNL A   1      47.084  32.636  29.979  1.00  0.00     0.012 A 
ATOM     91  C   UNL A   1      46.573  33.404  27.727  1.00  0.00     0.148 A 
ATOM     92  C   UNL A   1      47.636  33.879  30.285  1.00  0.00     0.002 A 
ATOM     93  C   UNL A   1      47.165  34.627  28.025  1.00  0.00     0.091 A 
ATOM     94  F   UNL A   1      46.026  33.159  26.527  1.00  0.00    -0.205 F 
ATOM     95  C   UNL A   1      47.687  34.868  29.306  1.00  0.00     0.022 A 
BRANCH  93  96
ATOM     96  S   UNL A   1      47.356  35.920  26.794  1.00  0.00     0.127 S 
ATOM     97  O   UNL A   1      47.715  35.150  25.604  1.00  0.00    -0.237 OA
ATOM     98  O   UNL A   1      46.020  36.516  26.754  1.00  0.00    -0.237 OA
ATOM     99  O   UNL A   1      48.393  36.806  27.307  1.00  0.00    -0.744 OA
ENDBRANCH  93  96
ENDBRANCH  66  89
ENDBRANCH  40  41
ENDBRANCH  32  35
ENDBRANCH  30  31
ENDBRANCH  29  30
ENDBRANCH  28  29
ENDBRANCH   1  28
TORSDOF 19
ENDMDL
