MODEL 1
REMARK VINA RESULT:     -12.8      0.000      0.000
REMARK SMILES O=C(NCCCCNC(=O)c1[nH]ncc1C[N@H+]1CCC[C@H](C(=O)c2ccc3ccccc3c2)C1)c1ccc(-c2c3nc(c(-c4cccc(S(=O)(=O)[O-])c4F)c4ccc([nH]4)c(-c4cccc(S(=O)(=O)[O-])c4F)c4nc(c(-c5cccc(S(=O)(=O)[O-])c5F)c5ccc2[nH]5)C=C4)C=C3)cc1
REMARK SMILES IDX 6 1 5 2 4 3 3 4 1 5 2 6 35 8 36 9 97 10 37 11 96 12 38 13
REMARK SMILES IDX 39 14 40 15 90 16 41 17 95 18 89 19 91 20 42 21 94 22 88 23
REMARK SMILES IDX 87 24 43 26 75 27 55 28 74 29 56 30 59 31 73 32 92 33 57 34
REMARK SMILES IDX 58 35 72 37 93 38 60 39 44 40 45 41 53 42 46 43 48 44 54 45
REMARK SMILES IDX 47 46 49 47 50 48 51 49 52 50 76 51 77 52 85 53 78 54 80 55
REMARK SMILES IDX 86 56 79 57 81 58 82 59 83 60 84 61 61 62 62 63 70 64 63 65
REMARK SMILES IDX 65 66 71 67 64 68 66 69 67 70 68 71 69 72 7 73 8 74 9 75
REMARK SMILES IDX 10 77 11 78 12 79 15 80 13 81 14 83 16 84 17 85 18 86 34 87
REMARK SMILES IDX 19 89 21 90 20 91 22 92 23 93 24 94 25 95 33 96 26 97 32 98
REMARK SMILES IDX 27 99 31 100 28 101 30 102 29 103
REMARK H PARENT 3 7 91 25 59 36 8 76 12 82 17 88
REMARK Flexibility Score: inf
ROOT
ATOM      1  C   UNL A   1      31.646  30.710  26.725  1.00  0.00     0.023 C 
ENDROOT
BRANCH   1   2
ATOM      2  C   UNL A   1      31.615  32.237  26.708  1.00  0.00     0.023 C 
BRANCH   2   3
ATOM      3  C   UNL A   1      32.816  32.920  27.352  1.00  0.00     0.116 C 
BRANCH   3   4
ATOM      4  N   UNL A   1      32.531  34.280  27.784  1.00  0.00    -0.352 N 
ATOM      5  O   UNL A   1      32.627  36.096  29.113  1.00  0.00    -0.269 OA
ATOM      6  C   UNL A   1      33.092  35.001  28.813  1.00  0.00     0.251 C 
ATOM      7  H   UNL A   1      31.838  34.750  27.267  1.00  0.00     0.163 HD
BRANCH   6   8
ATOM      8  C   UNL A   1      34.229  34.433  29.567  1.00  0.00     0.039 A 
ATOM      9  C   UNL A   1      35.536  34.584  29.099  1.00  0.00     0.014 A 
ATOM     10  C   UNL A   1      33.980  33.723  30.744  1.00  0.00     0.014 A 
ATOM     11  C   UNL A   1      36.572  33.892  29.718  1.00  0.00     0.010 A 
ATOM     12  C   UNL A   1      35.037  33.100  31.414  1.00  0.00     0.010 A 
ATOM     13  C   UNL A   1      36.336  33.146  30.884  1.00  0.00    -0.014 A 
BRANCH  13  14
ATOM     14  C   UNL A   1      37.475  32.477  31.562  1.00  0.00     0.031 A 
ATOM     15  C   UNL A   1      38.224  31.348  30.908  1.00  0.00     0.074 A 
ATOM     16  C   UNL A   1      37.838  32.911  32.784  1.00  0.00     0.049 A 
ATOM     17  N   UNL A   1      39.264  30.691  31.351  1.00  0.00    -0.248 NA
ATOM     18  C   UNL A   1      37.747  30.893  29.592  1.00  0.00     0.031 C 
ATOM     19  C   UNL A   1      37.156  33.968  33.536  1.00  0.00     0.029 A 
ATOM     20  N   UNL A   1      38.866  32.528  33.607  1.00  0.00    -0.354 N 
ATOM     21  C   UNL A   1      39.544  29.722  30.394  1.00  0.00     0.074 A 
ATOM     22  C   UNL A   1      38.560  29.874  29.344  1.00  0.00     0.031 C 
ATOM     23  C   UNL A   1      37.802  34.172  34.692  1.00  0.00     0.029 A 
ATOM     24  C   UNL A   1      38.914  33.234  34.786  1.00  0.00     0.049 A 
ATOM     25  H   UNL A   1      39.507  31.818  33.376  1.00  0.00     0.167 HD
ATOM     26  C   UNL A   1      40.542  28.806  30.383  1.00  0.00     0.034 A 
ATOM     27  C   UNL A   1      39.755  33.135  35.833  1.00  0.00     0.034 A 
ATOM     28  C   UNL A   1      41.546  28.690  31.408  1.00  0.00     0.049 A 
ATOM     29  C   UNL A   1      40.871  32.133  35.776  1.00  0.00     0.074 A 
ATOM     30  C   UNL A   1      42.633  27.834  31.455  1.00  0.00     0.029 A 
ATOM     31  N   UNL A   1      41.588  29.450  32.567  1.00  0.00    -0.354 N 
ATOM     32  N   UNL A   1      41.193  31.314  34.804  1.00  0.00    -0.248 NA
ATOM     33  C   UNL A   1      41.756  32.057  36.946  1.00  0.00     0.031 C 
ATOM     34  C   UNL A   1      43.329  28.073  32.645  1.00  0.00     0.029 A 
ATOM     35  C   UNL A   1      42.679  29.082  33.337  1.00  0.00     0.049 A 
ATOM     36  H   UNL A   1      40.939  30.150  32.807  1.00  0.00     0.167 HD
ATOM     37  C   UNL A   1      42.325  30.637  35.236  1.00  0.00     0.074 A 
ATOM     38  C   UNL A   1      42.653  31.164  36.546  1.00  0.00     0.031 C 
ATOM     39  C   UNL A   1      43.017  29.651  34.616  1.00  0.00     0.034 A 
BRANCH  26  40
ATOM     40  C   UNL A   1      40.638  27.884  29.197  1.00  0.00     0.023 A 
ATOM     41  C   UNL A   1      39.770  26.777  29.112  1.00  0.00     0.012 A 
ATOM     42  C   UNL A   1      41.521  28.153  28.133  1.00  0.00     0.148 A 
ATOM     43  C   UNL A   1      39.793  25.939  27.996  1.00  0.00     0.002 A 
ATOM     44  C   UNL A   1      41.515  27.332  27.008  1.00  0.00     0.091 A 
ATOM     45  F   UNL A   1      42.356  29.196  28.240  1.00  0.00    -0.205 F 
ATOM     46  C   UNL A   1      40.656  26.223  26.942  1.00  0.00     0.022 A 
BRANCH  44  47
ATOM     47  S   UNL A   1      42.546  27.659  25.572  1.00  0.00     0.127 S 
ATOM     48  O   UNL A   1      42.263  26.494  24.735  1.00  0.00    -0.237 OA
ATOM     49  O   UNL A   1      41.993  28.917  25.071  1.00  0.00    -0.237 OA
ATOM     50  O   UNL A   1      43.908  27.758  26.077  1.00  0.00    -0.744 OA
ENDBRANCH  44  47
ENDBRANCH  26  40
BRANCH  27  51
ATOM     51  C   UNL A   1      39.599  34.061  36.988  1.00  0.00     0.023 A 
ATOM     52  C   UNL A   1      39.891  35.427  36.820  1.00  0.00     0.012 A 
ATOM     53  C   UNL A   1      39.095  33.612  38.224  1.00  0.00     0.148 A 
ATOM     54  C   UNL A   1      39.696  36.329  37.866  1.00  0.00     0.002 A 
ATOM     55  C   UNL A   1      38.847  34.525  39.243  1.00  0.00     0.091 A 
ATOM     56  F   UNL A   1      38.845  32.304  38.373  1.00  0.00    -0.205 F 
ATOM     57  C   UNL A   1      39.159  35.882  39.072  1.00  0.00     0.022 A 
BRANCH  55  58
ATOM     58  S   UNL A   1      38.011  34.043  40.758  1.00  0.00     0.127 S 
ATOM     59  O   UNL A   1      36.855  33.316  40.244  1.00  0.00    -0.237 OA
ATOM     60  O   UNL A   1      39.020  33.211  41.417  1.00  0.00    -0.237 OA
ATOM     61  O   UNL A   1      37.730  35.293  41.452  1.00  0.00    -0.744 OA
ENDBRANCH  55  58
ENDBRANCH  27  51
BRANCH  39  62
ATOM     62  C   UNL A   1      44.202  29.078  35.345  1.00  0.00     0.023 A 
ATOM     63  C   UNL A   1      45.482  29.619  35.112  1.00  0.00     0.012 A 
ATOM     64  C   UNL A   1      44.044  28.055  36.300  1.00  0.00     0.148 A 
ATOM     65  C   UNL A   1      46.592  29.131  35.799  1.00  0.00     0.002 A 
ATOM     66  C   UNL A   1      45.150  27.601  37.010  1.00  0.00     0.091 A 
ATOM     67  F   UNL A   1      42.821  27.537  36.489  1.00  0.00    -0.205 F 
ATOM     68  C   UNL A   1      46.425  28.132  36.754  1.00  0.00     0.022 A 
BRANCH  66  69
ATOM     69  S   UNL A   1      45.004  26.375  38.314  1.00  0.00     0.127 S 
ATOM     70  O   UNL A   1      46.043  26.807  39.247  1.00  0.00    -0.237 OA
ATOM     71  O   UNL A   1      43.635  26.580  38.789  1.00  0.00    -0.237 OA
ATOM     72  O   UNL A   1      45.229  25.088  37.671  1.00  0.00    -0.744 OA
ENDBRANCH  66  69
ENDBRANCH  39  62
ENDBRANCH  13  14
ENDBRANCH   6   8
ENDBRANCH   3   4
ENDBRANCH   2   3
ENDBRANCH   1   2
BRANCH   1  73
ATOM     73  C   UNL A   1      32.014  30.054  25.398  1.00  0.00     0.116 C 
BRANCH  73  74
ATOM     74  N   UNL A   1      30.923  30.080  24.437  1.00  0.00    -0.351 N 
ATOM     75  C   UNL A   1      30.785  29.363  23.277  1.00  0.00     0.269 C 
ATOM     76  H   UNL A   1      30.185  30.696  24.647  1.00  0.00     0.163 HD
ATOM     77  O   UNL A   1      29.899  29.672  22.486  1.00  0.00    -0.268 OA
BRANCH  75  78
ATOM     78  C   UNL A   1      31.727  28.317  23.002  1.00  0.00     0.131 A 
ATOM     79  N   UNL A   1      32.769  28.495  22.138  1.00  0.00    -0.272 N 
ATOM     80  C   UNL A   1      31.803  26.991  23.413  1.00  0.00     0.057 A 
ATOM     81  N   UNL A   1      33.619  27.456  22.094  1.00  0.00    -0.183 NA
ATOM     82  H   UNL A   1      32.887  29.310  21.597  1.00  0.00     0.190 HD
ATOM     83  C   UNL A   1      33.029  26.543  22.869  1.00  0.00     0.145 A 
BRANCH  80  84
ATOM     84  C   UNL A   1      30.819  26.235  24.250  1.00  0.00     0.303 C 
BRANCH  84  85
ATOM     85  N   UNL A   1      31.336  24.979  24.807  1.00  0.00    -0.330 N 
ATOM     86  C   UNL A   1      31.355  24.943  26.271  1.00  0.00     0.262 C 
ATOM     87  C   UNL A   1      30.736  23.783  24.222  1.00  0.00     0.274 C 
ATOM     88  H   UNL A   1      32.314  24.964  24.520  1.00  0.00     0.348 HD
ATOM     89  C   UNL A   1      32.160  23.751  26.779  1.00  0.00     0.062 C 
ATOM     90  C   UNL A   1      31.493  22.513  24.623  1.00  0.00     0.116 C 
ATOM     91  C   UNL A   1      31.748  22.430  26.130  1.00  0.00     0.023 C 
BRANCH  90  92
ATOM     92  C   UNL A   1      32.682  22.256  23.692  1.00  0.00     0.171 C 
ATOM     93  O   UNL A   1      32.578  22.401  22.472  1.00  0.00    -0.294 OA
BRANCH  92  94
ATOM     94  C   UNL A   1      34.026  21.951  24.230  1.00  0.00     0.019 A 
ATOM     95  C   UNL A   1      34.449  20.635  24.393  1.00  0.00     0.012 A 
ATOM     96  C   UNL A   1      34.900  23.011  24.495  1.00  0.00     0.020 A 
ATOM     97  C   UNL A   1      35.713  20.375  24.928  1.00  0.00     0.009 A 
ATOM     98  C   UNL A   1      36.187  22.760  25.003  1.00  0.00    -0.018 A 
ATOM     99  C   UNL A   1      36.586  21.424  25.247  1.00  0.00    -0.018 A 
ATOM    100  C   UNL A   1      37.088  23.803  25.275  1.00  0.00     0.009 A 
ATOM    101  C   UNL A   1      37.857  21.173  25.788  1.00  0.00     0.009 A 
ATOM    102  C   UNL A   1      38.355  23.534  25.799  1.00  0.00     0.001 A 
ATOM    103  C   UNL A   1      38.735  22.222  26.064  1.00  0.00     0.001 A 
ENDBRANCH  92  94
ENDBRANCH  90  92
ENDBRANCH  84  85
ENDBRANCH  80  84
ENDBRANCH  75  78
ENDBRANCH  73  74
ENDBRANCH   1  73
TORSDOF 18
ENDMDL
MODEL 2
REMARK VINA RESULT:     -12.4      3.425      8.199
REMARK SMILES O=C(NCCCCNC(=O)c1[nH]ncc1C[N@H+]1CCC[C@H](C(=O)c2ccc3ccccc3c2)C1)c1ccc(-c2c3nc(c(-c4cccc(S(=O)(=O)[O-])c4F)c4ccc([nH]4)c(-c4cccc(S(=O)(=O)[O-])c4F)c4nc(c(-c5cccc(S(=O)(=O)[O-])c5F)c5ccc2[nH]5)C=C4)C=C3)cc1
REMARK SMILES IDX 6 1 5 2 4 3 3 4 1 5 2 6 35 8 36 9 97 10 37 11 96 12 38 13
REMARK SMILES IDX 39 14 40 15 90 16 41 17 95 18 89 19 91 20 42 21 94 22 88 23
REMARK SMILES IDX 87 24 43 26 75 27 55 28 74 29 56 30 59 31 73 32 92 33 57 34
REMARK SMILES IDX 58 35 72 37 93 38 60 39 44 40 45 41 53 42 46 43 48 44 54 45
REMARK SMILES IDX 47 46 49 47 50 48 51 49 52 50 76 51 77 52 85 53 78 54 80 55
REMARK SMILES IDX 86 56 79 57 81 58 82 59 83 60 84 61 61 62 62 63 70 64 63 65
REMARK SMILES IDX 65 66 71 67 64 68 66 69 67 70 68 71 69 72 7 73 8 74 9 75
REMARK SMILES IDX 10 77 11 78 12 79 15 80 13 81 14 83 16 84 17 85 18 86 34 87
REMARK SMILES IDX 19 89 21 90 20 91 22 92 23 93 24 94 25 95 33 96 26 97 32 98
REMARK SMILES IDX 27 99 31 100 28 101 30 102 29 103
REMARK H PARENT 3 7 91 25 59 36 8 76 12 82 17 88
REMARK Flexibility Score: inf
ROOT
ATOM      1  C   UNL A   1      33.907  28.972  27.062  1.00  0.00     0.023 C 
ENDROOT
BRANCH   1   2
ATOM      2  C   UNL A   1      33.471  30.424  27.249  1.00  0.00     0.023 C 
BRANCH   2   3
ATOM      3  C   UNL A   1      34.582  31.394  27.632  1.00  0.00     0.116 C 
BRANCH   3   4
ATOM      4  N   UNL A   1      34.256  32.201  28.797  1.00  0.00    -0.352 N 
ATOM      5  O   UNL A   1      34.417  32.941  30.919  1.00  0.00    -0.269 OA
ATOM      6  C   UNL A   1      34.920  32.305  29.998  1.00  0.00     0.251 C 
ATOM      7  H   UNL A   1      33.443  32.751  28.715  1.00  0.00     0.163 HD
BRANCH   6   8
ATOM      8  C   UNL A   1      36.218  31.621  30.175  1.00  0.00     0.039 A 
ATOM      9  C   UNL A   1      36.286  30.391  30.834  1.00  0.00     0.014 A 
ATOM     10  C   UNL A   1      37.381  32.229  29.696  1.00  0.00     0.014 A 
ATOM     11  C   UNL A   1      37.526  29.850  31.153  1.00  0.00     0.010 A 
ATOM     12  C   UNL A   1      38.624  31.637  29.944  1.00  0.00     0.010 A 
ATOM     13  C   UNL A   1      38.709  30.464  30.709  1.00  0.00    -0.014 A 
BRANCH  13  14
ATOM     14  C   UNL A   1      40.016  29.824  31.005  1.00  0.00     0.031 A 
ATOM     15  C   UNL A   1      40.816  30.202  32.221  1.00  0.00     0.074 A 
ATOM     16  C   UNL A   1      40.472  28.878  30.162  1.00  0.00     0.049 A 
ATOM     17  N   UNL A   1      41.953  29.707  32.639  1.00  0.00    -0.248 NA
ATOM     18  C   UNL A   1      40.282  31.274  33.076  1.00  0.00     0.031 C 
ATOM     19  C   UNL A   1      39.803  28.462  28.927  1.00  0.00     0.029 A 
ATOM     20  N   UNL A   1      41.595  28.093  30.212  1.00  0.00    -0.354 N 
ATOM     21  C   UNL A   1      42.290  30.427  33.779  1.00  0.00     0.074 A 
ATOM     22  C   UNL A   1      41.239  31.400  33.986  1.00  0.00     0.031 C 
ATOM     23  C   UNL A   1      40.509  27.477  28.355  1.00  0.00     0.029 A 
ATOM     24  C   UNL A   1      41.702  27.222  29.153  1.00  0.00     0.049 A 
ATOM     25  H   UNL A   1      42.260  28.148  30.935  1.00  0.00     0.167 HD
ATOM     26  C   UNL A   1      43.366  30.277  34.588  1.00  0.00     0.034 A 
ATOM     27  C   UNL A   1      42.655  26.320  28.852  1.00  0.00     0.034 A 
ATOM     28  C   UNL A   1      44.385  29.276  34.404  1.00  0.00     0.049 A 
ATOM     29  C   UNL A   1      43.817  26.153  29.787  1.00  0.00     0.074 A 
ATOM     30  C   UNL A   1      45.481  29.005  35.205  1.00  0.00     0.029 A 
ATOM     31  N   UNL A   1      44.436  28.383  33.344  1.00  0.00    -0.354 N 
ATOM     32  N   UNL A   1      44.050  26.758  30.927  1.00  0.00    -0.248 NA
ATOM     33  C   UNL A   1      44.835  25.164  29.410  1.00  0.00     0.031 C 
ATOM     34  C   UNL A   1      46.198  27.952  34.627  1.00  0.00     0.029 A 
ATOM     35  C   UNL A   1      45.545  27.563  33.468  1.00  0.00     0.049 A 
ATOM     36  H   UNL A   1      43.780  28.338  32.612  1.00  0.00     0.167 HD
ATOM     37  C   UNL A   1      45.231  26.212  31.412  1.00  0.00     0.074 A 
ATOM     38  C   UNL A   1      45.649  25.205  30.458  1.00  0.00     0.031 C 
ATOM     39  C   UNL A   1      45.920  26.533  32.533  1.00  0.00     0.034 A 
BRANCH  26  40
ATOM     40  C   UNL A   1      43.476  31.180  35.788  1.00  0.00     0.023 A 
ATOM     41  C   UNL A   1      42.861  30.798  36.997  1.00  0.00     0.012 A 
ATOM     42  C   UNL A   1      44.250  32.356  35.748  1.00  0.00     0.148 A 
ATOM     43  C   UNL A   1      42.996  31.583  38.142  1.00  0.00     0.002 A 
ATOM     44  C   UNL A   1      44.408  33.117  36.903  1.00  0.00     0.091 A 
ATOM     45  F   UNL A   1      44.809  32.717  34.583  1.00  0.00    -0.205 F 
ATOM     46  C   UNL A   1      43.777  32.735  38.098  1.00  0.00     0.022 A 
BRANCH  44  47
ATOM     47  S   UNL A   1      45.450  34.581  36.957  1.00  0.00     0.127 S 
ATOM     48  O   UNL A   1      45.326  34.979  38.359  1.00  0.00    -0.237 OA
ATOM     49  O   UNL A   1      46.760  34.045  36.589  1.00  0.00    -0.237 OA
ATOM     50  O   UNL A   1      44.883  35.506  35.987  1.00  0.00    -0.744 OA
ENDBRANCH  44  47
ENDBRANCH  26  40
BRANCH  27  51
ATOM     51  C   UNL A   1      42.501  25.468  27.641  1.00  0.00     0.023 A 
ATOM     52  C   UNL A   1      43.150  25.842  26.450  1.00  0.00     0.012 A 
ATOM     53  C   UNL A   1      41.782  24.258  27.683  1.00  0.00     0.148 A 
ATOM     54  C   UNL A   1      43.074  25.031  25.316  1.00  0.00     0.002 A 
ATOM     55  C   UNL A   1      41.760  23.428  26.569  1.00  0.00     0.091 A 
ATOM     56  F   UNL A   1      41.151  23.931  28.820  1.00  0.00    -0.205 F 
ATOM     57  C   UNL A   1      42.393  23.817  25.380  1.00  0.00     0.022 A 
BRANCH  55  58
ATOM     58  S   UNL A   1      41.039  21.783  26.633  1.00  0.00     0.127 S 
ATOM     59  O   UNL A   1      41.848  21.062  25.656  1.00  0.00    -0.237 OA
ATOM     60  O   UNL A   1      41.269  21.399  28.028  1.00  0.00    -0.237 OA
ATOM     61  O   UNL A   1      39.635  21.969  26.294  1.00  0.00    -0.744 OA
ENDBRANCH  55  58
ENDBRANCH  27  51
BRANCH  39  62
ATOM     62  C   UNL A   1      47.199  25.784  32.794  1.00  0.00     0.023 A 
ATOM     63  C   UNL A   1      48.391  26.221  32.184  1.00  0.00     0.012 A 
ATOM     64  C   UNL A   1      47.235  24.695  33.685  1.00  0.00     0.148 A 
ATOM     65  C   UNL A   1      49.596  25.568  32.436  1.00  0.00     0.002 A 
ATOM     66  C   UNL A   1      48.447  24.073  33.962  1.00  0.00     0.091 A 
ATOM     67  F   UNL A   1      46.085  24.279  34.237  1.00  0.00    -0.205 F 
ATOM     68  C   UNL A   1      49.626  24.502  33.332  1.00  0.00     0.022 A 
BRANCH  66  69
ATOM     69  S   UNL A   1      48.582  22.747  35.166  1.00  0.00     0.127 S 
ATOM     70  O   UNL A   1      50.029  22.555  35.238  1.00  0.00    -0.237 OA
ATOM     71  O   UNL A   1      47.986  23.344  36.363  1.00  0.00    -0.237 OA
ATOM     72  O   UNL A   1      47.824  21.633  34.612  1.00  0.00    -0.744 OA
ENDBRANCH  66  69
ENDBRANCH  39  62
ENDBRANCH  13  14
ENDBRANCH   6   8
ENDBRANCH   3   4
ENDBRANCH   2   3
ENDBRANCH   1   2
BRANCH   1  73
ATOM     73  C   UNL A   1      32.845  28.046  26.478  1.00  0.00     0.116 C 
BRANCH  73  74
ATOM     74  N   UNL A   1      31.725  28.771  25.899  1.00  0.00    -0.351 N 
ATOM     75  C   UNL A   1      31.515  29.122  24.590  1.00  0.00     0.269 C 
ATOM     76  H   UNL A   1      31.023  29.046  26.532  1.00  0.00     0.163 HD
ATOM     77  O   UNL A   1      30.617  29.915  24.323  1.00  0.00    -0.268 OA
BRANCH  75  78
ATOM     78  C   UNL A   1      32.398  28.596  23.590  1.00  0.00     0.131 A 
ATOM     79  N   UNL A   1      33.518  29.270  23.193  1.00  0.00    -0.272 N 
ATOM     80  C   UNL A   1      32.343  27.457  22.796  1.00  0.00     0.057 A 
ATOM     81  N   UNL A   1      34.290  28.577  22.340  1.00  0.00    -0.183 NA
ATOM     82  H   UNL A   1      33.739  30.178  23.503  1.00  0.00     0.190 HD
ATOM     83  C   UNL A   1      33.575  27.476  22.100  1.00  0.00     0.145 A 
BRANCH  80  84
ATOM     84  C   UNL A   1      31.242  26.447  22.720  1.00  0.00     0.303 C 
BRANCH  84  85
ATOM     85  N   UNL A   1      31.233  25.474  23.819  1.00  0.00    -0.330 N 
ATOM     86  C   UNL A   1      30.244  25.763  24.860  1.00  0.00     0.262 C 
ATOM     87  C   UNL A   1      31.195  24.083  23.377  1.00  0.00     0.274 C 
ATOM     88  H   UNL A   1      32.143  25.596  24.265  1.00  0.00     0.348 HD
ATOM     89  C   UNL A   1      30.479  24.900  26.095  1.00  0.00     0.062 C 
ATOM     90  C   UNL A   1      31.469  23.112  24.529  1.00  0.00     0.116 C 
ATOM     91  C   UNL A   1      30.622  23.414  25.768  1.00  0.00     0.023 C 
BRANCH  90  92
ATOM     92  C   UNL A   1      32.973  22.905  24.738  1.00  0.00     0.171 C 
ATOM     93  O   UNL A   1      33.707  23.845  25.048  1.00  0.00    -0.294 OA
BRANCH  92  94
ATOM     94  C   UNL A   1      33.573  21.554  24.699  1.00  0.00     0.019 A 
ATOM     95  C   UNL A   1      34.900  21.350  25.069  1.00  0.00     0.012 A 
ATOM     96  C   UNL A   1      32.759  20.466  24.366  1.00  0.00     0.020 A 
ATOM     97  C   UNL A   1      35.449  20.067  25.000  1.00  0.00     0.009 A 
ATOM     98  C   UNL A   1      33.293  19.165  24.323  1.00  0.00    -0.018 A 
ATOM     99  C   UNL A   1      34.663  18.970  24.619  1.00  0.00    -0.018 A 
ATOM    100  C   UNL A   1      32.500  18.054  23.995  1.00  0.00     0.009 A 
ATOM    101  C   UNL A   1      35.207  17.678  24.543  1.00  0.00     0.009 A 
ATOM    102  C   UNL A   1      33.054  16.772  23.939  1.00  0.00     0.001 A 
ATOM    103  C   UNL A   1      34.408  16.586  24.203  1.00  0.00     0.001 A 
ENDBRANCH  92  94
ENDBRANCH  90  92
ENDBRANCH  84  85
ENDBRANCH  80  84
ENDBRANCH  75  78
ENDBRANCH  73  74
ENDBRANCH   1  73
TORSDOF 18
ENDMDL
MODEL 3
REMARK VINA RESULT:     -12.2      5.101     10.553
REMARK SMILES O=C(NCCCCNC(=O)c1[nH]ncc1C[N@H+]1CCC[C@H](C(=O)c2ccc3ccccc3c2)C1)c1ccc(-c2c3nc(c(-c4cccc(S(=O)(=O)[O-])c4F)c4ccc([nH]4)c(-c4cccc(S(=O)(=O)[O-])c4F)c4nc(c(-c5cccc(S(=O)(=O)[O-])c5F)c5ccc2[nH]5)C=C4)C=C3)cc1
REMARK SMILES IDX 6 1 5 2 4 3 3 4 1 5 2 6 35 8 36 9 97 10 37 11 96 12 38 13
REMARK SMILES IDX 39 14 40 15 90 16 41 17 95 18 89 19 91 20 42 21 94 22 88 23
REMARK SMILES IDX 87 24 43 26 75 27 55 28 74 29 56 30 59 31 73 32 92 33 57 34
REMARK SMILES IDX 58 35 72 37 93 38 60 39 44 40 45 41 53 42 46 43 48 44 54 45
REMARK SMILES IDX 47 46 49 47 50 48 51 49 52 50 76 51 77 52 85 53 78 54 80 55
REMARK SMILES IDX 86 56 79 57 81 58 82 59 83 60 84 61 61 62 62 63 70 64 63 65
REMARK SMILES IDX 65 66 71 67 64 68 66 69 67 70 68 71 69 72 7 73 8 74 9 75
REMARK SMILES IDX 10 77 11 78 12 79 15 80 13 81 14 83 16 84 17 85 18 86 34 87
REMARK SMILES IDX 19 89 21 90 20 91 22 92 23 93 24 94 25 95 33 96 26 97 32 98
REMARK SMILES IDX 27 99 31 100 28 101 30 102 29 103
REMARK H PARENT 3 7 91 25 59 36 8 76 12 82 17 88
REMARK Flexibility Score: inf
ROOT
ATOM      1  C   UNL A   1      44.507  23.618  24.978  1.00  0.00     0.023 C 
ENDROOT
BRANCH   1   2
ATOM      2  C   UNL A   1      45.255  23.592  26.309  1.00  0.00     0.023 C 
BRANCH   2   3
ATOM      3  C   UNL A   1      46.715  24.027  26.245  1.00  0.00     0.116 C 
BRANCH   3   4
ATOM      4  N   UNL A   1      47.003  24.885  25.107  1.00  0.00    -0.352 N 
ATOM      5  O   UNL A   1      46.935  26.751  23.846  1.00  0.00    -0.269 OA
ATOM      6  C   UNL A   1      46.736  26.224  24.936  1.00  0.00     0.251 C 
ATOM      7  H   UNL A   1      47.454  24.444  24.350  1.00  0.00     0.163 HD
BRANCH   6   8
ATOM      8  C   UNL A   1      46.178  27.005  26.060  1.00  0.00     0.039 A 
ATOM      9  C   UNL A   1      47.024  27.585  27.008  1.00  0.00     0.014 A 
ATOM     10  C   UNL A   1      44.792  27.140  26.175  1.00  0.00     0.014 A 
ATOM     11  C   UNL A   1      46.482  28.158  28.153  1.00  0.00     0.010 A 
ATOM     12  C   UNL A   1      44.251  27.794  27.286  1.00  0.00     0.010 A 
ATOM     13  C   UNL A   1      45.090  28.274  28.303  1.00  0.00    -0.014 A 
BRANCH  13  14
ATOM     14  C   UNL A   1      44.543  28.955  29.504  1.00  0.00     0.031 A 
ATOM     15  C   UNL A   1      44.117  30.397  29.462  1.00  0.00     0.074 A 
ATOM     16  C   UNL A   1      44.420  28.246  30.643  1.00  0.00     0.049 A 
ATOM     17  N   UNL A   1      43.582  31.120  30.412  1.00  0.00    -0.248 NA
ATOM     18  C   UNL A   1      44.320  31.125  28.199  1.00  0.00     0.031 C 
ATOM     19  C   UNL A   1      44.842  26.854  30.814  1.00  0.00     0.029 A 
ATOM     20  N   UNL A   1      43.905  28.589  31.866  1.00  0.00    -0.354 N 
ATOM     21  C   UNL A   1      43.419  32.394  29.880  1.00  0.00     0.074 A 
ATOM     22  C   UNL A   1      43.917  32.348  28.522  1.00  0.00     0.031 C 
ATOM     23  C   UNL A   1      44.539  26.452  32.056  1.00  0.00     0.029 A 
ATOM     24  C   UNL A   1      43.944  27.566  32.784  1.00  0.00     0.049 A 
ATOM     25  H   UNL A   1      43.541  29.482  32.067  1.00  0.00     0.167 HD
ATOM     26  C   UNL A   1      42.885  33.494  30.464  1.00  0.00     0.034 A 
ATOM     27  C   UNL A   1      43.551  27.527  34.071  1.00  0.00     0.034 A 
ATOM     28  C   UNL A   1      42.349  33.522  31.799  1.00  0.00     0.049 A 
ATOM     29  C   UNL A   1      42.932  28.752  34.679  1.00  0.00     0.074 A 
ATOM     30  C   UNL A   1      41.731  34.572  32.457  1.00  0.00     0.029 A 
ATOM     31  N   UNL A   1      42.367  32.454  32.684  1.00  0.00    -0.354 N 
ATOM     32  N   UNL A   1      42.671  29.907  34.117  1.00  0.00    -0.248 NA
ATOM     33  C   UNL A   1      42.528  28.662  36.088  1.00  0.00     0.031 C 
ATOM     34  C   UNL A   1      41.381  34.140  33.741  1.00  0.00     0.029 A 
ATOM     35  C   UNL A   1      41.775  32.820  33.881  1.00  0.00     0.049 A 
ATOM     36  H   UNL A   1      42.744  31.566  32.489  1.00  0.00     0.167 HD
ATOM     37  C   UNL A   1      42.060  30.676  35.096  1.00  0.00     0.074 A 
ATOM     38  C   UNL A   1      41.959  29.845  36.279  1.00  0.00     0.031 C 
ATOM     39  C   UNL A   1      41.641  31.964  35.032  1.00  0.00     0.034 A 
BRANCH  26  40
ATOM     40  C   UNL A   1      42.799  34.754  29.644  1.00  0.00     0.023 A 
ATOM     41  C   UNL A   1      41.630  35.015  28.901  1.00  0.00     0.012 A 
ATOM     42  C   UNL A   1      43.829  35.714  29.671  1.00  0.00     0.148 A 
ATOM     43  C   UNL A   1      41.495  36.202  28.181  1.00  0.00     0.002 A 
ATOM     44  C   UNL A   1      43.674  36.911  28.977  1.00  0.00     0.091 A 
ATOM     45  F   UNL A   1      44.944  35.440  30.364  1.00  0.00    -0.205 F 
ATOM     46  C   UNL A   1      42.511  37.152  28.228  1.00  0.00     0.022 A 
BRANCH  44  47
ATOM     47  S   UNL A   1      44.901  38.223  29.033  1.00  0.00     0.127 S 
ATOM     48  O   UNL A   1      44.960  38.511  30.465  1.00  0.00    -0.237 OA
ATOM     49  O   UNL A   1      46.090  37.562  28.496  1.00  0.00    -0.237 OA
ATOM     50  O   UNL A   1      44.376  39.292  28.195  1.00  0.00    -0.744 OA
ENDBRANCH  44  47
ENDBRANCH  26  40
BRANCH  27  51
ATOM     51  C   UNL A   1      43.679  26.257  34.837  1.00  0.00     0.023 A 
ATOM     52  C   UNL A   1      42.629  25.322  34.802  1.00  0.00     0.012 A 
ATOM     53  C   UNL A   1      44.860  25.939  35.536  1.00  0.00     0.148 A 
ATOM     54  C   UNL A   1      42.746  24.098  35.461  1.00  0.00     0.002 A 
ATOM     55  C   UNL A   1      44.993  24.694  36.139  1.00  0.00     0.091 A 
ATOM     56  F   UNL A   1      45.841  26.852  35.577  1.00  0.00    -0.205 F 
ATOM     57  C   UNL A   1      43.933  23.777  36.115  1.00  0.00     0.022 A 
BRANCH  55  58
ATOM     58  S   UNL A   1      46.549  24.157  36.859  1.00  0.00     0.127 S 
ATOM     59  O   UNL A   1      47.461  24.276  35.726  1.00  0.00    -0.237 OA
ATOM     60  O   UNL A   1      46.755  25.143  37.923  1.00  0.00    -0.237 OA
ATOM     61  O   UNL A   1      46.298  22.806  37.345  1.00  0.00    -0.744 OA
ENDBRANCH  55  58
ENDBRANCH  27  51
BRANCH  39  62
ATOM     62  C   UNL A   1      41.031  32.553  36.274  1.00  0.00     0.023 A 
ATOM     63  C   UNL A   1      41.779  33.467  37.043  1.00  0.00     0.012 A 
ATOM     64  C   UNL A   1      39.706  32.255  36.646  1.00  0.00     0.148 A 
ATOM     65  C   UNL A   1      41.225  34.055  38.179  1.00  0.00     0.002 A 
ATOM     66  C   UNL A   1      39.147  32.876  37.757  1.00  0.00     0.091 A 
ATOM     67  F   UNL A   1      39.019  31.364  35.914  1.00  0.00    -0.205 F 
ATOM     68  C   UNL A   1      39.908  33.769  38.529  1.00  0.00     0.022 A 
BRANCH  66  69
ATOM     69  S   UNL A   1      37.432  32.623  38.226  1.00  0.00     0.127 S 
ATOM     70  O   UNL A   1      37.384  33.261  39.540  1.00  0.00    -0.237 OA
ATOM     71  O   UNL A   1      36.708  33.339  37.174  1.00  0.00    -0.237 OA
ATOM     72  O   UNL A   1      37.231  31.180  38.217  1.00  0.00    -0.744 OA
ENDBRANCH  66  69
ENDBRANCH  39  62
ENDBRANCH  13  14
ENDBRANCH   6   8
ENDBRANCH   3   4
ENDBRANCH   2   3
ENDBRANCH   1   2
BRANCH   1  73
ATOM     73  C   UNL A   1      43.054  23.158  25.041  1.00  0.00     0.116 C 
BRANCH  73  74
ATOM     74  N   UNL A   1      42.869  22.001  25.901  1.00  0.00    -0.351 N 
ATOM     75  C   UNL A   1      41.804  21.695  26.709  1.00  0.00     0.269 C 
ATOM     76  H   UNL A   1      43.606  21.349  25.904  1.00  0.00     0.163 HD
ATOM     77  O   UNL A   1      41.915  20.783  27.523  1.00  0.00    -0.268 OA
BRANCH  75  78
ATOM     78  C   UNL A   1      40.620  22.499  26.615  1.00  0.00     0.131 A 
ATOM     79  N   UNL A   1      39.596  22.176  25.770  1.00  0.00    -0.272 N 
ATOM     80  C   UNL A   1      40.252  23.701  27.208  1.00  0.00     0.057 A 
ATOM     81  N   UNL A   1      38.519  22.967  25.900  1.00  0.00    -0.183 NA
ATOM     82  H   UNL A   1      39.643  21.432  25.126  1.00  0.00     0.190 HD
ATOM     83  C   UNL A   1      38.920  23.893  26.774  1.00  0.00     0.145 A 
BRANCH  80  84
ATOM     84  C   UNL A   1      41.077  24.567  28.107  1.00  0.00     0.303 C 
BRANCH  84  85
ATOM     85  N   UNL A   1      40.804  26.004  27.984  1.00  0.00    -0.330 N 
ATOM     86  C   UNL A   1      40.923  26.515  26.616  1.00  0.00     0.262 C 
ATOM     87  C   UNL A   1      39.570  26.429  28.638  1.00  0.00     0.274 C 
ATOM     88  H   UNL A   1      41.559  26.446  28.508  1.00  0.00     0.348 HD
ATOM     89  C   UNL A   1      40.916  28.040  26.599  1.00  0.00     0.062 C 
ATOM     90  C   UNL A   1      39.469  27.955  28.726  1.00  0.00     0.116 C 
ATOM     91  C   UNL A   1      39.754  28.643  27.388  1.00  0.00     0.023 C 
BRANCH  90  92
ATOM     92  C   UNL A   1      40.197  28.490  29.963  1.00  0.00     0.171 C 
ATOM     93  O   UNL A   1      41.282  28.023  30.314  1.00  0.00    -0.294 OA
BRANCH  92  94
ATOM     94  C   UNL A   1      39.689  29.667  30.702  1.00  0.00     0.019 A 
ATOM     95  C   UNL A   1      39.474  29.610  32.076  1.00  0.00     0.012 A 
ATOM     96  C   UNL A   1      39.507  30.869  30.010  1.00  0.00     0.020 A 
ATOM     97  C   UNL A   1      38.970  30.727  32.746  1.00  0.00     0.009 A 
ATOM     98  C   UNL A   1      39.030  32.010  30.679  1.00  0.00    -0.018 A 
ATOM     99  C   UNL A   1      38.733  31.928  32.061  1.00  0.00    -0.018 A 
ATOM    100  C   UNL A   1      38.841  33.231  30.011  1.00  0.00     0.009 A 
ATOM    101  C   UNL A   1      38.223  33.055  32.724  1.00  0.00     0.009 A 
ATOM    102  C   UNL A   1      38.348  34.347  30.690  1.00  0.00     0.001 A 
ATOM    103  C   UNL A   1      38.030  34.257  32.042  1.00  0.00     0.001 A 
ENDBRANCH  92  94
ENDBRANCH  90  92
ENDBRANCH  84  85
ENDBRANCH  80  84
ENDBRANCH  75  78
ENDBRANCH  73  74
ENDBRANCH   1  73
TORSDOF 18
ENDMDL
