MODEL 1
REMARK VINA RESULT:     -11.1      0.000      0.000
REMARK SMILES CCC[C@@H]1SC[C@H](C(=O)NCCCCNC(=O)c2ccc(-c3c4nc(c(-c5cccc(S(=O)(=O)[O-])c5F)c5ccc([nH]5)c(-c5cccc(S(=O)(=O)[O-])c5F)c5nc(c(-c6cccc(S(=O)(=O)[O-])c6F)c6ccc3[nH]6)C=C5)C=C4)cc2)N1C(=O)C[NH+]1CCC([NH3+])CC1
REMARK SMILES IDX 12 1 11 2 10 3 8 4 9 5 7 7 4 8 5 9 81 10 6 11 3 12 2 13 1 14
REMARK SMILES IDX 82 15 83 16 84 17 85 18 86 19 91 20 87 22 90 23 88 24 89 25
REMARK SMILES IDX 13 29 14 30 15 31 16 32 17 34 18 35 19 36 80 37 20 38 79 39
REMARK SMILES IDX 21 40 22 41 23 42 73 43 24 44 78 45 72 46 74 47 25 48 77 49
REMARK SMILES IDX 71 50 70 51 26 53 58 54 38 55 57 56 39 57 42 58 56 59 75 60
REMARK SMILES IDX 40 61 41 62 55 64 76 65 43 66 27 67 28 68 36 69 29 70 31 71
REMARK SMILES IDX 37 72 30 73 32 74 33 75 34 76 35 77 59 78 60 79 68 80 61 81
REMARK SMILES IDX 63 82 69 83 62 84 64 85 65 86 66 87 67 88 44 89 45 90 53 91
REMARK SMILES IDX 46 92 48 93 54 94 47 95 49 96 50 97 51 98 52 99
REMARK H PARENT 10 6 85 21 89 26 89 27 89 28 15 33 74 52 42 63
REMARK Flexibility Score: inf
ROOT
ATOM      1  C   UNL A   1      31.778  27.321  27.255  1.00  0.00     0.023 C 
ENDROOT
BRANCH   1   2
ATOM      2  C   UNL A   1      31.177  26.381  26.223  1.00  0.00     0.116 C 
BRANCH   2   3
ATOM      3  N   UNL A   1      30.859  25.071  26.740  1.00  0.00    -0.354 N 
ATOM      4  C   UNL A   1      31.575  23.914  26.667  1.00  0.00     0.243 C 
ATOM      5  O   UNL A   1      31.119  22.939  27.277  1.00  0.00    -0.273 OA
ATOM      6  H   UNL A   1      30.000  25.004  27.214  1.00  0.00     0.163 HD
BRANCH   4   7
ATOM      7  C   UNL A   1      32.736  23.718  25.674  1.00  0.00     0.185 C 
ATOM      8  C   UNL A   1      33.906  21.746  24.851  1.00  0.00     0.144 C 
ATOM      9  S   UNL A   1      34.495  21.978  26.565  1.00  0.00    -0.134 SA
ATOM     10  N   UNL A   1      32.684  22.556  24.721  1.00  0.00    -0.313 N 
ATOM     11  C   UNL A   1      34.011  23.694  26.538  1.00  0.00     0.107 C 
BRANCH   8  12
ATOM     12  C   UNL A   1      33.921  20.238  24.636  1.00  0.00     0.036 C 
BRANCH  12  13
ATOM     13  C   UNL A   1      32.919  19.468  25.468  1.00  0.00    -0.000 C 
ATOM     14  C   UNL A   1      32.525  18.106  24.896  1.00  0.00     0.004 C 
ENDBRANCH  12  13
ENDBRANCH   8  12
BRANCH  10  15
ATOM     15  C   UNL A   1      31.954  22.767  23.523  1.00  0.00     0.279 C 
ATOM     16  O   UNL A   1      31.926  21.867  22.672  1.00  0.00    -0.268 OA
BRANCH  15  17
ATOM     17  C   UNL A   1      31.404  24.201  23.131  1.00  0.00     0.363 C 
BRANCH  17  18
ATOM     18  N   UNL A   1      32.288  24.939  22.168  1.00  0.00    -0.327 N 
ATOM     19  C   UNL A   1      31.693  26.016  21.377  1.00  0.00     0.268 C 
ATOM     20  C   UNL A   1      33.549  25.466  22.742  1.00  0.00     0.268 C 
ATOM     21  H   UNL A   1      32.478  24.160  21.537  1.00  0.00     0.348 HD
ATOM     22  C   UNL A   1      31.365  27.278  22.165  1.00  0.00     0.126 C 
ATOM     23  C   UNL A   1      33.480  26.869  23.403  1.00  0.00     0.126 C 
ATOM     24  C   UNL A   1      32.693  27.896  22.573  1.00  0.00     0.192 C 
BRANCH  24  25
ATOM     25  N   UNL A   1      32.495  29.160  23.281  1.00  0.00    -0.355 N 
ATOM     26  H   UNL A   1      31.500  29.295  23.464  1.00  0.00     0.344 HD
ATOM     27  H   UNL A   1      32.842  29.929  22.708  1.00  0.00     0.344 HD
ATOM     28  H   UNL A   1      33.003  29.138  24.165  1.00  0.00     0.344 HD
ENDBRANCH  24  25
ENDBRANCH  17  18
ENDBRANCH  15  17
ENDBRANCH  10  15
ENDBRANCH   4   7
ENDBRANCH   2   3
ENDBRANCH   1   2
BRANCH   1  29
ATOM     29  C   UNL A   1      32.044  28.732  26.754  1.00  0.00     0.023 C 
BRANCH  29  30
ATOM     30  C   UNL A   1      33.496  29.175  26.855  1.00  0.00     0.116 C 
BRANCH  30  31
ATOM     31  N   UNL A   1      33.638  30.584  27.209  1.00  0.00    -0.352 N 
ATOM     32  C   UNL A   1      34.667  31.195  27.883  1.00  0.00     0.251 C 
ATOM     33  H   UNL A   1      32.900  31.172  26.928  1.00  0.00     0.163 HD
ATOM     34  O   UNL A   1      34.583  32.373  28.218  1.00  0.00    -0.269 OA
BRANCH  32  35
ATOM     35  C   UNL A   1      35.856  30.391  28.227  1.00  0.00     0.039 A 
ATOM     36  C   UNL A   1      36.975  30.440  27.395  1.00  0.00     0.014 A 
ATOM     37  C   UNL A   1      35.893  29.686  29.433  1.00  0.00     0.014 A 
ATOM     38  C   UNL A   1      38.165  29.845  27.816  1.00  0.00     0.010 A 
ATOM     39  C   UNL A   1      37.103  29.185  29.892  1.00  0.00     0.010 A 
ATOM     40  C   UNL A   1      38.252  29.253  29.088  1.00  0.00    -0.014 A 
BRANCH  40  41
ATOM     41  C   UNL A   1      39.533  28.704  29.604  1.00  0.00     0.031 A 
ATOM     42  C   UNL A   1      40.251  29.409  30.724  1.00  0.00     0.074 A 
ATOM     43  C   UNL A   1      40.096  27.635  29.005  1.00  0.00     0.049 A 
ATOM     44  N   UNL A   1      41.410  29.132  31.261  1.00  0.00    -0.248 NA
ATOM     45  C   UNL A   1      39.599  30.601  31.296  1.00  0.00     0.031 C 
ATOM     46  C   UNL A   1      39.547  26.917  27.851  1.00  0.00     0.029 A 
ATOM     47  N   UNL A   1      41.277  26.982  29.264  1.00  0.00    -0.354 N 
ATOM     48  C   UNL A   1      41.645  30.134  32.194  1.00  0.00     0.074 A 
ATOM     49  C   UNL A   1      40.525  31.046  32.131  1.00  0.00     0.031 C 
ATOM     50  C   UNL A   1      40.383  25.925  27.507  1.00  0.00     0.029 A 
ATOM     51  C   UNL A   1      41.546  25.953  28.389  1.00  0.00     0.049 A 
ATOM     52  H   UNL A   1      41.875  27.227  30.007  1.00  0.00     0.167 HD
ATOM     53  C   UNL A   1      42.682  30.268  33.051  1.00  0.00     0.034 A 
ATOM     54  C   UNL A   1      42.612  25.134  28.302  1.00  0.00     0.034 A 
ATOM     55  C   UNL A   1      43.765  29.328  33.155  1.00  0.00     0.049 A 
ATOM     56  C   UNL A   1      43.727  25.276  29.305  1.00  0.00     0.074 A 
ATOM     57  C   UNL A   1      44.807  29.318  34.065  1.00  0.00     0.029 A 
ATOM     58  N   UNL A   1      43.949  28.239  32.321  1.00  0.00    -0.354 N 
ATOM     59  N   UNL A   1      43.840  26.126  30.298  1.00  0.00    -0.248 NA
ATOM     60  C   UNL A   1      44.842  24.323  29.202  1.00  0.00     0.031 C 
ATOM     61  C   UNL A   1      45.638  28.237  33.762  1.00  0.00     0.029 A 
ATOM     62  C   UNL A   1      45.095  27.554  32.686  1.00  0.00     0.049 A 
ATOM     63  H   UNL A   1      43.353  27.989  31.578  1.00  0.00     0.167 HD
ATOM     64  C   UNL A   1      45.014  25.783  30.959  1.00  0.00     0.074 A 
ATOM     65  C   UNL A   1      45.564  24.636  30.270  1.00  0.00     0.031 C 
ATOM     66  C   UNL A   1      45.594  26.375  32.031  1.00  0.00     0.034 A 
BRANCH  53  67
ATOM     67  C   UNL A   1      42.679  31.443  33.991  1.00  0.00     0.023 A 
ATOM     68  C   UNL A   1      43.194  32.682  33.560  1.00  0.00     0.012 A 
ATOM     69  C   UNL A   1      42.084  31.345  35.264  1.00  0.00     0.148 A 
ATOM     70  C   UNL A   1      43.138  33.801  34.389  1.00  0.00     0.002 A 
ATOM     71  C   UNL A   1      41.989  32.476  36.066  1.00  0.00     0.091 A 
ATOM     72  F   UNL A   1      41.619  30.153  35.662  1.00  0.00    -0.205 F 
ATOM     73  C   UNL A   1      42.525  33.701  35.636  1.00  0.00     0.022 A 
BRANCH  71  74
ATOM     74  S   UNL A   1      41.144  32.476  37.652  1.00  0.00     0.127 S 
ATOM     75  O   UNL A   1      42.006  31.599  38.445  1.00  0.00    -0.237 OA
ATOM     76  O   UNL A   1      41.199  33.888  38.026  1.00  0.00    -0.237 OA
ATOM     77  O   UNL A   1      39.806  31.962  37.396  1.00  0.00    -0.744 OA
ENDBRANCH  71  74
ENDBRANCH  53  67
BRANCH  54  78
ATOM     78  C   UNL A   1      42.665  24.069  27.259  1.00  0.00     0.023 A 
ATOM     79  C   UNL A   1      43.336  24.318  26.045  1.00  0.00     0.012 A 
ATOM     80  C   UNL A   1      42.047  22.819  27.454  1.00  0.00     0.148 A 
ATOM     81  C   UNL A   1      43.350  23.362  25.028  1.00  0.00     0.002 A 
ATOM     82  C   UNL A   1      42.115  21.849  26.461  1.00  0.00     0.091 A 
ATOM     83  F   UNL A   1      41.402  22.602  28.609  1.00  0.00    -0.205 F 
ATOM     84  C   UNL A   1      42.747  22.126  25.238  1.00  0.00     0.022 A 
BRANCH  82  85
ATOM     85  S   UNL A   1      41.482  20.185  26.701  1.00  0.00     0.127 S 
ATOM     86  O   UNL A   1      41.819  19.549  25.431  1.00  0.00    -0.237 OA
ATOM     87  O   UNL A   1      42.265  19.724  27.848  1.00  0.00    -0.237 OA
ATOM     88  O   UNL A   1      40.061  20.347  26.977  1.00  0.00    -0.744 OA
ENDBRANCH  82  85
ENDBRANCH  54  78
BRANCH  66  89
ATOM     89  C   UNL A   1      46.863  25.768  32.568  1.00  0.00     0.023 A 
ATOM     90  C   UNL A   1      46.817  24.912  33.686  1.00  0.00     0.012 A 
ATOM     91  C   UNL A   1      48.090  25.981  31.908  1.00  0.00     0.148 A 
ATOM     92  C   UNL A   1      47.979  24.304  34.161  1.00  0.00     0.002 A 
ATOM     93  C   UNL A   1      49.234  25.330  32.354  1.00  0.00     0.091 A 
ATOM     94  F   UNL A   1      48.115  26.811  30.856  1.00  0.00    -0.205 F 
ATOM     95  C   UNL A   1      49.183  24.503  33.487  1.00  0.00     0.022 A 
BRANCH  93  96
ATOM     96  S   UNL A   1      50.805  25.445  31.492  1.00  0.00     0.127 S 
ATOM     97  O   UNL A   1      51.468  24.213  31.914  1.00  0.00    -0.237 OA
ATOM     98  O   UNL A   1      50.388  25.463  30.089  1.00  0.00    -0.237 OA
ATOM     99  O   UNL A   1      51.428  26.679  31.953  1.00  0.00    -0.744 OA
ENDBRANCH  93  96
ENDBRANCH  66  89
ENDBRANCH  40  41
ENDBRANCH  32  35
ENDBRANCH  30  31
ENDBRANCH  29  30
ENDBRANCH   1  29
TORSDOF 20
ENDMDL
MODEL 2
REMARK VINA RESULT:     -11.1      4.747      9.742
REMARK SMILES CCC[C@@H]1SC[C@H](C(=O)NCCCCNC(=O)c2ccc(-c3c4nc(c(-c5cccc(S(=O)(=O)[O-])c5F)c5ccc([nH]5)c(-c5cccc(S(=O)(=O)[O-])c5F)c5nc(c(-c6cccc(S(=O)(=O)[O-])c6F)c6ccc3[nH]6)C=C5)C=C4)cc2)N1C(=O)C[NH+]1CCC([NH3+])CC1
REMARK SMILES IDX 12 1 11 2 10 3 8 4 9 5 7 7 4 8 5 9 81 10 6 11 3 12 2 13 1 14
REMARK SMILES IDX 82 15 83 16 84 17 85 18 86 19 91 20 87 22 90 23 88 24 89 25
REMARK SMILES IDX 13 29 14 30 15 31 16 32 17 34 18 35 19 36 80 37 20 38 79 39
REMARK SMILES IDX 21 40 22 41 23 42 73 43 24 44 78 45 72 46 74 47 25 48 77 49
REMARK SMILES IDX 71 50 70 51 26 53 58 54 38 55 57 56 39 57 42 58 56 59 75 60
REMARK SMILES IDX 40 61 41 62 55 64 76 65 43 66 27 67 28 68 36 69 29 70 31 71
REMARK SMILES IDX 37 72 30 73 32 74 33 75 34 76 35 77 59 78 60 79 68 80 61 81
REMARK SMILES IDX 63 82 69 83 62 84 64 85 65 86 66 87 67 88 44 89 45 90 53 91
REMARK SMILES IDX 46 92 48 93 54 94 47 95 49 96 50 97 51 98 52 99
REMARK H PARENT 10 6 85 21 89 26 89 27 89 28 15 33 74 52 42 63
REMARK Flexibility Score: inf
ROOT
ATOM      1  C   UNL A   1      36.704  22.979  23.466  1.00  0.00     0.023 C 
ENDROOT
BRANCH   1   2
ATOM      2  C   UNL A   1      35.509  23.758  23.990  1.00  0.00     0.116 C 
BRANCH   2   3
ATOM      3  N   UNL A   1      34.348  23.693  23.135  1.00  0.00    -0.354 N 
ATOM      4  C   UNL A   1      33.392  24.634  22.899  1.00  0.00     0.243 C 
ATOM      5  O   UNL A   1      32.541  24.360  22.044  1.00  0.00    -0.273 OA
ATOM      6  H   UNL A   1      34.229  22.844  22.652  1.00  0.00     0.163 HD
BRANCH   4   7
ATOM      7  C   UNL A   1      33.188  25.858  23.812  1.00  0.00     0.185 C 
ATOM      8  C   UNL A   1      31.354  27.436  24.095  1.00  0.00     0.144 C 
ATOM      9  S   UNL A   1      32.137  27.884  22.505  1.00  0.00    -0.134 SA
ATOM     10  N   UNL A   1      31.835  26.085  24.426  1.00  0.00    -0.313 N 
ATOM     11  C   UNL A   1      33.651  27.069  22.979  1.00  0.00     0.107 C 
BRANCH   8  12
ATOM     12  C   UNL A   1      29.879  27.762  23.907  1.00  0.00     0.036 C 
BRANCH  12  13
ATOM     13  C   UNL A   1      29.584  28.769  22.816  1.00  0.00    -0.000 C 
ATOM     14  C   UNL A   1      29.257  30.175  23.316  1.00  0.00     0.004 C 
ENDBRANCH  12  13
ENDBRANCH   8  12
BRANCH  10  15
ATOM     15  C   UNL A   1      31.575  25.387  25.633  1.00  0.00     0.279 C 
ATOM     16  O   UNL A   1      30.567  25.682  26.292  1.00  0.00    -0.268 OA
BRANCH  15  17
ATOM     17  C   UNL A   1      32.662  24.439  26.291  1.00  0.00     0.363 C 
BRANCH  17  18
ATOM     18  N   UNL A   1      32.088  23.172  26.857  1.00  0.00    -0.327 N 
ATOM     19  C   UNL A   1      31.487  22.216  25.926  1.00  0.00     0.268 C 
ATOM     20  C   UNL A   1      32.994  22.406  27.745  1.00  0.00     0.268 C 
ATOM     21  H   UNL A   1      31.332  23.597  27.394  1.00  0.00     0.348 HD
ATOM     22  C   UNL A   1      32.486  21.466  25.053  1.00  0.00     0.126 C 
ATOM     23  C   UNL A   1      33.953  21.398  27.057  1.00  0.00     0.126 C 
ATOM     24  C   UNL A   1      33.268  20.546  25.976  1.00  0.00     0.192 C 
BRANCH  24  25
ATOM     25  N   UNL A   1      34.215  19.721  25.224  1.00  0.00    -0.355 N 
ATOM     26  H   UNL A   1      34.417  20.166  24.329  1.00  0.00     0.344 HD
ATOM     27  H   UNL A   1      33.809  18.800  25.061  1.00  0.00     0.344 HD
ATOM     28  H   UNL A   1      35.079  19.623  25.757  1.00  0.00     0.344 HD
ENDBRANCH  24  25
ENDBRANCH  17  18
ENDBRANCH  15  17
ENDBRANCH  10  15
ENDBRANCH   4   7
ENDBRANCH   2   3
ENDBRANCH   1   2
BRANCH   1  29
ATOM     29  C   UNL A   1      36.898  21.609  24.097  1.00  0.00     0.023 C 
BRANCH  29  30
ATOM     30  C   UNL A   1      37.402  21.640  25.532  1.00  0.00     0.116 C 
BRANCH  30  31
ATOM     31  N   UNL A   1      38.473  20.680  25.780  1.00  0.00    -0.352 N 
ATOM     32  C   UNL A   1      39.713  20.907  26.327  1.00  0.00     0.251 C 
ATOM     33  H   UNL A   1      38.282  19.749  25.522  1.00  0.00     0.163 HD
ATOM     34  O   UNL A   1      40.557  20.015  26.355  1.00  0.00    -0.269 OA
BRANCH  32  35
ATOM     35  C   UNL A   1      40.017  22.255  26.842  1.00  0.00     0.039 A 
ATOM     36  C   UNL A   1      40.991  22.403  27.830  1.00  0.00     0.014 A 
ATOM     37  C   UNL A   1      39.415  23.374  26.260  1.00  0.00     0.014 A 
ATOM     38  C   UNL A   1      41.423  23.684  28.177  1.00  0.00     0.010 A 
ATOM     39  C   UNL A   1      39.918  24.638  26.534  1.00  0.00     0.010 A 
ATOM     40  C   UNL A   1      40.924  24.810  27.499  1.00  0.00    -0.014 A 
BRANCH  40  41
ATOM     41  C   UNL A   1      41.440  26.176  27.774  1.00  0.00     0.031 A 
ATOM     42  C   UNL A   1      42.836  26.547  27.350  1.00  0.00     0.074 A 
ATOM     43  C   UNL A   1      40.694  27.045  28.486  1.00  0.00     0.049 A 
ATOM     44  N   UNL A   1      43.492  27.657  27.564  1.00  0.00    -0.248 NA
ATOM     45  C   UNL A   1      43.610  25.528  26.620  1.00  0.00     0.031 C 
ATOM     46  C   UNL A   1      39.361  26.775  29.034  1.00  0.00     0.029 A 
ATOM     47  N   UNL A   1      40.964  28.326  28.902  1.00  0.00    -0.354 N 
ATOM     48  C   UNL A   1      44.762  27.454  27.038  1.00  0.00     0.074 A 
ATOM     49  C   UNL A   1      44.799  26.103  26.524  1.00  0.00     0.031 C 
ATOM     50  C   UNL A   1      38.931  27.855  29.705  1.00  0.00     0.029 A 
ATOM     51  C   UNL A   1      39.967  28.883  29.670  1.00  0.00     0.049 A 
ATOM     52  H   UNL A   1      41.795  28.802  28.671  1.00  0.00     0.167 HD
ATOM     53  C   UNL A   1      45.796  28.322  26.960  1.00  0.00     0.034 A 
ATOM     54  C   UNL A   1      39.899  30.081  30.284  1.00  0.00     0.034 A 
ATOM     55  C   UNL A   1      45.738  29.683  27.417  1.00  0.00     0.049 A 
ATOM     56  C   UNL A   1      41.046  31.045  30.132  1.00  0.00     0.074 A 
ATOM     57  C   UNL A   1      46.696  30.673  27.285  1.00  0.00     0.029 A 
ATOM     58  N   UNL A   1      44.672  30.244  28.098  1.00  0.00    -0.354 N 
ATOM     59  N   UNL A   1      42.170  30.893  29.475  1.00  0.00    -0.248 NA
ATOM     60  C   UNL A   1      40.901  32.360  30.775  1.00  0.00     0.031 C 
ATOM     61  C   UNL A   1      46.218  31.827  27.912  1.00  0.00     0.029 A 
ATOM     62  C   UNL A   1      44.949  31.565  28.404  1.00  0.00     0.049 A 
ATOM     63  H   UNL A   1      43.838  29.773  28.330  1.00  0.00     0.167 HD
ATOM     64  C   UNL A   1      42.845  32.104  29.589  1.00  0.00     0.074 A 
ATOM     65  C   UNL A   1      41.994  32.986  30.360  1.00  0.00     0.031 C 
ATOM     66  C   UNL A   1      44.066  32.450  29.114  1.00  0.00     0.034 A 
BRANCH  53  67
ATOM     67  C   UNL A   1      47.068  27.853  26.306  1.00  0.00     0.023 A 
ATOM     68  C   UNL A   1      48.041  27.184  27.076  1.00  0.00     0.012 A 
ATOM     69  C   UNL A   1      47.258  27.992  24.917  1.00  0.00     0.148 A 
ATOM     70  C   UNL A   1      49.196  26.681  26.478  1.00  0.00     0.002 A 
ATOM     71  C   UNL A   1      48.388  27.446  24.322  1.00  0.00     0.091 A 
ATOM     72  F   UNL A   1      46.329  28.649  24.209  1.00  0.00    -0.205 F 
ATOM     73  C   UNL A   1      49.363  26.800  25.101  1.00  0.00     0.022 A 
BRANCH  71  74
ATOM     74  S   UNL A   1      48.658  27.469  22.546  1.00  0.00     0.127 S 
ATOM     75  O   UNL A   1      47.523  28.269  22.085  1.00  0.00    -0.237 OA
ATOM     76  O   UNL A   1      49.956  28.135  22.444  1.00  0.00    -0.237 OA
ATOM     77  O   UNL A   1      48.650  26.077  22.118  1.00  0.00    -0.744 OA
ENDBRANCH  71  74
ENDBRANCH  53  67
BRANCH  54  78
ATOM     78  C   UNL A   1      38.684  30.466  31.059  1.00  0.00     0.023 A 
ATOM     79  C   UNL A   1      38.564  30.068  32.405  1.00  0.00     0.012 A 
ATOM     80  C   UNL A   1      37.645  31.213  30.472  1.00  0.00     0.148 A 
ATOM     81  C   UNL A   1      37.412  30.363  33.137  1.00  0.00     0.002 A 
ATOM     82  C   UNL A   1      36.526  31.554  31.224  1.00  0.00     0.091 A 
ATOM     83  F   UNL A   1      37.768  31.573  29.186  1.00  0.00    -0.205 F 
ATOM     84  C   UNL A   1      36.398  31.112  32.549  1.00  0.00     0.022 A 
BRANCH  82  85
ATOM     85  S   UNL A   1      35.236  32.630  30.586  1.00  0.00     0.127 S 
ATOM     86  O   UNL A   1      35.979  33.853  30.299  1.00  0.00    -0.237 OA
ATOM     87  O   UNL A   1      34.781  31.893  29.407  1.00  0.00    -0.237 OA
ATOM     88  O   UNL A   1      34.245  32.720  31.651  1.00  0.00    -0.744 OA
ENDBRANCH  82  85
ENDBRANCH  54  78
BRANCH  66  89
ATOM     89  C   UNL A   1      44.543  33.857  29.360  1.00  0.00     0.023 A 
ATOM     90  C   UNL A   1      45.361  34.139  30.472  1.00  0.00     0.012 A 
ATOM     91  C   UNL A   1      44.248  34.881  28.439  1.00  0.00     0.148 A 
ATOM     92  C   UNL A   1      45.850  35.428  30.681  1.00  0.00     0.002 A 
ATOM     93  C   UNL A   1      44.782  36.150  28.625  1.00  0.00     0.091 A 
ATOM     94  F   UNL A   1      43.455  34.595  27.396  1.00  0.00    -0.205 F 
ATOM     95  C   UNL A   1      45.571  36.429  29.752  1.00  0.00     0.022 A 
BRANCH  93  96
ATOM     96  S   UNL A   1      44.561  37.472  27.430  1.00  0.00     0.127 S 
ATOM     97  O   UNL A   1      44.593  38.657  28.287  1.00  0.00    -0.237 OA
ATOM     98  O   UNL A   1      45.732  37.310  26.568  1.00  0.00    -0.237 OA
ATOM     99  O   UNL A   1      43.287  37.212  26.773  1.00  0.00    -0.744 OA
ENDBRANCH  93  96
ENDBRANCH  66  89
ENDBRANCH  40  41
ENDBRANCH  32  35
ENDBRANCH  30  31
ENDBRANCH  29  30
ENDBRANCH   1  29
TORSDOF 20
ENDMDL
MODEL 3
REMARK VINA RESULT:     -11.0      2.386      2.803
REMARK SMILES CCC[C@@H]1SC[C@H](C(=O)NCCCCNC(=O)c2ccc(-c3c4nc(c(-c5cccc(S(=O)(=O)[O-])c5F)c5ccc([nH]5)c(-c5cccc(S(=O)(=O)[O-])c5F)c5nc(c(-c6cccc(S(=O)(=O)[O-])c6F)c6ccc3[nH]6)C=C5)C=C4)cc2)N1C(=O)C[NH+]1CCC([NH3+])CC1
REMARK SMILES IDX 12 1 11 2 10 3 8 4 9 5 7 7 4 8 5 9 81 10 6 11 3 12 2 13 1 14
REMARK SMILES IDX 82 15 83 16 84 17 85 18 86 19 91 20 87 22 90 23 88 24 89 25
REMARK SMILES IDX 13 29 14 30 15 31 16 32 17 34 18 35 19 36 80 37 20 38 79 39
REMARK SMILES IDX 21 40 22 41 23 42 73 43 24 44 78 45 72 46 74 47 25 48 77 49
REMARK SMILES IDX 71 50 70 51 26 53 58 54 38 55 57 56 39 57 42 58 56 59 75 60
REMARK SMILES IDX 40 61 41 62 55 64 76 65 43 66 27 67 28 68 36 69 29 70 31 71
REMARK SMILES IDX 37 72 30 73 32 74 33 75 34 76 35 77 59 78 60 79 68 80 61 81
REMARK SMILES IDX 63 82 69 83 62 84 64 85 65 86 66 87 67 88 44 89 45 90 53 91
REMARK SMILES IDX 46 92 48 93 54 94 47 95 49 96 50 97 51 98 52 99
REMARK H PARENT 10 6 85 21 89 26 89 27 89 28 15 33 74 52 42 63
REMARK Flexibility Score: inf
ROOT
ATOM      1  C   UNL A   1      32.246  27.933  26.772  1.00  0.00     0.023 C 
ENDROOT
BRANCH   1   2
ATOM      2  C   UNL A   1      31.176  27.000  26.230  1.00  0.00     0.116 C 
BRANCH   2   3
ATOM      3  N   UNL A   1      31.097  25.736  26.922  1.00  0.00    -0.354 N 
ATOM      4  C   UNL A   1      31.831  24.603  26.742  1.00  0.00     0.243 C 
ATOM      5  O   UNL A   1      31.626  23.676  27.535  1.00  0.00    -0.273 OA
ATOM      6  H   UNL A   1      30.412  25.685  27.627  1.00  0.00     0.163 HD
BRANCH   4   7
ATOM      7  C   UNL A   1      32.674  24.352  25.477  1.00  0.00     0.185 C 
ATOM      8  C   UNL A   1      33.382  22.326  24.325  1.00  0.00     0.144 C 
ATOM      9  S   UNL A   1      34.410  22.408  25.834  1.00  0.00    -0.134 SA
ATOM     10  N   UNL A   1      32.259  23.254  24.538  1.00  0.00    -0.313 N 
ATOM     11  C   UNL A   1      34.118  24.161  25.981  1.00  0.00     0.107 C 
BRANCH   8  12
ATOM     12  C   UNL A   1      33.184  20.838  24.070  1.00  0.00     0.036 C 
BRANCH  12  13
ATOM     13  C   UNL A   1      33.636  19.935  25.197  1.00  0.00    -0.000 C 
ATOM     14  C   UNL A   1      32.827  18.647  25.349  1.00  0.00     0.004 C 
ENDBRANCH  12  13
ENDBRANCH   8  12
BRANCH  10  15
ATOM     15  C   UNL A   1      31.275  23.597  23.576  1.00  0.00     0.279 C 
ATOM     16  O   UNL A   1      30.913  22.741  22.757  1.00  0.00    -0.268 OA
BRANCH  15  17
ATOM     17  C   UNL A   1      30.827  25.101  23.352  1.00  0.00     0.363 C 
BRANCH  17  18
ATOM     18  N   UNL A   1      31.435  25.732  22.133  1.00  0.00    -0.327 N 
ATOM     19  C   UNL A   1      31.205  27.160  21.913  1.00  0.00     0.268 C 
ATOM     20  C   UNL A   1      32.885  25.490  21.950  1.00  0.00     0.268 C 
ATOM     21  H   UNL A   1      30.894  25.221  21.435  1.00  0.00     0.348 HD
ATOM     22  C   UNL A   1      31.964  28.079  22.863  1.00  0.00     0.126 C 
ATOM     23  C   UNL A   1      33.850  26.475  22.664  1.00  0.00     0.126 C 
ATOM     24  C   UNL A   1      33.437  27.948  22.514  1.00  0.00     0.192 C 
BRANCH  24  25
ATOM     25  N   UNL A   1      34.256  28.848  23.326  1.00  0.00    -0.355 N 
ATOM     26  H   UNL A   1      34.480  29.684  22.786  1.00  0.00     0.344 HD
ATOM     27  H   UNL A   1      35.120  28.375  23.592  1.00  0.00     0.344 HD
ATOM     28  H   UNL A   1      33.742  29.113  24.166  1.00  0.00     0.344 HD
ENDBRANCH  24  25
ENDBRANCH  17  18
ENDBRANCH  15  17
ENDBRANCH  10  15
ENDBRANCH   4   7
ENDBRANCH   2   3
ENDBRANCH   1   2
BRANCH   1  29
ATOM     29  C   UNL A   1      31.861  29.404  26.790  1.00  0.00     0.023 C 
BRANCH  29  30
ATOM     30  C   UNL A   1      32.949  30.348  26.302  1.00  0.00     0.116 C 
BRANCH  30  31
ATOM     31  N   UNL A   1      32.818  31.697  26.844  1.00  0.00    -0.352 N 
ATOM     32  C   UNL A   1      33.653  32.353  27.716  1.00  0.00     0.251 C 
ATOM     33  H   UNL A   1      32.028  32.203  26.544  1.00  0.00     0.163 HD
ATOM     34  O   UNL A   1      33.340  33.444  28.180  1.00  0.00    -0.269 OA
BRANCH  32  35
ATOM     35  C   UNL A   1      34.914  31.694  28.108  1.00  0.00     0.039 A 
ATOM     36  C   UNL A   1      36.104  32.422  28.064  1.00  0.00     0.014 A 
ATOM     37  C   UNL A   1      34.889  30.397  28.626  1.00  0.00     0.014 A 
ATOM     38  C   UNL A   1      37.261  31.873  28.620  1.00  0.00     0.010 A 
ATOM     39  C   UNL A   1      36.015  29.897  29.266  1.00  0.00     0.010 A 
ATOM     40  C   UNL A   1      37.215  30.626  29.266  1.00  0.00    -0.014 A 
BRANCH  40  41
ATOM     41  C   UNL A   1      38.405  30.063  29.957  1.00  0.00     0.031 A 
ATOM     42  C   UNL A   1      38.784  30.568  31.324  1.00  0.00     0.074 A 
ATOM     43  C   UNL A   1      39.196  29.176  29.318  1.00  0.00     0.049 A 
ATOM     44  N   UNL A   1      39.822  30.259  32.055  1.00  0.00    -0.248 NA
ATOM     45  C   UNL A   1      37.900  31.574  31.938  1.00  0.00     0.031 C 
ATOM     46  C   UNL A   1      38.989  28.677  27.956  1.00  0.00     0.029 A 
ATOM     47  N   UNL A   1      40.355  28.559  29.720  1.00  0.00    -0.354 N 
ATOM     48  C   UNL A   1      39.740  31.062  33.187  1.00  0.00     0.074 A 
ATOM     49  C   UNL A   1      38.570  31.896  33.033  1.00  0.00     0.031 C 
ATOM     50  C   UNL A   1      39.981  27.830  27.639  1.00  0.00     0.029 A 
ATOM     51  C   UNL A   1      40.915  27.750  28.758  1.00  0.00     0.049 A 
ATOM     52  H   UNL A   1      40.749  28.683  30.614  1.00  0.00     0.167 HD
ATOM     53  C   UNL A   1      40.548  31.082  34.272  1.00  0.00     0.034 A 
ATOM     54  C   UNL A   1      42.057  27.033  28.772  1.00  0.00     0.034 A 
ATOM     55  C   UNL A   1      41.676  30.210  34.449  1.00  0.00     0.049 A 
ATOM     56  C   UNL A   1      42.906  27.036  30.016  1.00  0.00     0.074 A 
ATOM     57  C   UNL A   1      42.491  30.078  35.559  1.00  0.00     0.029 A 
ATOM     58  N   UNL A   1      42.152  29.328  33.495  1.00  0.00    -0.354 N 
ATOM     59  N   UNL A   1      42.710  27.670  31.147  1.00  0.00    -0.248 NA
ATOM     60  C   UNL A   1      44.112  26.195  30.001  1.00  0.00     0.031 C 
ATOM     61  C   UNL A   1      43.479  29.135  35.265  1.00  0.00     0.029 A 
ATOM     62  C   UNL A   1      43.258  28.655  33.984  1.00  0.00     0.049 A 
ATOM     63  H   UNL A   1      41.762  29.198  32.600  1.00  0.00     0.167 HD
ATOM     64  C   UNL A   1      43.743  27.272  31.989  1.00  0.00     0.074 A 
ATOM     65  C   UNL A   1      44.549  26.327  31.247  1.00  0.00     0.031 C 
ATOM     66  C   UNL A   1      44.010  27.668  33.258  1.00  0.00     0.034 A 
BRANCH  53  67
ATOM     67  C   UNL A   1      40.215  32.037  35.386  1.00  0.00     0.023 A 
ATOM     68  C   UNL A   1      40.896  33.268  35.475  1.00  0.00     0.012 A 
ATOM     69  C   UNL A   1      39.168  31.758  36.286  1.00  0.00     0.148 A 
ATOM     70  C   UNL A   1      40.557  34.197  36.457  1.00  0.00     0.002 A 
ATOM     71  C   UNL A   1      38.804  32.708  37.231  1.00  0.00     0.091 A 
ATOM     72  F   UNL A   1      38.548  30.573  36.196  1.00  0.00    -0.205 F 
ATOM     73  C   UNL A   1      39.503  33.923  37.326  1.00  0.00     0.022 A 
BRANCH  71  74
ATOM     74  S   UNL A   1      37.408  32.491  38.341  1.00  0.00     0.127 S 
ATOM     75  O   UNL A   1      37.367  31.036  38.482  1.00  0.00    -0.237 OA
ATOM     76  O   UNL A   1      37.855  33.207  39.536  1.00  0.00    -0.237 OA
ATOM     77  O   UNL A   1      36.261  33.081  37.667  1.00  0.00    -0.744 OA
ENDBRANCH  71  74
ENDBRANCH  53  67
BRANCH  54  78
ATOM     78  C   UNL A   1      42.447  26.209  27.591  1.00  0.00     0.023 A 
ATOM     79  C   UNL A   1      43.229  26.785  26.570  1.00  0.00     0.012 A 
ATOM     80  C   UNL A   1      42.043  24.866  27.466  1.00  0.00     0.148 A 
ATOM     81  C   UNL A   1      43.559  26.056  25.427  1.00  0.00     0.002 A 
ATOM     82  C   UNL A   1      42.424  24.128  26.352  1.00  0.00     0.091 A 
ATOM     83  F   UNL A   1      41.288  24.337  28.440  1.00  0.00    -0.205 F 
ATOM     84  C   UNL A   1      43.164  24.726  25.321  1.00  0.00     0.022 A 
BRANCH  82  85
ATOM     85  S   UNL A   1      42.072  22.372  26.200  1.00  0.00     0.127 S 
ATOM     86  O   UNL A   1      42.882  22.003  25.043  1.00  0.00    -0.237 OA
ATOM     87  O   UNL A   1      42.552  21.854  27.481  1.00  0.00    -0.237 OA
ATOM     88  O   UNL A   1      40.628  22.281  26.024  1.00  0.00    -0.744 OA
ENDBRANCH  82  85
ENDBRANCH  54  78
BRANCH  66  89
ATOM     89  C   UNL A   1      45.190  27.043  33.954  1.00  0.00     0.023 A 
ATOM     90  C   UNL A   1      46.447  27.680  33.919  1.00  0.00     0.012 A 
ATOM     91  C   UNL A   1      45.030  25.868  34.714  1.00  0.00     0.148 A 
ATOM     92  C   UNL A   1      47.534  27.136  34.603  1.00  0.00     0.002 A 
ATOM     93  C   UNL A   1      46.104  25.361  35.435  1.00  0.00     0.091 A 
ATOM     94  F   UNL A   1      43.830  25.269  34.720  1.00  0.00    -0.205 F 
ATOM     95  C   UNL A   1      47.359  25.986  35.370  1.00  0.00     0.022 A 
BRANCH  93  96
ATOM     96  S   UNL A   1      45.947  23.945  36.528  1.00  0.00     0.127 S 
ATOM     97  O   UNL A   1      45.912  22.836  35.577  1.00  0.00    -0.237 OA
ATOM     98  O   UNL A   1      47.173  24.030  37.322  1.00  0.00    -0.237 OA
ATOM     99  O   UNL A   1      44.721  24.156  37.286  1.00  0.00    -0.744 OA
ENDBRANCH  93  96
ENDBRANCH  66  89
ENDBRANCH  40  41
ENDBRANCH  32  35
ENDBRANCH  30  31
ENDBRANCH  29  30
ENDBRANCH   1  29
TORSDOF 20
ENDMDL
