MODEL 1
REMARK VINA RESULT:     -12.2      0.000      0.000
REMARK SMILES O=C(NCCCCNC(=O)c1ccccc1C(=O)Nc1ccc(Cl)cn1)c1ccc(-c2c3nc(c(-c4cccc(S(=O)(=O)[O-])c4F)c4ccc([nH]4)c(-c4cccc(S(=O)(=O)[O-])c4F)c4nc(c(-c5cccc(S(=O)(=O)[O-])c5F)c5ccc2[nH]5)C=C4)C=C3)cc1
REMARK SMILES IDX 5 1 4 2 3 3 1 4 2 5 27 7 28 8 89 9 29 10 88 11 30 12 31 13
REMARK SMILES IDX 32 14 82 15 33 16 87 17 81 18 83 19 34 20 86 21 80 22 79 23
REMARK SMILES IDX 35 25 67 26 47 27 66 28 48 29 51 30 65 31 84 32 49 33 50 34
REMARK SMILES IDX 64 36 85 37 52 38 36 39 37 40 45 41 38 42 40 43 46 44 39 45
REMARK SMILES IDX 41 46 42 47 43 48 44 49 68 50 69 51 77 52 70 53 72 54 78 55
REMARK SMILES IDX 71 56 73 57 74 58 75 59 76 60 53 61 54 62 62 63 55 64 57 65
REMARK SMILES IDX 63 66 56 67 58 68 59 69 60 70 61 71 6 72 7 73 8 74 9 75
REMARK SMILES IDX 10 77 11 78 12 79 16 80 13 81 15 82 14 83 17 84 18 85 19 86
REMARK SMILES IDX 20 88 21 89 26 90 22 91 25 92 23 93 24 94
REMARK H PARENT 3 6 83 24 51 35 8 76 19 87
REMARK Flexibility Score: inf
ROOT
ATOM      1  C   UNL A   1      31.291  31.842  26.656  1.00  0.00     0.023 C 
ENDROOT
BRANCH   1   2
ATOM      2  C   UNL A   1      32.688  32.426  26.850  1.00  0.00     0.116 C 
BRANCH   2   3
ATOM      3  N   UNL A   1      32.640  33.764  27.414  1.00  0.00    -0.352 N 
ATOM      4  O   UNL A   1      32.940  35.363  28.961  1.00  0.00    -0.269 OA
ATOM      5  C   UNL A   1      33.323  34.299  28.480  1.00  0.00     0.251 C 
ATOM      6  H   UNL A   1      32.022  34.384  26.962  1.00  0.00     0.163 HD
BRANCH   5   7
ATOM      7  C   UNL A   1      34.498  33.605  29.057  1.00  0.00     0.039 A 
ATOM      8  C   UNL A   1      35.798  34.044  28.796  1.00  0.00     0.014 A 
ATOM      9  C   UNL A   1      34.290  32.539  29.939  1.00  0.00     0.014 A 
ATOM     10  C   UNL A   1      36.887  33.345  29.313  1.00  0.00     0.010 A 
ATOM     11  C   UNL A   1      35.384  31.886  30.519  1.00  0.00     0.010 A 
ATOM     12  C   UNL A   1      36.695  32.268  30.191  1.00  0.00    -0.014 A 
BRANCH  12  13
ATOM     13  C   UNL A   1      37.870  31.608  30.819  1.00  0.00     0.031 A 
ATOM     14  C   UNL A   1      38.271  31.908  32.238  1.00  0.00     0.074 A 
ATOM     15  C   UNL A   1      38.596  30.739  30.087  1.00  0.00     0.049 A 
ATOM     16  N   UNL A   1      39.252  31.399  32.939  1.00  0.00    -0.248 NA
ATOM     17  C   UNL A   1      37.477  32.912  32.963  1.00  0.00     0.031 C 
ATOM     18  C   UNL A   1      38.344  30.411  28.682  1.00  0.00     0.029 A 
ATOM     19  N   UNL A   1      39.694  29.984  30.413  1.00  0.00    -0.354 N 
ATOM     20  C   UNL A   1      39.219  32.041  34.171  1.00  0.00     0.074 A 
ATOM     21  C   UNL A   1      38.125  32.987  34.119  1.00  0.00     0.031 C 
ATOM     22  C   UNL A   1      39.252  29.514  28.270  1.00  0.00     0.029 A 
ATOM     23  C   UNL A   1      40.174  29.232  29.365  1.00  0.00     0.049 A 
ATOM     24  H   UNL A   1      40.099  29.981  31.309  1.00  0.00     0.167 HD
ATOM     25  C   UNL A   1      40.015  31.847  35.251  1.00  0.00     0.034 A 
ATOM     26  C   UNL A   1      41.243  28.418  29.287  1.00  0.00     0.034 A 
ATOM     27  C   UNL A   1      41.080  30.882  35.311  1.00  0.00     0.049 A 
ATOM     28  C   UNL A   1      42.088  28.199  30.509  1.00  0.00     0.074 A 
ATOM     29  C   UNL A   1      41.887  30.556  36.388  1.00  0.00     0.029 A 
ATOM     30  N   UNL A   1      41.499  30.093  34.249  1.00  0.00    -0.354 N 
ATOM     31  N   UNL A   1      41.940  28.699  31.711  1.00  0.00    -0.248 NA
ATOM     32  C   UNL A   1      43.226  27.279  30.374  1.00  0.00     0.031 C 
ATOM     33  C   UNL A   1      42.806  29.587  35.972  1.00  0.00     0.029 A 
ATOM     34  C   UNL A   1      42.559  29.293  34.641  1.00  0.00     0.049 A 
ATOM     35  H   UNL A   1      41.100  30.102  33.349  1.00  0.00     0.167 HD
ATOM     36  C   UNL A   1      42.951  28.139  32.483  1.00  0.00     0.074 A 
ATOM     37  C   UNL A   1      43.687  27.239  31.619  1.00  0.00     0.031 C 
ATOM     38  C   UNL A   1      43.254  28.365  33.785  1.00  0.00     0.034 A 
BRANCH  25  39
ATOM     39  C   UNL A   1      39.735  32.666  36.485  1.00  0.00     0.023 A 
ATOM     40  C   UNL A   1      40.406  33.893  36.670  1.00  0.00     0.012 A 
ATOM     41  C   UNL A   1      38.762  32.264  37.422  1.00  0.00     0.148 A 
ATOM     42  C   UNL A   1      40.132  34.693  37.779  1.00  0.00     0.002 A 
ATOM     43  C   UNL A   1      38.466  33.085  38.505  1.00  0.00     0.091 A 
ATOM     44  F   UNL A   1      38.149  31.085  37.242  1.00  0.00    -0.205 F 
ATOM     45  C   UNL A   1      39.156  34.295  38.689  1.00  0.00     0.022 A 
BRANCH  43  46
ATOM     46  S   UNL A   1      37.174  32.694  39.689  1.00  0.00     0.127 S 
ATOM     47  O   UNL A   1      37.629  31.407  40.208  1.00  0.00    -0.237 OA
ATOM     48  O   UNL A   1      37.277  33.803  40.639  1.00  0.00    -0.237 OA
ATOM     49  O   UNL A   1      35.932  32.664  38.929  1.00  0.00    -0.744 OA
ENDBRANCH  43  46
ENDBRANCH  25  39
BRANCH  26  50
ATOM     50  C   UNL A   1      41.535  27.710  28.008  1.00  0.00     0.023 A 
ATOM     51  C   UNL A   1      42.085  28.428  26.929  1.00  0.00     0.012 A 
ATOM     52  C   UNL A   1      41.323  26.324  27.877  1.00  0.00     0.148 A 
ATOM     53  C   UNL A   1      42.399  27.781  25.734  1.00  0.00     0.002 A 
ATOM     54  C   UNL A   1      41.692  25.677  26.704  1.00  0.00     0.091 A 
ATOM     55  F   UNL A   1      40.781  25.663  28.909  1.00  0.00    -0.205 F 
ATOM     56  C   UNL A   1      42.215  26.404  25.625  1.00  0.00     0.022 A 
BRANCH  54  57
ATOM     57  S   UNL A   1      41.621  23.889  26.536  1.00  0.00     0.127 S 
ATOM     58  O   UNL A   1      42.239  23.447  27.782  1.00  0.00    -0.237 OA
ATOM     59  O   UNL A   1      40.180  23.649  26.443  1.00  0.00    -0.237 OA
ATOM     60  O   UNL A   1      42.356  23.583  25.316  1.00  0.00    -0.744 OA
ENDBRANCH  54  57
ENDBRANCH  26  50
BRANCH  38  61
ATOM     61  C   UNL A   1      44.423  27.615  34.367  1.00  0.00     0.023 A 
ATOM     62  C   UNL A   1      45.723  28.141  34.236  1.00  0.00     0.012 A 
ATOM     63  C   UNL A   1      44.228  26.426  35.097  1.00  0.00     0.148 A 
ATOM     64  C   UNL A   1      46.816  27.481  34.796  1.00  0.00     0.002 A 
ATOM     65  C   UNL A   1      45.316  25.797  35.691  1.00  0.00     0.091 A 
ATOM     66  F   UNL A   1      42.987  25.929  35.192  1.00  0.00    -0.205 F 
ATOM     67  C   UNL A   1      46.612  26.317  35.533  1.00  0.00     0.022 A 
BRANCH  65  68
ATOM     68  S   UNL A   1      45.135  24.343  36.732  1.00  0.00     0.127 S 
ATOM     69  O   UNL A   1      46.499  24.155  37.223  1.00  0.00    -0.237 OA
ATOM     70  O   UNL A   1      44.179  24.799  37.742  1.00  0.00    -0.237 OA
ATOM     71  O   UNL A   1      44.631  23.291  35.860  1.00  0.00    -0.744 OA
ENDBRANCH  65  68
ENDBRANCH  38  61
ENDBRANCH  12  13
ENDBRANCH   5   7
ENDBRANCH   2   3
ENDBRANCH   1   2
BRANCH   1  72
ATOM     72  C   UNL A   1      31.204  30.702  25.631  1.00  0.00     0.023 C 
BRANCH  72  73
ATOM     73  C   UNL A   1      32.331  29.672  25.719  1.00  0.00     0.116 C 
BRANCH  73  74
ATOM     74  N   UNL A   1      33.170  29.703  24.539  1.00  0.00    -0.352 N 
ATOM     75  C   UNL A   1      33.789  28.689  23.869  1.00  0.00     0.252 C 
ATOM     76  H   UNL A   1      33.316  30.599  24.160  1.00  0.00     0.163 HD
ATOM     77  O   UNL A   1      34.605  28.956  22.993  1.00  0.00    -0.269 OA
BRANCH  75  78
ATOM     78  C   UNL A   1      33.570  27.272  24.213  1.00  0.00     0.052 A 
ATOM     79  C   UNL A   1      33.967  26.961  25.533  1.00  0.00     0.014 A 
ATOM     80  C   UNL A   1      33.074  26.261  23.378  1.00  0.00     0.052 A 
ATOM     81  C   UNL A   1      33.797  25.681  26.057  1.00  0.00     0.001 A 
ATOM     82  C   UNL A   1      32.891  24.976  23.941  1.00  0.00     0.014 A 
ATOM     83  C   UNL A   1      33.240  24.691  25.264  1.00  0.00     0.001 A 
BRANCH  80  84
ATOM     84  C   UNL A   1      32.580  26.384  21.977  1.00  0.00     0.257 C 
ATOM     85  O   UNL A   1      33.231  25.794  21.107  1.00  0.00    -0.269 OA
ATOM     86  N   UNL A   1      31.429  27.002  21.581  1.00  0.00    -0.307 N 
ATOM     87  H   UNL A   1      31.181  26.790  20.652  1.00  0.00     0.171 HD
BRANCH  86  88
ATOM     88  C   UNL A   1      30.533  27.861  22.194  1.00  0.00     0.132 A 
ATOM     89  C   UNL A   1      29.540  27.441  23.065  1.00  0.00     0.049 A 
ATOM     90  N   UNL A   1      30.704  29.150  21.831  1.00  0.00    -0.238 NA
ATOM     91  C   UNL A   1      28.602  28.380  23.498  1.00  0.00     0.026 A 
ATOM     92  C   UNL A   1      29.760  30.034  22.238  1.00  0.00     0.134 A 
ATOM     93  C   UNL A   1      28.691  29.693  23.047  1.00  0.00     0.059 A 
ATOM     94  Cl  UNL A   1      27.497  30.850  23.466  1.00  0.00    -0.083 Cl
ENDBRANCH  86  88
ENDBRANCH  80  84
ENDBRANCH  75  78
ENDBRANCH  73  74
ENDBRANCH  72  73
ENDBRANCH   1  72
TORSDOF 16
ENDMDL
MODEL 2
REMARK VINA RESULT:     -12.0      6.435      9.884
REMARK SMILES O=C(NCCCCNC(=O)c1ccccc1C(=O)Nc1ccc(Cl)cn1)c1ccc(-c2c3nc(c(-c4cccc(S(=O)(=O)[O-])c4F)c4ccc([nH]4)c(-c4cccc(S(=O)(=O)[O-])c4F)c4nc(c(-c5cccc(S(=O)(=O)[O-])c5F)c5ccc2[nH]5)C=C4)C=C3)cc1
REMARK SMILES IDX 5 1 4 2 3 3 1 4 2 5 27 7 28 8 89 9 29 10 88 11 30 12 31 13
REMARK SMILES IDX 32 14 82 15 33 16 87 17 81 18 83 19 34 20 86 21 80 22 79 23
REMARK SMILES IDX 35 25 67 26 47 27 66 28 48 29 51 30 65 31 84 32 49 33 50 34
REMARK SMILES IDX 64 36 85 37 52 38 36 39 37 40 45 41 38 42 40 43 46 44 39 45
REMARK SMILES IDX 41 46 42 47 43 48 44 49 68 50 69 51 77 52 70 53 72 54 78 55
REMARK SMILES IDX 71 56 73 57 74 58 75 59 76 60 53 61 54 62 62 63 55 64 57 65
REMARK SMILES IDX 63 66 56 67 58 68 59 69 60 70 61 71 6 72 7 73 8 74 9 75
REMARK SMILES IDX 10 77 11 78 12 79 16 80 13 81 15 82 14 83 17 84 18 85 19 86
REMARK SMILES IDX 20 88 21 89 26 90 22 91 25 92 23 93 24 94
REMARK H PARENT 3 6 83 24 51 35 8 76 19 87
REMARK Flexibility Score: inf
ROOT
ATOM      1  C   UNL A   1      37.717  19.401  24.925  1.00  0.00     0.023 C 
ENDROOT
BRANCH   1   2
ATOM      2  C   UNL A   1      38.822  20.108  25.704  1.00  0.00     0.116 C 
BRANCH   2   3
ATOM      3  N   UNL A   1      39.946  19.225  25.971  1.00  0.00    -0.352 N 
ATOM      4  O   UNL A   1      42.100  18.612  26.108  1.00  0.00    -0.269 OA
ATOM      5  C   UNL A   1      41.273  19.519  26.167  1.00  0.00     0.251 C 
ATOM      6  H   UNL A   1      39.720  18.268  26.017  1.00  0.00     0.163 HD
BRANCH   5   7
ATOM      7  C   UNL A   1      41.714  20.908  26.435  1.00  0.00     0.039 A 
ATOM      8  C   UNL A   1      41.867  21.831  25.398  1.00  0.00     0.014 A 
ATOM      9  C   UNL A   1      41.905  21.316  27.759  1.00  0.00     0.014 A 
ATOM     10  C   UNL A   1      42.328  23.118  25.671  1.00  0.00     0.010 A 
ATOM     11  C   UNL A   1      42.294  22.631  28.038  1.00  0.00     0.010 A 
ATOM     12  C   UNL A   1      42.533  23.538  26.994  1.00  0.00    -0.014 A 
BRANCH  12  13
ATOM     13  C   UNL A   1      42.917  24.948  27.270  1.00  0.00     0.031 A 
ATOM     14  C   UNL A   1      41.957  25.909  27.916  1.00  0.00     0.074 A 
ATOM     15  C   UNL A   1      44.147  25.368  26.912  1.00  0.00     0.049 A 
ATOM     16  N   UNL A   1      42.145  27.161  28.247  1.00  0.00    -0.248 NA
ATOM     17  C   UNL A   1      40.609  25.407  28.224  1.00  0.00     0.031 C 
ATOM     18  C   UNL A   1      45.147  24.549  26.224  1.00  0.00     0.029 A 
ATOM     19  N   UNL A   1      44.762  26.585  27.064  1.00  0.00    -0.354 N 
ATOM     20  C   UNL A   1      40.937  27.609  28.767  1.00  0.00     0.074 A 
ATOM     21  C   UNL A   1      40.015  26.495  28.700  1.00  0.00     0.031 C 
ATOM     22  C   UNL A   1      46.253  25.280  26.024  1.00  0.00     0.029 A 
ATOM     23  C   UNL A   1      46.030  26.629  26.532  1.00  0.00     0.049 A 
ATOM     24  H   UNL A   1      44.338  27.352  27.511  1.00  0.00     0.167 HD
ATOM     25  C   UNL A   1      40.631  28.829  29.272  1.00  0.00     0.034 A 
ATOM     26  C   UNL A   1      46.912  27.644  26.446  1.00  0.00     0.034 A 
ATOM     27  C   UNL A   1      41.559  29.924  29.369  1.00  0.00     0.049 A 
ATOM     28  C   UNL A   1      46.555  28.975  27.042  1.00  0.00     0.074 A 
ATOM     29  C   UNL A   1      41.364  31.170  29.940  1.00  0.00     0.029 A 
ATOM     30  N   UNL A   1      42.855  29.913  28.875  1.00  0.00    -0.354 N 
ATOM     31  N   UNL A   1      45.462  29.328  27.673  1.00  0.00    -0.248 NA
ATOM     32  C   UNL A   1      47.564  30.039  26.945  1.00  0.00     0.031 C 
ATOM     33  C   UNL A   1      42.534  31.919  29.772  1.00  0.00     0.029 A 
ATOM     34  C   UNL A   1      43.466  31.132  29.114  1.00  0.00     0.049 A 
ATOM     35  H   UNL A   1      43.279  29.148  28.420  1.00  0.00     0.167 HD
ATOM     36  C   UNL A   1      45.659  30.646  28.068  1.00  0.00     0.074 A 
ATOM     37  C   UNL A   1      46.988  31.019  27.631  1.00  0.00     0.031 C 
ATOM     38  C   UNL A   1      44.807  31.477  28.717  1.00  0.00     0.034 A 
BRANCH  25  39
ATOM     39  C   UNL A   1      39.237  29.037  29.808  1.00  0.00     0.023 A 
ATOM     40  C   UNL A   1      38.926  28.613  31.117  1.00  0.00     0.012 A 
ATOM     41  C   UNL A   1      38.260  29.715  29.052  1.00  0.00     0.148 A 
ATOM     42  C   UNL A   1      37.660  28.836  31.654  1.00  0.00     0.002 A 
ATOM     43  C   UNL A   1      37.010  29.968  29.609  1.00  0.00     0.091 A 
ATOM     44  F   UNL A   1      38.565  30.094  27.803  1.00  0.00    -0.205 F 
ATOM     45  C   UNL A   1      36.706  29.522  30.906  1.00  0.00     0.022 A 
BRANCH  43  46
ATOM     46  S   UNL A   1      35.743  30.909  28.752  1.00  0.00     0.127 S 
ATOM     47  O   UNL A   1      35.005  29.851  28.065  1.00  0.00    -0.237 OA
ATOM     48  O   UNL A   1      35.018  31.535  29.859  1.00  0.00    -0.237 OA
ATOM     49  O   UNL A   1      36.454  31.843  27.890  1.00  0.00    -0.744 OA
ENDBRANCH  43  46
ENDBRANCH  25  39
BRANCH  26  50
ATOM     50  C   UNL A   1      48.240  27.411  25.812  1.00  0.00     0.023 A 
ATOM     51  C   UNL A   1      49.317  26.966  26.603  1.00  0.00     0.012 A 
ATOM     52  C   UNL A   1      48.425  27.574  24.426  1.00  0.00     0.148 A 
ATOM     53  C   UNL A   1      50.560  26.708  26.027  1.00  0.00     0.002 A 
ATOM     54  C   UNL A   1      49.650  27.260  23.851  1.00  0.00     0.091 A 
ATOM     55  F   UNL A   1      47.393  28.017  23.694  1.00  0.00    -0.205 F 
ATOM     56  C   UNL A   1      50.724  26.842  24.650  1.00  0.00     0.022 A 
BRANCH  54  57
ATOM     57  S   UNL A   1      49.901  27.269  22.072  1.00  0.00     0.127 S 
ATOM     58  O   UNL A   1      49.717  28.681  21.750  1.00  0.00    -0.237 OA
ATOM     59  O   UNL A   1      51.277  26.784  21.956  1.00  0.00    -0.237 OA
ATOM     60  O   UNL A   1      48.901  26.357  21.533  1.00  0.00    -0.744 OA
ENDBRANCH  54  57
ENDBRANCH  26  50
BRANCH  38  61
ATOM     61  C   UNL A   1      45.289  32.873  29.014  1.00  0.00     0.023 A 
ATOM     62  C   UNL A   1      46.032  33.118  30.186  1.00  0.00     0.012 A 
ATOM     63  C   UNL A   1      45.064  33.925  28.105  1.00  0.00     0.148 A 
ATOM     64  C   UNL A   1      46.518  34.395  30.464  1.00  0.00     0.002 A 
ATOM     65  C   UNL A   1      45.590  35.184  28.366  1.00  0.00     0.091 A 
ATOM     66  F   UNL A   1      44.337  33.678  27.007  1.00  0.00    -0.205 F 
ATOM     67  C   UNL A   1      46.308  35.424  29.550  1.00  0.00     0.022 A 
BRANCH  65  68
ATOM     68  S   UNL A   1      45.445  36.546  27.203  1.00  0.00     0.127 S 
ATOM     69  O   UNL A   1      44.028  36.487  26.849  1.00  0.00    -0.237 OA
ATOM     70  O   UNL A   1      45.822  37.699  28.021  1.00  0.00    -0.237 OA
ATOM     71  O   UNL A   1      46.374  36.247  26.122  1.00  0.00    -0.744 OA
ENDBRANCH  65  68
ENDBRANCH  38  61
ENDBRANCH  12  13
ENDBRANCH   5   7
ENDBRANCH   2   3
ENDBRANCH   1   2
BRANCH   1  72
ATOM     72  C   UNL A   1      36.362  20.122  24.926  1.00  0.00     0.023 C 
BRANCH  72  73
ATOM     73  C   UNL A   1      36.420  21.596  25.326  1.00  0.00     0.116 C 
BRANCH  73  74
ATOM     74  N   UNL A   1      35.723  21.835  26.573  1.00  0.00    -0.352 N 
ATOM     75  C   UNL A   1      34.708  22.697  26.867  1.00  0.00     0.252 C 
ATOM     76  H   UNL A   1      36.030  21.285  27.330  1.00  0.00     0.163 HD
ATOM     77  O   UNL A   1      34.383  22.869  28.037  1.00  0.00    -0.269 OA
BRANCH  75  78
ATOM     78  C   UNL A   1      34.032  23.497  25.828  1.00  0.00     0.052 A 
ATOM     79  C   UNL A   1      34.903  24.401  25.180  1.00  0.00     0.014 A 
ATOM     80  C   UNL A   1      32.673  23.469  25.484  1.00  0.00     0.052 A 
ATOM     81  C   UNL A   1      34.459  25.213  24.138  1.00  0.00     0.001 A 
ATOM     82  C   UNL A   1      32.253  24.286  24.409  1.00  0.00     0.014 A 
ATOM     83  C   UNL A   1      33.134  25.141  23.740  1.00  0.00     0.001 A 
BRANCH  80  84
ATOM     84  C   UNL A   1      31.606  22.580  26.023  1.00  0.00     0.257 C 
ATOM     85  O   UNL A   1      30.790  23.100  26.792  1.00  0.00    -0.269 OA
ATOM     86  N   UNL A   1      31.388  21.278  25.671  1.00  0.00    -0.307 N 
ATOM     87  H   UNL A   1      30.515  20.940  25.977  1.00  0.00     0.171 HD
BRANCH  86  88
ATOM     88  C   UNL A   1      32.121  20.329  24.981  1.00  0.00     0.132 A 
ATOM     89  C   UNL A   1      32.315  20.357  23.609  1.00  0.00     0.049 A 
ATOM     90  N   UNL A   1      32.603  19.350  25.777  1.00  0.00    -0.238 NA
ATOM     91  C   UNL A   1      32.941  19.262  23.009  1.00  0.00     0.026 A 
ATOM     92  C   UNL A   1      33.175  18.285  25.166  1.00  0.00     0.134 A 
ATOM     93  C   UNL A   1      33.344  18.190  23.797  1.00  0.00     0.059 A 
ATOM     94  Cl  UNL A   1      34.015  16.780  23.087  1.00  0.00    -0.083 Cl
ENDBRANCH  86  88
ENDBRANCH  80  84
ENDBRANCH  75  78
ENDBRANCH  73  74
ENDBRANCH  72  73
ENDBRANCH   1  72
TORSDOF 16
ENDMDL
MODEL 3
REMARK VINA RESULT:     -12.0      1.884      7.920
REMARK SMILES O=C(NCCCCNC(=O)c1ccccc1C(=O)Nc1ccc(Cl)cn1)c1ccc(-c2c3nc(c(-c4cccc(S(=O)(=O)[O-])c4F)c4ccc([nH]4)c(-c4cccc(S(=O)(=O)[O-])c4F)c4nc(c(-c5cccc(S(=O)(=O)[O-])c5F)c5ccc2[nH]5)C=C4)C=C3)cc1
REMARK SMILES IDX 5 1 4 2 3 3 1 4 2 5 27 7 28 8 89 9 29 10 88 11 30 12 31 13
REMARK SMILES IDX 32 14 82 15 33 16 87 17 81 18 83 19 34 20 86 21 80 22 79 23
REMARK SMILES IDX 35 25 67 26 47 27 66 28 48 29 51 30 65 31 84 32 49 33 50 34
REMARK SMILES IDX 64 36 85 37 52 38 36 39 37 40 45 41 38 42 40 43 46 44 39 45
REMARK SMILES IDX 41 46 42 47 43 48 44 49 68 50 69 51 77 52 70 53 72 54 78 55
REMARK SMILES IDX 71 56 73 57 74 58 75 59 76 60 53 61 54 62 62 63 55 64 57 65
REMARK SMILES IDX 63 66 56 67 58 68 59 69 60 70 61 71 6 72 7 73 8 74 9 75
REMARK SMILES IDX 10 77 11 78 12 79 16 80 13 81 15 82 14 83 17 84 18 85 19 86
REMARK SMILES IDX 20 88 21 89 26 90 22 91 25 92 23 93 24 94
REMARK H PARENT 3 6 83 24 51 35 8 76 19 87
REMARK Flexibility Score: inf
ROOT
ATOM      1  C   UNL A   1      31.362  32.457  26.563  1.00  0.00     0.023 C 
ENDROOT
BRANCH   1   2
ATOM      2  C   UNL A   1      32.583  32.891  27.369  1.00  0.00     0.116 C 
BRANCH   2   3
ATOM      3  N   UNL A   1      32.494  34.285  27.774  1.00  0.00    -0.352 N 
ATOM      4  O   UNL A   1      32.690  36.050  29.146  1.00  0.00    -0.269 OA
ATOM      5  C   UNL A   1      33.106  34.943  28.814  1.00  0.00     0.251 C 
ATOM      6  H   UNL A   1      31.905  34.843  27.217  1.00  0.00     0.163 HD
BRANCH   5   7
ATOM      7  C   UNL A   1      34.243  34.330  29.539  1.00  0.00     0.039 A 
ATOM      8  C   UNL A   1      34.033  33.457  30.609  1.00  0.00     0.014 A 
ATOM      9  C   UNL A   1      35.545  34.575  29.090  1.00  0.00     0.014 A 
ATOM     10  C   UNL A   1      35.120  32.931  31.304  1.00  0.00     0.010 A 
ATOM     11  C   UNL A   1      36.634  33.984  29.742  1.00  0.00     0.010 A 
ATOM     12  C   UNL A   1      36.433  33.176  30.872  1.00  0.00    -0.014 A 
BRANCH  12  13
ATOM     13  C   UNL A   1      37.573  32.515  31.560  1.00  0.00     0.031 A 
ATOM     14  C   UNL A   1      38.305  31.361  30.931  1.00  0.00     0.074 A 
ATOM     15  C   UNL A   1      37.938  32.954  32.782  1.00  0.00     0.049 A 
ATOM     16  N   UNL A   1      39.333  30.693  31.388  1.00  0.00    -0.248 NA
ATOM     17  C   UNL A   1      37.818  30.888  29.626  1.00  0.00     0.031 C 
ATOM     18  C   UNL A   1      37.268  34.025  33.523  1.00  0.00     0.029 A 
ATOM     19  N   UNL A   1      38.948  32.551  33.619  1.00  0.00    -0.354 N 
ATOM     20  C   UNL A   1      39.597  29.702  30.451  1.00  0.00     0.074 A 
ATOM     21  C   UNL A   1      38.611  29.848  29.400  1.00  0.00     0.031 C 
ATOM     22  C   UNL A   1      37.890  34.203  34.697  1.00  0.00     0.029 A 
ATOM     23  C   UNL A   1      38.977  33.235  34.812  1.00  0.00     0.049 A 
ATOM     24  H   UNL A   1      39.589  31.842  33.388  1.00  0.00     0.167 HD
ATOM     25  C   UNL A   1      40.580  28.768  30.456  1.00  0.00     0.034 A 
ATOM     26  C   UNL A   1      39.776  33.094  35.886  1.00  0.00     0.034 A 
ATOM     27  C   UNL A   1      41.578  28.647  31.485  1.00  0.00     0.049 A 
ATOM     28  C   UNL A   1      40.876  32.072  35.850  1.00  0.00     0.074 A 
ATOM     29  C   UNL A   1      42.662  27.787  31.536  1.00  0.00     0.029 A 
ATOM     30  N   UNL A   1      41.613  29.399  32.651  1.00  0.00    -0.354 N 
ATOM     31  N   UNL A   1      41.205  31.251  34.882  1.00  0.00    -0.248 NA
ATOM     32  C   UNL A   1      41.736  31.978  37.038  1.00  0.00     0.031 C 
ATOM     33  C   UNL A   1      43.339  28.003  32.741  1.00  0.00     0.029 A 
ATOM     34  C   UNL A   1      42.690  29.013  33.432  1.00  0.00     0.049 A 
ATOM     35  H   UNL A   1      40.967  30.103  32.887  1.00  0.00     0.167 HD
ATOM     36  C   UNL A   1      42.323  30.559  35.333  1.00  0.00     0.074 A 
ATOM     37  C   UNL A   1      42.632  31.078  36.650  1.00  0.00     0.031 C 
ATOM     38  C   UNL A   1      43.017  29.569  34.720  1.00  0.00     0.034 A 
BRANCH  25  39
ATOM     39  C   UNL A   1      40.658  27.824  29.283  1.00  0.00     0.023 A 
ATOM     40  C   UNL A   1      39.803  26.703  29.237  1.00  0.00     0.012 A 
ATOM     41  C   UNL A   1      41.518  28.082  28.196  1.00  0.00     0.148 A 
ATOM     42  C   UNL A   1      39.821  25.840  28.143  1.00  0.00     0.002 A 
ATOM     43  C   UNL A   1      41.502  27.237  27.091  1.00  0.00     0.091 A 
ATOM     44  F   UNL A   1      42.338  29.140  28.266  1.00  0.00    -0.205 F 
ATOM     45  C   UNL A   1      40.662  26.112  27.067  1.00  0.00     0.022 A 
BRANCH  43  46
ATOM     46  S   UNL A   1      42.494  27.547  25.626  1.00  0.00     0.127 S 
ATOM     47  O   UNL A   1      43.850  27.477  26.167  1.00  0.00    -0.237 OA
ATOM     48  O   UNL A   1      42.127  26.426  24.759  1.00  0.00    -0.237 OA
ATOM     49  O   UNL A   1      42.079  28.852  25.132  1.00  0.00    -0.744 OA
ENDBRANCH  43  46
ENDBRANCH  25  39
BRANCH  26  50
ATOM     50  C   UNL A   1      39.589  33.987  37.064  1.00  0.00     0.023 A 
ATOM     51  C   UNL A   1      39.932  35.349  36.963  1.00  0.00     0.012 A 
ATOM     52  C   UNL A   1      39.024  33.507  38.261  1.00  0.00     0.148 A 
ATOM     53  C   UNL A   1      39.734  36.212  38.040  1.00  0.00     0.002 A 
ATOM     54  C   UNL A   1      38.776  34.385  39.309  1.00  0.00     0.091 A 
ATOM     55  F   UNL A   1      38.722  32.204  38.344  1.00  0.00    -0.205 F 
ATOM     56  C   UNL A   1      39.145  35.734  39.208  1.00  0.00     0.022 A 
BRANCH  54  57
ATOM     57  S   UNL A   1      37.892  33.880  40.790  1.00  0.00     0.127 S 
ATOM     58  O   UNL A   1      38.889  33.058  41.468  1.00  0.00    -0.237 OA
ATOM     59  O   UNL A   1      37.612  35.167  41.430  1.00  0.00    -0.237 OA
ATOM     60  O   UNL A   1      36.705  33.181  40.315  1.00  0.00    -0.744 OA
ENDBRANCH  54  57
ENDBRANCH  26  50
BRANCH  38  61
ATOM     61  C   UNL A   1      44.196  28.989  35.456  1.00  0.00     0.023 A 
ATOM     62  C   UNL A   1      45.473  29.562  35.287  1.00  0.00     0.012 A 
ATOM     63  C   UNL A   1      44.031  27.923  36.361  1.00  0.00     0.148 A 
ATOM     64  C   UNL A   1      46.572  29.063  35.983  1.00  0.00     0.002 A 
ATOM     65  C   UNL A   1      45.123  27.460  37.086  1.00  0.00     0.091 A 
ATOM     66  F   UNL A   1      42.814  27.377  36.492  1.00  0.00    -0.205 F 
ATOM     67  C   UNL A   1      46.396  28.022  36.891  1.00  0.00     0.022 A 
BRANCH  65  68
ATOM     68  S   UNL A   1      44.971  26.183  38.341  1.00  0.00     0.127 S 
ATOM     69  O   UNL A   1      44.466  25.055  37.559  1.00  0.00    -0.237 OA
ATOM     70  O   UNL A   1      46.350  26.035  38.806  1.00  0.00    -0.237 OA
ATOM     71  O   UNL A   1      44.053  26.714  39.339  1.00  0.00    -0.744 OA
ENDBRANCH  65  68
ENDBRANCH  38  61
ENDBRANCH  12  13
ENDBRANCH   5   7
ENDBRANCH   2   3
ENDBRANCH   1   2
BRANCH   1  72
ATOM     72  C   UNL A   1      31.350  30.977  26.154  1.00  0.00     0.023 C 
BRANCH  72  73
ATOM     73  C   UNL A   1      32.259  30.074  26.988  1.00  0.00     0.116 C 
BRANCH  73  74
ATOM     74  N   UNL A   1      31.656  28.775  27.209  1.00  0.00    -0.352 N 
ATOM     75  C   UNL A   1      31.454  27.737  26.347  1.00  0.00     0.252 C 
ATOM     76  H   UNL A   1      31.344  28.616  28.129  1.00  0.00     0.163 HD
ATOM     77  O   UNL A   1      30.759  26.790  26.699  1.00  0.00    -0.269 OA
BRANCH  75  78
ATOM     78  C   UNL A   1      31.980  27.747  24.970  1.00  0.00     0.052 A 
ATOM     79  C   UNL A   1      33.332  28.153  24.902  1.00  0.00     0.014 A 
ATOM     80  C   UNL A   1      31.281  27.451  23.791  1.00  0.00     0.052 A 
ATOM     81  C   UNL A   1      34.018  28.184  23.690  1.00  0.00     0.001 A 
ATOM     82  C   UNL A   1      32.006  27.468  22.577  1.00  0.00     0.014 A 
ATOM     83  C   UNL A   1      33.358  27.822  22.527  1.00  0.00     0.001 A 
BRANCH  80  84
ATOM     84  C   UNL A   1      29.873  26.984  23.649  1.00  0.00     0.257 C 
ATOM     85  O   UNL A   1      29.660  25.789  23.887  1.00  0.00    -0.269 OA
ATOM     86  N   UNL A   1      28.788  27.769  23.379  1.00  0.00    -0.307 N 
ATOM     87  H   UNL A   1      27.933  27.306  23.537  1.00  0.00     0.171 HD
BRANCH  86  88
ATOM     88  C   UNL A   1      28.623  29.068  22.932  1.00  0.00     0.132 A 
ATOM     89  C   UNL A   1      27.857  30.015  23.593  1.00  0.00     0.049 A 
ATOM     90  N   UNL A   1      29.258  29.311  21.766  1.00  0.00    -0.238 NA
ATOM     91  C   UNL A   1      27.640  31.243  22.964  1.00  0.00     0.026 A 
ATOM     92  C   UNL A   1      29.003  30.497  21.162  1.00  0.00     0.134 A 
ATOM     93  C   UNL A   1      28.192  31.475  21.710  1.00  0.00     0.059 A 
ATOM     94  Cl  UNL A   1      27.860  32.925  20.856  1.00  0.00    -0.083 Cl
ENDBRANCH  86  88
ENDBRANCH  80  84
ENDBRANCH  75  78
ENDBRANCH  73  74
ENDBRANCH  72  73
ENDBRANCH   1  72
TORSDOF 16
ENDMDL
