MODEL 1
REMARK VINA RESULT:     -11.9      0.000      0.000
REMARK SMILES Cc1cc(C(=O)NCCCCNC(=O)c2ccc(-c3c4nc(c(-c5cccc(S(=O)(=O)[O-])c5F)c5ccc([nH]5)c(-c5cccc(S(=O)(=O)[O-])c5F)c5nc(c(-c6cccc(S(=O)(=O)[O-])c6F)c6ccc3[nH]6)C=C5)C=C4)cc2)nn1[C@H]1CCS(=O)(=O)C1
REMARK SMILES IDX 10 1 9 2 8 3 7 4 5 5 6 6 4 8 1 9 2 10 3 11 79 12 78 13 80 14
REMARK SMILES IDX 81 15 86 16 82 17 83 18 84 19 85 20 11 21 12 22 13 23 14 25
REMARK SMILES IDX 15 26 16 27 77 28 17 29 76 30 18 31 19 32 20 33 70 34 21 35
REMARK SMILES IDX 75 36 69 37 71 38 22 39 74 40 68 41 67 42 23 44 55 45 35 46
REMARK SMILES IDX 54 47 36 48 39 49 53 50 72 51 37 52 38 53 52 55 73 56 40 57
REMARK SMILES IDX 24 58 25 59 33 60 26 61 28 62 34 63 27 64 29 65 30 66 31 67
REMARK SMILES IDX 32 68 56 69 57 70 65 71 58 72 60 73 66 74 59 75 61 76 62 77
REMARK SMILES IDX 63 78 64 79 41 80 42 81 50 82 43 83 45 84 51 85 44 86 46 87
REMARK SMILES IDX 47 88 48 89 49 90
REMARK H PARENT 7 7 12 24 71 43 39 54
REMARK Flexibility Score: inf
ROOT
ATOM      1  C   UNL A   1      38.946  20.437  25.214  1.00  0.00     0.023 C 
ENDROOT
BRANCH   1   2
ATOM      2  C   UNL A   1      38.278  21.777  25.566  1.00  0.00     0.023 C 
BRANCH   2   3
ATOM      3  C   UNL A   1      36.794  21.879  25.210  1.00  0.00     0.116 C 
BRANCH   3   4
ATOM      4  N   UNL A   1      35.964  21.735  26.378  1.00  0.00    -0.351 N 
ATOM      5  C   UNL A   1      34.604  21.642  26.516  1.00  0.00     0.271 C 
ATOM      6  O   UNL A   1      34.178  21.544  27.669  1.00  0.00    -0.267 OA
ATOM      7  H   UNL A   1      36.461  21.695  27.227  1.00  0.00     0.163 HD
BRANCH   5   8
ATOM      8  C   UNL A   1      33.690  21.707  25.359  1.00  0.00     0.150 A 
ATOM      9  C   UNL A   1      31.840  20.936  22.244  1.00  0.00     0.066 C 
ATOM     10  C   UNL A   1      32.547  21.462  23.435  1.00  0.00     0.036 A 
ATOM     11  C   UNL A   1      33.346  20.779  24.342  1.00  0.00     0.059 A 
ATOM     12  N   UNL A   1      32.589  22.763  23.861  1.00  0.00    -0.265 N 
ATOM     13  N   UNL A   1      33.060  22.864  25.109  1.00  0.00    -0.167 NA
BRANCH  12  14
ATOM     14  C   UNL A   1      32.628  24.021  23.147  1.00  0.00     0.123 C 
ATOM     15  C   UNL A   1      31.279  24.753  23.300  1.00  0.00     0.044 C 
ATOM     16  C   UNL A   1      33.682  25.066  23.457  1.00  0.00     0.164 C 
ATOM     17  C   UNL A   1      31.383  25.975  22.406  1.00  0.00     0.139 C 
ATOM     18  S   UNL A   1      33.088  26.496  22.553  1.00  0.00     0.152 S 
ATOM     19  O   UNL A   1      33.689  26.490  21.230  1.00  0.00    -0.229 OA
ATOM     20  O   UNL A   1      33.154  27.649  23.417  1.00  0.00    -0.229 OA
ENDBRANCH  12  14
ENDBRANCH   5   8
ENDBRANCH   3   4
ENDBRANCH   2   3
ENDBRANCH   1   2
BRANCH   1  21
ATOM     21  C   UNL A   1      39.633  19.732  26.380  1.00  0.00     0.116 C 
BRANCH  21  22
ATOM     22  N   UNL A   1      40.885  19.079  25.991  1.00  0.00    -0.352 N 
ATOM     23  C   UNL A   1      42.122  19.655  25.770  1.00  0.00     0.251 C 
ATOM     24  H   UNL A   1      40.839  18.102  25.871  1.00  0.00     0.163 HD
ATOM     25  O   UNL A   1      42.969  19.080  25.096  1.00  0.00    -0.269 OA
BRANCH  23  26
ATOM     26  C   UNL A   1      42.411  20.966  26.376  1.00  0.00     0.039 A 
ATOM     27  C   UNL A   1      42.501  22.128  25.609  1.00  0.00     0.014 A 
ATOM     28  C   UNL A   1      42.550  21.012  27.758  1.00  0.00     0.014 A 
ATOM     29  C   UNL A   1      42.645  23.349  26.266  1.00  0.00     0.010 A 
ATOM     30  C   UNL A   1      42.513  22.217  28.408  1.00  0.00     0.010 A 
ATOM     31  C   UNL A   1      42.624  23.386  27.670  1.00  0.00    -0.014 A 
BRANCH  31  32
ATOM     32  C   UNL A   1      42.581  24.657  28.384  1.00  0.00     0.031 A 
ATOM     33  C   UNL A   1      41.340  25.432  28.126  1.00  0.00     0.074 A 
ATOM     34  C   UNL A   1      43.463  24.988  29.355  1.00  0.00     0.049 A 
ATOM     35  N   UNL A   1      41.208  26.475  27.376  1.00  0.00    -0.248 NA
ATOM     36  C   UNL A   1      40.058  24.869  28.585  1.00  0.00     0.031 C 
ATOM     37  C   UNL A   1      44.502  24.123  29.939  1.00  0.00     0.029 A 
ATOM     38  N   UNL A   1      43.535  26.103  30.135  1.00  0.00    -0.354 N 
ATOM     39  C   UNL A   1      39.882  26.874  27.548  1.00  0.00     0.074 A 
ATOM     40  C   UNL A   1      39.184  25.721  28.043  1.00  0.00     0.031 C 
ATOM     41  C   UNL A   1      44.889  24.623  31.130  1.00  0.00     0.029 A 
ATOM     42  C   UNL A   1      44.289  25.931  31.295  1.00  0.00     0.049 A 
ATOM     43  H   UNL A   1      43.095  26.952  29.901  1.00  0.00     0.167 HD
ATOM     44  C   UNL A   1      39.573  28.198  27.637  1.00  0.00     0.034 A 
ATOM     45  C   UNL A   1      44.393  26.789  32.337  1.00  0.00     0.034 A 
ATOM     46  C   UNL A   1      40.711  29.002  27.266  1.00  0.00     0.049 A 
ATOM     47  C   UNL A   1      44.039  28.132  31.836  1.00  0.00     0.074 A 
ATOM     48  C   UNL A   1      41.386  29.338  26.116  1.00  0.00     0.029 A 
ATOM     49  N   UNL A   1      41.535  29.269  28.328  1.00  0.00    -0.354 N 
ATOM     50  N   UNL A   1      44.739  28.762  30.933  1.00  0.00    -0.248 NA
ATOM     51  C   UNL A   1      42.699  28.654  32.074  1.00  0.00     0.031 C 
ATOM     52  C   UNL A   1      42.712  29.677  26.524  1.00  0.00     0.029 A 
ATOM     53  C   UNL A   1      42.795  29.587  27.913  1.00  0.00     0.049 A 
ATOM     54  H   UNL A   1      41.253  29.235  29.270  1.00  0.00     0.167 HD
ATOM     55  C   UNL A   1      43.782  29.423  30.185  1.00  0.00     0.074 A 
ATOM     56  C   UNL A   1      42.600  29.484  31.033  1.00  0.00     0.031 C 
ATOM     57  C   UNL A   1      43.911  29.543  28.833  1.00  0.00     0.034 A 
BRANCH  44  58
ATOM     58  C   UNL A   1      38.503  28.815  28.529  1.00  0.00     0.023 A 
ATOM     59  C   UNL A   1      37.582  29.690  27.900  1.00  0.00     0.012 A 
ATOM     60  C   UNL A   1      38.530  28.843  29.942  1.00  0.00     0.148 A 
ATOM     61  C   UNL A   1      36.786  30.581  28.630  1.00  0.00     0.002 A 
ATOM     62  C   UNL A   1      37.687  29.681  30.667  1.00  0.00     0.091 A 
ATOM     63  F   UNL A   1      39.460  28.161  30.612  1.00  0.00    -0.205 F 
ATOM     64  C   UNL A   1      36.835  30.574  30.016  1.00  0.00     0.022 A 
BRANCH  62  65
ATOM     65  S   UNL A   1      37.690  29.696  32.466  1.00  0.00     0.127 S 
ATOM     66  O   UNL A   1      36.583  30.603  32.751  1.00  0.00    -0.237 OA
ATOM     67  O   UNL A   1      37.436  28.287  32.772  1.00  0.00    -0.237 OA
ATOM     68  O   UNL A   1      39.016  30.160  32.853  1.00  0.00    -0.744 OA
ENDBRANCH  62  65
ENDBRANCH  44  58
BRANCH  45  69
ATOM     69  C   UNL A   1      44.581  26.507  33.778  1.00  0.00     0.023 A 
ATOM     70  C   UNL A   1      45.845  26.680  34.373  1.00  0.00     0.012 A 
ATOM     71  C   UNL A   1      43.460  26.344  34.621  1.00  0.00     0.148 A 
ATOM     72  C   UNL A   1      45.985  26.729  35.766  1.00  0.00     0.002 A 
ATOM     73  C   UNL A   1      43.604  26.391  36.004  1.00  0.00     0.091 A 
ATOM     74  F   UNL A   1      42.248  26.233  34.062  1.00  0.00    -0.205 F 
ATOM     75  C   UNL A   1      44.863  26.597  36.580  1.00  0.00     0.022 A 
BRANCH  73  76
ATOM     76  S   UNL A   1      42.202  26.254  37.123  1.00  0.00     0.127 S 
ATOM     77  O   UNL A   1      42.861  26.288  38.428  1.00  0.00    -0.237 OA
ATOM     78  O   UNL A   1      41.436  27.453  36.792  1.00  0.00    -0.237 OA
ATOM     79  O   UNL A   1      41.564  24.985  36.801  1.00  0.00    -0.744 OA
ENDBRANCH  73  76
ENDBRANCH  45  69
BRANCH  57  80
ATOM     80  C   UNL A   1      45.286  29.465  28.244  1.00  0.00     0.023 A 
ATOM     81  C   UNL A   1      46.231  30.503  28.336  1.00  0.00     0.012 A 
ATOM     82  C   UNL A   1      45.669  28.230  27.697  1.00  0.00     0.148 A 
ATOM     83  C   UNL A   1      47.541  30.307  27.882  1.00  0.00     0.002 A 
ATOM     84  C   UNL A   1      46.980  28.022  27.297  1.00  0.00     0.091 A 
ATOM     85  F   UNL A   1      44.742  27.263  27.609  1.00  0.00    -0.205 F 
ATOM     86  C   UNL A   1      47.918  29.061  27.379  1.00  0.00     0.022 A 
BRANCH  84  87
ATOM     87  S   UNL A   1      47.545  26.405  26.767  1.00  0.00     0.127 S 
ATOM     88  O   UNL A   1      48.962  26.648  26.505  1.00  0.00    -0.237 OA
ATOM     89  O   UNL A   1      47.270  25.580  27.944  1.00  0.00    -0.237 OA
ATOM     90  O   UNL A   1      46.744  26.061  25.599  1.00  0.00    -0.744 OA
ENDBRANCH  84  87
ENDBRANCH  57  80
ENDBRANCH  31  32
ENDBRANCH  23  26
ENDBRANCH  21  22
ENDBRANCH   1  21
TORSDOF 15
ENDMDL
MODEL 2
REMARK VINA RESULT:     -11.8      4.451      9.537
REMARK SMILES Cc1cc(C(=O)NCCCCNC(=O)c2ccc(-c3c4nc(c(-c5cccc(S(=O)(=O)[O-])c5F)c5ccc([nH]5)c(-c5cccc(S(=O)(=O)[O-])c5F)c5nc(c(-c6cccc(S(=O)(=O)[O-])c6F)c6ccc3[nH]6)C=C5)C=C4)cc2)nn1[C@H]1CCS(=O)(=O)C1
REMARK SMILES IDX 10 1 9 2 8 3 7 4 5 5 6 6 4 8 1 9 2 10 3 11 79 12 78 13 80 14
REMARK SMILES IDX 81 15 86 16 82 17 83 18 84 19 85 20 11 21 12 22 13 23 14 25
REMARK SMILES IDX 15 26 16 27 77 28 17 29 76 30 18 31 19 32 20 33 70 34 21 35
REMARK SMILES IDX 75 36 69 37 71 38 22 39 74 40 68 41 67 42 23 44 55 45 35 46
REMARK SMILES IDX 54 47 36 48 39 49 53 50 72 51 37 52 38 53 52 55 73 56 40 57
REMARK SMILES IDX 24 58 25 59 33 60 26 61 28 62 34 63 27 64 29 65 30 66 31 67
REMARK SMILES IDX 32 68 56 69 57 70 65 71 58 72 60 73 66 74 59 75 61 76 62 77
REMARK SMILES IDX 63 78 64 79 41 80 42 81 50 82 43 83 45 84 51 85 44 86 46 87
REMARK SMILES IDX 47 88 48 89 49 90
REMARK H PARENT 7 7 12 24 71 43 39 54
REMARK Flexibility Score: inf
ROOT
ATOM      1  C   UNL A   1      32.934  32.068  27.910  1.00  0.00     0.023 C 
ENDROOT
BRANCH   1   2
ATOM      2  C   UNL A   1      34.194  31.209  27.704  1.00  0.00     0.023 C 
BRANCH   2   3
ATOM      3  C   UNL A   1      33.964  29.878  26.987  1.00  0.00     0.116 C 
BRANCH   3   4
ATOM      4  N   UNL A   1      32.998  29.067  27.683  1.00  0.00    -0.351 N 
ATOM      5  C   UNL A   1      32.114  28.123  27.229  1.00  0.00     0.271 C 
ATOM      6  O   UNL A   1      31.388  27.603  28.079  1.00  0.00    -0.267 OA
ATOM      7  H   UNL A   1      32.968  29.217  28.655  1.00  0.00     0.163 HD
BRANCH   5   8
ATOM      8  C   UNL A   1      31.995  27.780  25.799  1.00  0.00     0.150 A 
ATOM      9  C   UNL A   1      32.742  27.074  22.240  1.00  0.00     0.066 C 
ATOM     10  C   UNL A   1      32.239  27.420  23.590  1.00  0.00     0.036 A 
ATOM     11  C   UNL A   1      32.950  27.552  24.774  1.00  0.00     0.059 A 
ATOM     12  N   UNL A   1      30.950  27.727  23.935  1.00  0.00    -0.265 N 
ATOM     13  N   UNL A   1      30.770  27.707  25.260  1.00  0.00    -0.167 NA
BRANCH  12  14
ATOM     14  C   UNL A   1      29.899  28.440  23.241  1.00  0.00     0.123 C 
ATOM     15  C   UNL A   1      28.528  27.821  23.583  1.00  0.00     0.044 C 
ATOM     16  C   UNL A   1      29.713  29.935  23.422  1.00  0.00     0.164 C 
ATOM     17  C   UNL A   1      27.529  28.547  22.701  1.00  0.00     0.139 C 
ATOM     18  S   UNL A   1      28.133  30.229  22.628  1.00  0.00     0.152 S 
ATOM     19  O   UNL A   1      28.372  30.574  21.235  1.00  0.00    -0.229 OA
ATOM     20  O   UNL A   1      27.328  31.056  23.491  1.00  0.00    -0.229 OA
ENDBRANCH  12  14
ENDBRANCH   5   8
ENDBRANCH   3   4
ENDBRANCH   2   3
ENDBRANCH   1   2
BRANCH   1  21
ATOM     21  C   UNL A   1      33.006  33.471  27.313  1.00  0.00     0.116 C 
BRANCH  21  22
ATOM     22  N   UNL A   1      32.666  34.516  28.281  1.00  0.00    -0.352 N 
ATOM     23  C   UNL A   1      33.211  34.740  29.532  1.00  0.00     0.251 C 
ATOM     24  H   UNL A   1      31.958  35.143  28.005  1.00  0.00     0.163 HD
ATOM     25  O   UNL A   1      32.598  35.383  30.376  1.00  0.00    -0.269 OA
BRANCH  23  26
ATOM     26  C   UNL A   1      34.551  34.204  29.827  1.00  0.00     0.039 A 
ATOM     27  C   UNL A   1      34.789  33.375  30.923  1.00  0.00     0.014 A 
ATOM     28  C   UNL A   1      35.573  34.523  28.940  1.00  0.00     0.014 A 
ATOM     29  C   UNL A   1      36.051  32.800  31.062  1.00  0.00     0.010 A 
ATOM     30  C   UNL A   1      36.751  33.825  28.976  1.00  0.00     0.010 A 
ATOM     31  C   UNL A   1      37.020  33.012  30.067  1.00  0.00    -0.014 A 
BRANCH  31  32
ATOM     32  C   UNL A   1      38.280  32.277  30.083  1.00  0.00     0.031 A 
ATOM     33  C   UNL A   1      38.165  30.905  29.525  1.00  0.00     0.074 A 
ATOM     34  C   UNL A   1      39.470  32.860  30.357  1.00  0.00     0.049 A 
ATOM     35  N   UNL A   1      38.140  29.792  30.180  1.00  0.00    -0.248 NA
ATOM     36  C   UNL A   1      37.834  30.758  28.098  1.00  0.00     0.031 C 
ATOM     37  C   UNL A   1      39.728  34.297  30.552  1.00  0.00     0.029 A 
ATOM     38  N   UNL A   1      40.726  32.330  30.373  1.00  0.00    -0.354 N 
ATOM     39  C   UNL A   1      38.119  28.800  29.198  1.00  0.00     0.074 A 
ATOM     40  C   UNL A   1      37.648  29.438  28.002  1.00  0.00     0.031 C 
ATOM     41  C   UNL A   1      41.042  34.547  30.382  1.00  0.00     0.029 A 
ATOM     42  C   UNL A   1      41.739  33.282  30.275  1.00  0.00     0.049 A 
ATOM     43  H   UNL A   1      40.901  31.364  30.447  1.00  0.00     0.167 HD
ATOM     44  C   UNL A   1      38.852  27.662  29.362  1.00  0.00     0.034 A 
ATOM     45  C   UNL A   1      43.061  33.053  30.088  1.00  0.00     0.034 A 
ATOM     46  C   UNL A   1      39.347  27.577  30.713  1.00  0.00     0.049 A 
ATOM     47  C   UNL A   1      43.334  31.674  30.540  1.00  0.00     0.074 A 
ATOM     48  C   UNL A   1      38.843  27.316  31.966  1.00  0.00     0.029 A 
ATOM     49  N   UNL A   1      40.554  28.205  30.872  1.00  0.00    -0.354 N 
ATOM     50  N   UNL A   1      43.195  31.290  31.779  1.00  0.00    -0.248 NA
ATOM     51  C   UNL A   1      43.430  30.605  29.554  1.00  0.00     0.031 C 
ATOM     52  C   UNL A   1      39.729  27.951  32.887  1.00  0.00     0.029 A 
ATOM     53  C   UNL A   1      40.774  28.540  32.176  1.00  0.00     0.049 A 
ATOM     54  H   UNL A   1      41.182  28.393  30.137  1.00  0.00     0.167 HD
ATOM     55  C   UNL A   1      42.718  29.997  31.665  1.00  0.00     0.074 A 
ATOM     56  C   UNL A   1      43.069  29.571  30.317  1.00  0.00     0.031 C 
ATOM     57  C   UNL A   1      41.779  29.519  32.530  1.00  0.00     0.034 A 
BRANCH  44  58
ATOM     58  C   UNL A   1      39.584  26.897  28.266  1.00  0.00     0.023 A 
ATOM     59  C   UNL A   1      39.404  25.492  28.247  1.00  0.00     0.012 A 
ATOM     60  C   UNL A   1      40.645  27.405  27.482  1.00  0.00     0.148 A 
ATOM     61  C   UNL A   1      40.264  24.642  27.542  1.00  0.00     0.002 A 
ATOM     62  C   UNL A   1      41.455  26.562  26.726  1.00  0.00     0.091 A 
ATOM     63  F   UNL A   1      40.977  28.694  27.551  1.00  0.00    -0.205 F 
ATOM     64  C   UNL A   1      41.290  25.177  26.778  1.00  0.00     0.022 A 
BRANCH  62  65
ATOM     65  S   UNL A   1      42.784  27.203  25.697  1.00  0.00     0.127 S 
ATOM     66  O   UNL A   1      43.678  27.773  26.699  1.00  0.00    -0.237 OA
ATOM     67  O   UNL A   1      43.270  25.983  25.050  1.00  0.00    -0.237 OA
ATOM     68  O   UNL A   1      42.154  28.151  24.786  1.00  0.00    -0.744 OA
ENDBRANCH  62  65
ENDBRANCH  44  58
BRANCH  45  69
ATOM     69  C   UNL A   1      44.067  33.863  29.366  1.00  0.00     0.023 A 
ATOM     70  C   UNL A   1      45.002  34.634  30.082  1.00  0.00     0.012 A 
ATOM     71  C   UNL A   1      44.289  33.653  27.987  1.00  0.00     0.148 A 
ATOM     72  C   UNL A   1      46.143  35.149  29.455  1.00  0.00     0.002 A 
ATOM     73  C   UNL A   1      45.422  34.169  27.367  1.00  0.00     0.091 A 
ATOM     74  F   UNL A   1      43.431  32.877  27.311  1.00  0.00    -0.205 F 
ATOM     75  C   UNL A   1      46.359  34.905  28.102  1.00  0.00     0.022 A 
BRANCH  73  76
ATOM     76  S   UNL A   1      45.786  33.879  25.629  1.00  0.00     0.127 S 
ATOM     77  O   UNL A   1      45.635  32.427  25.534  1.00  0.00    -0.237 OA
ATOM     78  O   UNL A   1      44.735  34.649  24.970  1.00  0.00    -0.237 OA
ATOM     79  O   UNL A   1      47.145  34.360  25.426  1.00  0.00    -0.744 OA
ENDBRANCH  73  76
ENDBRANCH  45  69
BRANCH  57  80
ATOM     80  C   UNL A   1      41.674  30.155  33.882  1.00  0.00     0.023 A 
ATOM     81  C   UNL A   1      42.593  29.927  34.923  1.00  0.00     0.012 A 
ATOM     82  C   UNL A   1      40.675  31.128  34.045  1.00  0.00     0.148 A 
ATOM     83  C   UNL A   1      42.509  30.662  36.111  1.00  0.00     0.002 A 
ATOM     84  C   UNL A   1      40.626  31.889  35.202  1.00  0.00     0.091 A 
ATOM     85  F   UNL A   1      39.804  31.313  33.041  1.00  0.00    -0.205 F 
ATOM     86  C   UNL A   1      41.536  31.653  36.244  1.00  0.00     0.022 A 
BRANCH  84  87
ATOM     87  S   UNL A   1      39.482  33.259  35.367  1.00  0.00     0.127 S 
ATOM     88  O   UNL A   1      39.612  33.598  36.782  1.00  0.00    -0.237 OA
ATOM     89  O   UNL A   1      40.046  34.246  34.445  1.00  0.00    -0.237 OA
ATOM     90  O   UNL A   1      38.178  32.746  34.965  1.00  0.00    -0.744 OA
ENDBRANCH  84  87
ENDBRANCH  57  80
ENDBRANCH  31  32
ENDBRANCH  23  26
ENDBRANCH  21  22
ENDBRANCH   1  21
TORSDOF 15
ENDMDL
MODEL 3
REMARK VINA RESULT:     -11.5      3.953      9.456
REMARK SMILES Cc1cc(C(=O)NCCCCNC(=O)c2ccc(-c3c4nc(c(-c5cccc(S(=O)(=O)[O-])c5F)c5ccc([nH]5)c(-c5cccc(S(=O)(=O)[O-])c5F)c5nc(c(-c6cccc(S(=O)(=O)[O-])c6F)c6ccc3[nH]6)C=C5)C=C4)cc2)nn1[C@H]1CCS(=O)(=O)C1
REMARK SMILES IDX 10 1 9 2 8 3 7 4 5 5 6 6 4 8 1 9 2 10 3 11 79 12 78 13 80 14
REMARK SMILES IDX 81 15 86 16 82 17 83 18 84 19 85 20 11 21 12 22 13 23 14 25
REMARK SMILES IDX 15 26 16 27 77 28 17 29 76 30 18 31 19 32 20 33 70 34 21 35
REMARK SMILES IDX 75 36 69 37 71 38 22 39 74 40 68 41 67 42 23 44 55 45 35 46
REMARK SMILES IDX 54 47 36 48 39 49 53 50 72 51 37 52 38 53 52 55 73 56 40 57
REMARK SMILES IDX 24 58 25 59 33 60 26 61 28 62 34 63 27 64 29 65 30 66 31 67
REMARK SMILES IDX 32 68 56 69 57 70 65 71 58 72 60 73 66 74 59 75 61 76 62 77
REMARK SMILES IDX 63 78 64 79 41 80 42 81 50 82 43 83 45 84 51 85 44 86 46 87
REMARK SMILES IDX 47 88 48 89 49 90
REMARK H PARENT 7 7 12 24 71 43 39 54
REMARK Flexibility Score: inf
ROOT
ATOM      1  C   UNL A   1      32.751  31.798  27.691  1.00  0.00     0.023 C 
ENDROOT
BRANCH   1   2
ATOM      2  C   UNL A   1      33.962  30.855  27.588  1.00  0.00     0.023 C 
BRANCH   2   3
ATOM      3  C   UNL A   1      33.702  29.537  26.858  1.00  0.00     0.116 C 
BRANCH   3   4
ATOM      4  N   UNL A   1      33.715  29.718  25.429  1.00  0.00    -0.351 N 
ATOM      5  C   UNL A   1      33.211  28.947  24.414  1.00  0.00     0.271 C 
ATOM      6  O   UNL A   1      33.400  29.364  23.268  1.00  0.00    -0.267 OA
ATOM      7  H   UNL A   1      34.164  30.541  25.128  1.00  0.00     0.163 HD
BRANCH   5   8
ATOM      8  C   UNL A   1      32.527  27.665  24.665  1.00  0.00     0.150 A 
ATOM      9  C   UNL A   1      30.320  25.024  26.034  1.00  0.00     0.066 C 
ATOM     10  C   UNL A   1      31.343  25.911  25.434  1.00  0.00     0.036 A 
ATOM     11  C   UNL A   1      31.438  27.294  25.497  1.00  0.00     0.059 A 
ATOM     12  N   UNL A   1      32.446  25.529  24.717  1.00  0.00    -0.265 N 
ATOM     13  N   UNL A   1      33.005  26.560  24.074  1.00  0.00    -0.167 NA
BRANCH  12  14
ATOM     14  C   UNL A   1      33.338  24.396  24.833  1.00  0.00     0.123 C 
ATOM     15  C   UNL A   1      34.442  24.483  23.758  1.00  0.00     0.044 C 
ATOM     16  C   UNL A   1      34.071  24.102  26.128  1.00  0.00     0.164 C 
ATOM     17  C   UNL A   1      35.224  23.189  23.881  1.00  0.00     0.139 C 
ATOM     18  S   UNL A   1      35.242  22.838  25.634  1.00  0.00     0.152 S 
ATOM     19  O   UNL A   1      34.635  21.535  25.851  1.00  0.00    -0.229 OA
ATOM     20  O   UNL A   1      36.538  23.174  26.168  1.00  0.00    -0.229 OA
ENDBRANCH  12  14
ENDBRANCH   5   8
ENDBRANCH   3   4
ENDBRANCH   2   3
ENDBRANCH   1   2
BRANCH   1  21
ATOM     21  C   UNL A   1      32.939  33.162  27.032  1.00  0.00     0.116 C 
BRANCH  21  22
ATOM     22  N   UNL A   1      32.594  34.273  27.922  1.00  0.00    -0.352 N 
ATOM     23  C   UNL A   1      33.122  34.576  29.163  1.00  0.00     0.251 C 
ATOM     24  H   UNL A   1      31.896  34.885  27.592  1.00  0.00     0.163 HD
ATOM     25  O   UNL A   1      32.502  35.280  29.952  1.00  0.00    -0.269 OA
BRANCH  23  26
ATOM     26  C   UNL A   1      34.451  34.050  29.515  1.00  0.00     0.039 A 
ATOM     27  C   UNL A   1      34.646  33.208  30.611  1.00  0.00     0.014 A 
ATOM     28  C   UNL A   1      35.512  34.390  28.683  1.00  0.00     0.014 A 
ATOM     29  C   UNL A   1      35.906  32.645  30.803  1.00  0.00     0.010 A 
ATOM     30  C   UNL A   1      36.693  33.704  28.766  1.00  0.00     0.010 A 
ATOM     31  C   UNL A   1      36.919  32.879  29.858  1.00  0.00    -0.014 A 
BRANCH  31  32
ATOM     32  C   UNL A   1      38.185  32.157  29.925  1.00  0.00     0.031 A 
ATOM     33  C   UNL A   1      38.104  30.781  29.370  1.00  0.00     0.074 A 
ATOM     34  C   UNL A   1      39.358  32.753  30.241  1.00  0.00     0.049 A 
ATOM     35  N   UNL A   1      38.065  29.671  30.029  1.00  0.00    -0.248 NA
ATOM     36  C   UNL A   1      37.829  30.625  27.932  1.00  0.00     0.031 C 
ATOM     37  C   UNL A   1      39.594  34.193  30.439  1.00  0.00     0.029 A 
ATOM     38  N   UNL A   1      40.617  32.235  30.307  1.00  0.00    -0.354 N 
ATOM     39  C   UNL A   1      38.091  28.675  29.051  1.00  0.00     0.074 A 
ATOM     40  C   UNL A   1      37.660  29.303  27.835  1.00  0.00     0.031 C 
ATOM     41  C   UNL A   1      40.911  34.455  30.318  1.00  0.00     0.029 A 
ATOM     42  C   UNL A   1      41.624  33.197  30.243  1.00  0.00     0.049 A 
ATOM     43  H   UNL A   1      40.799  31.272  30.392  1.00  0.00     0.167 HD
ATOM     44  C   UNL A   1      38.828  27.545  29.248  1.00  0.00     0.034 A 
ATOM     45  C   UNL A   1      42.954  32.980  30.108  1.00  0.00     0.034 A 
ATOM     46  C   UNL A   1      39.272  27.471  30.617  1.00  0.00     0.049 A 
ATOM     47  C   UNL A   1      43.224  31.606  30.576  1.00  0.00     0.074 A 
ATOM     48  C   UNL A   1      38.723  27.210  31.851  1.00  0.00     0.029 A 
ATOM     49  N   UNL A   1      40.466  28.111  30.818  1.00  0.00    -0.354 N 
ATOM     50  N   UNL A   1      43.041  31.226  31.810  1.00  0.00    -0.248 NA
ATOM     51  C   UNL A   1      43.367  30.533  29.600  1.00  0.00     0.031 C 
ATOM     52  C   UNL A   1      39.569  27.857  32.802  1.00  0.00     0.029 A 
ATOM     53  C   UNL A   1      40.634  28.453  32.129  1.00  0.00     0.049 A 
ATOM     54  H   UNL A   1      41.120  28.302  30.107  1.00  0.00     0.167 HD
ATOM     55  C   UNL A   1      42.581  29.927  31.685  1.00  0.00     0.074 A 
ATOM     56  C   UNL A   1      42.988  29.499  30.353  1.00  0.00     0.031 C 
ATOM     57  C   UNL A   1      41.615  29.444  32.516  1.00  0.00     0.034 A 
BRANCH  44  58
ATOM     58  C   UNL A   1      39.609  26.783  28.184  1.00  0.00     0.023 A 
ATOM     59  C   UNL A   1      39.485  25.371  28.199  1.00  0.00     0.012 A 
ATOM     60  C   UNL A   1      40.661  27.313  27.403  1.00  0.00     0.148 A 
ATOM     61  C   UNL A   1      40.390  24.538  27.530  1.00  0.00     0.002 A 
ATOM     62  C   UNL A   1      41.517  26.484  26.683  1.00  0.00     0.091 A 
ATOM     63  F   UNL A   1      40.940  28.615  27.444  1.00  0.00    -0.205 F 
ATOM     64  C   UNL A   1      41.406  25.096  26.768  1.00  0.00     0.022 A 
BRANCH  62  65
ATOM     65  S   UNL A   1      42.837  27.152  25.659  1.00  0.00     0.127 S 
ATOM     66  O   UNL A   1      43.724  27.725  26.665  1.00  0.00    -0.237 OA
ATOM     67  O   UNL A   1      43.338  25.944  25.001  1.00  0.00    -0.237 OA
ATOM     68  O   UNL A   1      42.193  28.099  24.757  1.00  0.00    -0.744 OA
ENDBRANCH  62  65
ENDBRANCH  44  58
BRANCH  45  69
ATOM     69  C   UNL A   1      43.979  33.796  29.420  1.00  0.00     0.023 A 
ATOM     70  C   UNL A   1      44.878  34.580  30.168  1.00  0.00     0.012 A 
ATOM     71  C   UNL A   1      44.255  33.583  28.051  1.00  0.00     0.148 A 
ATOM     72  C   UNL A   1      46.038  35.104  29.582  1.00  0.00     0.002 A 
ATOM     73  C   UNL A   1      45.406  34.107  27.473  1.00  0.00     0.091 A 
ATOM     74  F   UNL A   1      43.432  32.795  27.347  1.00  0.00    -0.205 F 
ATOM     75  C   UNL A   1      46.307  34.856  28.239  1.00  0.00     0.022 A 
BRANCH  73  76
ATOM     76  S   UNL A   1      45.839  33.813  25.752  1.00  0.00     0.127 S 
ATOM     77  O   UNL A   1      44.975  34.771  25.062  1.00  0.00    -0.237 OA
ATOM     78  O   UNL A   1      47.260  34.148  25.738  1.00  0.00    -0.237 OA
ATOM     79  O   UNL A   1      45.515  32.416  25.498  1.00  0.00    -0.744 OA
ENDBRANCH  73  76
ENDBRANCH  45  69
BRANCH  57  80
ATOM     80  C   UNL A   1      41.453  30.085  33.860  1.00  0.00     0.023 A 
ATOM     81  C   UNL A   1      42.358  29.906  34.922  1.00  0.00     0.012 A 
ATOM     82  C   UNL A   1      40.408  31.014  33.994  1.00  0.00     0.148 A 
ATOM     83  C   UNL A   1      42.216  30.644  36.102  1.00  0.00     0.002 A 
ATOM     84  C   UNL A   1      40.301  31.780  35.143  1.00  0.00     0.091 A 
ATOM     85  F   UNL A   1      39.552  31.153  32.970  1.00  0.00    -0.205 F 
ATOM     86  C   UNL A   1      41.198  31.593  36.205  1.00  0.00     0.022 A 
BRANCH  84  87
ATOM     87  S   UNL A   1      39.094  33.100  35.271  1.00  0.00     0.127 S 
ATOM     88  O   UNL A   1      39.402  33.669  36.582  1.00  0.00    -0.237 OA
ATOM     89  O   UNL A   1      39.444  33.952  34.134  1.00  0.00    -0.237 OA
ATOM     90  O   UNL A   1      37.788  32.464  35.159  1.00  0.00    -0.744 OA
ENDBRANCH  84  87
ENDBRANCH  57  80
ENDBRANCH  31  32
ENDBRANCH  23  26
ENDBRANCH  21  22
ENDBRANCH   1  21
TORSDOF 15
ENDMDL
