MODEL 1
REMARK VINA RESULT:     -11.5      0.000      0.000
REMARK SMILES CCC[NH2+][C@]1(C(=O)NCCCCNC(=O)c2ccc(-c3c4nc(c(-c5cccc(S(=O)(=O)[O-])c5F)c5ccc([nH]5)c(-c5cccc(S(=O)(=O)[O-])c5F)c5nc(c(-c6cccc(S(=O)(=O)[O-])c6F)c6ccc3[nH]6)C=C5)C=C4)cc2)CCC[C@H](n2ccc(C)n2)C1
REMARK SMILES IDX 10 1 9 2 8 3 6 4 7 5 5 7 79 8 89 9 80 10 82 11 81 12 4 13
REMARK SMILES IDX 3 16 2 17 1 18 83 19 84 20 88 21 85 22 86 23 87 24 11 25
REMARK SMILES IDX 12 26 13 27 14 28 15 30 16 31 17 32 78 33 18 34 77 35 19 36
REMARK SMILES IDX 20 37 21 38 71 39 22 40 76 41 70 42 72 43 23 44 75 45 69 46
REMARK SMILES IDX 68 47 24 49 56 50 36 51 55 52 37 53 40 54 54 55 73 56 38 57
REMARK SMILES IDX 39 58 53 60 74 61 41 62 25 63 26 64 34 65 27 66 29 67 35 68
REMARK SMILES IDX 28 69 30 70 31 71 32 72 33 73 57 74 58 75 66 76 59 77 61 78
REMARK SMILES IDX 67 79 60 80 62 81 63 82 64 83 65 84 42 85 43 86 51 87 44 88
REMARK SMILES IDX 46 89 52 90 45 91 47 92 48 93 49 94 50 95
REMARK H PARENT 8 6 4 14 4 15 13 29 72 48 40 59
REMARK Flexibility Score: inf
ROOT
ATOM      1  C   UNL A   1      32.446  29.720  27.001  1.00  0.00     0.023 C 
ENDROOT
BRANCH   1   2
ATOM      2  C   UNL A   1      33.781  29.215  26.460  1.00  0.00     0.116 C 
BRANCH   2   3
ATOM      3  N   UNL A   1      33.889  29.352  25.022  1.00  0.00    -0.351 N 
ATOM      4  C   UNL A   1      33.497  28.594  23.968  1.00  0.00     0.281 C 
ATOM      5  O   UNL A   1      33.738  29.089  22.856  1.00  0.00    -0.268 OA
ATOM      6  H   UNL A   1      34.350  30.178  24.750  1.00  0.00     0.163 HD
BRANCH   4   7
ATOM      7  C   UNL A   1      32.835  27.166  24.053  1.00  0.00     0.177 C 
ATOM      8  C   UNL A   1      31.463  27.032  24.732  1.00  0.00     0.079 C 
ATOM      9  C   UNL A   1      32.672  26.715  22.561  1.00  0.00     0.106 C 
ATOM     10  C   UNL A   1      30.824  25.651  24.575  1.00  0.00     0.009 C 
ATOM     11  C   UNL A   1      31.994  25.339  22.345  1.00  0.00     0.114 C 
ATOM     12  C   UNL A   1      30.650  25.323  23.096  1.00  0.00     0.028 C 
BRANCH   7  13
ATOM     13  N   UNL A   1      33.800  26.235  24.686  1.00  0.00    -0.334 N 
ATOM     14  H   UNL A   1      33.998  25.495  24.013  1.00  0.00     0.347 HD
ATOM     15  H   UNL A   1      34.598  26.819  24.938  1.00  0.00     0.347 HD
BRANCH  13  16
ATOM     16  C   UNL A   1      33.401  25.596  25.933  1.00  0.00     0.261 C 
BRANCH  16  17
ATOM     17  C   UNL A   1      34.202  24.304  26.145  1.00  0.00     0.058 C 
ATOM     18  C   UNL A   1      33.519  23.317  27.083  1.00  0.00     0.010 C 
ENDBRANCH  16  17
ENDBRANCH  13  16
ENDBRANCH   7  13
BRANCH  11  19
ATOM     19  N   UNL A   1      32.845  24.181  22.639  1.00  0.00    -0.269 N 
ATOM     20  C   UNL A   1      32.445  22.916  22.978  1.00  0.00     0.109 A 
ATOM     21  N   UNL A   1      34.187  24.265  22.498  1.00  0.00    -0.178 NA
ATOM     22  C   UNL A   1      33.587  22.220  23.287  1.00  0.00     0.045 A 
ATOM     23  C   UNL A   1      34.641  23.117  23.015  1.00  0.00     0.059 A 
ATOM     24  C   UNL A   1      36.089  22.909  23.242  1.00  0.00     0.069 C 
ENDBRANCH  11  19
ENDBRANCH   4   7
ENDBRANCH   2   3
ENDBRANCH   1   2
BRANCH   1  25
ATOM     25  C   UNL A   1      32.194  31.212  26.774  1.00  0.00     0.023 C 
BRANCH  25  26
ATOM     26  C   UNL A   1      33.086  32.155  27.577  1.00  0.00     0.116 C 
BRANCH  26  27
ATOM     27  N   UNL A   1      32.569  33.514  27.685  1.00  0.00    -0.352 N 
ATOM     28  C   UNL A   1      33.052  34.531  28.482  1.00  0.00     0.251 C 
ATOM     29  H   UNL A   1      31.788  33.730  27.126  1.00  0.00     0.163 HD
ATOM     30  O   UNL A   1      32.491  35.613  28.535  1.00  0.00    -0.269 OA
BRANCH  28  31
ATOM     31  C   UNL A   1      34.243  34.252  29.308  1.00  0.00     0.039 A 
ATOM     32  C   UNL A   1      34.069  33.706  30.581  1.00  0.00     0.014 A 
ATOM     33  C   UNL A   1      35.519  34.424  28.768  1.00  0.00     0.014 A 
ATOM     34  C   UNL A   1      35.183  33.250  31.288  1.00  0.00     0.010 A 
ATOM     35  C   UNL A   1      36.618  33.915  29.447  1.00  0.00     0.010 A 
ATOM     36  C   UNL A   1      36.459  33.313  30.706  1.00  0.00    -0.014 A 
BRANCH  36  37
ATOM     37  C   UNL A   1      37.652  32.735  31.371  1.00  0.00     0.031 A 
ATOM     38  C   UNL A   1      38.374  31.584  30.730  1.00  0.00     0.074 A 
ATOM     39  C   UNL A   1      37.995  33.153  32.606  1.00  0.00     0.049 A 
ATOM     40  N   UNL A   1      39.332  30.841  31.215  1.00  0.00    -0.248 NA
ATOM     41  C   UNL A   1      37.936  31.197  29.379  1.00  0.00     0.031 C 
ATOM     42  C   UNL A   1      37.318  34.210  33.362  1.00  0.00     0.029 A 
ATOM     43  N   UNL A   1      38.971  32.709  33.462  1.00  0.00    -0.354 N 
ATOM     44  C   UNL A   1      39.575  29.866  30.254  1.00  0.00     0.074 A 
ATOM     45  C   UNL A   1      38.651  30.102  29.167  1.00  0.00     0.031 C 
ATOM     46  C   UNL A   1      37.895  34.326  34.569  1.00  0.00     0.029 A 
ATOM     47  C   UNL A   1      38.959  33.334  34.687  1.00  0.00     0.049 A 
ATOM     48  H   UNL A   1      39.621  32.008  33.221  1.00  0.00     0.167 HD
ATOM     49  C   UNL A   1      40.504  28.882  30.265  1.00  0.00     0.034 A 
ATOM     50  C   UNL A   1      39.712  33.123  35.785  1.00  0.00     0.034 A 
ATOM     51  C   UNL A   1      41.465  28.697  31.317  1.00  0.00     0.049 A 
ATOM     52  C   UNL A   1      40.782  32.066  35.743  1.00  0.00     0.074 A 
ATOM     53  C   UNL A   1      42.510  27.794  31.377  1.00  0.00     0.029 A 
ATOM     54  N   UNL A   1      41.500  29.433  32.491  1.00  0.00    -0.354 N 
ATOM     55  N   UNL A   1      41.100  31.256  34.763  1.00  0.00    -0.248 NA
ATOM     56  C   UNL A   1      41.619  31.914  36.943  1.00  0.00     0.031 C 
ATOM     57  C   UNL A   1      43.178  27.981  32.591  1.00  0.00     0.029 A 
ATOM     58  C   UNL A   1      42.552  29.007  33.282  1.00  0.00     0.049 A 
ATOM     59  H   UNL A   1      40.871  30.152  32.727  1.00  0.00     0.167 HD
ATOM     60  C   UNL A   1      42.195  30.527  35.210  1.00  0.00     0.074 A 
ATOM     61  C   UNL A   1      42.495  31.000  36.546  1.00  0.00     0.031 C 
ATOM     62  C   UNL A   1      42.881  29.542  34.578  1.00  0.00     0.034 A 
BRANCH  49  63
ATOM     63  C   UNL A   1      40.570  27.973  29.068  1.00  0.00     0.023 A 
ATOM     64  C   UNL A   1      39.659  26.903  28.965  1.00  0.00     0.012 A 
ATOM     65  C   UNL A   1      41.491  28.203  28.028  1.00  0.00     0.148 A 
ATOM     66  C   UNL A   1      39.683  26.055  27.859  1.00  0.00     0.002 A 
ATOM     67  C   UNL A   1      41.483  27.377  26.910  1.00  0.00     0.091 A 
ATOM     68  F   UNL A   1      42.368  29.209  28.158  1.00  0.00    -0.205 F 
ATOM     69  C   UNL A   1      40.587  26.297  26.828  1.00  0.00     0.022 A 
BRANCH  67  70
ATOM     70  S   UNL A   1      42.561  27.653  25.500  1.00  0.00     0.127 S 
ATOM     71  O   UNL A   1      42.282  26.476  24.679  1.00  0.00    -0.237 OA
ATOM     72  O   UNL A   1      42.047  28.911  24.956  1.00  0.00    -0.237 OA
ATOM     73  O   UNL A   1      43.910  27.738  26.043  1.00  0.00    -0.744 OA
ENDBRANCH  67  70
ENDBRANCH  49  63
BRANCH  50  74
ATOM     74  C   UNL A   1      39.532  33.986  36.987  1.00  0.00     0.023 A 
ATOM     75  C   UNL A   1      39.929  35.336  36.924  1.00  0.00     0.012 A 
ATOM     76  C   UNL A   1      38.940  33.499  38.167  1.00  0.00     0.148 A 
ATOM     77  C   UNL A   1      39.765  36.179  38.024  1.00  0.00     0.002 A 
ATOM     78  C   UNL A   1      38.732  34.358  39.242  1.00  0.00     0.091 A 
ATOM     79  F   UNL A   1      38.582  32.208  38.215  1.00  0.00    -0.205 F 
ATOM     80  C   UNL A   1      39.157  35.694  39.179  1.00  0.00     0.022 A 
BRANCH  78  81
ATOM     81  S   UNL A   1      37.839  33.848  40.716  1.00  0.00     0.127 S 
ATOM     82  O   UNL A   1      36.659  33.205  40.144  1.00  0.00    -0.237 OA
ATOM     83  O   UNL A   1      38.791  32.937  41.353  1.00  0.00    -0.237 OA
ATOM     84  O   UNL A   1      37.599  35.075  41.465  1.00  0.00    -0.744 OA
ENDBRANCH  78  81
ENDBRANCH  50  74
BRANCH  62  85
ATOM     85  C   UNL A   1      44.053  28.929  35.292  1.00  0.00     0.023 A 
ATOM     86  C   UNL A   1      45.326  29.521  35.177  1.00  0.00     0.012 A 
ATOM     87  C   UNL A   1      43.870  27.841  36.168  1.00  0.00     0.148 A 
ATOM     88  C   UNL A   1      46.403  29.031  35.912  1.00  0.00     0.002 A 
ATOM     89  C   UNL A   1      44.939  27.384  36.930  1.00  0.00     0.091 A 
ATOM     90  F   UNL A   1      42.654  27.282  36.247  1.00  0.00    -0.205 F 
ATOM     91  C   UNL A   1      46.207  27.973  36.799  1.00  0.00     0.022 A 
BRANCH  89  92
ATOM     92  S   UNL A   1      44.758  26.091  38.163  1.00  0.00     0.127 S 
ATOM     93  O   UNL A   1      43.567  26.534  38.887  1.00  0.00    -0.237 OA
ATOM     94  O   UNL A   1      44.561  24.898  37.338  1.00  0.00    -0.237 OA
ATOM     95  O   UNL A   1      45.994  26.095  38.933  1.00  0.00    -0.744 OA
ENDBRANCH  89  92
ENDBRANCH  62  85
ENDBRANCH  36  37
ENDBRANCH  28  31
ENDBRANCH  26  27
ENDBRANCH  25  26
ENDBRANCH   1  25
TORSDOF 18
ENDMDL
MODEL 2
REMARK VINA RESULT:     -11.0      6.142     11.262
REMARK SMILES CCC[NH2+][C@]1(C(=O)NCCCCNC(=O)c2ccc(-c3c4nc(c(-c5cccc(S(=O)(=O)[O-])c5F)c5ccc([nH]5)c(-c5cccc(S(=O)(=O)[O-])c5F)c5nc(c(-c6cccc(S(=O)(=O)[O-])c6F)c6ccc3[nH]6)C=C5)C=C4)cc2)CCC[C@H](n2ccc(C)n2)C1
REMARK SMILES IDX 10 1 9 2 8 3 6 4 7 5 5 7 79 8 89 9 80 10 82 11 81 12 4 13
REMARK SMILES IDX 3 16 2 17 1 18 83 19 84 20 88 21 85 22 86 23 87 24 11 25
REMARK SMILES IDX 12 26 13 27 14 28 15 30 16 31 17 32 78 33 18 34 77 35 19 36
REMARK SMILES IDX 20 37 21 38 71 39 22 40 76 41 70 42 72 43 23 44 75 45 69 46
REMARK SMILES IDX 68 47 24 49 56 50 36 51 55 52 37 53 40 54 54 55 73 56 38 57
REMARK SMILES IDX 39 58 53 60 74 61 41 62 25 63 26 64 34 65 27 66 29 67 35 68
REMARK SMILES IDX 28 69 30 70 31 71 32 72 33 73 57 74 58 75 66 76 59 77 61 78
REMARK SMILES IDX 67 79 60 80 62 81 63 82 64 83 65 84 42 85 43 86 51 87 44 88
REMARK SMILES IDX 46 89 52 90 45 91 47 92 48 93 49 94 50 95
REMARK H PARENT 8 6 4 14 4 15 13 29 72 48 40 59
REMARK Flexibility Score: inf
ROOT
ATOM      1  C   UNL A   1      35.946  22.188  24.921  1.00  0.00     0.023 C 
ENDROOT
BRANCH   1   2
ATOM      2  C   UNL A   1      35.650  23.663  24.662  1.00  0.00     0.116 C 
BRANCH   2   3
ATOM      3  N   UNL A   1      34.829  23.870  23.487  1.00  0.00    -0.351 N 
ATOM      4  C   UNL A   1      33.873  24.771  23.148  1.00  0.00     0.281 C 
ATOM      5  O   UNL A   1      33.423  24.641  21.999  1.00  0.00    -0.268 OA
ATOM      6  H   UNL A   1      35.002  23.210  22.777  1.00  0.00     0.163 HD
BRANCH   4   7
ATOM      7  C   UNL A   1      33.281  25.886  24.090  1.00  0.00     0.177 C 
ATOM      8  C   UNL A   1      33.446  25.728  25.610  1.00  0.00     0.079 C 
ATOM      9  C   UNL A   1      34.027  27.199  23.668  1.00  0.00     0.106 C 
ATOM     10  C   UNL A   1      33.023  26.958  26.413  1.00  0.00     0.009 C 
ATOM     11  C   UNL A   1      33.663  28.469  24.477  1.00  0.00     0.114 C 
ATOM     12  C   UNL A   1      33.840  28.170  25.978  1.00  0.00     0.028 C 
BRANCH   7  13
ATOM     13  N   UNL A   1      31.848  26.074  23.759  1.00  0.00    -0.334 N 
ATOM     14  H   UNL A   1      31.605  27.037  23.987  1.00  0.00     0.347 HD
ATOM     15  H   UNL A   1      31.776  25.829  22.771  1.00  0.00     0.347 HD
BRANCH  13  16
ATOM     16  C   UNL A   1      30.884  25.210  24.426  1.00  0.00     0.261 C 
BRANCH  16  17
ATOM     17  C   UNL A   1      29.717  26.043  24.975  1.00  0.00     0.058 C 
ATOM     18  C   UNL A   1      28.746  26.506  23.897  1.00  0.00     0.010 C 
ENDBRANCH  16  17
ENDBRANCH  13  16
ENDBRANCH   7  13
BRANCH  11  19
ATOM     19  N   UNL A   1      32.362  29.058  24.145  1.00  0.00    -0.269 N 
ATOM     20  C   UNL A   1      31.523  29.753  24.977  1.00  0.00     0.109 A 
ATOM     21  N   UNL A   1      31.904  29.033  22.873  1.00  0.00    -0.178 NA
ATOM     22  C   UNL A   1      30.376  29.985  24.260  1.00  0.00     0.045 A 
ATOM     23  C   UNL A   1      30.646  29.479  22.971  1.00  0.00     0.059 A 
ATOM     24  C   UNL A   1      29.723  29.405  21.816  1.00  0.00     0.069 C 
ENDBRANCH  11  19
ENDBRANCH   4   7
ENDBRANCH   2   3
ENDBRANCH   1   2
BRANCH   1  25
ATOM     25  C   UNL A   1      37.361  21.748  24.541  1.00  0.00     0.023 C 
BRANCH  25  26
ATOM     26  C   UNL A   1      38.355  21.673  25.698  1.00  0.00     0.116 C 
BRANCH  26  27
ATOM     27  N   UNL A   1      39.047  20.395  25.804  1.00  0.00    -0.352 N 
ATOM     28  C   UNL A   1      40.359  20.183  26.175  1.00  0.00     0.251 C 
ATOM     29  H   UNL A   1      38.521  19.592  25.585  1.00  0.00     0.163 HD
ATOM     30  O   UNL A   1      40.848  19.065  26.162  1.00  0.00    -0.269 OA
BRANCH  28  31
ATOM     31  C   UNL A   1      41.169  21.362  26.543  1.00  0.00     0.039 A 
ATOM     32  C   UNL A   1      41.757  22.120  25.528  1.00  0.00     0.014 A 
ATOM     33  C   UNL A   1      41.239  21.768  27.877  1.00  0.00     0.014 A 
ATOM     34  C   UNL A   1      42.350  23.343  25.845  1.00  0.00     0.010 A 
ATOM     35  C   UNL A   1      41.776  23.012  28.180  1.00  0.00     0.010 A 
ATOM     36  C   UNL A   1      42.324  23.816  27.166  1.00  0.00    -0.014 A 
BRANCH  36  37
ATOM     37  C   UNL A   1      42.838  25.160  27.528  1.00  0.00     0.031 A 
ATOM     38  C   UNL A   1      41.917  26.158  28.171  1.00  0.00     0.074 A 
ATOM     39  C   UNL A   1      44.080  25.522  27.152  1.00  0.00     0.049 A 
ATOM     40  N   UNL A   1      42.120  27.424  28.420  1.00  0.00    -0.248 NA
ATOM     41  C   UNL A   1      40.579  25.675  28.552  1.00  0.00     0.031 C 
ATOM     42  C   UNL A   1      45.038  24.663  26.450  1.00  0.00     0.029 A 
ATOM     43  N   UNL A   1      44.736  26.722  27.267  1.00  0.00    -0.354 N 
ATOM     44  C   UNL A   1      40.921  27.902  28.936  1.00  0.00     0.074 A 
ATOM     45  C   UNL A   1      39.991  26.795  28.946  1.00  0.00     0.031 C 
ATOM     46  C   UNL A   1      46.153  25.366  26.192  1.00  0.00     0.029 A 
ATOM     47  C   UNL A   1      45.980  26.731  26.679  1.00  0.00     0.049 A 
ATOM     48  H   UNL A   1      44.352  27.503  27.729  1.00  0.00     0.167 HD
ATOM     49  C   UNL A   1      40.632  29.145  29.387  1.00  0.00     0.034 A 
ATOM     50  C   UNL A   1      46.874  27.730  26.539  1.00  0.00     0.034 A 
ATOM     51  C   UNL A   1      41.582  30.221  29.438  1.00  0.00     0.049 A 
ATOM     52  C   UNL A   1      46.551  29.084  27.110  1.00  0.00     0.074 A 
ATOM     53  C   UNL A   1      41.417  31.488  29.968  1.00  0.00     0.029 A 
ATOM     54  N   UNL A   1      42.875  30.155  28.946  1.00  0.00    -0.354 N 
ATOM     55  N   UNL A   1      45.467  29.475  27.736  1.00  0.00    -0.248 NA
ATOM     56  C   UNL A   1      47.582  30.125  26.987  1.00  0.00     0.031 C 
ATOM     57  C   UNL A   1      42.613  32.191  29.794  1.00  0.00     0.029 A 
ATOM     58  C   UNL A   1      43.523  31.358  29.162  1.00  0.00     0.049 A 
ATOM     59  H   UNL A   1      43.274  29.369  28.507  1.00  0.00     0.167 HD
ATOM     60  C   UNL A   1      45.700  30.792  28.116  1.00  0.00     0.074 A 
ATOM     61  C   UNL A   1      47.033  31.129  27.661  1.00  0.00     0.031 C 
ATOM     62  C   UNL A   1      44.878  31.650  28.768  1.00  0.00     0.034 A 
BRANCH  49  63
ATOM     63  C   UNL A   1      39.248  29.385  29.927  1.00  0.00     0.023 A 
ATOM     64  C   UNL A   1      38.900  28.862  31.189  1.00  0.00     0.012 A 
ATOM     65  C   UNL A   1      38.314  30.165  29.218  1.00  0.00     0.148 A 
ATOM     66  C   UNL A   1      37.632  29.084  31.723  1.00  0.00     0.002 A 
ATOM     67  C   UNL A   1      37.066  30.415  29.776  1.00  0.00     0.091 A 
ATOM     68  F   UNL A   1      38.655  30.631  28.008  1.00  0.00    -0.205 F 
ATOM     69  C   UNL A   1      36.720  29.867  31.022  1.00  0.00     0.022 A 
BRANCH  67  70
ATOM     70  S   UNL A   1      35.850  31.472  28.980  1.00  0.00     0.127 S 
ATOM     71  O   UNL A   1      34.817  31.561  30.011  1.00  0.00    -0.237 OA
ATOM     72  O   UNL A   1      36.604  32.708  28.765  1.00  0.00    -0.237 OA
ATOM     73  O   UNL A   1      35.463  30.781  27.758  1.00  0.00    -0.744 OA
ENDBRANCH  67  70
ENDBRANCH  49  63
BRANCH  50  74
ATOM     74  C   UNL A   1      48.193  27.462  25.898  1.00  0.00     0.023 A 
ATOM     75  C   UNL A   1      49.267  27.026  26.699  1.00  0.00     0.012 A 
ATOM     76  C   UNL A   1      48.383  27.594  24.509  1.00  0.00     0.148 A 
ATOM     77  C   UNL A   1      50.513  26.753  26.134  1.00  0.00     0.002 A 
ATOM     78  C   UNL A   1      49.613  27.271  23.946  1.00  0.00     0.091 A 
ATOM     79  F   UNL A   1      47.355  28.024  23.764  1.00  0.00    -0.205 F 
ATOM     80  C   UNL A   1      50.683  26.864  24.757  1.00  0.00     0.022 A 
BRANCH  78  81
ATOM     81  S   UNL A   1      49.878  27.260  22.168  1.00  0.00     0.127 S 
ATOM     82  O   UNL A   1      48.857  26.318  21.718  1.00  0.00    -0.237 OA
ATOM     83  O   UNL A   1      49.628  28.657  21.812  1.00  0.00    -0.237 OA
ATOM     84  O   UNL A   1      51.262  26.838  21.988  1.00  0.00    -0.744 OA
ENDBRANCH  78  81
ENDBRANCH  50  74
BRANCH  62  85
ATOM     85  C   UNL A   1      45.396  33.028  29.075  1.00  0.00     0.023 A 
ATOM     86  C   UNL A   1      46.101  33.254  30.273  1.00  0.00     0.012 A 
ATOM     87  C   UNL A   1      45.287  34.062  28.126  1.00  0.00     0.148 A 
ATOM     88  C   UNL A   1      46.680  34.497  30.527  1.00  0.00     0.002 A 
ATOM     89  C   UNL A   1      45.901  35.285  28.368  1.00  0.00     0.091 A 
ATOM     90  F   UNL A   1      44.595  33.828  27.001  1.00  0.00    -0.205 F 
ATOM     91  C   UNL A   1      46.592  35.506  29.570  1.00  0.00     0.022 A 
BRANCH  89  92
ATOM     92  S   UNL A   1      45.921  36.609  27.154  1.00  0.00     0.127 S 
ATOM     93  O   UNL A   1      46.551  35.954  26.008  1.00  0.00    -0.237 OA
ATOM     94  O   UNL A   1      44.496  36.898  26.984  1.00  0.00    -0.237 OA
ATOM     95  O   UNL A   1      46.689  37.692  27.754  1.00  0.00    -0.744 OA
ENDBRANCH  89  92
ENDBRANCH  62  85
ENDBRANCH  36  37
ENDBRANCH  28  31
ENDBRANCH  26  27
ENDBRANCH  25  26
ENDBRANCH   1  25
TORSDOF 18
ENDMDL
MODEL 3
REMARK VINA RESULT:     -10.9      2.529      3.671
REMARK SMILES CCC[NH2+][C@]1(C(=O)NCCCCNC(=O)c2ccc(-c3c4nc(c(-c5cccc(S(=O)(=O)[O-])c5F)c5ccc([nH]5)c(-c5cccc(S(=O)(=O)[O-])c5F)c5nc(c(-c6cccc(S(=O)(=O)[O-])c6F)c6ccc3[nH]6)C=C5)C=C4)cc2)CCC[C@H](n2ccc(C)n2)C1
REMARK SMILES IDX 10 1 9 2 8 3 6 4 7 5 5 7 79 8 89 9 80 10 82 11 81 12 4 13
REMARK SMILES IDX 3 16 2 17 1 18 83 19 84 20 88 21 85 22 86 23 87 24 11 25
REMARK SMILES IDX 12 26 13 27 14 28 15 30 16 31 17 32 78 33 18 34 77 35 19 36
REMARK SMILES IDX 20 37 21 38 71 39 22 40 76 41 70 42 72 43 23 44 75 45 69 46
REMARK SMILES IDX 68 47 24 49 56 50 36 51 55 52 37 53 40 54 54 55 73 56 38 57
REMARK SMILES IDX 39 58 53 60 74 61 41 62 25 63 26 64 34 65 27 66 29 67 35 68
REMARK SMILES IDX 28 69 30 70 31 71 32 72 33 73 57 74 58 75 66 76 59 77 61 78
REMARK SMILES IDX 67 79 60 80 62 81 63 82 64 83 65 84 42 85 43 86 51 87 44 88
REMARK SMILES IDX 46 89 52 90 45 91 47 92 48 93 49 94 50 95
REMARK H PARENT 8 6 4 14 4 15 13 29 72 48 40 59
REMARK Flexibility Score: inf
ROOT
ATOM      1  C   UNL A   1      31.344  27.942  26.005  1.00  0.00     0.023 C 
ENDROOT
BRANCH   1   2
ATOM      2  C   UNL A   1      30.826  26.517  25.828  1.00  0.00     0.116 C 
BRANCH   2   3
ATOM      3  N   UNL A   1      31.011  26.019  24.481  1.00  0.00    -0.351 N 
ATOM      4  C   UNL A   1      31.686  24.973  23.944  1.00  0.00     0.281 C 
ATOM      5  O   UNL A   1      31.559  24.850  22.716  1.00  0.00    -0.268 OA
ATOM      6  H   UNL A   1      30.542  26.560  23.805  1.00  0.00     0.163 HD
BRANCH   4   7
ATOM      7  C   UNL A   1      32.626  23.980  24.729  1.00  0.00     0.177 C 
ATOM      8  C   UNL A   1      33.495  24.537  25.867  1.00  0.00     0.079 C 
ATOM      9  C   UNL A   1      31.652  22.921  25.351  1.00  0.00     0.106 C 
ATOM     10  C   UNL A   1      34.204  23.461  26.691  1.00  0.00     0.009 C 
ATOM     11  C   UNL A   1      32.316  21.830  26.228  1.00  0.00     0.114 C 
ATOM     12  C   UNL A   1      33.178  22.515  27.305  1.00  0.00     0.028 C 
BRANCH   7  13
ATOM     13  N   UNL A   1      33.480  23.264  23.751  1.00  0.00    -0.334 N 
ATOM     14  H   UNL A   1      33.738  22.369  24.167  1.00  0.00     0.347 HD
ATOM     15  H   UNL A   1      32.912  23.203  22.905  1.00  0.00     0.347 HD
BRANCH  13  16
ATOM     16  C   UNL A   1      34.709  23.918  23.325  1.00  0.00     0.261 C 
BRANCH  16  17
ATOM     17  C   UNL A   1      35.815  22.875  23.105  1.00  0.00     0.058 C 
ATOM     18  C   UNL A   1      36.908  22.923  24.164  1.00  0.00     0.010 C 
ENDBRANCH  16  17
ENDBRANCH  13  16
ENDBRANCH   7  13
BRANCH  11  19
ATOM     19  N   UNL A   1      33.028  20.789  25.480  1.00  0.00    -0.269 N 
ATOM     20  C   UNL A   1      32.486  19.819  24.678  1.00  0.00     0.109 A 
ATOM     21  N   UNL A   1      34.380  20.768  25.454  1.00  0.00    -0.178 NA
ATOM     22  C   UNL A   1      33.525  19.003  24.306  1.00  0.00     0.045 A 
ATOM     23  C   UNL A   1      34.676  19.611  24.850  1.00  0.00     0.059 A 
ATOM     24  C   UNL A   1      36.068  19.109  24.813  1.00  0.00     0.069 C 
ENDBRANCH  11  19
ENDBRANCH   4   7
ENDBRANCH   2   3
ENDBRANCH   1   2
BRANCH   1  25
ATOM     25  C   UNL A   1      32.830  28.039  26.352  1.00  0.00     0.023 C 
BRANCH  25  26
ATOM     26  C   UNL A   1      33.528  29.316  25.890  1.00  0.00     0.116 C 
BRANCH  26  27
ATOM     27  N   UNL A   1      33.004  30.532  26.497  1.00  0.00    -0.352 N 
ATOM     28  C   UNL A   1      33.646  31.363  27.393  1.00  0.00     0.251 C 
ATOM     29  H   UNL A   1      32.090  30.792  26.240  1.00  0.00     0.163 HD
ATOM     30  O   UNL A   1      33.076  32.323  27.886  1.00  0.00    -0.269 OA
BRANCH  28  31
ATOM     31  C   UNL A   1      35.031  31.023  27.775  1.00  0.00     0.039 A 
ATOM     32  C   UNL A   1      35.963  32.053  27.919  1.00  0.00     0.014 A 
ATOM     33  C   UNL A   1      35.360  29.706  28.100  1.00  0.00     0.014 A 
ATOM     34  C   UNL A   1      37.213  31.772  28.474  1.00  0.00     0.010 A 
ATOM     35  C   UNL A   1      36.580  29.440  28.706  1.00  0.00     0.010 A 
ATOM     36  C   UNL A   1      37.512  30.472  28.910  1.00  0.00    -0.014 A 
BRANCH  36  37
ATOM     37  C   UNL A   1      38.780  30.153  29.610  1.00  0.00     0.031 A 
ATOM     38  C   UNL A   1      39.709  29.125  29.030  1.00  0.00     0.074 A 
ATOM     39  C   UNL A   1      39.021  30.681  30.827  1.00  0.00     0.049 A 
ATOM     40  N   UNL A   1      40.779  28.592  29.556  1.00  0.00    -0.248 NA
ATOM     41  C   UNL A   1      39.370  28.604  27.694  1.00  0.00     0.031 C 
ATOM     42  C   UNL A   1      38.151  31.629  31.527  1.00  0.00     0.029 A 
ATOM     43  N   UNL A   1      40.049  30.462  31.709  1.00  0.00    -0.354 N 
ATOM     44  C   UNL A   1      41.211  27.636  28.644  1.00  0.00     0.074 A 
ATOM     45  C   UNL A   1      40.276  27.650  27.540  1.00  0.00     0.031 C 
ATOM     46  C   UNL A   1      38.678  31.903  32.731  1.00  0.00     0.029 A 
ATOM     47  C   UNL A   1      39.903  31.129  32.904  1.00  0.00     0.049 A 
ATOM     48  H   UNL A   1      40.819  29.882  31.506  1.00  0.00     0.167 HD
ATOM     49  C   UNL A   1      42.304  26.840  28.707  1.00  0.00     0.034 A 
ATOM     50  C   UNL A   1      40.665  31.109  34.016  1.00  0.00     0.034 A 
ATOM     51  C   UNL A   1      43.265  26.882  29.774  1.00  0.00     0.049 A 
ATOM     52  C   UNL A   1      41.911  30.264  34.031  1.00  0.00     0.074 A 
ATOM     53  C   UNL A   1      44.456  26.188  29.884  1.00  0.00     0.029 A 
ATOM     54  N   UNL A   1      43.148  27.664  30.912  1.00  0.00    -0.354 N 
ATOM     55  N   UNL A   1      42.386  29.483  33.092  1.00  0.00    -0.248 NA
ATOM     56  C   UNL A   1      42.743  30.322  35.242  1.00  0.00     0.031 C 
ATOM     57  C   UNL A   1      45.060  26.549  31.092  1.00  0.00     0.029 A 
ATOM     58  C   UNL A   1      44.246  27.473  31.729  1.00  0.00     0.049 A 
ATOM     59  H   UNL A   1      42.394  28.265  31.109  1.00  0.00     0.167 HD
ATOM     60  C   UNL A   1      43.589  28.987  33.581  1.00  0.00     0.074 A 
ATOM     61  C   UNL A   1      43.777  29.567  34.896  1.00  0.00     0.031 C 
ATOM     62  C   UNL A   1      44.452  28.117  33.001  1.00  0.00     0.034 A 
BRANCH  49  63
ATOM     63  C   UNL A   1      42.553  25.906  27.555  1.00  0.00     0.023 A 
ATOM     64  C   UNL A   1      43.333  26.345  26.467  1.00  0.00     0.012 A 
ATOM     65  C   UNL A   1      42.063  24.585  27.569  1.00  0.00     0.148 A 
ATOM     66  C   UNL A   1      43.597  25.496  25.394  1.00  0.00     0.002 A 
ATOM     67  C   UNL A   1      42.363  23.732  26.513  1.00  0.00     0.091 A 
ATOM     68  F   UNL A   1      41.300  24.195  28.599  1.00  0.00    -0.205 F 
ATOM     69  C   UNL A   1      43.121  24.188  25.421  1.00  0.00     0.022 A 
BRANCH  67  70
ATOM     70  S   UNL A   1      41.855  22.009  26.493  1.00  0.00     0.127 S 
ATOM     71  O   UNL A   1      40.404  22.131  26.362  1.00  0.00    -0.237 OA
ATOM     72  O   UNL A   1      42.533  21.497  25.301  1.00  0.00    -0.237 OA
ATOM     73  O   UNL A   1      42.329  21.441  27.748  1.00  0.00    -0.744 OA
ENDBRANCH  67  70
ENDBRANCH  49  63
BRANCH  50  74
ATOM     74  C   UNL A   1      40.312  31.978  35.174  1.00  0.00     0.023 A 
ATOM     75  C   UNL A   1      41.032  33.172  35.378  1.00  0.00     0.012 A 
ATOM     76  C   UNL A   1      39.253  31.658  36.045  1.00  0.00     0.148 A 
ATOM     77  C   UNL A   1      40.723  34.018  36.443  1.00  0.00     0.002 A 
ATOM     78  C   UNL A   1      38.917  32.531  37.074  1.00  0.00     0.091 A 
ATOM     79  F   UNL A   1      38.589  30.511  35.846  1.00  0.00    -0.205 F 
ATOM     80  C   UNL A   1      39.659  33.704  37.285  1.00  0.00     0.022 A 
BRANCH  78  81
ATOM     81  S   UNL A   1      37.480  32.269  38.122  1.00  0.00     0.127 S 
ATOM     82  O   UNL A   1      37.328  30.818  38.063  1.00  0.00    -0.237 OA
ATOM     83  O   UNL A   1      37.940  32.789  39.410  1.00  0.00    -0.237 OA
ATOM     84  O   UNL A   1      36.411  33.049  37.512  1.00  0.00    -0.744 OA
ENDBRANCH  78  81
ENDBRANCH  50  74
BRANCH  62  85
ATOM     85  C   UNL A   1      45.706  27.762  33.752  1.00  0.00     0.023 A 
ATOM     86  C   UNL A   1      46.845  28.581  33.631  1.00  0.00     0.012 A 
ATOM     87  C   UNL A   1      45.715  26.688  34.663  1.00  0.00     0.148 A 
ATOM     88  C   UNL A   1      47.981  28.328  34.398  1.00  0.00     0.002 A 
ATOM     89  C   UNL A   1      46.836  26.467  35.454  1.00  0.00     0.091 A 
ATOM     90  F   UNL A   1      44.625  25.911  34.747  1.00  0.00    -0.205 F 
ATOM     91  C   UNL A   1      47.971  27.282  35.319  1.00  0.00     0.022 A 
BRANCH  89  92
ATOM     92  S   UNL A   1      46.879  25.204  36.731  1.00  0.00     0.127 S 
ATOM     93  O   UNL A   1      46.686  23.983  35.949  1.00  0.00    -0.237 OA
ATOM     94  O   UNL A   1      48.224  25.366  37.285  1.00  0.00    -0.237 OA
ATOM     95  O   UNL A   1      45.802  25.530  37.656  1.00  0.00    -0.744 OA
ENDBRANCH  89  92
ENDBRANCH  62  85
ENDBRANCH  36  37
ENDBRANCH  28  31
ENDBRANCH  26  27
ENDBRANCH  25  26
ENDBRANCH   1  25
TORSDOF 18
ENDMDL
