MODEL 1
REMARK VINA RESULT:     -12.6      0.000      0.000
REMARK SMILES COc1cccc(CSc2nc3ccccc3c(=O)n2CCC(=O)NCCCCNC(=O)c2ccc(-c3c4nc(c(-c5cccc(S(=O)(=O)[O-])c5F)c5ccc([nH]5)c(-c5cccc(S(=O)(=O)[O-])c5F)c5nc(c(-c6cccc(S(=O)(=O)[O-])c6F)c6ccc3[nH]6)C=C5)C=C4)cc2)c1
REMARK SMILES IDX 26 1 25 2 23 3 24 4 22 6 21 7 20 8 10 9 11 10 12 11 18 12
REMARK SMILES IDX 13 13 17 14 19 15 14 16 16 17 15 18 9 19 8 20 7 21 3 22 4 23
REMARK SMILES IDX 96 24 5 25 6 26 2 27 1 28 27 29 28 30 29 31 30 32 31 33
REMARK SMILES IDX 32 35 33 36 34 37 95 38 35 39 94 40 36 41 37 42 38 43 88 44
REMARK SMILES IDX 39 45 93 46 87 47 89 48 40 49 92 50 86 51 85 52 41 54 73 55
REMARK SMILES IDX 53 56 72 57 54 58 57 59 71 60 90 61 55 62 56 63 70 65 91 66
REMARK SMILES IDX 58 67 42 68 43 69 51 70 44 71 46 72 52 73 45 74 47 75 48 76
REMARK SMILES IDX 49 77 50 78 74 79 75 80 83 81 76 82 78 83 84 84 77 85 79 86
REMARK SMILES IDX 80 87 81 88 82 89 59 90 60 91 68 92 61 93 63 94 69 95 62 96
REMARK SMILES IDX 64 97 65 98 66 99 67 100
REMARK H PARENT 25 5 30 34 89 53 57 64
REMARK Flexibility Score: inf
ROOT
ATOM      1  C   UNL A   1      31.649  26.272  25.816  1.00  0.00     0.116 C 
ENDROOT
BRANCH   1   2
ATOM      2  N   UNL A   1      30.610  25.517  26.505  1.00  0.00    -0.356 N 
ATOM      3  C   UNL A   1      30.594  24.187  26.817  1.00  0.00     0.221 C 
ATOM      4  O   UNL A   1      29.562  23.694  27.276  1.00  0.00    -0.275 OA
ATOM      5  H   UNL A   1      29.816  26.031  26.781  1.00  0.00     0.163 HD
BRANCH   3   6
ATOM      6  C   UNL A   1      31.837  23.338  26.609  1.00  0.00     0.122 C 
BRANCH   6   7
ATOM      7  C   UNL A   1      31.548  22.167  25.654  1.00  0.00     0.138 C 
BRANCH   7   8
ATOM      8  N   UNL A   1      32.585  22.004  24.634  1.00  0.00    -0.287 N 
ATOM      9  C   UNL A   1      32.869  22.887  23.607  1.00  0.00     0.171 A 
ATOM     10  N   UNL A   1      34.095  23.127  23.248  1.00  0.00    -0.224 NA
ATOM     11  C   UNL A   1      35.140  22.461  23.897  1.00  0.00     0.079 A 
ATOM     12  C   UNL A   1      33.502  20.982  24.907  1.00  0.00     0.262 A 
ATOM     13  C   UNL A   1      36.439  22.967  23.858  1.00  0.00     0.029 A 
ATOM     14  C   UNL A   1      34.907  21.288  24.602  1.00  0.00     0.066 A 
ATOM     15  O   UNL A   1      33.220  19.928  25.471  1.00  0.00    -0.269 OA
ATOM     16  C   UNL A   1      37.487  22.285  24.487  1.00  0.00     0.002 A 
ATOM     17  C   UNL A   1      35.953  20.554  25.172  1.00  0.00     0.016 A 
ATOM     18  C   UNL A   1      37.250  21.059  25.111  1.00  0.00     0.001 A 
BRANCH   9  19
ATOM     19  S   UNL A   1      31.712  23.856  22.717  1.00  0.00    -0.083 SA
BRANCH  19  20
ATOM     20  C   UNL A   1      32.445  25.078  21.635  1.00  0.00     0.113 C 
BRANCH  20  21
ATOM     21  C   UNL A   1      32.319  26.490  22.127  1.00  0.00    -0.034 A 
ATOM     22  C   UNL A   1      30.948  28.437  22.611  1.00  0.00     0.119 A 
ATOM     23  C   UNL A   1      32.105  29.183  22.837  1.00  0.00     0.046 A 
ATOM     24  C   UNL A   1      31.060  27.080  22.318  1.00  0.00     0.051 A 
ATOM     25  C   UNL A   1      33.363  28.587  22.746  1.00  0.00     0.004 A 
ATOM     26  C   UNL A   1      33.469  27.248  22.383  1.00  0.00     0.005 A 
BRANCH  22  27
ATOM     27  O   UNL A   1      29.772  29.129  22.699  1.00  0.00    -0.497 OA
ATOM     28  C   UNL A   1      29.605  30.204  21.777  1.00  0.00     0.278 C 
ENDBRANCH  22  27
ENDBRANCH  20  21
ENDBRANCH  19  20
ENDBRANCH   9  19
ENDBRANCH   7   8
ENDBRANCH   6   7
ENDBRANCH   3   6
ENDBRANCH   1   2
BRANCH   1  29
ATOM     29  C   UNL A   1      32.314  27.234  26.787  1.00  0.00     0.023 C 
BRANCH  29  30
ATOM     30  C   UNL A   1      31.731  28.635  26.904  1.00  0.00     0.023 C 
BRANCH  30  31
ATOM     31  C   UNL A   1      32.600  29.698  26.264  1.00  0.00     0.116 C 
BRANCH  31  32
ATOM     32  N   UNL A   1      32.423  31.025  26.842  1.00  0.00    -0.352 N 
ATOM     33  C   UNL A   1      33.341  31.859  27.447  1.00  0.00     0.251 C 
ATOM     34  H   UNL A   1      31.508  31.381  26.794  1.00  0.00     0.163 HD
ATOM     35  O   UNL A   1      32.992  32.955  27.846  1.00  0.00    -0.269 OA
BRANCH  33  36
ATOM     36  C   UNL A   1      34.708  31.351  27.714  1.00  0.00     0.039 A 
ATOM     37  C   UNL A   1      35.719  32.288  27.941  1.00  0.00     0.014 A 
ATOM     38  C   UNL A   1      34.963  29.995  27.894  1.00  0.00     0.014 A 
ATOM     39  C   UNL A   1      36.937  31.868  28.474  1.00  0.00     0.010 A 
ATOM     40  C   UNL A   1      36.111  29.599  28.561  1.00  0.00     0.010 A 
ATOM     41  C   UNL A   1      37.111  30.530  28.861  1.00  0.00    -0.014 A 
BRANCH  41  42
ATOM     42  C   UNL A   1      38.313  30.092  29.608  1.00  0.00     0.031 A 
ATOM     43  C   UNL A   1      38.537  30.558  31.022  1.00  0.00     0.074 A 
ATOM     44  C   UNL A   1      39.255  29.367  28.971  1.00  0.00     0.049 A 
ATOM     45  N   UNL A   1      39.543  30.313  31.819  1.00  0.00    -0.248 NA
ATOM     46  C   UNL A   1      37.529  31.464  31.600  1.00  0.00     0.031 C 
ATOM     47  C   UNL A   1      39.223  28.984  27.555  1.00  0.00     0.029 A 
ATOM     48  N   UNL A   1      40.433  28.831  29.427  1.00  0.00    -0.354 N 
ATOM     49  C   UNL A   1      39.315  31.071  32.959  1.00  0.00     0.074 A 
ATOM     50  C   UNL A   1      38.110  31.834  32.730  1.00  0.00     0.031 C 
ATOM     51  C   UNL A   1      40.304  28.240  27.272  1.00  0.00     0.029 A 
ATOM     52  C   UNL A   1      41.115  28.106  28.476  1.00  0.00     0.049 A 
ATOM     53  H   UNL A   1      40.761  28.954  30.347  1.00  0.00     0.167 HD
ATOM     54  C   UNL A   1      40.011  31.090  34.119  1.00  0.00     0.034 A 
ATOM     55  C   UNL A   1      42.250  27.389  28.578  1.00  0.00     0.034 A 
ATOM     56  C   UNL A   1      41.147  30.248  34.371  1.00  0.00     0.049 A 
ATOM     57  C   UNL A   1      42.918  27.298  29.923  1.00  0.00     0.074 A 
ATOM     58  C   UNL A   1      41.861  30.089  35.544  1.00  0.00     0.029 A 
ATOM     59  N   UNL A   1      41.722  29.406  33.431  1.00  0.00    -0.354 N 
ATOM     60  N   UNL A   1      42.581  27.878  31.051  1.00  0.00    -0.248 NA
ATOM     61  C   UNL A   1      44.089  26.418  30.025  1.00  0.00     0.031 C 
ATOM     62  C   UNL A   1      42.865  29.141  35.314  1.00  0.00     0.029 A 
ATOM     63  C   UNL A   1      42.773  28.710  33.999  1.00  0.00     0.049 A 
ATOM     64  H   UNL A   1      41.425  29.317  32.497  1.00  0.00     0.167 HD
ATOM     65  C   UNL A   1      43.478  27.411  32.003  1.00  0.00     0.074 A 
ATOM     66  C   UNL A   1      44.355  26.477  31.323  1.00  0.00     0.031 C 
ATOM     67  C   UNL A   1      43.589  27.742  33.312  1.00  0.00     0.034 A 
BRANCH  54  68
ATOM     68  C   UNL A   1      39.496  31.975  35.222  1.00  0.00     0.023 A 
ATOM     69  C   UNL A   1      38.523  31.472  36.113  1.00  0.00     0.012 A 
ATOM     70  C   UNL A   1      39.969  33.290  35.392  1.00  0.00     0.148 A 
ATOM     71  C   UNL A   1      37.995  32.275  37.122  1.00  0.00     0.002 A 
ATOM     72  C   UNL A   1      39.470  34.071  36.429  1.00  0.00     0.091 A 
ATOM     73  F   UNL A   1      40.874  33.762  34.522  1.00  0.00    -0.205 F 
ATOM     74  C   UNL A   1      38.475  33.570  37.284  1.00  0.00     0.022 A 
BRANCH  72  75
ATOM     75  S   UNL A   1      40.072  35.729  36.768  1.00  0.00     0.127 S 
ATOM     76  O   UNL A   1      39.634  36.451  35.574  1.00  0.00    -0.237 OA
ATOM     77  O   UNL A   1      39.347  36.077  37.991  1.00  0.00    -0.237 OA
ATOM     78  O   UNL A   1      41.514  35.604  36.933  1.00  0.00    -0.744 OA
ENDBRANCH  72  75
ENDBRANCH  54  68
BRANCH  55  79
ATOM     79  C   UNL A   1      42.741  26.596  27.415  1.00  0.00     0.023 A 
ATOM     80  C   UNL A   1      43.620  27.203  26.496  1.00  0.00     0.012 A 
ATOM     81  C   UNL A   1      42.383  25.247  27.229  1.00  0.00     0.148 A 
ATOM     82  C   UNL A   1      44.107  26.496  25.398  1.00  0.00     0.002 A 
ATOM     83  C   UNL A   1      42.911  24.532  26.157  1.00  0.00     0.091 A 
ATOM     84  F   UNL A   1      41.538  24.686  28.106  1.00  0.00    -0.205 F 
ATOM     85  C   UNL A   1      43.760  25.158  25.233  1.00  0.00     0.022 A 
BRANCH  83  86
ATOM     86  S   UNL A   1      42.616  22.772  25.945  1.00  0.00     0.127 S 
ATOM     87  O   UNL A   1      43.307  22.212  27.103  1.00  0.00    -0.237 OA
ATOM     88  O   UNL A   1      41.156  22.694  26.001  1.00  0.00    -0.237 OA
ATOM     89  O   UNL A   1      43.180  22.442  24.642  1.00  0.00    -0.744 OA
ENDBRANCH  83  86
ENDBRANCH  55  79
BRANCH  67  90
ATOM     90  C   UNL A   1      44.682  27.079  34.102  1.00  0.00     0.023 A 
ATOM     91  C   UNL A   1      45.966  27.656  34.126  1.00  0.00     0.012 A 
ATOM     92  C   UNL A   1      44.422  25.931  34.874  1.00  0.00     0.148 A 
ATOM     93  C   UNL A   1      46.985  27.084  34.885  1.00  0.00     0.002 A 
ATOM     94  C   UNL A   1      45.431  25.392  35.662  1.00  0.00     0.091 A 
ATOM     95  F   UNL A   1      43.199  25.381  34.818  1.00  0.00    -0.205 F 
ATOM     96  C   UNL A   1      46.715  25.960  35.661  1.00  0.00     0.022 A 
BRANCH  94  97
ATOM     97  S   UNL A   1      45.127  24.004  36.762  1.00  0.00     0.127 S 
ATOM     98  O   UNL A   1      44.144  24.563  37.687  1.00  0.00    -0.237 OA
ATOM     99  O   UNL A   1      44.597  22.987  35.852  1.00  0.00    -0.237 OA
ATOM    100  O   UNL A   1      46.424  23.671  37.337  1.00  0.00    -0.744 OA
ENDBRANCH  94  97
ENDBRANCH  67  90
ENDBRANCH  41  42
ENDBRANCH  33  36
ENDBRANCH  31  32
ENDBRANCH  30  31
ENDBRANCH  29  30
ENDBRANCH   1  29
TORSDOF 20
ENDMDL
MODEL 2
REMARK VINA RESULT:     -11.8      1.550      3.666
REMARK SMILES COc1cccc(CSc2nc3ccccc3c(=O)n2CCC(=O)NCCCCNC(=O)c2ccc(-c3c4nc(c(-c5cccc(S(=O)(=O)[O-])c5F)c5ccc([nH]5)c(-c5cccc(S(=O)(=O)[O-])c5F)c5nc(c(-c6cccc(S(=O)(=O)[O-])c6F)c6ccc3[nH]6)C=C5)C=C4)cc2)c1
REMARK SMILES IDX 26 1 25 2 23 3 24 4 22 6 21 7 20 8 10 9 11 10 12 11 18 12
REMARK SMILES IDX 13 13 17 14 19 15 14 16 16 17 15 18 9 19 8 20 7 21 3 22 4 23
REMARK SMILES IDX 96 24 5 25 6 26 2 27 1 28 27 29 28 30 29 31 30 32 31 33
REMARK SMILES IDX 32 35 33 36 34 37 95 38 35 39 94 40 36 41 37 42 38 43 88 44
REMARK SMILES IDX 39 45 93 46 87 47 89 48 40 49 92 50 86 51 85 52 41 54 73 55
REMARK SMILES IDX 53 56 72 57 54 58 57 59 71 60 90 61 55 62 56 63 70 65 91 66
REMARK SMILES IDX 58 67 42 68 43 69 51 70 44 71 46 72 52 73 45 74 47 75 48 76
REMARK SMILES IDX 49 77 50 78 74 79 75 80 83 81 76 82 78 83 84 84 77 85 79 86
REMARK SMILES IDX 80 87 81 88 82 89 59 90 60 91 68 92 61 93 63 94 69 95 62 96
REMARK SMILES IDX 64 97 65 98 66 99 67 100
REMARK H PARENT 25 5 30 34 89 53 57 64
REMARK Flexibility Score: inf
ROOT
ATOM      1  C   UNL A   1      32.102  27.022  23.698  1.00  0.00     0.116 C 
ENDROOT
BRANCH   1   2
ATOM      2  N   UNL A   1      31.105  26.057  23.254  1.00  0.00    -0.356 N 
ATOM      3  C   UNL A   1      30.929  24.768  23.672  1.00  0.00     0.221 C 
ATOM      4  O   UNL A   1      30.120  24.053  23.078  1.00  0.00    -0.275 OA
ATOM      5  H   UNL A   1      30.477  26.373  22.565  1.00  0.00     0.163 HD
BRANCH   3   6
ATOM      6  C   UNL A   1      31.713  24.235  24.859  1.00  0.00     0.122 C 
BRANCH   6   7
ATOM      7  C   UNL A   1      31.507  22.718  25.017  1.00  0.00     0.138 C 
BRANCH   7   8
ATOM      8  N   UNL A   1      32.639  21.941  24.508  1.00  0.00    -0.287 N 
ATOM      9  C   UNL A   1      33.871  21.795  25.120  1.00  0.00     0.171 A 
ATOM     10  N   UNL A   1      34.496  20.655  25.108  1.00  0.00    -0.224 NA
ATOM     11  C   UNL A   1      33.920  19.568  24.443  1.00  0.00     0.079 A 
ATOM     12  C   UNL A   1      32.319  21.093  23.442  1.00  0.00     0.262 A 
ATOM     13  C   UNL A   1      34.311  18.263  24.742  1.00  0.00     0.029 A 
ATOM     14  C   UNL A   1      32.940  19.761  23.480  1.00  0.00     0.066 A 
ATOM     15  O   UNL A   1      31.492  21.353  22.572  1.00  0.00    -0.269 OA
ATOM     16  C   UNL A   1      33.750  17.178  24.057  1.00  0.00     0.002 A 
ATOM     17  C   UNL A   1      32.424  18.696  22.732  1.00  0.00     0.016 A 
ATOM     18  C   UNL A   1      32.835  17.397  23.026  1.00  0.00     0.001 A 
BRANCH   9  19
ATOM     19  S   UNL A   1      34.726  23.012  26.047  1.00  0.00    -0.083 SA
BRANCH  19  20
ATOM     20  C   UNL A   1      36.132  23.733  25.208  1.00  0.00     0.113 C 
BRANCH  20  21
ATOM     21  C   UNL A   1      37.462  23.257  25.716  1.00  0.00    -0.034 A 
ATOM     22  C   UNL A   1      39.093  21.478  26.003  1.00  0.00     0.119 A 
ATOM     23  C   UNL A   1      39.835  22.308  26.843  1.00  0.00     0.046 A 
ATOM     24  C   UNL A   1      37.943  21.978  25.396  1.00  0.00     0.051 A 
ATOM     25  C   UNL A   1      39.420  23.616  27.095  1.00  0.00     0.004 A 
ATOM     26  C   UNL A   1      38.234  24.085  26.542  1.00  0.00     0.005 A 
BRANCH  22  27
ATOM     27  O   UNL A   1      39.576  20.208  25.849  1.00  0.00    -0.497 OA
ATOM     28  C   UNL A   1      40.882  19.966  26.366  1.00  0.00     0.278 C 
ENDBRANCH  22  27
ENDBRANCH  20  21
ENDBRANCH  19  20
ENDBRANCH   9  19
ENDBRANCH   7   8
ENDBRANCH   6   7
ENDBRANCH   3   6
ENDBRANCH   1   2
BRANCH   1  29
ATOM     29  C   UNL A   1      31.479  27.978  24.703  1.00  0.00     0.023 C 
BRANCH  29  30
ATOM     30  C   UNL A   1      32.058  29.383  24.792  1.00  0.00     0.023 C 
BRANCH  30  31
ATOM     31  C   UNL A   1      32.940  29.590  26.007  1.00  0.00     0.116 C 
BRANCH  31  32
ATOM     32  N   UNL A   1      32.699  30.850  26.698  1.00  0.00    -0.352 N 
ATOM     33  C   UNL A   1      33.563  31.642  27.426  1.00  0.00     0.251 C 
ATOM     34  H   UNL A   1      31.778  31.189  26.637  1.00  0.00     0.163 HD
ATOM     35  O   UNL A   1      33.166  32.687  27.909  1.00  0.00    -0.269 OA
BRANCH  33  36
ATOM     36  C   UNL A   1      34.929  31.141  27.714  1.00  0.00     0.039 A 
ATOM     37  C   UNL A   1      35.945  32.084  27.890  1.00  0.00     0.014 A 
ATOM     38  C   UNL A   1      35.178  29.794  27.961  1.00  0.00     0.014 A 
ATOM     39  C   UNL A   1      37.163  31.685  28.439  1.00  0.00     0.010 A 
ATOM     40  C   UNL A   1      36.326  29.427  28.644  1.00  0.00     0.010 A 
ATOM     41  C   UNL A   1      37.332  30.367  28.893  1.00  0.00    -0.014 A 
BRANCH  41  42
ATOM     42  C   UNL A   1      38.534  29.961  29.657  1.00  0.00     0.031 A 
ATOM     43  C   UNL A   1      38.713  30.411  31.082  1.00  0.00     0.074 A 
ATOM     44  C   UNL A   1      39.515  29.281  29.028  1.00  0.00     0.049 A 
ATOM     45  N   UNL A   1      39.712  30.190  31.895  1.00  0.00    -0.248 NA
ATOM     46  C   UNL A   1      37.661  31.270  31.654  1.00  0.00     0.031 C 
ATOM     47  C   UNL A   1      39.524  28.920  27.605  1.00  0.00     0.029 A 
ATOM     48  N   UNL A   1      40.702  28.781  29.498  1.00  0.00    -0.354 N 
ATOM     49  C   UNL A   1      39.433  30.920  33.043  1.00  0.00     0.074 A 
ATOM     50  C   UNL A   1      38.206  31.642  32.801  1.00  0.00     0.031 C 
ATOM     51  C   UNL A   1      40.637  28.221  27.332  1.00  0.00     0.029 A 
ATOM     52  C   UNL A   1      41.429  28.096  28.550  1.00  0.00     0.049 A 
ATOM     53  H   UNL A   1      41.007  28.900  30.427  1.00  0.00     0.167 HD
ATOM     54  C   UNL A   1      40.106  30.945  34.216  1.00  0.00     0.034 A 
ATOM     55  C   UNL A   1      42.587  27.420  28.664  1.00  0.00     0.034 A 
ATOM     56  C   UNL A   1      41.267  30.142  34.478  1.00  0.00     0.049 A 
ATOM     57  C   UNL A   1      43.231  27.331  30.021  1.00  0.00     0.074 A 
ATOM     58  C   UNL A   1      41.963  29.990  35.663  1.00  0.00     0.029 A 
ATOM     59  N   UNL A   1      41.890  29.336  33.537  1.00  0.00    -0.354 N 
ATOM     60  N   UNL A   1      42.852  27.880  31.150  1.00  0.00    -0.248 NA
ATOM     61  C   UNL A   1      44.432  26.493  30.133  1.00  0.00     0.031 C 
ATOM     62  C   UNL A   1      43.005  29.082  35.438  1.00  0.00     0.029 A 
ATOM     63  C   UNL A   1      42.955  28.670  34.115  1.00  0.00     0.049 A 
ATOM     64  H   UNL A   1      41.615  29.252  32.596  1.00  0.00     0.167 HD
ATOM     65  C   UNL A   1      43.747  27.431  32.113  1.00  0.00     0.074 A 
ATOM     66  C   UNL A   1      44.670  26.540  31.437  1.00  0.00     0.031 C 
ATOM     67  C   UNL A   1      43.819  27.744  33.429  1.00  0.00     0.034 A 
BRANCH  54  68
ATOM     68  C   UNL A   1      39.537  31.793  35.323  1.00  0.00     0.023 A 
ATOM     69  C   UNL A   1      38.554  31.245  36.175  1.00  0.00     0.012 A 
ATOM     70  C   UNL A   1      39.969  33.115  35.532  1.00  0.00     0.148 A 
ATOM     71  C   UNL A   1      37.976  32.012  37.185  1.00  0.00     0.002 A 
ATOM     72  C   UNL A   1      39.421  33.861  36.571  1.00  0.00     0.091 A 
ATOM     73  F   UNL A   1      40.885  33.630  34.699  1.00  0.00    -0.205 F 
ATOM     74  C   UNL A   1      38.417  33.316  37.388  1.00  0.00     0.022 A 
BRANCH  72  75
ATOM     75  S   UNL A   1      39.969  35.527  36.961  1.00  0.00     0.127 S 
ATOM     76  O   UNL A   1      39.240  35.794  38.199  1.00  0.00    -0.237 OA
ATOM     77  O   UNL A   1      41.412  35.347  37.128  1.00  0.00    -0.237 OA
ATOM     78  O   UNL A   1      39.590  36.348  35.818  1.00  0.00    -0.744 OA
ENDBRANCH  72  75
ENDBRANCH  54  68
BRANCH  55  79
ATOM     79  C   UNL A   1      43.129  26.665  27.499  1.00  0.00     0.023 A 
ATOM     80  C   UNL A   1      43.800  27.370  26.479  1.00  0.00     0.012 A 
ATOM     81  C   UNL A   1      43.027  25.264  27.406  1.00  0.00     0.148 A 
ATOM     82  C   UNL A   1      44.327  26.702  25.375  1.00  0.00     0.002 A 
ATOM     83  C   UNL A   1      43.597  24.597  26.325  1.00  0.00     0.091 A 
ATOM     84  F   UNL A   1      42.378  24.607  28.379  1.00  0.00    -0.205 F 
ATOM     85  C   UNL A   1      44.234  25.315  25.302  1.00  0.00     0.022 A 
BRANCH  83  86
ATOM     86  S   UNL A   1      43.633  22.803  26.219  1.00  0.00     0.127 S 
ATOM     87  O   UNL A   1      42.839  22.559  25.018  1.00  0.00    -0.237 OA
ATOM     88  O   UNL A   1      45.064  22.531  26.078  1.00  0.00    -0.237 OA
ATOM     89  O   UNL A   1      43.058  22.333  27.473  1.00  0.00    -0.744 OA
ENDBRANCH  83  86
ENDBRANCH  55  79
BRANCH  67  90
ATOM     90  C   UNL A   1      44.920  27.108  34.230  1.00  0.00     0.023 A 
ATOM     91  C   UNL A   1      46.151  27.779  34.370  1.00  0.00     0.012 A 
ATOM     92  C   UNL A   1      44.715  25.888  34.901  1.00  0.00     0.148 A 
ATOM     93  C   UNL A   1      47.172  27.230  35.143  1.00  0.00     0.002 A 
ATOM     94  C   UNL A   1      45.722  25.368  35.705  1.00  0.00     0.091 A 
ATOM     95  F   UNL A   1      43.546  25.251  34.734  1.00  0.00    -0.205 F 
ATOM     96  C   UNL A   1      46.954  26.032  35.819  1.00  0.00     0.022 A 
BRANCH  94  97
ATOM     97  S   UNL A   1      45.475  23.881  36.680  1.00  0.00     0.127 S 
ATOM     98  O   UNL A   1      44.651  24.376  37.781  1.00  0.00    -0.237 OA
ATOM     99  O   UNL A   1      44.776  22.998  35.745  1.00  0.00    -0.237 OA
ATOM    100  O   UNL A   1      46.812  23.426  37.043  1.00  0.00    -0.744 OA
ENDBRANCH  94  97
ENDBRANCH  67  90
ENDBRANCH  41  42
ENDBRANCH  33  36
ENDBRANCH  31  32
ENDBRANCH  30  31
ENDBRANCH  29  30
ENDBRANCH   1  29
TORSDOF 20
ENDMDL
MODEL 3
REMARK VINA RESULT:     -11.8      4.387     10.049
REMARK SMILES COc1cccc(CSc2nc3ccccc3c(=O)n2CCC(=O)NCCCCNC(=O)c2ccc(-c3c4nc(c(-c5cccc(S(=O)(=O)[O-])c5F)c5ccc([nH]5)c(-c5cccc(S(=O)(=O)[O-])c5F)c5nc(c(-c6cccc(S(=O)(=O)[O-])c6F)c6ccc3[nH]6)C=C5)C=C4)cc2)c1
REMARK SMILES IDX 26 1 25 2 23 3 24 4 22 6 21 7 20 8 10 9 11 10 12 11 18 12
REMARK SMILES IDX 13 13 17 14 19 15 14 16 16 17 15 18 9 19 8 20 7 21 3 22 4 23
REMARK SMILES IDX 96 24 5 25 6 26 2 27 1 28 27 29 28 30 29 31 30 32 31 33
REMARK SMILES IDX 32 35 33 36 34 37 95 38 35 39 94 40 36 41 37 42 38 43 88 44
REMARK SMILES IDX 39 45 93 46 87 47 89 48 40 49 92 50 86 51 85 52 41 54 73 55
REMARK SMILES IDX 53 56 72 57 54 58 57 59 71 60 90 61 55 62 56 63 70 65 91 66
REMARK SMILES IDX 58 67 42 68 43 69 51 70 44 71 46 72 52 73 45 74 47 75 48 76
REMARK SMILES IDX 49 77 50 78 74 79 75 80 83 81 76 82 78 83 84 84 77 85 79 86
REMARK SMILES IDX 80 87 81 88 82 89 59 90 60 91 68 92 61 93 63 94 69 95 62 96
REMARK SMILES IDX 64 97 65 98 66 99 67 100
REMARK H PARENT 25 5 30 34 89 53 57 64
REMARK Flexibility Score: inf
ROOT
ATOM      1  C   UNL A   1      34.152  24.079  23.337  1.00  0.00     0.116 C 
ENDROOT
BRANCH   1   2
ATOM      2  N   UNL A   1      34.033  25.470  22.920  1.00  0.00    -0.356 N 
ATOM      3  C   UNL A   1      32.901  26.160  22.585  1.00  0.00     0.221 C 
ATOM      4  O   UNL A   1      33.011  27.295  22.117  1.00  0.00    -0.275 OA
ATOM      5  H   UNL A   1      34.874  25.979  22.873  1.00  0.00     0.163 HD
BRANCH   3   6
ATOM      6  C   UNL A   1      31.533  25.535  22.800  1.00  0.00     0.122 C 
BRANCH   6   7
ATOM      7  C   UNL A   1      30.486  26.611  23.137  1.00  0.00     0.138 C 
BRANCH   7   8
ATOM      8  N   UNL A   1      30.591  27.085  24.518  1.00  0.00    -0.287 N 
ATOM      9  C   UNL A   1      30.746  26.296  25.644  1.00  0.00     0.171 A 
ATOM     10  N   UNL A   1      31.527  26.661  26.617  1.00  0.00    -0.224 NA
ATOM     11  C   UNL A   1      32.199  27.884  26.531  1.00  0.00     0.079 A 
ATOM     12  C   UNL A   1      30.797  28.464  24.637  1.00  0.00     0.262 A 
ATOM     13  C   UNL A   1      33.333  28.129  27.306  1.00  0.00     0.029 A 
ATOM     14  C   UNL A   1      31.761  28.878  25.666  1.00  0.00     0.066 A 
ATOM     15  O   UNL A   1      30.318  29.305  23.881  1.00  0.00    -0.269 OA
ATOM     16  C   UNL A   1      33.989  29.364  27.235  1.00  0.00     0.002 A 
ATOM     17  C   UNL A   1      32.358  30.143  25.638  1.00  0.00     0.016 A 
ATOM     18  C   UNL A   1      33.479  30.384  26.430  1.00  0.00     0.001 A 
BRANCH   9  19
ATOM     19  S   UNL A   1      30.041  24.715  25.915  1.00  0.00    -0.083 SA
BRANCH  19  20
ATOM     20  C   UNL A   1      30.713  23.416  24.885  1.00  0.00     0.113 C 
BRANCH  20  21
ATOM     21  C   UNL A   1      31.798  22.611  25.539  1.00  0.00    -0.034 A 
ATOM     22  C   UNL A   1      33.058  20.543  25.736  1.00  0.00     0.119 A 
ATOM     23  C   UNL A   1      33.666  21.035  26.890  1.00  0.00     0.046 A 
ATOM     24  C   UNL A   1      32.174  21.357  25.032  1.00  0.00     0.051 A 
ATOM     25  C   UNL A   1      33.375  22.318  27.354  1.00  0.00     0.004 A 
ATOM     26  C   UNL A   1      32.438  23.099  26.686  1.00  0.00     0.005 A 
BRANCH  22  27
ATOM     27  O   UNL A   1      33.395  19.263  25.390  1.00  0.00    -0.497 OA
ATOM     28  C   UNL A   1      32.660  18.690  24.311  1.00  0.00     0.278 C 
ENDBRANCH  22  27
ENDBRANCH  20  21
ENDBRANCH  19  20
ENDBRANCH   9  19
ENDBRANCH   7   8
ENDBRANCH   6   7
ENDBRANCH   3   6
ENDBRANCH   1   2
BRANCH   1  29
ATOM     29  C   UNL A   1      35.348  23.921  24.263  1.00  0.00     0.023 C 
BRANCH  29  30
ATOM     30  C   UNL A   1      36.221  22.688  24.083  1.00  0.00     0.023 C 
BRANCH  30  31
ATOM     31  C   UNL A   1      36.605  22.031  25.393  1.00  0.00     0.116 C 
BRANCH  31  32
ATOM     32  N   UNL A   1      37.792  21.191  25.302  1.00  0.00    -0.352 N 
ATOM     33  C   UNL A   1      39.039  21.352  25.869  1.00  0.00     0.251 C 
ATOM     34  H   UNL A   1      37.689  20.383  24.751  1.00  0.00     0.163 HD
ATOM     35  O   UNL A   1      39.900  20.510  25.690  1.00  0.00    -0.269 OA
BRANCH  33  36
ATOM     36  C   UNL A   1      39.347  22.616  26.583  1.00  0.00     0.039 A 
ATOM     37  C   UNL A   1      40.319  22.577  27.586  1.00  0.00     0.014 A 
ATOM     38  C   UNL A   1      38.814  23.835  26.176  1.00  0.00     0.014 A 
ATOM     39  C   UNL A   1      40.843  23.772  28.079  1.00  0.00     0.010 A 
ATOM     40  C   UNL A   1      39.439  25.013  26.553  1.00  0.00     0.010 A 
ATOM     41  C   UNL A   1      40.462  24.996  27.507  1.00  0.00    -0.014 A 
BRANCH  41  42
ATOM     42  C   UNL A   1      41.141  26.262  27.868  1.00  0.00     0.031 A 
ATOM     43  C   UNL A   1      42.548  26.526  27.403  1.00  0.00     0.074 A 
ATOM     44  C   UNL A   1      40.528  27.121  28.709  1.00  0.00     0.049 A 
ATOM     45  N   UNL A   1      43.317  27.553  27.649  1.00  0.00    -0.248 NA
ATOM     46  C   UNL A   1      43.201  25.474  26.603  1.00  0.00     0.031 C 
ATOM     47  C   UNL A   1      39.225  26.904  29.348  1.00  0.00     0.029 A 
ATOM     48  N   UNL A   1      40.923  28.347  29.182  1.00  0.00    -0.354 N 
ATOM     49  C   UNL A   1      44.548  27.247  27.085  1.00  0.00     0.074 A 
ATOM     50  C   UNL A   1      44.447  25.914  26.539  1.00  0.00     0.031 C 
ATOM     51  C   UNL A   1      38.911  27.977  30.091  1.00  0.00     0.029 A 
ATOM     52  C   UNL A   1      39.992  28.951  29.997  1.00  0.00     0.049 A 
ATOM     53  H   UNL A   1      41.790  28.757  28.959  1.00  0.00     0.167 HD
ATOM     54  C   UNL A   1      45.649  28.027  26.977  1.00  0.00     0.034 A 
ATOM     55  C   UNL A   1      40.002  30.166  30.576  1.00  0.00     0.034 A 
ATOM     56  C   UNL A   1      45.700  29.388  27.432  1.00  0.00     0.049 A 
ATOM     57  C   UNL A   1      41.170  31.075  30.308  1.00  0.00     0.074 A 
ATOM     58  C   UNL A   1      46.714  30.314  27.274  1.00  0.00     0.029 A 
ATOM     59  N   UNL A   1      44.678  30.022  28.122  1.00  0.00    -0.354 N 
ATOM     60  N   UNL A   1      42.256  30.837  29.610  1.00  0.00    -0.248 NA
ATOM     61  C   UNL A   1      41.097  32.433  30.861  1.00  0.00     0.031 C 
ATOM     62  C   UNL A   1      46.298  31.514  27.862  1.00  0.00     0.029 A 
ATOM     63  C   UNL A   1      45.026  31.334  28.385  1.00  0.00     0.049 A 
ATOM     64  H   UNL A   1      43.829  29.599  28.387  1.00  0.00     0.167 HD
ATOM     65  C   UNL A   1      42.981  32.021  29.615  1.00  0.00     0.074 A 
ATOM     66  C   UNL A   1      42.194  32.985  30.360  1.00  0.00     0.031 C 
ATOM     67  C   UNL A   1      44.196  32.286  29.077  1.00  0.00     0.034 A 
BRANCH  54  68
ATOM     68  C   UNL A   1      46.838  27.450  26.256  1.00  0.00     0.023 A 
ATOM     69  C   UNL A   1      46.914  27.564  24.851  1.00  0.00     0.012 A 
ATOM     70  C   UNL A   1      47.879  26.808  26.951  1.00  0.00     0.148 A 
ATOM     71  C   UNL A   1      47.979  27.009  24.145  1.00  0.00     0.002 A 
ATOM     72  C   UNL A   1      48.963  26.296  26.245  1.00  0.00     0.091 A 
ATOM     73  F   UNL A   1      47.780  26.685  28.282  1.00  0.00    -0.205 F 
ATOM     74  C   UNL A   1      49.007  26.383  24.844  1.00  0.00     0.022 A 
BRANCH  72  75
ATOM     75  S   UNL A   1      50.372  25.531  27.055  1.00  0.00     0.127 S 
ATOM     76  O   UNL A   1      51.284  25.328  25.931  1.00  0.00    -0.237 OA
ATOM     77  O   UNL A   1      50.787  26.571  27.997  1.00  0.00    -0.237 OA
ATOM     78  O   UNL A   1      49.863  24.317  27.679  1.00  0.00    -0.744 OA
ENDBRANCH  72  75
ENDBRANCH  54  68
BRANCH  55  79
ATOM     79  C   UNL A   1      38.814  30.639  31.342  1.00  0.00     0.023 A 
ATOM     80  C   UNL A   1      38.803  30.495  32.744  1.00  0.00     0.012 A 
ATOM     81  C   UNL A   1      37.720  31.261  30.711  1.00  0.00     0.148 A 
ATOM     82  C   UNL A   1      37.714  30.929  33.499  1.00  0.00     0.002 A 
ATOM     83  C   UNL A   1      36.657  31.736  31.475  1.00  0.00     0.091 A 
ATOM     84  F   UNL A   1      37.740  31.382  29.376  1.00  0.00    -0.205 F 
ATOM     85  C   UNL A   1      36.645  31.557  32.866  1.00  0.00     0.022 A 
BRANCH  83  86
ATOM     86  S   UNL A   1      35.302  32.669  30.752  1.00  0.00     0.127 S 
ATOM     87  O   UNL A   1      34.918  31.818  29.630  1.00  0.00    -0.237 OA
ATOM     88  O   UNL A   1      34.337  32.714  31.851  1.00  0.00    -0.237 OA
ATOM     89  O   UNL A   1      35.871  33.966  30.406  1.00  0.00    -0.744 OA
ENDBRANCH  83  86
ENDBRANCH  55  79
BRANCH  67  90
ATOM     90  C   UNL A   1      44.744  33.674  29.258  1.00  0.00     0.023 A 
ATOM     91  C   UNL A   1      45.659  33.926  30.299  1.00  0.00     0.012 A 
ATOM     92  C   UNL A   1      44.412  34.705  28.360  1.00  0.00     0.148 A 
ATOM     93  C   UNL A   1      46.213  35.194  30.460  1.00  0.00     0.002 A 
ATOM     94  C   UNL A   1      45.003  35.954  28.501  1.00  0.00     0.091 A 
ATOM     95  F   UNL A   1      43.519  34.452  27.390  1.00  0.00    -0.205 F 
ATOM     96  C   UNL A   1      45.895  36.204  29.556  1.00  0.00     0.022 A 
BRANCH  94  97
ATOM     97  S   UNL A   1      44.713  37.272  27.315  1.00  0.00     0.127 S 
ATOM     98  O   UNL A   1      43.364  36.965  26.847  1.00  0.00    -0.237 OA
ATOM     99  O   UNL A   1      44.812  38.474  28.145  1.00  0.00    -0.237 OA
ATOM    100  O   UNL A   1      45.774  37.144  26.324  1.00  0.00    -0.744 OA
ENDBRANCH  94  97
ENDBRANCH  67  90
ENDBRANCH  41  42
ENDBRANCH  33  36
ENDBRANCH  31  32
ENDBRANCH  30  31
ENDBRANCH  29  30
ENDBRANCH   1  29
TORSDOF 20
ENDMDL
