MODEL 1
REMARK VINA RESULT:     -11.7      0.000      0.000
REMARK SMILES O=C(NCCCCNC(=O)c1ccccc1-c1ccc(/C=C2/SC(=S)N(Cc3ccccc3)C2=O)o1)c1ccc(-c2c3nc(c(-c4cccc(S(=O)(=O)[O-])c4F)c4ccc([nH]4)c(-c4cccc(S(=O)(=O)[O-])c4F)c4nc(c(-c5cccc(S(=O)(=O)[O-])c5F)c5ccc2[nH]5)C=C4)C=C3)cc1
REMARK SMILES IDX 6 1 5 2 4 3 3 4 1 5 2 6 37 8 38 9 99 10 39 11 98 12 40 13
REMARK SMILES IDX 41 14 42 15 92 16 43 17 97 18 91 19 93 20 44 21 96 22 90 23
REMARK SMILES IDX 89 24 45 26 77 27 57 28 76 29 58 30 61 31 75 32 94 33 59 34
REMARK SMILES IDX 60 35 74 37 95 38 62 39 46 40 47 41 55 42 48 43 50 44 56 45
REMARK SMILES IDX 49 46 51 47 52 48 53 49 54 50 78 51 79 52 87 53 80 54 82 55
REMARK SMILES IDX 88 56 81 57 83 58 84 59 85 60 86 61 63 62 64 63 72 64 65 65
REMARK SMILES IDX 67 66 73 67 66 68 68 69 69 70 70 71 71 72 7 73 8 74 9 75
REMARK SMILES IDX 10 77 11 78 12 79 16 80 13 81 15 82 14 83 17 84 18 85 36 86
REMARK SMILES IDX 19 87 20 88 21 89 22 90 23 91 34 92 24 93 26 94 35 95 25 96
REMARK SMILES IDX 27 97 28 98 29 99 33 100 30 101 32 102 31 103
REMARK H PARENT 3 7 93 25 61 36 8 76
REMARK Flexibility Score: inf
ROOT
ATOM      1  C   UNL A   1      33.491  27.040  25.666  1.00  0.00     0.023 C 
ENDROOT
BRANCH   1   2
ATOM      2  C   UNL A   1      33.370  28.033  24.514  1.00  0.00     0.023 C 
BRANCH   2   3
ATOM      3  C   UNL A   1      34.004  29.399  24.754  1.00  0.00     0.116 C 
BRANCH   3   4
ATOM      4  N   UNL A   1      33.165  30.289  25.543  1.00  0.00    -0.352 N 
ATOM      5  O   UNL A   1      32.503  31.449  27.360  1.00  0.00    -0.269 OA
ATOM      6  C   UNL A   1      33.386  30.812  26.800  1.00  0.00     0.251 C 
ATOM      7  H   UNL A   1      32.319  30.558  25.118  1.00  0.00     0.163 HD
BRANCH   6   8
ATOM      8  C   UNL A   1      34.683  30.569  27.473  1.00  0.00     0.039 A 
ATOM      9  C   UNL A   1      34.990  29.305  27.975  1.00  0.00     0.014 A 
ATOM     10  C   UNL A   1      35.589  31.623  27.630  1.00  0.00     0.014 A 
ATOM     11  C   UNL A   1      36.107  29.138  28.785  1.00  0.00     0.010 A 
ATOM     12  C   UNL A   1      36.767  31.426  28.361  1.00  0.00     0.010 A 
ATOM     13  C   UNL A   1      37.018  30.191  28.981  1.00  0.00    -0.014 A 
BRANCH  13  14
ATOM     14  C   UNL A   1      38.251  29.931  29.770  1.00  0.00     0.031 A 
ATOM     15  C   UNL A   1      38.447  30.495  31.152  1.00  0.00     0.074 A 
ATOM     16  C   UNL A   1      39.191  29.130  29.231  1.00  0.00     0.049 A 
ATOM     17  N   UNL A   1      39.431  30.285  31.990  1.00  0.00    -0.248 NA
ATOM     18  C   UNL A   1      37.419  31.418  31.663  1.00  0.00     0.031 C 
ATOM     19  C   UNL A   1      39.141  28.570  27.877  1.00  0.00     0.029 A 
ATOM     20  N   UNL A   1      40.359  28.633  29.750  1.00  0.00    -0.354 N 
ATOM     21  C   UNL A   1      39.162  31.065  33.110  1.00  0.00     0.074 A 
ATOM     22  C   UNL A   1      37.924  31.766  32.840  1.00  0.00     0.031 C 
ATOM     23  C   UNL A   1      40.201  27.775  27.688  1.00  0.00     0.029 A 
ATOM     24  C   UNL A   1      41.035  27.806  28.883  1.00  0.00     0.049 A 
ATOM     25  H   UNL A   1      40.683  28.847  30.655  1.00  0.00     0.167 HD
ATOM     26  C   UNL A   1      39.870  31.172  34.260  1.00  0.00     0.034 A 
ATOM     27  C   UNL A   1      42.202  27.149  29.025  1.00  0.00     0.034 A 
ATOM     28  C   UNL A   1      41.083  30.445  34.536  1.00  0.00     0.049 A 
ATOM     29  C   UNL A   1      42.937  27.253  30.329  1.00  0.00     0.074 A 
ATOM     30  C   UNL A   1      41.846  30.452  35.692  1.00  0.00     0.029 A 
ATOM     31  N   UNL A   1      41.711  29.580  33.652  1.00  0.00    -0.354 N 
ATOM     32  N   UNL A   1      42.596  27.898  31.417  1.00  0.00    -0.248 NA
ATOM     33  C   UNL A   1      44.204  26.517  30.435  1.00  0.00     0.031 C 
ATOM     34  C   UNL A   1      42.940  29.600  35.503  1.00  0.00     0.029 A 
ATOM     35  C   UNL A   1      42.852  29.052  34.235  1.00  0.00     0.049 A 
ATOM     36  H   UNL A   1      41.393  29.373  32.744  1.00  0.00     0.167 HD
ATOM     37  C   UNL A   1      43.600  27.639  32.341  1.00  0.00     0.074 A 
ATOM     38  C   UNL A   1      44.537  26.739  31.698  1.00  0.00     0.031 C 
ATOM     39  C   UNL A   1      43.751  28.125  33.597  1.00  0.00     0.034 A 
BRANCH  26  40
ATOM     40  C   UNL A   1      39.330  32.068  35.345  1.00  0.00     0.023 A 
ATOM     41  C   UNL A   1      38.402  31.547  36.269  1.00  0.00     0.012 A 
ATOM     42  C   UNL A   1      39.814  33.380  35.518  1.00  0.00     0.148 A 
ATOM     43  C   UNL A   1      37.949  32.323  37.337  1.00  0.00     0.002 A 
ATOM     44  C   UNL A   1      39.385  34.136  36.605  1.00  0.00     0.091 A 
ATOM     45  F   UNL A   1      40.685  33.864  34.621  1.00  0.00    -0.205 F 
ATOM     46  C   UNL A   1      38.449  33.610  37.511  1.00  0.00     0.022 A 
BRANCH  44  47
ATOM     47  S   UNL A   1      40.020  35.779  36.961  1.00  0.00     0.127 S 
ATOM     48  O   UNL A   1      41.454  35.520  37.082  1.00  0.00    -0.237 OA
ATOM     49  O   UNL A   1      39.634  36.525  35.763  1.00  0.00    -0.237 OA
ATOM     50  O   UNL A   1      39.359  36.209  38.185  1.00  0.00    -0.744 OA
ENDBRANCH  44  47
ENDBRANCH  26  40
BRANCH  27  51
ATOM     51  C   UNL A   1      42.715  26.304  27.911  1.00  0.00     0.023 A 
ATOM     52  C   UNL A   1      43.750  26.786  27.089  1.00  0.00     0.012 A 
ATOM     53  C   UNL A   1      42.213  25.005  27.694  1.00  0.00     0.148 A 
ATOM     54  C   UNL A   1      44.259  25.999  26.054  1.00  0.00     0.002 A 
ATOM     55  C   UNL A   1      42.770  24.203  26.705  1.00  0.00     0.091 A 
ATOM     56  F   UNL A   1      41.211  24.568  28.470  1.00  0.00    -0.205 F 
ATOM     57  C   UNL A   1      43.780  24.704  25.872  1.00  0.00     0.022 A 
BRANCH  55  58
ATOM     58  S   UNL A   1      42.309  22.477  26.531  1.00  0.00     0.127 S 
ATOM     59  O   UNL A   1      42.717  21.925  27.819  1.00  0.00    -0.237 OA
ATOM     60  O   UNL A   1      40.863  22.559  26.325  1.00  0.00    -0.237 OA
ATOM     61  O   UNL A   1      43.046  22.006  25.365  1.00  0.00    -0.744 OA
ENDBRANCH  55  58
ENDBRANCH  27  51
BRANCH  39  62
ATOM     62  C   UNL A   1      44.976  27.691  34.356  1.00  0.00     0.023 A 
ATOM     63  C   UNL A   1      46.146  28.475  34.286  1.00  0.00     0.012 A 
ATOM     64  C   UNL A   1      44.964  26.537  35.160  1.00  0.00     0.148 A 
ATOM     65  C   UNL A   1      47.297  28.094  34.974  1.00  0.00     0.002 A 
ATOM     66  C   UNL A   1      46.102  26.186  35.877  1.00  0.00     0.091 A 
ATOM     67  F   UNL A   1      43.850  25.790  35.194  1.00  0.00    -0.205 F 
ATOM     68  C   UNL A   1      47.272  26.957  35.777  1.00  0.00     0.022 A 
BRANCH  66  69
ATOM     69  S   UNL A   1      46.128  24.783  36.999  1.00  0.00     0.127 S 
ATOM     70  O   UNL A   1      45.983  23.660  36.075  1.00  0.00    -0.237 OA
ATOM     71  O   UNL A   1      47.450  24.897  37.616  1.00  0.00    -0.237 OA
ATOM     72  O   UNL A   1      45.017  24.992  37.918  1.00  0.00    -0.744 OA
ENDBRANCH  66  69
ENDBRANCH  39  62
ENDBRANCH  13  14
ENDBRANCH   6   8
ENDBRANCH   3   4
ENDBRANCH   2   3
ENDBRANCH   1   2
BRANCH   1  73
ATOM     73  C   UNL A   1      32.273  26.953  26.579  1.00  0.00     0.116 C 
BRANCH  73  74
ATOM     74  N   UNL A   1      31.537  25.706  26.453  1.00  0.00    -0.352 N 
ATOM     75  C   UNL A   1      30.733  25.301  25.415  1.00  0.00     0.252 C 
ATOM     76  H   UNL A   1      31.624  25.075  27.204  1.00  0.00     0.163 HD
ATOM     77  O   UNL A   1      30.196  24.198  25.424  1.00  0.00    -0.269 OA
BRANCH  75  78
ATOM     78  C   UNL A   1      30.468  26.227  24.297  1.00  0.00     0.050 A 
ATOM     79  C   UNL A   1      29.607  27.300  24.563  1.00  0.00     0.014 A 
ATOM     80  C   UNL A   1      31.063  26.072  23.032  1.00  0.00     0.030 A 
ATOM     81  C   UNL A   1      29.371  28.258  23.580  1.00  0.00     0.001 A 
ATOM     82  C   UNL A   1      30.829  27.056  22.062  1.00  0.00     0.013 A 
ATOM     83  C   UNL A   1      29.992  28.143  22.337  1.00  0.00     0.001 A 
BRANCH  80  84
ATOM     84  C   UNL A   1      31.897  24.925  22.712  1.00  0.00     0.135 A 
ATOM     85  C   UNL A   1      33.205  24.787  22.310  1.00  0.00     0.051 A 
ATOM     86  O   UNL A   1      31.274  23.711  22.713  1.00  0.00    -0.457 OA
ATOM     87  C   UNL A   1      33.386  23.415  22.039  1.00  0.00     0.051 A 
ATOM     88  C   UNL A   1      32.183  22.766  22.298  1.00  0.00     0.128 A 
BRANCH  88  89
ATOM     89  C   UNL A   1      31.898  21.382  22.161  1.00  0.00     0.068 C 
ATOM     90  C   UNL A   1      32.264  20.516  23.114  1.00  0.00     0.084 C 
ATOM     91  S   UNL A   1      32.382  18.814  22.896  1.00  0.00    -0.054 SA
ATOM     92  C   UNL A   1      32.803  20.869  24.450  1.00  0.00     0.266 C 
ATOM     93  C   UNL A   1      33.525  18.657  24.237  1.00  0.00     0.148 C 
ATOM     94  N   UNL A   1      33.617  19.856  24.909  1.00  0.00    -0.288 N 
ATOM     95  O   UNL A   1      32.508  21.887  25.065  1.00  0.00    -0.268 OA
ATOM     96  S   UNL A   1      34.308  17.223  24.573  1.00  0.00    -0.052 S 
BRANCH  94  97
ATOM     97  C   UNL A   1      34.441  20.116  26.088  1.00  0.00     0.163 C 
BRANCH  97  98
ATOM     98  C   UNL A   1      35.509  21.163  25.831  1.00  0.00    -0.028 A 
ATOM     99  C   UNL A   1      36.663  20.841  25.103  1.00  0.00     0.005 A 
ATOM    100  C   UNL A   1      35.384  22.469  26.337  1.00  0.00     0.005 A 
ATOM    101  C   UNL A   1      37.662  21.796  24.894  1.00  0.00     0.000 A 
ATOM    102  C   UNL A   1      36.374  23.426  26.114  1.00  0.00     0.000 A 
ATOM    103  C   UNL A   1      37.517  23.088  25.396  1.00  0.00     0.000 A 
ENDBRANCH  97  98
ENDBRANCH  94  97
ENDBRANCH  88  89
ENDBRANCH  80  84
ENDBRANCH  75  78
ENDBRANCH  73  74
ENDBRANCH   1  73
TORSDOF 18
ENDMDL
MODEL 2
REMARK VINA RESULT:     -11.6      4.533      9.117
REMARK SMILES O=C(NCCCCNC(=O)c1ccccc1-c1ccc(/C=C2/SC(=S)N(Cc3ccccc3)C2=O)o1)c1ccc(-c2c3nc(c(-c4cccc(S(=O)(=O)[O-])c4F)c4ccc([nH]4)c(-c4cccc(S(=O)(=O)[O-])c4F)c4nc(c(-c5cccc(S(=O)(=O)[O-])c5F)c5ccc2[nH]5)C=C4)C=C3)cc1
REMARK SMILES IDX 6 1 5 2 4 3 3 4 1 5 2 6 37 8 38 9 99 10 39 11 98 12 40 13
REMARK SMILES IDX 41 14 42 15 92 16 43 17 97 18 91 19 93 20 44 21 96 22 90 23
REMARK SMILES IDX 89 24 45 26 77 27 57 28 76 29 58 30 61 31 75 32 94 33 59 34
REMARK SMILES IDX 60 35 74 37 95 38 62 39 46 40 47 41 55 42 48 43 50 44 56 45
REMARK SMILES IDX 49 46 51 47 52 48 53 49 54 50 78 51 79 52 87 53 80 54 82 55
REMARK SMILES IDX 88 56 81 57 83 58 84 59 85 60 86 61 63 62 64 63 72 64 65 65
REMARK SMILES IDX 67 66 73 67 66 68 68 69 69 70 70 71 71 72 7 73 8 74 9 75
REMARK SMILES IDX 10 77 11 78 12 79 16 80 13 81 15 82 14 83 17 84 18 85 36 86
REMARK SMILES IDX 19 87 20 88 21 89 22 90 23 91 34 92 24 93 26 94 35 95 25 96
REMARK SMILES IDX 27 97 28 98 29 99 33 100 30 101 32 102 31 103
REMARK H PARENT 3 7 93 25 61 36 8 76
REMARK Flexibility Score: inf
ROOT
ATOM      1  C   UNL A   1      33.349  22.295  27.884  1.00  0.00     0.023 C 
ENDROOT
BRANCH   1   2
ATOM      2  C   UNL A   1      34.247  21.577  26.881  1.00  0.00     0.023 C 
BRANCH   2   3
ATOM      3  C   UNL A   1      35.647  22.157  26.720  1.00  0.00     0.116 C 
BRANCH   3   4
ATOM      4  N   UNL A   1      36.562  21.264  26.023  1.00  0.00    -0.352 N 
ATOM      5  O   UNL A   1      38.484  20.617  25.039  1.00  0.00    -0.269 OA
ATOM      6  C   UNL A   1      37.904  21.426  25.751  1.00  0.00     0.251 C 
ATOM      7  H   UNL A   1      36.165  20.423  25.700  1.00  0.00     0.163 HD
BRANCH   6   8
ATOM      8  C   UNL A   1      38.623  22.599  26.301  1.00  0.00     0.039 A 
ATOM      9  C   UNL A   1      38.182  23.891  26.019  1.00  0.00     0.014 A 
ATOM     10  C   UNL A   1      39.766  22.405  27.083  1.00  0.00     0.014 A 
ATOM     11  C   UNL A   1      38.977  24.979  26.358  1.00  0.00     0.010 A 
ATOM     12  C   UNL A   1      40.511  23.510  27.513  1.00  0.00     0.010 A 
ATOM     13  C   UNL A   1      40.146  24.807  27.120  1.00  0.00    -0.014 A 
BRANCH  13  14
ATOM     14  C   UNL A   1      40.904  26.013  27.546  1.00  0.00     0.031 A 
ATOM     15  C   UNL A   1      42.329  26.250  27.122  1.00  0.00     0.074 A 
ATOM     16  C   UNL A   1      40.266  26.929  28.302  1.00  0.00     0.049 A 
ATOM     17  N   UNL A   1      43.086  27.295  27.347  1.00  0.00    -0.248 NA
ATOM     18  C   UNL A   1      42.997  25.186  26.355  1.00  0.00     0.031 C 
ATOM     19  C   UNL A   1      38.903  26.783  28.824  1.00  0.00     0.029 A 
ATOM     20  N   UNL A   1      40.660  28.164  28.748  1.00  0.00    -0.354 N 
ATOM     21  C   UNL A   1      44.324  27.006  26.781  1.00  0.00     0.074 A 
ATOM     22  C   UNL A   1      44.221  25.680  26.210  1.00  0.00     0.031 C 
ATOM     23  C   UNL A   1      38.561  27.899  29.479  1.00  0.00     0.029 A 
ATOM     24  C   UNL A   1      39.691  28.819  29.473  1.00  0.00     0.049 A 
ATOM     25  H   UNL A   1      41.550  28.545  28.570  1.00  0.00     0.167 HD
ATOM     26  C   UNL A   1      45.434  27.782  26.727  1.00  0.00     0.034 A 
ATOM     27  C   UNL A   1      39.707  30.024  30.074  1.00  0.00     0.034 A 
ATOM     28  C   UNL A   1      45.519  29.115  27.267  1.00  0.00     0.049 A 
ATOM     29  C   UNL A   1      40.936  30.876  29.955  1.00  0.00     0.074 A 
ATOM     30  C   UNL A   1      46.587  29.995  27.218  1.00  0.00     0.029 A 
ATOM     31  N   UNL A   1      44.502  29.763  27.951  1.00  0.00    -0.354 N 
ATOM     32  N   UNL A   1      42.049  30.631  29.306  1.00  0.00    -0.248 NA
ATOM     33  C   UNL A   1      40.905  32.182  30.626  1.00  0.00     0.031 C 
ATOM     34  C   UNL A   1      46.219  31.171  27.881  1.00  0.00     0.029 A 
ATOM     35  C   UNL A   1      44.917  31.028  28.332  1.00  0.00     0.049 A 
ATOM     36  H   UNL A   1      43.615  29.379  28.138  1.00  0.00     0.167 HD
ATOM     37  C   UNL A   1      42.846  31.754  29.483  1.00  0.00     0.074 A 
ATOM     38  C   UNL A   1      42.068  32.699  30.261  1.00  0.00     0.031 C 
ATOM     39  C   UNL A   1      44.117  31.973  29.068  1.00  0.00     0.034 A 
BRANCH  26  40
ATOM     40  C   UNL A   1      46.644  27.239  26.010  1.00  0.00     0.023 A 
ATOM     41  C   UNL A   1      46.755  27.417  24.616  1.00  0.00     0.012 A 
ATOM     42  C   UNL A   1      47.712  26.654  26.718  1.00  0.00     0.148 A 
ATOM     43  C   UNL A   1      47.901  27.005  23.935  1.00  0.00     0.002 A 
ATOM     44  C   UNL A   1      48.867  26.278  26.039  1.00  0.00     0.091 A 
ATOM     45  F   UNL A   1      47.583  26.479  28.041  1.00  0.00    -0.205 F 
ATOM     46  C   UNL A   1      48.959  26.448  24.647  1.00  0.00     0.022 A 
BRANCH  44  47
ATOM     47  S   UNL A   1      50.316  25.616  26.871  1.00  0.00     0.127 S 
ATOM     48  O   UNL A   1      50.689  26.729  27.743  1.00  0.00    -0.237 OA
ATOM     49  O   UNL A   1      49.767  24.453  27.568  1.00  0.00    -0.237 OA
ATOM     50  O   UNL A   1      51.273  25.300  25.820  1.00  0.00    -0.744 OA
ENDBRANCH  44  47
ENDBRANCH  26  40
BRANCH  27  51
ATOM     51  C   UNL A   1      38.500  30.503  30.802  1.00  0.00     0.023 A 
ATOM     52  C   UNL A   1      38.399  30.305  32.192  1.00  0.00     0.012 A 
ATOM     53  C   UNL A   1      37.474  31.196  30.131  1.00  0.00     0.148 A 
ATOM     54  C   UNL A   1      37.285  30.767  32.895  1.00  0.00     0.002 A 
ATOM     55  C   UNL A   1      36.401  31.711  30.849  1.00  0.00     0.091 A 
ATOM     56  F   UNL A   1      37.573  31.357  28.804  1.00  0.00    -0.205 F 
ATOM     57  C   UNL A   1      36.295  31.482  32.227  1.00  0.00     0.022 A 
BRANCH  55  58
ATOM     58  S   UNL A   1      35.182  32.778  30.073  1.00  0.00     0.127 S 
ATOM     59  O   UNL A   1      34.341  33.149  31.206  1.00  0.00    -0.237 OA
ATOM     60  O   UNL A   1      36.010  33.860  29.538  1.00  0.00    -0.237 OA
ATOM     61  O   UNL A   1      34.557  31.951  29.048  1.00  0.00    -0.744 OA
ENDBRANCH  55  58
ENDBRANCH  27  51
BRANCH  39  62
ATOM     62  C   UNL A   1      44.744  33.287  29.448  1.00  0.00     0.023 A 
ATOM     63  C   UNL A   1      45.500  33.375  30.635  1.00  0.00     0.012 A 
ATOM     64  C   UNL A   1      44.617  34.420  28.623  1.00  0.00     0.148 A 
ATOM     65  C   UNL A   1      46.087  34.581  31.014  1.00  0.00     0.002 A 
ATOM     66  C   UNL A   1      45.241  35.608  28.986  1.00  0.00     0.091 A 
ATOM     67  F   UNL A   1      43.873  34.324  27.511  1.00  0.00    -0.205 F 
ATOM     68  C   UNL A   1      45.966  35.694  30.185  1.00  0.00     0.022 A 
BRANCH  66  69
ATOM     69  S   UNL A   1      45.204  37.064  27.935  1.00  0.00     0.127 S 
ATOM     70  O   UNL A   1      43.791  37.431  27.982  1.00  0.00    -0.237 OA
ATOM     71  O   UNL A   1      46.096  37.986  28.640  1.00  0.00    -0.237 OA
ATOM     72  O   UNL A   1      45.700  36.627  26.637  1.00  0.00    -0.744 OA
ENDBRANCH  66  69
ENDBRANCH  39  62
ENDBRANCH  13  14
ENDBRANCH   6   8
ENDBRANCH   3   4
ENDBRANCH   2   3
ENDBRANCH   1   2
BRANCH   1  73
ATOM     73  C   UNL A   1      33.027  23.745  27.546  1.00  0.00     0.116 C 
BRANCH  73  74
ATOM     74  N   UNL A   1      31.705  23.932  26.972  1.00  0.00    -0.352 N 
ATOM     75  C   UNL A   1      31.174  25.077  26.430  1.00  0.00     0.252 C 
ATOM     76  H   UNL A   1      31.119  23.141  26.971  1.00  0.00     0.163 HD
ATOM     77  O   UNL A   1      30.047  25.084  25.943  1.00  0.00    -0.269 OA
BRANCH  75  78
ATOM     78  C   UNL A   1      31.948  26.333  26.481  1.00  0.00     0.050 A 
ATOM     79  C   UNL A   1      31.404  27.372  27.247  1.00  0.00     0.014 A 
ATOM     80  C   UNL A   1      33.183  26.485  25.827  1.00  0.00     0.030 A 
ATOM     81  C   UNL A   1      32.114  28.560  27.407  1.00  0.00     0.001 A 
ATOM     82  C   UNL A   1      33.892  27.679  26.015  1.00  0.00     0.013 A 
ATOM     83  C   UNL A   1      33.362  28.707  26.803  1.00  0.00     0.001 A 
BRANCH  80  84
ATOM     84  C   UNL A   1      33.727  25.448  24.966  1.00  0.00     0.135 A 
ATOM     85  C   UNL A   1      34.989  24.929  24.791  1.00  0.00     0.051 A 
ATOM     86  O   UNL A   1      32.864  24.903  24.062  1.00  0.00    -0.457 OA
ATOM     87  C   UNL A   1      34.891  24.025  23.711  1.00  0.00     0.051 A 
ATOM     88  C   UNL A   1      33.569  24.021  23.278  1.00  0.00     0.128 A 
BRANCH  88  89
ATOM     89  C   UNL A   1      33.008  23.265  22.214  1.00  0.00     0.068 C 
ATOM     90  C   UNL A   1      32.450  22.071  22.450  1.00  0.00     0.084 C 
ATOM     91  S   UNL A   1      32.140  20.882  21.246  1.00  0.00    -0.054 SA
ATOM     92  C   UNL A   1      32.174  21.489  23.785  1.00  0.00     0.266 C 
ATOM     93  C   UNL A   1      32.153  19.577  22.441  1.00  0.00     0.148 C 
ATOM     94  N   UNL A   1      32.197  20.113  23.710  1.00  0.00    -0.288 N 
ATOM     95  O   UNL A   1      31.906  22.148  24.783  1.00  0.00    -0.268 OA
ATOM     96  S   UNL A   1      32.094  17.970  22.001  1.00  0.00    -0.052 S 
BRANCH  94  97
ATOM     97  C   UNL A   1      32.195  19.355  24.959  1.00  0.00     0.163 C 
BRANCH  97  98
ATOM     98  C   UNL A   1      33.228  18.243  24.965  1.00  0.00    -0.028 A 
ATOM     99  C   UNL A   1      32.872  16.940  25.338  1.00  0.00     0.005 A 
ATOM    100  C   UNL A   1      34.570  18.495  24.626  1.00  0.00     0.005 A 
ATOM    101  C   UNL A   1      33.830  15.923  25.376  1.00  0.00     0.000 A 
ATOM    102  C   UNL A   1      35.522  17.476  24.647  1.00  0.00     0.000 A 
ATOM    103  C   UNL A   1      35.153  16.190  25.027  1.00  0.00     0.000 A 
ENDBRANCH  97  98
ENDBRANCH  94  97
ENDBRANCH  88  89
ENDBRANCH  80  84
ENDBRANCH  75  78
ENDBRANCH  73  74
ENDBRANCH   1  73
TORSDOF 18
ENDMDL
MODEL 3
REMARK VINA RESULT:     -10.9      4.309      8.820
REMARK SMILES O=C(NCCCCNC(=O)c1ccccc1-c1ccc(/C=C2/SC(=S)N(Cc3ccccc3)C2=O)o1)c1ccc(-c2c3nc(c(-c4cccc(S(=O)(=O)[O-])c4F)c4ccc([nH]4)c(-c4cccc(S(=O)(=O)[O-])c4F)c4nc(c(-c5cccc(S(=O)(=O)[O-])c5F)c5ccc2[nH]5)C=C4)C=C3)cc1
REMARK SMILES IDX 6 1 5 2 4 3 3 4 1 5 2 6 37 8 38 9 99 10 39 11 98 12 40 13
REMARK SMILES IDX 41 14 42 15 92 16 43 17 97 18 91 19 93 20 44 21 96 22 90 23
REMARK SMILES IDX 89 24 45 26 77 27 57 28 76 29 58 30 61 31 75 32 94 33 59 34
REMARK SMILES IDX 60 35 74 37 95 38 62 39 46 40 47 41 55 42 48 43 50 44 56 45
REMARK SMILES IDX 49 46 51 47 52 48 53 49 54 50 78 51 79 52 87 53 80 54 82 55
REMARK SMILES IDX 88 56 81 57 83 58 84 59 85 60 86 61 63 62 64 63 72 64 65 65
REMARK SMILES IDX 67 66 73 67 66 68 68 69 69 70 70 71 71 72 7 73 8 74 9 75
REMARK SMILES IDX 10 77 11 78 12 79 16 80 13 81 15 82 14 83 17 84 18 85 36 86
REMARK SMILES IDX 19 87 20 88 21 89 22 90 23 91 34 92 24 93 26 94 35 95 25 96
REMARK SMILES IDX 27 97 28 98 29 99 33 100 30 101 32 102 31 103
REMARK H PARENT 3 7 93 25 61 36 8 76
REMARK Flexibility Score: inf
ROOT
ATOM      1  C   UNL A   1      33.569  22.441  27.817  1.00  0.00     0.023 C 
ENDROOT
BRANCH   1   2
ATOM      2  C   UNL A   1      34.367  21.775  26.700  1.00  0.00     0.023 C 
BRANCH   2   3
ATOM      3  C   UNL A   1      35.833  22.182  26.606  1.00  0.00     0.116 C 
BRANCH   3   4
ATOM      4  N   UNL A   1      36.686  21.134  26.067  1.00  0.00    -0.352 N 
ATOM      5  O   UNL A   1      38.561  20.218  25.212  1.00  0.00    -0.269 OA
ATOM      6  C   UNL A   1      38.036  21.165  25.783  1.00  0.00     0.251 C 
ATOM      7  H   UNL A   1      36.236  20.279  25.879  1.00  0.00     0.163 HD
BRANCH   6   8
ATOM      8  C   UNL A   1      38.829  22.362  26.145  1.00  0.00     0.039 A 
ATOM      9  C   UNL A   1      39.986  22.235  26.913  1.00  0.00     0.014 A 
ATOM     10  C   UNL A   1      38.396  23.627  25.737  1.00  0.00     0.014 A 
ATOM     11  C   UNL A   1      40.602  23.371  27.423  1.00  0.00     0.010 A 
ATOM     12  C   UNL A   1      39.081  24.771  26.168  1.00  0.00     0.010 A 
ATOM     13  C   UNL A   1      40.167  24.655  27.049  1.00  0.00    -0.014 A 
BRANCH  13  14
ATOM     14  C   UNL A   1      40.925  25.837  27.540  1.00  0.00     0.031 A 
ATOM     15  C   UNL A   1      42.356  26.087  27.144  1.00  0.00     0.074 A 
ATOM     16  C   UNL A   1      40.281  26.720  28.329  1.00  0.00     0.049 A 
ATOM     17  N   UNL A   1      43.115  27.116  27.425  1.00  0.00    -0.248 NA
ATOM     18  C   UNL A   1      43.029  25.055  26.337  1.00  0.00     0.031 C 
ATOM     19  C   UNL A   1      38.912  26.557  28.827  1.00  0.00     0.029 A 
ATOM     20  N   UNL A   1      40.675  27.931  28.836  1.00  0.00    -0.354 N 
ATOM     21  C   UNL A   1      44.358  26.848  26.862  1.00  0.00     0.074 A 
ATOM     22  C   UNL A   1      44.256  25.550  26.229  1.00  0.00     0.031 C 
ATOM     23  C   UNL A   1      38.566  27.644  29.529  1.00  0.00     0.029 A 
ATOM     24  C   UNL A   1      39.700  28.557  29.578  1.00  0.00     0.049 A 
ATOM     25  H   UNL A   1      41.569  28.316  28.686  1.00  0.00     0.167 HD
ATOM     26  C   UNL A   1      45.471  27.620  26.857  1.00  0.00     0.034 A 
ATOM     27  C   UNL A   1      39.714  29.733  30.234  1.00  0.00     0.034 A 
ATOM     28  C   UNL A   1      45.556  28.927  27.458  1.00  0.00     0.049 A 
ATOM     29  C   UNL A   1      40.948  30.584  30.169  1.00  0.00     0.074 A 
ATOM     30  C   UNL A   1      46.628  29.804  27.463  1.00  0.00     0.029 A 
ATOM     31  N   UNL A   1      44.533  29.547  28.159  1.00  0.00    -0.354 N 
ATOM     32  N   UNL A   1      42.067  30.364  29.523  1.00  0.00    -0.248 NA
ATOM     33  C   UNL A   1      40.913  31.858  30.900  1.00  0.00     0.031 C 
ATOM     34  C   UNL A   1      46.256  30.949  28.176  1.00  0.00     0.029 A 
ATOM     35  C   UNL A   1      44.949  30.792  28.603  1.00  0.00     0.049 A 
ATOM     36  H   UNL A   1      43.642  29.159  28.318  1.00  0.00     0.167 HD
ATOM     37  C   UNL A   1      42.866  31.474  29.761  1.00  0.00     0.074 A 
ATOM     38  C   UNL A   1      42.083  32.386  30.572  1.00  0.00     0.031 C 
ATOM     39  C   UNL A   1      44.144  31.706  29.372  1.00  0.00     0.034 A 
BRANCH  26  40
ATOM     40  C   UNL A   1      46.688  27.106  26.131  1.00  0.00     0.023 A 
ATOM     41  C   UNL A   1      47.438  26.058  26.701  1.00  0.00     0.012 A 
ATOM     42  C   UNL A   1      47.029  27.579  24.847  1.00  0.00     0.148 A 
ATOM     43  C   UNL A   1      48.518  25.500  26.015  1.00  0.00     0.002 A 
ATOM     44  C   UNL A   1      48.084  26.994  24.154  1.00  0.00     0.091 A 
ATOM     45  F   UNL A   1      46.313  28.586  24.327  1.00  0.00    -0.205 F 
ATOM     46  C   UNL A   1      48.832  25.959  24.739  1.00  0.00     0.022 A 
BRANCH  44  47
ATOM     47  S   UNL A   1      48.527  27.462  22.476  1.00  0.00     0.127 S 
ATOM     48  O   UNL A   1      48.634  26.158  21.825  1.00  0.00    -0.237 OA
ATOM     49  O   UNL A   1      47.369  28.256  22.062  1.00  0.00    -0.237 OA
ATOM     50  O   UNL A   1      49.771  28.211  22.583  1.00  0.00    -0.744 OA
ENDBRANCH  44  47
ENDBRANCH  26  40
BRANCH  27  51
ATOM     51  C   UNL A   1      38.499  30.184  30.969  1.00  0.00     0.023 A 
ATOM     52  C   UNL A   1      38.372  29.906  32.342  1.00  0.00     0.012 A 
ATOM     53  C   UNL A   1      37.493  30.929  30.323  1.00  0.00     0.148 A 
ATOM     54  C   UNL A   1      37.251  30.339  33.053  1.00  0.00     0.002 A 
ATOM     55  C   UNL A   1      36.414  31.415  31.052  1.00  0.00     0.091 A 
ATOM     56  F   UNL A   1      37.618  31.167  29.010  1.00  0.00    -0.205 F 
ATOM     57  C   UNL A   1      36.281  31.106  32.412  1.00  0.00     0.022 A 
BRANCH  55  58
ATOM     58  S   UNL A   1      35.223  32.541  30.320  1.00  0.00     0.127 S 
ATOM     59  O   UNL A   1      36.066  33.673  29.950  1.00  0.00    -0.237 OA
ATOM     60  O   UNL A   1      34.707  31.762  29.193  1.00  0.00    -0.237 OA
ATOM     61  O   UNL A   1      34.240  32.784  31.369  1.00  0.00    -0.744 OA
ENDBRANCH  55  58
ENDBRANCH  27  51
BRANCH  39  62
ATOM     62  C   UNL A   1      44.771  32.998  29.820  1.00  0.00     0.023 A 
ATOM     63  C   UNL A   1      44.670  34.138  28.995  1.00  0.00     0.012 A 
ATOM     64  C   UNL A   1      45.426  33.099  31.061  1.00  0.00     0.148 A 
ATOM     65  C   UNL A   1      45.245  35.346  29.382  1.00  0.00     0.002 A 
ATOM     66  C   UNL A   1      45.960  34.318  31.460  1.00  0.00     0.091 A 
ATOM     67  F   UNL A   1      45.534  31.999  31.821  1.00  0.00    -0.205 F 
ATOM     68  C   UNL A   1      45.881  35.440  30.617  1.00  0.00     0.022 A 
BRANCH  66  69
ATOM     69  S   UNL A   1      46.722  34.545  33.070  1.00  0.00     0.127 S 
ATOM     70  O   UNL A   1      45.639  34.157  33.971  1.00  0.00    -0.237 OA
ATOM     71  O   UNL A   1      47.843  33.605  33.025  1.00  0.00    -0.237 OA
ATOM     72  O   UNL A   1      47.117  35.946  33.126  1.00  0.00    -0.744 OA
ENDBRANCH  66  69
ENDBRANCH  39  62
ENDBRANCH  13  14
ENDBRANCH   6   8
ENDBRANCH   3   4
ENDBRANCH   2   3
ENDBRANCH   1   2
BRANCH   1  73
ATOM     73  C   UNL A   1      33.164  23.886  27.554  1.00  0.00     0.116 C 
BRANCH  73  74
ATOM     74  N   UNL A   1      31.822  24.028  27.014  1.00  0.00    -0.352 N 
ATOM     75  C   UNL A   1      31.255  25.141  26.442  1.00  0.00     0.252 C 
ATOM     76  H   UNL A   1      31.249  23.229  27.065  1.00  0.00     0.163 HD
ATOM     77  O   UNL A   1      30.114  25.110  25.991  1.00  0.00    -0.269 OA
BRANCH  75  78
ATOM     78  C   UNL A   1      32.010  26.409  26.416  1.00  0.00     0.050 A 
ATOM     79  C   UNL A   1      31.479  27.468  27.164  1.00  0.00     0.014 A 
ATOM     80  C   UNL A   1      33.215  26.555  25.707  1.00  0.00     0.030 A 
ATOM     81  C   UNL A   1      32.175  28.671  27.251  1.00  0.00     0.001 A 
ATOM     82  C   UNL A   1      33.911  27.767  25.822  1.00  0.00     0.013 A 
ATOM     83  C   UNL A   1      33.396  28.815  26.592  1.00  0.00     0.001 A 
BRANCH  80  84
ATOM     84  C   UNL A   1      33.742  25.495  24.864  1.00  0.00     0.135 A 
ATOM     85  C   UNL A   1      34.999  24.969  24.679  1.00  0.00     0.051 A 
ATOM     86  O   UNL A   1      32.861  24.928  23.990  1.00  0.00    -0.457 OA
ATOM     87  C   UNL A   1      34.880  24.038  23.626  1.00  0.00     0.051 A 
ATOM     88  C   UNL A   1      33.551  24.024  23.217  1.00  0.00     0.128 A 
BRANCH  88  89
ATOM     89  C   UNL A   1      32.970  23.242  22.184  1.00  0.00     0.068 C 
ATOM     90  C   UNL A   1      32.422  22.052  22.459  1.00  0.00     0.084 C 
ATOM     91  S   UNL A   1      32.090  20.834  21.291  1.00  0.00    -0.054 SA
ATOM     92  C   UNL A   1      32.178  21.500  23.814  1.00  0.00     0.266 C 
ATOM     93  C   UNL A   1      32.135  19.558  22.515  1.00  0.00     0.148 C 
ATOM     94  N   UNL A   1      32.205  20.123  23.770  1.00  0.00    -0.288 N 
ATOM     95  O   UNL A   1      31.930  22.181  24.801  1.00  0.00    -0.268 OA
ATOM     96  S   UNL A   1      32.073  17.941  22.113  1.00  0.00    -0.052 S 
BRANCH  94  97
ATOM     97  C   UNL A   1      32.235  19.394  25.036  1.00  0.00     0.163 C 
BRANCH  97  98
ATOM     98  C   UNL A   1      33.228  18.248  25.022  1.00  0.00    -0.028 A 
ATOM     99  C   UNL A   1      32.842  16.964  25.434  1.00  0.00     0.005 A 
ATOM    100  C   UNL A   1      34.563  18.447  24.627  1.00  0.00     0.005 A 
ATOM    101  C   UNL A   1      33.765  15.915  25.454  1.00  0.00     0.000 A 
ATOM    102  C   UNL A   1      35.480  17.395  24.631  1.00  0.00     0.000 A 
ATOM    103  C   UNL A   1      35.082  16.129  25.049  1.00  0.00     0.000 A 
ENDBRANCH  97  98
ENDBRANCH  94  97
ENDBRANCH  88  89
ENDBRANCH  80  84
ENDBRANCH  75  78
ENDBRANCH  73  74
ENDBRANCH   1  73
TORSDOF 18
ENDMDL
