MODEL 1
REMARK VINA RESULT:     -11.6      0.000      0.000
REMARK SMILES Cc1ccccc1C[C@H](CCSc1ccccc1)C(=O)NCCCCNC(=O)c1ccc(-c2c3nc(c(-c4cccc(S(=O)(=O)[O-])c4F)c4ccc([nH]4)c(-c4cccc(S(=O)(=O)[O-])c4F)c4nc(c(-c5cccc(S(=O)(=O)[O-])c5F)c5ccc2[nH]5)C=C4)C=C3)cc1
REMARK SMILES IDX 23 1 22 2 21 3 19 4 20 5 9 7 8 8 7 9 1 10 2 11 3 12 4 13
REMARK SMILES IDX 6 14 5 15 10 16 11 17 12 18 13 19 14 20 18 21 15 22 17 23
REMARK SMILES IDX 16 24 24 25 25 26 26 27 27 28 28 30 29 31 30 32 91 33 31 34
REMARK SMILES IDX 90 35 32 36 33 37 34 38 84 39 35 40 89 41 83 42 85 43 36 44
REMARK SMILES IDX 88 45 82 46 81 47 37 49 69 50 49 51 68 52 50 53 53 54 67 55
REMARK SMILES IDX 86 56 51 57 52 58 66 60 87 61 54 62 38 63 39 64 47 65 40 66
REMARK SMILES IDX 42 67 48 68 41 69 43 70 44 71 45 72 46 73 70 74 71 75 79 76
REMARK SMILES IDX 72 77 74 78 80 79 73 80 75 81 76 82 77 83 78 84 55 85 56 86
REMARK SMILES IDX 64 87 57 88 59 89 65 90 58 91 60 92 61 93 62 94 63 95
REMARK H PARENT 21 6 26 29 85 48 53 59
REMARK Flexibility Score: inf
ROOT
ATOM      1  C   UNL A   1      35.811  21.421  25.992  1.00  0.00     0.023 C 
ENDROOT
BRANCH   1   2
ATOM      2  C   UNL A   1      34.305  21.689  26.003  1.00  0.00     0.116 C 
BRANCH   2   3
ATOM      3  N   UNL A   1      33.669  21.098  24.844  1.00  0.00    -0.356 N 
ATOM      4  C   UNL A   1      32.899  21.637  23.872  1.00  0.00     0.223 C 
ATOM      5  O   UNL A   1      32.379  20.855  23.070  1.00  0.00    -0.275 OA
ATOM      6  H   UNL A   1      33.825  20.130  24.747  1.00  0.00     0.163 HD
BRANCH   4   7
ATOM      7  C   UNL A   1      32.632  23.131  23.774  1.00  0.00     0.083 C 
BRANCH   7   8
ATOM      8  C   UNL A   1      31.329  23.562  23.065  1.00  0.00     0.049 C 
BRANCH   8   9
ATOM      9  C   UNL A   1      30.986  25.044  23.114  1.00  0.00    -0.044 A 
ATOM     10  C   UNL A   1      32.339  25.706  21.006  1.00  0.00     0.044 C 
ATOM     11  C   UNL A   1      31.483  26.008  22.207  1.00  0.00    -0.048 A 
ATOM     12  C   UNL A   1      31.075  27.353  22.338  1.00  0.00     0.004 A 
ATOM     13  C   UNL A   1      30.186  27.751  23.330  1.00  0.00     0.000 A 
ATOM     14  C   UNL A   1      30.061  25.474  24.086  1.00  0.00     0.004 A 
ATOM     15  C   UNL A   1      29.673  26.808  24.202  1.00  0.00     0.000 A 
ENDBRANCH   8   9
ENDBRANCH   7   8
BRANCH   7  16
ATOM     16  C   UNL A   1      33.906  23.870  23.313  1.00  0.00     0.025 C 
BRANCH  16  17
ATOM     17  C   UNL A   1      34.520  24.846  24.324  1.00  0.00     0.076 C 
BRANCH  17  18
ATOM     18  S   UNL A   1      33.537  25.102  25.855  1.00  0.00    -0.126 SA
BRANCH  18  19
ATOM     19  C   UNL A   1      33.000  26.805  25.772  1.00  0.00     0.007 A 
ATOM     20  C   UNL A   1      32.118  27.327  26.723  1.00  0.00     0.015 A 
ATOM     21  C   UNL A   1      33.603  27.692  24.873  1.00  0.00     0.015 A 
ATOM     22  C   UNL A   1      31.751  28.674  26.711  1.00  0.00     0.001 A 
ATOM     23  C   UNL A   1      33.300  29.061  24.913  1.00  0.00     0.001 A 
ATOM     24  C   UNL A   1      32.359  29.548  25.818  1.00  0.00     0.000 A 
ENDBRANCH  18  19
ENDBRANCH  17  18
ENDBRANCH  16  17
ENDBRANCH   7  16
ENDBRANCH   4   7
ENDBRANCH   2   3
ENDBRANCH   1   2
BRANCH   1  25
ATOM     25  C   UNL A   1      36.712  22.659  26.163  1.00  0.00     0.023 C 
BRANCH  25  26
ATOM     26  C   UNL A   1      38.095  22.488  25.568  1.00  0.00     0.116 C 
BRANCH  26  27
ATOM     27  N   UNL A   1      39.090  22.332  26.613  1.00  0.00    -0.352 N 
ATOM     28  C   UNL A   1      40.089  23.212  26.943  1.00  0.00     0.251 C 
ATOM     29  H   UNL A   1      39.043  21.505  27.143  1.00  0.00     0.163 HD
ATOM     30  O   UNL A   1      41.217  22.735  27.126  1.00  0.00    -0.269 OA
BRANCH  28  31
ATOM     31  C   UNL A   1      39.787  24.628  27.230  1.00  0.00     0.039 A 
ATOM     32  C   UNL A   1      40.369  25.627  26.436  1.00  0.00     0.014 A 
ATOM     33  C   UNL A   1      39.152  24.981  28.417  1.00  0.00     0.014 A 
ATOM     34  C   UNL A   1      40.518  26.908  26.955  1.00  0.00     0.010 A 
ATOM     35  C   UNL A   1      39.171  26.260  28.863  1.00  0.00     0.010 A 
ATOM     36  C   UNL A   1      40.005  27.156  28.218  1.00  0.00    -0.014 A 
BRANCH  36  37
ATOM     37  C   UNL A   1      40.262  28.307  29.044  1.00  0.00     0.031 A 
ATOM     38  C   UNL A   1      39.362  29.440  28.917  1.00  0.00     0.074 A 
ATOM     39  C   UNL A   1      41.085  28.087  30.093  1.00  0.00     0.049 A 
ATOM     40  N   UNL A   1      39.613  30.603  29.388  1.00  0.00    -0.248 NA
ATOM     41  C   UNL A   1      38.095  29.345  28.204  1.00  0.00     0.031 C 
ATOM     42  C   UNL A   1      41.134  28.741  31.390  1.00  0.00     0.029 A 
ATOM     43  N   UNL A   1      42.117  27.157  30.163  1.00  0.00    -0.354 N 
ATOM     44  C   UNL A   1      38.429  31.303  29.339  1.00  0.00     0.074 A 
ATOM     45  C   UNL A   1      37.579  30.552  28.450  1.00  0.00     0.031 C 
ATOM     46  C   UNL A   1      42.270  28.379  32.019  1.00  0.00     0.029 A 
ATOM     47  C   UNL A   1      43.072  27.623  31.068  1.00  0.00     0.049 A 
ATOM     48  H   UNL A   1      42.166  26.312  29.660  1.00  0.00     0.167 HD
ATOM     49  C   UNL A   1      38.255  32.314  30.234  1.00  0.00     0.034 A 
ATOM     50  C   UNL A   1      44.286  28.021  30.566  1.00  0.00     0.034 A 
ATOM     51  C   UNL A   1      39.464  32.442  31.076  1.00  0.00     0.049 A 
ATOM     52  C   UNL A   1      44.463  29.532  30.622  1.00  0.00     0.074 A 
ATOM     53  C   UNL A   1      39.781  31.960  32.337  1.00  0.00     0.029 A 
ATOM     54  N   UNL A   1      40.675  32.794  30.484  1.00  0.00    -0.354 N 
ATOM     55  N   UNL A   1      43.513  30.379  30.911  1.00  0.00    -0.248 NA
ATOM     56  C   UNL A   1      45.736  30.199  30.382  1.00  0.00     0.031 C 
ATOM     57  C   UNL A   1      41.200  31.961  32.467  1.00  0.00     0.029 A 
ATOM     58  C   UNL A   1      41.749  32.467  31.300  1.00  0.00     0.049 A 
ATOM     59  H   UNL A   1      40.757  33.221  29.600  1.00  0.00     0.167 HD
ATOM     60  C   UNL A   1      43.966  31.665  30.788  1.00  0.00     0.074 A 
ATOM     61  C   UNL A   1      45.389  31.489  30.539  1.00  0.00     0.031 C 
ATOM     62  C   UNL A   1      43.119  32.746  30.858  1.00  0.00     0.034 A 
BRANCH  49  63
ATOM     63  C   UNL A   1      36.924  32.955  30.586  1.00  0.00     0.023 A 
ATOM     64  C   UNL A   1      36.520  32.872  31.938  1.00  0.00     0.012 A 
ATOM     65  C   UNL A   1      36.017  33.608  29.714  1.00  0.00     0.148 A 
ATOM     66  C   UNL A   1      35.276  33.332  32.385  1.00  0.00     0.002 A 
ATOM     67  C   UNL A   1      34.755  34.028  30.149  1.00  0.00     0.091 A 
ATOM     68  F   UNL A   1      36.383  33.907  28.468  1.00  0.00    -0.205 F 
ATOM     69  C   UNL A   1      34.382  33.890  31.486  1.00  0.00     0.022 A 
BRANCH  67  70
ATOM     70  S   UNL A   1      33.523  34.735  29.034  1.00  0.00     0.127 S 
ATOM     71  O   UNL A   1      32.438  35.079  29.956  1.00  0.00    -0.237 OA
ATOM     72  O   UNL A   1      34.230  35.885  28.475  1.00  0.00    -0.237 OA
ATOM     73  O   UNL A   1      33.182  33.687  28.079  1.00  0.00    -0.744 OA
ENDBRANCH  67  70
ENDBRANCH  49  63
BRANCH  50  74
ATOM     74  C   UNL A   1      44.727  27.129  29.431  1.00  0.00     0.023 A 
ATOM     75  C   UNL A   1      44.793  25.739  29.715  1.00  0.00     0.012 A 
ATOM     76  C   UNL A   1      44.581  27.533  28.093  1.00  0.00     0.148 A 
ATOM     77  C   UNL A   1      44.477  24.794  28.735  1.00  0.00     0.002 A 
ATOM     78  C   UNL A   1      44.295  26.579  27.114  1.00  0.00     0.091 A 
ATOM     79  F   UNL A   1      44.666  28.836  27.796  1.00  0.00    -0.205 F 
ATOM     80  C   UNL A   1      44.173  25.220  27.446  1.00  0.00     0.022 A 
BRANCH  78  81
ATOM     81  S   UNL A   1      43.989  27.084  25.416  1.00  0.00     0.127 S 
ATOM     82  O   UNL A   1      43.173  28.280  25.609  1.00  0.00    -0.237 OA
ATOM     83  O   UNL A   1      45.329  27.348  24.895  1.00  0.00    -0.237 OA
ATOM     84  O   UNL A   1      43.326  25.942  24.804  1.00  0.00    -0.744 OA
ENDBRANCH  78  81
ENDBRANCH  50  74
BRANCH  62  85
ATOM     85  C   UNL A   1      43.487  34.186  30.517  1.00  0.00     0.023 A 
ATOM     86  C   UNL A   1      43.889  35.122  31.487  1.00  0.00     0.012 A 
ATOM     87  C   UNL A   1      43.557  34.624  29.164  1.00  0.00     0.148 A 
ATOM     88  C   UNL A   1      44.261  36.429  31.156  1.00  0.00     0.002 A 
ATOM     89  C   UNL A   1      44.063  35.876  28.831  1.00  0.00     0.091 A 
ATOM     90  F   UNL A   1      43.095  33.845  28.176  1.00  0.00    -0.205 F 
ATOM     91  C   UNL A   1      44.376  36.800  29.827  1.00  0.00     0.022 A 
BRANCH  89  92
ATOM     92  S   UNL A   1      44.476  36.303  27.134  1.00  0.00     0.127 S 
ATOM     93  O   UNL A   1      43.154  36.422  26.524  1.00  0.00    -0.237 OA
ATOM     94  O   UNL A   1      45.187  37.572  27.301  1.00  0.00    -0.237 OA
ATOM     95  O   UNL A   1      45.310  35.211  26.650  1.00  0.00    -0.744 OA
ENDBRANCH  89  92
ENDBRANCH  62  85
ENDBRANCH  36  37
ENDBRANCH  28  31
ENDBRANCH  26  27
ENDBRANCH  25  26
ENDBRANCH   1  25
TORSDOF 20
ENDMDL
MODEL 2
REMARK VINA RESULT:     -11.4      1.418      2.202
REMARK SMILES Cc1ccccc1C[C@H](CCSc1ccccc1)C(=O)NCCCCNC(=O)c1ccc(-c2c3nc(c(-c4cccc(S(=O)(=O)[O-])c4F)c4ccc([nH]4)c(-c4cccc(S(=O)(=O)[O-])c4F)c4nc(c(-c5cccc(S(=O)(=O)[O-])c5F)c5ccc2[nH]5)C=C4)C=C3)cc1
REMARK SMILES IDX 23 1 22 2 21 3 19 4 20 5 9 7 8 8 7 9 1 10 2 11 3 12 4 13
REMARK SMILES IDX 6 14 5 15 10 16 11 17 12 18 13 19 14 20 18 21 15 22 17 23
REMARK SMILES IDX 16 24 24 25 25 26 26 27 27 28 28 30 29 31 30 32 91 33 31 34
REMARK SMILES IDX 90 35 32 36 33 37 34 38 84 39 35 40 89 41 83 42 85 43 36 44
REMARK SMILES IDX 88 45 82 46 81 47 37 49 69 50 49 51 68 52 50 53 53 54 67 55
REMARK SMILES IDX 86 56 51 57 52 58 66 60 87 61 54 62 38 63 39 64 47 65 40 66
REMARK SMILES IDX 42 67 48 68 41 69 43 70 44 71 45 72 46 73 70 74 71 75 79 76
REMARK SMILES IDX 72 77 74 78 80 79 73 80 75 81 76 82 77 83 78 84 55 85 56 86
REMARK SMILES IDX 64 87 57 88 59 89 65 90 58 91 60 92 61 93 62 94 63 95
REMARK H PARENT 21 6 26 29 85 48 53 59
REMARK Flexibility Score: inf
ROOT
ATOM      1  C   UNL A   1      36.378  23.513  26.364  1.00  0.00     0.023 C 
ENDROOT
BRANCH   1   2
ATOM      2  C   UNL A   1      34.941  23.744  25.892  1.00  0.00     0.116 C 
BRANCH   2   3
ATOM      3  N   UNL A   1      33.995  23.177  26.829  1.00  0.00    -0.356 N 
ATOM      4  C   UNL A   1      32.645  23.244  26.892  1.00  0.00     0.223 C 
ATOM      5  O   UNL A   1      32.105  22.764  27.894  1.00  0.00    -0.275 OA
ATOM      6  H   UNL A   1      34.408  22.648  27.551  1.00  0.00     0.163 HD
BRANCH   4   7
ATOM      7  C   UNL A   1      31.809  23.915  25.813  1.00  0.00     0.083 C 
BRANCH   7   8
ATOM      8  C   UNL A   1      30.736  24.921  26.288  1.00  0.00     0.049 C 
BRANCH   8   9
ATOM      9  C   UNL A   1      30.947  26.375  25.893  1.00  0.00    -0.044 A 
ATOM     10  C   UNL A   1      29.531  26.279  23.727  1.00  0.00     0.044 C 
ATOM     11  C   UNL A   1      30.436  26.964  24.714  1.00  0.00    -0.048 A 
ATOM     12  C   UNL A   1      30.678  28.333  24.466  1.00  0.00     0.004 A 
ATOM     13  C   UNL A   1      31.396  29.120  25.360  1.00  0.00     0.000 A 
ATOM     14  C   UNL A   1      31.641  27.208  26.794  1.00  0.00     0.004 A 
ATOM     15  C   UNL A   1      31.873  28.557  26.530  1.00  0.00     0.000 A 
ENDBRANCH   8   9
ENDBRANCH   7   8
BRANCH   7  16
ATOM     16  C   UNL A   1      31.321  22.868  24.790  1.00  0.00     0.025 C 
BRANCH  16  17
ATOM     17  C   UNL A   1      31.406  23.279  23.316  1.00  0.00     0.076 C 
BRANCH  17  18
ATOM     18  S   UNL A   1      33.110  23.457  22.653  1.00  0.00    -0.126 SA
BRANCH  18  19
ATOM     19  C   UNL A   1      33.411  25.219  22.632  1.00  0.00     0.007 A 
ATOM     20  C   UNL A   1      32.931  26.016  21.589  1.00  0.00     0.015 A 
ATOM     21  C   UNL A   1      33.958  25.854  23.753  1.00  0.00     0.015 A 
ATOM     22  C   UNL A   1      33.095  27.403  21.602  1.00  0.00     0.001 A 
ATOM     23  C   UNL A   1      34.048  27.253  23.805  1.00  0.00     0.001 A 
ATOM     24  C   UNL A   1      33.636  28.025  22.720  1.00  0.00     0.000 A 
ENDBRANCH  18  19
ENDBRANCH  17  18
ENDBRANCH  16  17
ENDBRANCH   7  16
ENDBRANCH   4   7
ENDBRANCH   2   3
ENDBRANCH   1   2
BRANCH   1  25
ATOM     25  C   UNL A   1      37.018  22.179  25.933  1.00  0.00     0.023 C 
BRANCH  25  26
ATOM     26  C   UNL A   1      38.461  22.314  25.492  1.00  0.00     0.116 C 
BRANCH  26  27
ATOM     27  N   UNL A   1      39.358  22.223  26.628  1.00  0.00    -0.352 N 
ATOM     28  C   UNL A   1      40.282  23.155  27.032  1.00  0.00     0.251 C 
ATOM     29  H   UNL A   1      39.299  21.404  27.170  1.00  0.00     0.163 HD
ATOM     30  O   UNL A   1      41.407  22.735  27.330  1.00  0.00    -0.269 OA
BRANCH  28  31
ATOM     31  C   UNL A   1      39.890  24.560  27.258  1.00  0.00     0.039 A 
ATOM     32  C   UNL A   1      40.430  25.562  26.438  1.00  0.00     0.014 A 
ATOM     33  C   UNL A   1      39.208  24.918  28.416  1.00  0.00     0.014 A 
ATOM     34  C   UNL A   1      40.492  26.868  26.911  1.00  0.00     0.010 A 
ATOM     35  C   UNL A   1      39.141  26.212  28.814  1.00  0.00     0.010 A 
ATOM     36  C   UNL A   1      39.936  27.132  28.152  1.00  0.00    -0.014 A 
BRANCH  36  37
ATOM     37  C   UNL A   1      40.106  28.325  28.938  1.00  0.00     0.031 A 
ATOM     38  C   UNL A   1      39.200  29.432  28.685  1.00  0.00     0.074 A 
ATOM     39  C   UNL A   1      40.846  28.174  30.059  1.00  0.00     0.049 A 
ATOM     40  N   UNL A   1      39.392  30.621  29.117  1.00  0.00    -0.248 NA
ATOM     41  C   UNL A   1      37.995  29.276  27.880  1.00  0.00     0.031 C 
ATOM     42  C   UNL A   1      40.780  28.890  31.322  1.00  0.00     0.029 A 
ATOM     43  N   UNL A   1      41.886  27.270  30.255  1.00  0.00    -0.354 N 
ATOM     44  C   UNL A   1      38.204  31.293  28.940  1.00  0.00     0.074 A 
ATOM     45  C   UNL A   1      37.440  30.482  28.025  1.00  0.00     0.031 C 
ATOM     46  C   UNL A   1      41.869  28.581  32.056  1.00  0.00     0.029 A 
ATOM     47  C   UNL A   1      42.757  27.799  31.209  1.00  0.00     0.049 A 
ATOM     48  H   UNL A   1      41.989  26.404  29.799  1.00  0.00     0.167 HD
ATOM     49  C   UNL A   1      37.941  32.340  29.768  1.00  0.00     0.034 A 
ATOM     50  C   UNL A   1      44.000  28.199  30.785  1.00  0.00     0.034 A 
ATOM     51  C   UNL A   1      39.076  32.535  30.695  1.00  0.00     0.049 A 
ATOM     52  C   UNL A   1      44.145  29.714  30.781  1.00  0.00     0.074 A 
ATOM     53  C   UNL A   1      39.300  32.120  32.000  1.00  0.00     0.029 A 
ATOM     54  N   UNL A   1      40.324  32.884  30.184  1.00  0.00    -0.354 N 
ATOM     55  N   UNL A   1      43.161  30.553  30.952  1.00  0.00    -0.248 NA
ATOM     56  C   UNL A   1      45.422  30.396  30.610  1.00  0.00     0.031 C 
ATOM     57  C   UNL A   1      40.704  32.157  32.241  1.00  0.00     0.029 A 
ATOM     58  C   UNL A   1      41.335  32.619  31.098  1.00  0.00     0.049 A 
ATOM     59  H   UNL A   1      40.469  33.270  29.290  1.00  0.00     0.167 HD
ATOM     60  C   UNL A   1      43.599  31.841  30.803  1.00  0.00     0.074 A 
ATOM     61  C   UNL A   1      45.041  31.684  30.675  1.00  0.00     0.031 C 
ATOM     62  C   UNL A   1      42.731  32.905  30.752  1.00  0.00     0.034 A 
BRANCH  49  63
ATOM     63  C   UNL A   1      36.574  32.969  29.982  1.00  0.00     0.023 A 
ATOM     64  C   UNL A   1      35.912  33.449  28.829  1.00  0.00     0.012 A 
ATOM     65  C   UNL A   1      35.889  33.160  31.207  1.00  0.00     0.148 A 
ATOM     66  C   UNL A   1      34.694  34.135  28.888  1.00  0.00     0.002 A 
ATOM     67  C   UNL A   1      34.694  33.886  31.274  1.00  0.00     0.091 A 
ATOM     68  F   UNL A   1      36.333  32.580  32.321  1.00  0.00    -0.205 F 
ATOM     69  C   UNL A   1      34.095  34.376  30.113  1.00  0.00     0.022 A 
BRANCH  67  70
ATOM     70  S   UNL A   1      33.869  34.268  32.834  1.00  0.00     0.127 S 
ATOM     71  O   UNL A   1      32.778  35.142  32.397  1.00  0.00    -0.237 OA
ATOM     72  O   UNL A   1      33.441  32.948  33.293  1.00  0.00    -0.237 OA
ATOM     73  O   UNL A   1      34.860  34.930  33.673  1.00  0.00    -0.744 OA
ENDBRANCH  67  70
ENDBRANCH  49  63
BRANCH  50  74
ATOM     74  C   UNL A   1      44.546  27.263  29.734  1.00  0.00     0.023 A 
ATOM     75  C   UNL A   1      44.575  25.885  30.074  1.00  0.00     0.012 A 
ATOM     76  C   UNL A   1      44.536  27.616  28.374  1.00  0.00     0.148 A 
ATOM     77  C   UNL A   1      44.351  24.904  29.104  1.00  0.00     0.002 A 
ATOM     78  C   UNL A   1      44.344  26.628  27.408  1.00  0.00     0.091 A 
ATOM     79  F   UNL A   1      44.659  28.908  28.039  1.00  0.00    -0.205 F 
ATOM     80  C   UNL A   1      44.180  25.282  27.776  1.00  0.00     0.022 A 
BRANCH  78  81
ATOM     81  S   UNL A   1      44.210  27.069  25.670  1.00  0.00     0.127 S 
ATOM     82  O   UNL A   1      43.357  28.253  25.733  1.00  0.00    -0.237 OA
ATOM     83  O   UNL A   1      45.594  27.345  25.286  1.00  0.00    -0.237 OA
ATOM     84  O   UNL A   1      43.639  25.893  25.032  1.00  0.00    -0.744 OA
ENDBRANCH  78  81
ENDBRANCH  50  74
BRANCH  62  85
ATOM     85  C   UNL A   1      43.100  34.336  30.371  1.00  0.00     0.023 A 
ATOM     86  C   UNL A   1      43.428  35.319  31.321  1.00  0.00     0.012 A 
ATOM     87  C   UNL A   1      43.246  34.716  29.007  1.00  0.00     0.148 A 
ATOM     88  C   UNL A   1      43.802  36.617  30.957  1.00  0.00     0.002 A 
ATOM     89  C   UNL A   1      43.755  35.961  28.651  1.00  0.00     0.091 A 
ATOM     90  F   UNL A   1      42.857  33.888  28.027  1.00  0.00    -0.205 F 
ATOM     91  C   UNL A   1      43.994  36.931  29.622  1.00  0.00     0.022 A 
BRANCH  89  92
ATOM     92  S   UNL A   1      44.266  36.320  26.964  1.00  0.00     0.127 S 
ATOM     93  O   UNL A   1      45.222  35.246  26.706  1.00  0.00    -0.237 OA
ATOM     94  O   UNL A   1      43.005  36.204  26.230  1.00  0.00    -0.237 OA
ATOM     95  O   UNL A   1      44.813  37.669  27.002  1.00  0.00    -0.744 OA
ENDBRANCH  89  92
ENDBRANCH  62  85
ENDBRANCH  36  37
ENDBRANCH  28  31
ENDBRANCH  26  27
ENDBRANCH  25  26
ENDBRANCH   1  25
TORSDOF 20
ENDMDL
MODEL 3
REMARK VINA RESULT:     -11.1      1.497      2.998
REMARK SMILES Cc1ccccc1C[C@H](CCSc1ccccc1)C(=O)NCCCCNC(=O)c1ccc(-c2c3nc(c(-c4cccc(S(=O)(=O)[O-])c4F)c4ccc([nH]4)c(-c4cccc(S(=O)(=O)[O-])c4F)c4nc(c(-c5cccc(S(=O)(=O)[O-])c5F)c5ccc2[nH]5)C=C4)C=C3)cc1
REMARK SMILES IDX 23 1 22 2 21 3 19 4 20 5 9 7 8 8 7 9 1 10 2 11 3 12 4 13
REMARK SMILES IDX 6 14 5 15 10 16 11 17 12 18 13 19 14 20 18 21 15 22 17 23
REMARK SMILES IDX 16 24 24 25 25 26 26 27 27 28 28 30 29 31 30 32 91 33 31 34
REMARK SMILES IDX 90 35 32 36 33 37 34 38 84 39 35 40 89 41 83 42 85 43 36 44
REMARK SMILES IDX 88 45 82 46 81 47 37 49 69 50 49 51 68 52 50 53 53 54 67 55
REMARK SMILES IDX 86 56 51 57 52 58 66 60 87 61 54 62 38 63 39 64 47 65 40 66
REMARK SMILES IDX 42 67 48 68 41 69 43 70 44 71 45 72 46 73 70 74 71 75 79 76
REMARK SMILES IDX 72 77 74 78 80 79 73 80 75 81 76 82 77 83 78 84 55 85 56 86
REMARK SMILES IDX 64 87 57 88 59 89 65 90 58 91 60 92 61 93 62 94 63 95
REMARK H PARENT 21 6 26 29 85 48 53 59
REMARK Flexibility Score: inf
ROOT
ATOM      1  C   UNL A   1      36.333  23.568  26.415  1.00  0.00     0.023 C 
ENDROOT
BRANCH   1   2
ATOM      2  C   UNL A   1      34.931  23.964  25.949  1.00  0.00     0.116 C 
BRANCH   2   3
ATOM      3  N   UNL A   1      33.920  23.362  26.792  1.00  0.00    -0.356 N 
ATOM      4  C   UNL A   1      32.576  23.514  26.829  1.00  0.00     0.223 C 
ATOM      5  O   UNL A   1      31.974  22.964  27.756  1.00  0.00    -0.275 OA
ATOM      6  H   UNL A   1      34.273  22.729  27.459  1.00  0.00     0.163 HD
BRANCH   4   7
ATOM      7  C   UNL A   1      31.820  24.357  25.812  1.00  0.00     0.083 C 
BRANCH   7   8
ATOM      8  C   UNL A   1      31.223  25.690  26.319  1.00  0.00     0.049 C 
BRANCH   8   9
ATOM      9  C   UNL A   1      31.332  26.883  25.379  1.00  0.00    -0.044 A 
ATOM     10  C   UNL A   1      33.711  27.593  26.115  1.00  0.00     0.044 C 
ATOM     11  C   UNL A   1      32.439  27.759  25.328  1.00  0.00    -0.048 A 
ATOM     12  C   UNL A   1      32.438  28.819  24.395  1.00  0.00     0.004 A 
ATOM     13  C   UNL A   1      31.377  29.015  23.517  1.00  0.00     0.000 A 
ATOM     14  C   UNL A   1      30.290  27.088  24.453  1.00  0.00     0.004 A 
ATOM     15  C   UNL A   1      30.304  28.143  23.542  1.00  0.00     0.000 A 
ENDBRANCH   8   9
ENDBRANCH   7   8
BRANCH   7  16
ATOM     16  C   UNL A   1      30.854  23.471  24.999  1.00  0.00     0.025 C 
BRANCH  16  17
ATOM     17  C   UNL A   1      30.981  23.564  23.474  1.00  0.00     0.076 C 
BRANCH  17  18
ATOM     18  S   UNL A   1      32.635  23.130  22.802  1.00  0.00    -0.126 SA
BRANCH  18  19
ATOM     19  C   UNL A   1      32.866  21.411  23.235  1.00  0.00     0.007 A 
ATOM     20  C   UNL A   1      33.581  21.050  24.381  1.00  0.00     0.015 A 
ATOM     21  C   UNL A   1      32.172  20.410  22.546  1.00  0.00     0.015 A 
ATOM     22  C   UNL A   1      33.705  19.714  24.769  1.00  0.00     0.001 A 
ATOM     23  C   UNL A   1      32.225  19.078  22.982  1.00  0.00     0.001 A 
ATOM     24  C   UNL A   1      33.008  18.727  24.081  1.00  0.00     0.000 A 
ENDBRANCH  18  19
ENDBRANCH  17  18
ENDBRANCH  16  17
ENDBRANCH   7  16
ENDBRANCH   4   7
ENDBRANCH   2   3
ENDBRANCH   1   2
BRANCH   1  25
ATOM     25  C   UNL A   1      36.949  22.342  25.714  1.00  0.00     0.023 C 
BRANCH  25  26
ATOM     26  C   UNL A   1      38.427  22.493  25.417  1.00  0.00     0.116 C 
BRANCH  26  27
ATOM     27  N   UNL A   1      39.214  22.353  26.628  1.00  0.00    -0.352 N 
ATOM     28  C   UNL A   1      40.139  23.238  27.122  1.00  0.00     0.251 C 
ATOM     29  H   UNL A   1      39.068  21.534  27.153  1.00  0.00     0.163 HD
ATOM     30  O   UNL A   1      41.213  22.763  27.515  1.00  0.00    -0.269 OA
BRANCH  28  31
ATOM     31  C   UNL A   1      39.794  24.658  27.326  1.00  0.00     0.039 A 
ATOM     32  C   UNL A   1      40.403  25.633  26.523  1.00  0.00     0.014 A 
ATOM     33  C   UNL A   1      39.085  25.050  28.457  1.00  0.00     0.014 A 
ATOM     34  C   UNL A   1      40.498  26.940  26.991  1.00  0.00     0.010 A 
ATOM     35  C   UNL A   1      39.054  26.348  28.845  1.00  0.00     0.010 A 
ATOM     36  C   UNL A   1      39.907  27.232  28.209  1.00  0.00    -0.014 A 
BRANCH  36  37
ATOM     37  C   UNL A   1      40.094  28.423  28.995  1.00  0.00     0.031 A 
ATOM     38  C   UNL A   1      39.200  29.540  28.747  1.00  0.00     0.074 A 
ATOM     39  C   UNL A   1      40.837  28.262  30.113  1.00  0.00     0.049 A 
ATOM     40  N   UNL A   1      39.408  30.727  29.179  1.00  0.00    -0.248 NA
ATOM     41  C   UNL A   1      37.990  29.399  27.946  1.00  0.00     0.031 C 
ATOM     42  C   UNL A   1      40.785  28.978  31.376  1.00  0.00     0.029 A 
ATOM     43  N   UNL A   1      41.867  27.346  30.304  1.00  0.00    -0.354 N 
ATOM     44  C   UNL A   1      38.226  31.412  29.008  1.00  0.00     0.074 A 
ATOM     45  C   UNL A   1      37.449  30.611  28.095  1.00  0.00     0.031 C 
ATOM     46  C   UNL A   1      41.873  28.657  32.105  1.00  0.00     0.029 A 
ATOM     47  C   UNL A   1      42.749  27.865  31.254  1.00  0.00     0.049 A 
ATOM     48  H   UNL A   1      41.959  26.479  29.847  1.00  0.00     0.167 HD
ATOM     49  C   UNL A   1      37.979  32.462  29.837  1.00  0.00     0.034 A 
ATOM     50  C   UNL A   1      43.994  28.251  30.826  1.00  0.00     0.034 A 
ATOM     51  C   UNL A   1      39.120  32.643  30.759  1.00  0.00     0.049 A 
ATOM     52  C   UNL A   1      44.157  29.764  30.822  1.00  0.00     0.074 A 
ATOM     53  C   UNL A   1      39.345  32.225  32.063  1.00  0.00     0.029 A 
ATOM     54  N   UNL A   1      40.370  32.978  30.244  1.00  0.00    -0.354 N 
ATOM     55  N   UNL A   1      43.183  30.614  30.998  1.00  0.00    -0.248 NA
ATOM     56  C   UNL A   1      45.441  30.431  30.646  1.00  0.00     0.031 C 
ATOM     57  C   UNL A   1      40.750  32.246  32.298  1.00  0.00     0.029 A 
ATOM     58  C   UNL A   1      41.382  32.701  31.152  1.00  0.00     0.049 A 
ATOM     59  H   UNL A   1      40.516  33.363  29.349  1.00  0.00     0.167 HD
ATOM     60  C   UNL A   1      43.636  31.897  30.847  1.00  0.00     0.074 A 
ATOM     61  C   UNL A   1      45.075  31.724  30.714  1.00  0.00     0.031 C 
ATOM     62  C   UNL A   1      42.780  32.972  30.801  1.00  0.00     0.034 A 
BRANCH  49  63
ATOM     63  C   UNL A   1      36.621  33.107  30.057  1.00  0.00     0.023 A 
ATOM     64  C   UNL A   1      36.020  33.715  28.931  1.00  0.00     0.012 A 
ATOM     65  C   UNL A   1      35.888  33.197  31.267  1.00  0.00     0.148 A 
ATOM     66  C   UNL A   1      34.818  34.427  29.009  1.00  0.00     0.002 A 
ATOM     67  C   UNL A   1      34.711  33.947  31.357  1.00  0.00     0.091 A 
ATOM     68  F   UNL A   1      36.271  32.499  32.335  1.00  0.00    -0.205 F 
ATOM     69  C   UNL A   1      34.174  34.565  30.227  1.00  0.00     0.022 A 
BRANCH  67  70
ATOM     70  S   UNL A   1      33.830  34.200  32.913  1.00  0.00     0.127 S 
ATOM     71  O   UNL A   1      34.867  34.796  33.758  1.00  0.00    -0.237 OA
ATOM     72  O   UNL A   1      32.763  35.119  32.522  1.00  0.00    -0.237 OA
ATOM     73  O   UNL A   1      33.387  32.883  33.355  1.00  0.00    -0.744 OA
ENDBRANCH  67  70
ENDBRANCH  49  63
BRANCH  50  74
ATOM     74  C   UNL A   1      44.525  27.310  29.772  1.00  0.00     0.023 A 
ATOM     75  C   UNL A   1      44.531  25.930  30.108  1.00  0.00     0.012 A 
ATOM     76  C   UNL A   1      44.521  27.667  28.413  1.00  0.00     0.148 A 
ATOM     77  C   UNL A   1      44.292  24.956  29.134  1.00  0.00     0.002 A 
ATOM     78  C   UNL A   1      44.313  26.685  27.443  1.00  0.00     0.091 A 
ATOM     79  F   UNL A   1      44.665  28.957  28.082  1.00  0.00    -0.205 F 
ATOM     80  C   UNL A   1      44.127  25.341  27.807  1.00  0.00     0.022 A 
BRANCH  78  81
ATOM     81  S   UNL A   1      44.187  27.134  25.707  1.00  0.00     0.127 S 
ATOM     82  O   UNL A   1      45.582  27.410  25.374  1.00  0.00    -0.237 OA
ATOM     83  O   UNL A   1      43.648  25.925  25.085  1.00  0.00    -0.237 OA
ATOM     84  O   UNL A   1      43.279  28.271  25.683  1.00  0.00    -0.744 OA
ENDBRANCH  78  81
ENDBRANCH  50  74
BRANCH  62  85
ATOM     85  C   UNL A   1      43.163  34.398  30.419  1.00  0.00     0.023 A 
ATOM     86  C   UNL A   1      43.563  35.360  31.363  1.00  0.00     0.012 A 
ATOM     87  C   UNL A   1      43.249  34.793  29.054  1.00  0.00     0.148 A 
ATOM     88  C   UNL A   1      43.949  36.654  30.996  1.00  0.00     0.002 A 
ATOM     89  C   UNL A   1      43.769  36.030  28.688  1.00  0.00     0.091 A 
ATOM     90  F   UNL A   1      42.791  33.988  28.086  1.00  0.00    -0.205 F 
ATOM     91  C   UNL A   1      44.081  36.982  29.657  1.00  0.00     0.022 A 
BRANCH  89  92
ATOM     92  S   UNL A   1      44.203  36.400  26.982  1.00  0.00     0.127 S 
ATOM     93  O   UNL A   1      44.540  37.819  27.059  1.00  0.00    -0.237 OA
ATOM     94  O   UNL A   1      45.346  35.513  26.757  1.00  0.00    -0.237 OA
ATOM     95  O   UNL A   1      43.024  36.063  26.198  1.00  0.00    -0.744 OA
ENDBRANCH  89  92
ENDBRANCH  62  85
ENDBRANCH  36  37
ENDBRANCH  28  31
ENDBRANCH  26  27
ENDBRANCH  25  26
ENDBRANCH   1  25
TORSDOF 20
ENDMDL
