MODEL 1
REMARK VINA RESULT:     -10.9      0.000      0.000
REMARK SMILES CC(C)c1c(C(=O)NCCCCNC(=O)c2ccc(-c3c4nc(c(-c5cccc(S(=O)(=O)[O-])c5F)c5ccc([nH]5)c(-c5cccc(S(=O)(=O)[O-])c5F)c5nc(c(-c6cccc(S(=O)(=O)[O-])c6F)c6ccc3[nH]6)C=C5)C=C4)cc2)cnn1CCC#N
REMARK SMILES IDX 10 1 9 2 8 3 6 4 7 5 5 7 4 8 81 9 79 10 80 11 2 12 1 13 3 14
REMARK SMILES IDX 82 15 83 16 84 17 85 18 11 19 12 20 13 21 14 22 15 24 16 25
REMARK SMILES IDX 17 26 78 27 18 28 77 29 19 30 20 31 21 32 71 33 22 34 76 35
REMARK SMILES IDX 70 36 72 37 23 38 75 39 69 40 68 41 24 43 56 44 36 45 55 46
REMARK SMILES IDX 37 47 40 48 54 49 73 50 38 51 39 52 53 54 74 55 41 56 25 57
REMARK SMILES IDX 26 58 34 59 27 60 29 61 35 62 28 63 30 64 31 65 32 66 33 67
REMARK SMILES IDX 57 68 58 69 66 70 59 71 61 72 67 73 60 74 62 75 63 76 64 77
REMARK SMILES IDX 65 78 42 79 43 80 51 81 44 82 46 83 52 84 45 85 47 86 48 87
REMARK SMILES IDX 49 88 50 89
REMARK H PARENT 8 6 13 23 72 42 40 53
REMARK Flexibility Score: inf
ROOT
ATOM      1  C   UNL A   1      39.101  22.262  26.218  1.00  0.00     0.023 C 
ENDROOT
BRANCH   1   2
ATOM      2  C   UNL A   1      37.753  22.932  25.932  1.00  0.00     0.116 C 
BRANCH   2   3
ATOM      3  N   UNL A   1      37.517  23.053  24.510  1.00  0.00    -0.352 N 
ATOM      4  C   UNL A   1      36.436  22.865  23.687  1.00  0.00     0.254 C 
ATOM      5  O   UNL A   1      36.698  22.873  22.482  1.00  0.00    -0.269 OA
ATOM      6  H   UNL A   1      38.319  23.338  24.017  1.00  0.00     0.163 HD
BRANCH   4   7
ATOM      7  C   UNL A   1      35.073  22.642  24.174  1.00  0.00     0.081 A 
ATOM      8  C   UNL A   1      34.057  23.618  24.241  1.00  0.00     0.054 A 
ATOM      9  N   UNL A   1      32.932  22.951  24.665  1.00  0.00    -0.267 N 
ATOM     10  C   UNL A   1      34.439  21.485  24.663  1.00  0.00     0.149 A 
ATOM     11  N   UNL A   1      33.181  21.691  25.030  1.00  0.00    -0.180 NA
BRANCH   8  12
ATOM     12  C   UNL A   1      34.127  25.092  23.895  1.00  0.00     0.032 C 
ATOM     13  C   UNL A   1      33.175  25.429  22.746  1.00  0.00     0.014 C 
ATOM     14  C   UNL A   1      33.949  26.042  25.081  1.00  0.00     0.014 C 
ENDBRANCH   8  12
BRANCH   9  15
ATOM     15  C   UNL A   1      31.532  23.336  24.674  1.00  0.00     0.159 C 
BRANCH  15  16
ATOM     16  C   UNL A   1      31.166  24.170  25.898  1.00  0.00     0.144 C 
BRANCH  16  17
ATOM     17  C   UNL A   1      30.220  23.430  26.830  1.00  0.00     0.064 C 
ATOM     18  N   UNL A   1      29.434  22.817  27.602  1.00  0.00    -0.198 NA
ENDBRANCH  16  17
ENDBRANCH  15  16
ENDBRANCH   9  15
ENDBRANCH   4   7
ENDBRANCH   2   3
ENDBRANCH   1   2
BRANCH   1  19
ATOM     19  C   UNL A   1      39.344  20.952  25.450  1.00  0.00     0.023 C 
BRANCH  19  20
ATOM     20  C   UNL A   1      39.667  19.745  26.327  1.00  0.00     0.116 C 
BRANCH  20  21
ATOM     21  N   UNL A   1      40.890  19.059  25.913  1.00  0.00    -0.352 N 
ATOM     22  C   UNL A   1      42.150  19.596  25.724  1.00  0.00     0.251 C 
ATOM     23  H   UNL A   1      40.806  18.092  25.748  1.00  0.00     0.163 HD
ATOM     24  O   UNL A   1      42.974  19.031  25.026  1.00  0.00    -0.269 OA
BRANCH  22  25
ATOM     25  C   UNL A   1      42.482  20.868  26.394  1.00  0.00     0.039 A 
ATOM     26  C   UNL A   1      42.928  21.971  25.662  1.00  0.00     0.014 A 
ATOM     27  C   UNL A   1      42.302  20.948  27.773  1.00  0.00     0.014 A 
ATOM     28  C   UNL A   1      43.102  23.187  26.319  1.00  0.00     0.010 A 
ATOM     29  C   UNL A   1      42.355  22.171  28.396  1.00  0.00     0.010 A 
ATOM     30  C   UNL A   1      42.788  23.288  27.684  1.00  0.00    -0.014 A 
BRANCH  30  31
ATOM     31  C   UNL A   1      42.757  24.593  28.341  1.00  0.00     0.031 A 
ATOM     32  C   UNL A   1      41.505  25.370  28.119  1.00  0.00     0.074 A 
ATOM     33  C   UNL A   1      43.664  24.964  29.273  1.00  0.00     0.049 A 
ATOM     34  N   UNL A   1      41.367  26.486  27.482  1.00  0.00    -0.248 NA
ATOM     35  C   UNL A   1      40.230  24.763  28.534  1.00  0.00     0.031 C 
ATOM     36  C   UNL A   1      44.756  24.153  29.826  1.00  0.00     0.029 A 
ATOM     37  N   UNL A   1      43.699  26.085  30.047  1.00  0.00    -0.354 N 
ATOM     38  C   UNL A   1      40.029  26.846  27.642  1.00  0.00     0.074 A 
ATOM     39  C   UNL A   1      39.348  25.660  28.087  1.00  0.00     0.031 C 
ATOM     40  C   UNL A   1      45.157  24.684  31.001  1.00  0.00     0.029 A 
ATOM     41  C   UNL A   1      44.482  25.952  31.193  1.00  0.00     0.049 A 
ATOM     42  H   UNL A   1      43.217  26.913  29.819  1.00  0.00     0.167 HD
ATOM     43  C   UNL A   1      39.650  28.155  27.672  1.00  0.00     0.034 A 
ATOM     44  C   UNL A   1      44.536  26.799  32.248  1.00  0.00     0.034 A 
ATOM     45  C   UNL A   1      40.702  29.011  27.180  1.00  0.00     0.049 A 
ATOM     46  C   UNL A   1      44.021  28.105  31.783  1.00  0.00     0.074 A 
ATOM     47  C   UNL A   1      41.427  29.115  26.011  1.00  0.00     0.029 A 
ATOM     48  N   UNL A   1      41.406  29.714  28.127  1.00  0.00    -0.354 N 
ATOM     49  N   UNL A   1      44.631  28.847  30.904  1.00  0.00    -0.248 NA
ATOM     50  C   UNL A   1      42.619  28.412  32.001  1.00  0.00     0.031 C 
ATOM     51  C   UNL A   1      42.743  29.478  26.426  1.00  0.00     0.029 A 
ATOM     52  C   UNL A   1      42.733  29.639  27.813  1.00  0.00     0.049 A 
ATOM     53  H   UNL A   1      41.020  30.190  28.899  1.00  0.00     0.167 HD
ATOM     54  C   UNL A   1      43.603  29.372  30.132  1.00  0.00     0.074 A 
ATOM     55  C   UNL A   1      42.398  29.188  30.937  1.00  0.00     0.031 C 
ATOM     56  C   UNL A   1      43.788  29.623  28.803  1.00  0.00     0.034 A 
BRANCH  43  57
ATOM     57  C   UNL A   1      38.526  28.730  28.519  1.00  0.00     0.023 A 
ATOM     58  C   UNL A   1      37.582  29.553  27.856  1.00  0.00     0.012 A 
ATOM     59  C   UNL A   1      38.510  28.766  29.933  1.00  0.00     0.148 A 
ATOM     60  C   UNL A   1      36.744  30.428  28.554  1.00  0.00     0.002 A 
ATOM     61  C   UNL A   1      37.618  29.580  30.624  1.00  0.00     0.091 A 
ATOM     62  F   UNL A   1      39.440  28.119  30.635  1.00  0.00    -0.205 F 
ATOM     63  C   UNL A   1      36.760  30.443  29.940  1.00  0.00     0.022 A 
BRANCH  61  64
ATOM     64  S   UNL A   1      37.563  29.600  32.422  1.00  0.00     0.127 S 
ATOM     65  O   UNL A   1      36.341  30.359  32.667  1.00  0.00    -0.237 OA
ATOM     66  O   UNL A   1      37.481  28.173  32.732  1.00  0.00    -0.237 OA
ATOM     67  O   UNL A   1      38.808  30.231  32.844  1.00  0.00    -0.744 OA
ENDBRANCH  61  64
ENDBRANCH  43  57
BRANCH  44  68
ATOM     68  C   UNL A   1      44.807  26.532  33.678  1.00  0.00     0.023 A 
ATOM     69  C   UNL A   1      46.102  26.747  34.191  1.00  0.00     0.012 A 
ATOM     70  C   UNL A   1      43.748  26.348  34.595  1.00  0.00     0.148 A 
ATOM     71  C   UNL A   1      46.329  26.820  35.571  1.00  0.00     0.002 A 
ATOM     72  C   UNL A   1      43.979  26.416  35.966  1.00  0.00     0.091 A 
ATOM     73  F   UNL A   1      42.503  26.202  34.121  1.00  0.00    -0.205 F 
ATOM     74  C   UNL A   1      45.267  26.666  36.457  1.00  0.00     0.022 A 
BRANCH  72  75
ATOM     75  S   UNL A   1      42.655  26.256  37.172  1.00  0.00     0.127 S 
ATOM     76  O   UNL A   1      42.144  24.915  36.887  1.00  0.00    -0.237 OA
ATOM     77  O   UNL A   1      43.380  26.378  38.434  1.00  0.00    -0.237 OA
ATOM     78  O   UNL A   1      41.716  27.330  36.876  1.00  0.00    -0.744 OA
ENDBRANCH  72  75
ENDBRANCH  44  68
BRANCH  56  79
ATOM     79  C   UNL A   1      45.197  29.630  28.268  1.00  0.00     0.023 A 
ATOM     80  C   UNL A   1      46.047  30.750  28.375  1.00  0.00     0.012 A 
ATOM     81  C   UNL A   1      45.728  28.416  27.801  1.00  0.00     0.148 A 
ATOM     82  C   UNL A   1      47.392  30.665  28.000  1.00  0.00     0.002 A 
ATOM     83  C   UNL A   1      47.075  28.322  27.478  1.00  0.00     0.091 A 
ATOM     84  F   UNL A   1      44.906  27.359  27.708  1.00  0.00    -0.205 F 
ATOM     85  C   UNL A   1      47.909  29.448  27.565  1.00  0.00     0.022 A 
BRANCH  83  86
ATOM     86  S   UNL A   1      47.823  26.751  27.041  1.00  0.00     0.127 S 
ATOM     87  O   UNL A   1      47.167  26.444  25.772  1.00  0.00    -0.237 OA
ATOM     88  O   UNL A   1      49.240  27.096  26.930  1.00  0.00    -0.237 OA
ATOM     89  O   UNL A   1      47.518  25.844  28.141  1.00  0.00    -0.744 OA
ENDBRANCH  83  86
ENDBRANCH  56  79
ENDBRANCH  30  31
ENDBRANCH  22  25
ENDBRANCH  20  21
ENDBRANCH  19  20
ENDBRANCH   1  19
TORSDOF 18
ENDMDL
MODEL 2
REMARK VINA RESULT:     -10.7      1.249      2.008
REMARK SMILES CC(C)c1c(C(=O)NCCCCNC(=O)c2ccc(-c3c4nc(c(-c5cccc(S(=O)(=O)[O-])c5F)c5ccc([nH]5)c(-c5cccc(S(=O)(=O)[O-])c5F)c5nc(c(-c6cccc(S(=O)(=O)[O-])c6F)c6ccc3[nH]6)C=C5)C=C4)cc2)cnn1CCC#N
REMARK SMILES IDX 10 1 9 2 8 3 6 4 7 5 5 7 4 8 81 9 79 10 80 11 2 12 1 13 3 14
REMARK SMILES IDX 82 15 83 16 84 17 85 18 11 19 12 20 13 21 14 22 15 24 16 25
REMARK SMILES IDX 17 26 78 27 18 28 77 29 19 30 20 31 21 32 71 33 22 34 76 35
REMARK SMILES IDX 70 36 72 37 23 38 75 39 69 40 68 41 24 43 56 44 36 45 55 46
REMARK SMILES IDX 37 47 40 48 54 49 73 50 38 51 39 52 53 54 74 55 41 56 25 57
REMARK SMILES IDX 26 58 34 59 27 60 29 61 35 62 28 63 30 64 31 65 32 66 33 67
REMARK SMILES IDX 57 68 58 69 66 70 59 71 61 72 67 73 60 74 62 75 63 76 64 77
REMARK SMILES IDX 65 78 42 79 43 80 51 81 44 82 46 83 52 84 45 85 47 86 48 87
REMARK SMILES IDX 49 88 50 89
REMARK H PARENT 8 6 13 23 72 42 40 53
REMARK Flexibility Score: inf
ROOT
ATOM      1  C   UNL A   1      36.799  21.023  24.493  1.00  0.00     0.023 C 
ENDROOT
BRANCH   1   2
ATOM      2  C   UNL A   1      36.766  22.137  25.545  1.00  0.00     0.116 C 
BRANCH   2   3
ATOM      3  N   UNL A   1      35.671  21.952  26.473  1.00  0.00    -0.352 N 
ATOM      4  C   UNL A   1      34.530  22.650  26.776  1.00  0.00     0.254 C 
ATOM      5  O   UNL A   1      33.945  22.265  27.791  1.00  0.00    -0.269 OA
ATOM      6  H   UNL A   1      35.766  21.135  27.012  1.00  0.00     0.163 HD
BRANCH   4   7
ATOM      7  C   UNL A   1      34.037  23.783  25.991  1.00  0.00     0.081 A 
ATOM      8  C   UNL A   1      32.861  23.791  25.211  1.00  0.00     0.054 A 
ATOM      9  N   UNL A   1      32.744  25.074  24.733  1.00  0.00    -0.267 N 
ATOM     10  C   UNL A   1      34.548  25.082  25.813  1.00  0.00     0.149 A 
ATOM     11  N   UNL A   1      33.814  25.828  24.998  1.00  0.00    -0.180 NA
BRANCH   8  12
ATOM     12  C   UNL A   1      31.881  22.664  24.954  1.00  0.00     0.032 C 
ATOM     13  C   UNL A   1      32.606  21.411  24.461  1.00  0.00     0.014 C 
ATOM     14  C   UNL A   1      30.934  22.356  26.115  1.00  0.00     0.014 C 
ENDBRANCH   8  12
BRANCH   9  15
ATOM     15  C   UNL A   1      31.633  25.769  24.108  1.00  0.00     0.159 C 
BRANCH  15  16
ATOM     16  C   UNL A   1      31.293  25.201  22.733  1.00  0.00     0.144 C 
BRANCH  16  17
ATOM     17  C   UNL A   1      32.372  25.505  21.707  1.00  0.00     0.064 C 
ATOM     18  N   UNL A   1      33.267  25.757  20.855  1.00  0.00    -0.198 NA
ENDBRANCH  16  17
ENDBRANCH  15  16
ENDBRANCH   9  15
ENDBRANCH   4   7
ENDBRANCH   2   3
ENDBRANCH   1   2
BRANCH   1  19
ATOM     19  C   UNL A   1      37.803  19.894  24.784  1.00  0.00     0.023 C 
BRANCH  19  20
ATOM     20  C   UNL A   1      38.903  20.256  25.780  1.00  0.00     0.116 C 
BRANCH  20  21
ATOM     21  N   UNL A   1      39.971  19.259  25.825  1.00  0.00    -0.352 N 
ATOM     22  C   UNL A   1      41.330  19.466  25.977  1.00  0.00     0.251 C 
ATOM     23  H   UNL A   1      39.687  18.320  25.735  1.00  0.00     0.163 HD
ATOM     24  O   UNL A   1      42.136  18.624  25.620  1.00  0.00    -0.269 OA
BRANCH  22  25
ATOM     25  C   UNL A   1      41.786  20.727  26.591  1.00  0.00     0.039 A 
ATOM     26  C   UNL A   1      42.281  21.771  25.806  1.00  0.00     0.014 A 
ATOM     27  C   UNL A   1      41.676  20.860  27.973  1.00  0.00     0.014 A 
ATOM     28  C   UNL A   1      42.574  22.989  26.415  1.00  0.00     0.010 A 
ATOM     29  C   UNL A   1      41.849  22.093  28.554  1.00  0.00     0.010 A 
ATOM     30  C   UNL A   1      42.331  23.153  27.788  1.00  0.00    -0.014 A 
BRANCH  30  31
ATOM     31  C   UNL A   1      42.429  24.475  28.404  1.00  0.00     0.031 A 
ATOM     32  C   UNL A   1      41.248  25.354  28.173  1.00  0.00     0.074 A 
ATOM     33  C   UNL A   1      43.379  24.790  29.311  1.00  0.00     0.049 A 
ATOM     34  N   UNL A   1      41.200  26.459  27.502  1.00  0.00    -0.248 NA
ATOM     35  C   UNL A   1      39.930  24.879  28.624  1.00  0.00     0.031 C 
ATOM     36  C   UNL A   1      44.403  23.902  29.876  1.00  0.00     0.029 A 
ATOM     37  N   UNL A   1      43.527  25.927  30.048  1.00  0.00    -0.354 N 
ATOM     38  C   UNL A   1      39.903  26.942  27.669  1.00  0.00     0.074 A 
ATOM     39  C   UNL A   1      39.125  25.837  28.160  1.00  0.00     0.031 C 
ATOM     40  C   UNL A   1      44.869  24.430  31.028  1.00  0.00     0.029 A 
ATOM     41  C   UNL A   1      44.313  25.759  31.188  1.00  0.00     0.049 A 
ATOM     42  H   UNL A   1      43.119  26.787  29.800  1.00  0.00     0.167 HD
ATOM     43  C   UNL A   1      39.643  28.281  27.662  1.00  0.00     0.034 A 
ATOM     44  C   UNL A   1      44.460  26.629  32.214  1.00  0.00     0.034 A 
ATOM     45  C   UNL A   1      40.761  29.023  27.129  1.00  0.00     0.049 A 
ATOM     46  C   UNL A   1      44.057  27.962  31.715  1.00  0.00     0.074 A 
ATOM     47  C   UNL A   1      41.473  29.026  25.948  1.00  0.00     0.029 A 
ATOM     48  N   UNL A   1      41.539  29.688  28.045  1.00  0.00    -0.354 N 
ATOM     49  N   UNL A   1      44.717  28.619  30.805  1.00  0.00    -0.248 NA
ATOM     50  C   UNL A   1      42.692  28.400  31.941  1.00  0.00     0.031 C 
ATOM     51  C   UNL A   1      42.823  29.280  26.334  1.00  0.00     0.029 A 
ATOM     52  C   UNL A   1      42.849  29.484  27.715  1.00  0.00     0.049 A 
ATOM     53  H   UNL A   1      41.210  30.220  28.805  1.00  0.00     0.167 HD
ATOM     54  C   UNL A   1      43.729  29.210  30.030  1.00  0.00     0.074 A 
ATOM     55  C   UNL A   1      42.525  29.160  30.856  1.00  0.00     0.031 C 
ATOM     56  C   UNL A   1      43.914  29.403  28.691  1.00  0.00     0.034 A 
BRANCH  43  57
ATOM     57  C   UNL A   1      38.589  28.981  28.505  1.00  0.00     0.023 A 
ATOM     58  C   UNL A   1      37.788  29.949  27.852  1.00  0.00     0.012 A 
ATOM     59  C   UNL A   1      38.542  28.973  29.918  1.00  0.00     0.148 A 
ATOM     60  C   UNL A   1      37.062  30.911  28.562  1.00  0.00     0.002 A 
ATOM     61  C   UNL A   1      37.755  29.882  30.619  1.00  0.00     0.091 A 
ATOM     62  F   UNL A   1      39.354  28.179  30.617  1.00  0.00    -0.205 F 
ATOM     63  C   UNL A   1      37.044  30.878  29.948  1.00  0.00     0.022 A 
BRANCH  61  64
ATOM     64  S   UNL A   1      37.656  29.851  32.415  1.00  0.00     0.127 S 
ATOM     65  O   UNL A   1      36.643  30.871  32.667  1.00  0.00    -0.237 OA
ATOM     66  O   UNL A   1      37.228  28.475  32.665  1.00  0.00    -0.237 OA
ATOM     67  O   UNL A   1      39.003  30.152  32.885  1.00  0.00    -0.744 OA
ENDBRANCH  61  64
ENDBRANCH  43  57
BRANCH  44  68
ATOM     68  C   UNL A   1      44.728  26.383  33.649  1.00  0.00     0.023 A 
ATOM     69  C   UNL A   1      46.035  26.554  34.150  1.00  0.00     0.012 A 
ATOM     70  C   UNL A   1      43.668  26.265  34.575  1.00  0.00     0.148 A 
ATOM     71  C   UNL A   1      46.274  26.647  35.526  1.00  0.00     0.002 A 
ATOM     72  C   UNL A   1      43.911  26.353  35.943  1.00  0.00     0.091 A 
ATOM     73  F   UNL A   1      42.415  26.162  34.112  1.00  0.00    -0.205 F 
ATOM     74  C   UNL A   1      45.212  26.559  36.422  1.00  0.00     0.022 A 
BRANCH  72  75
ATOM     75  S   UNL A   1      42.589  26.277  37.160  1.00  0.00     0.127 S 
ATOM     76  O   UNL A   1      43.329  26.358  38.420  1.00  0.00    -0.237 OA
ATOM     77  O   UNL A   1      41.809  27.467  36.832  1.00  0.00    -0.237 OA
ATOM     78  O   UNL A   1      41.920  25.002  36.940  1.00  0.00    -0.744 OA
ENDBRANCH  72  75
ENDBRANCH  44  68
BRANCH  56  79
ATOM     79  C   UNL A   1      45.310  29.266  28.138  1.00  0.00     0.023 A 
ATOM     80  C   UNL A   1      46.261  30.305  28.205  1.00  0.00     0.012 A 
ATOM     81  C   UNL A   1      45.719  27.997  27.696  1.00  0.00     0.148 A 
ATOM     82  C   UNL A   1      47.586  30.087  27.815  1.00  0.00     0.002 A 
ATOM     83  C   UNL A   1      47.046  27.771  27.358  1.00  0.00     0.091 A 
ATOM     84  F   UNL A   1      44.802  27.019  27.640  1.00  0.00    -0.205 F 
ATOM     85  C   UNL A   1      47.982  28.816  27.405  1.00  0.00     0.022 A 
BRANCH  83  86
ATOM     86  S   UNL A   1      47.639  26.127  26.951  1.00  0.00     0.127 S 
ATOM     87  O   UNL A   1      49.066  26.360  26.742  1.00  0.00    -0.237 OA
ATOM     88  O   UNL A   1      47.314  25.367  28.159  1.00  0.00    -0.237 OA
ATOM     89  O   UNL A   1      46.889  25.714  25.771  1.00  0.00    -0.744 OA
ENDBRANCH  83  86
ENDBRANCH  56  79
ENDBRANCH  30  31
ENDBRANCH  22  25
ENDBRANCH  20  21
ENDBRANCH  19  20
ENDBRANCH   1  19
TORSDOF 18
ENDMDL
MODEL 3
REMARK VINA RESULT:      -9.8      1.771      2.402
REMARK SMILES CC(C)c1c(C(=O)NCCCCNC(=O)c2ccc(-c3c4nc(c(-c5cccc(S(=O)(=O)[O-])c5F)c5ccc([nH]5)c(-c5cccc(S(=O)(=O)[O-])c5F)c5nc(c(-c6cccc(S(=O)(=O)[O-])c6F)c6ccc3[nH]6)C=C5)C=C4)cc2)cnn1CCC#N
REMARK SMILES IDX 10 1 9 2 8 3 6 4 7 5 5 7 4 8 81 9 79 10 80 11 2 12 1 13 3 14
REMARK SMILES IDX 82 15 83 16 84 17 85 18 11 19 12 20 13 21 14 22 15 24 16 25
REMARK SMILES IDX 17 26 78 27 18 28 77 29 19 30 20 31 21 32 71 33 22 34 76 35
REMARK SMILES IDX 70 36 72 37 23 38 75 39 69 40 68 41 24 43 56 44 36 45 55 46
REMARK SMILES IDX 37 47 40 48 54 49 73 50 38 51 39 52 53 54 74 55 41 56 25 57
REMARK SMILES IDX 26 58 34 59 27 60 29 61 35 62 28 63 30 64 31 65 32 66 33 67
REMARK SMILES IDX 57 68 58 69 66 70 59 71 61 72 67 73 60 74 62 75 63 76 64 77
REMARK SMILES IDX 65 78 42 79 43 80 51 81 44 82 46 83 52 84 45 85 47 86 48 87
REMARK SMILES IDX 49 88 50 89
REMARK H PARENT 8 6 13 23 72 42 40 53
REMARK Flexibility Score: inf
ROOT
ATOM      1  C   UNL A   1      37.380  21.295  24.971  1.00  0.00     0.023 C 
ENDROOT
BRANCH   1   2
ATOM      2  C   UNL A   1      37.070  22.562  24.168  1.00  0.00     0.116 C 
BRANCH   2   3
ATOM      3  N   UNL A   1      36.199  23.453  24.905  1.00  0.00    -0.352 N 
ATOM      4  C   UNL A   1      34.930  23.363  25.416  1.00  0.00     0.254 C 
ATOM      5  O   UNL A   1      34.455  24.432  25.807  1.00  0.00    -0.269 OA
ATOM      6  H   UNL A   1      36.615  24.327  25.081  1.00  0.00     0.163 HD
BRANCH   4   7
ATOM      7  C   UNL A   1      34.165  22.117  25.478  1.00  0.00     0.081 A 
ATOM      8  C   UNL A   1      33.185  21.709  24.548  1.00  0.00     0.054 A 
ATOM      9  N   UNL A   1      32.802  20.450  24.944  1.00  0.00    -0.267 N 
ATOM     10  C   UNL A   1      34.192  21.054  26.401  1.00  0.00     0.149 A 
ATOM     11  N   UNL A   1      33.321  20.094  26.122  1.00  0.00    -0.180 NA
BRANCH   8  12
ATOM     12  C   UNL A   1      32.660  22.447  23.333  1.00  0.00     0.032 C 
ATOM     13  C   UNL A   1      31.612  23.486  23.735  1.00  0.00     0.014 C 
ATOM     14  C   UNL A   1      33.737  23.044  22.426  1.00  0.00     0.014 C 
ENDBRANCH   8  12
BRANCH   9  15
ATOM     15  C   UNL A   1      32.042  19.418  24.262  1.00  0.00     0.159 C 
BRANCH  15  16
ATOM     16  C   UNL A   1      32.892  18.633  23.266  1.00  0.00     0.144 C 
BRANCH  16  17
ATOM     17  C   UNL A   1      33.912  17.746  23.961  1.00  0.00     0.064 C 
ATOM     18  N   UNL A   1      34.758  17.010  24.538  1.00  0.00    -0.198 NA
ENDBRANCH  16  17
ENDBRANCH  15  16
ENDBRANCH   9  15
ENDBRANCH   4   7
ENDBRANCH   2   3
ENDBRANCH   1   2
BRANCH   1  19
ATOM     19  C   UNL A   1      38.876  20.956  25.085  1.00  0.00     0.023 C 
BRANCH  19  20
ATOM     20  C   UNL A   1      39.227  19.971  26.198  1.00  0.00     0.116 C 
BRANCH  20  21
ATOM     21  N   UNL A   1      40.421  19.183  25.896  1.00  0.00    -0.352 N 
ATOM     22  C   UNL A   1      41.729  19.618  25.790  1.00  0.00     0.251 C 
ATOM     23  H   UNL A   1      40.275  18.221  25.749  1.00  0.00     0.163 HD
ATOM     24  O   UNL A   1      42.557  18.970  25.171  1.00  0.00    -0.269 OA
BRANCH  22  25
ATOM     25  C   UNL A   1      42.108  20.881  26.451  1.00  0.00     0.039 A 
ATOM     26  C   UNL A   1      42.551  21.977  25.707  1.00  0.00     0.014 A 
ATOM     27  C   UNL A   1      41.976  20.961  27.835  1.00  0.00     0.014 A 
ATOM     28  C   UNL A   1      42.770  23.188  26.359  1.00  0.00     0.010 A 
ATOM     29  C   UNL A   1      42.074  22.182  28.459  1.00  0.00     0.010 A 
ATOM     30  C   UNL A   1      42.503  23.292  27.734  1.00  0.00    -0.014 A 
BRANCH  30  31
ATOM     31  C   UNL A   1      42.521  24.595  28.395  1.00  0.00     0.031 A 
ATOM     32  C   UNL A   1      41.311  25.430  28.148  1.00  0.00     0.074 A 
ATOM     33  C   UNL A   1      43.423  24.921  29.347  1.00  0.00     0.049 A 
ATOM     34  N   UNL A   1      41.239  26.553  27.511  1.00  0.00    -0.248 NA
ATOM     35  C   UNL A   1      40.000  24.884  28.534  1.00  0.00     0.031 C 
ATOM     36  C   UNL A   1      44.464  24.059  29.920  1.00  0.00     0.029 A 
ATOM     37  N   UNL A   1      43.495  26.037  30.124  1.00  0.00    -0.354 N 
ATOM     38  C   UNL A   1      39.917  26.975  27.645  1.00  0.00     0.074 A 
ATOM     39  C   UNL A   1      39.171  25.822  28.071  1.00  0.00     0.031 C 
ATOM     40  C   UNL A   1      44.865  24.567  31.105  1.00  0.00     0.029 A 
ATOM     41  C   UNL A   1      44.246  25.865  31.286  1.00  0.00     0.049 A 
ATOM     42  H   UNL A   1      43.058  26.887  29.888  1.00  0.00     0.167 HD
ATOM     43  C   UNL A   1      39.599  28.301  27.670  1.00  0.00     0.034 A 
ATOM     44  C   UNL A   1      44.317  26.707  32.344  1.00  0.00     0.034 A 
ATOM     45  C   UNL A   1      40.701  29.107  27.203  1.00  0.00     0.049 A 
ATOM     46  C   UNL A   1      43.874  28.037  31.873  1.00  0.00     0.074 A 
ATOM     47  C   UNL A   1      41.454  29.180  26.050  1.00  0.00     0.029 A 
ATOM     48  N   UNL A   1      41.416  29.775  28.167  1.00  0.00    -0.354 N 
ATOM     49  N   UNL A   1      44.537  28.751  31.009  1.00  0.00    -0.248 NA
ATOM     50  C   UNL A   1      42.484  28.409  32.062  1.00  0.00     0.031 C 
ATOM     51  C   UNL A   1      42.777  29.479  26.494  1.00  0.00     0.029 A 
ATOM     52  C   UNL A   1      42.744  29.638  27.881  1.00  0.00     0.049 A 
ATOM     53  H   UNL A   1      41.037  30.266  28.932  1.00  0.00     0.167 HD
ATOM     54  C   UNL A   1      43.552  29.325  30.217  1.00  0.00     0.074 A 
ATOM     55  C   UNL A   1      42.322  29.196  30.996  1.00  0.00     0.031 C 
ATOM     56  C   UNL A   1      43.777  29.570  28.893  1.00  0.00     0.034 A 
BRANCH  43  57
ATOM     57  C   UNL A   1      38.485  28.927  28.495  1.00  0.00     0.023 A 
ATOM     58  C   UNL A   1      37.617  29.821  27.822  1.00  0.00     0.012 A 
ATOM     59  C   UNL A   1      38.426  28.932  29.908  1.00  0.00     0.148 A 
ATOM     60  C   UNL A   1      36.812  30.732  28.514  1.00  0.00     0.002 A 
ATOM     61  C   UNL A   1      37.563  29.786  30.590  1.00  0.00     0.091 A 
ATOM     62  F   UNL A   1      39.290  28.213  30.624  1.00  0.00    -0.205 F 
ATOM     63  C   UNL A   1      36.783  30.715  29.900  1.00  0.00     0.022 A 
BRANCH  61  64
ATOM     64  S   UNL A   1      37.450  29.769  32.385  1.00  0.00     0.127 S 
ATOM     65  O   UNL A   1      38.695  30.430  32.761  1.00  0.00    -0.237 OA
ATOM     66  O   UNL A   1      36.237  30.554  32.613  1.00  0.00    -0.237 OA
ATOM     67  O   UNL A   1      37.330  28.365  32.757  1.00  0.00    -0.744 OA
ENDBRANCH  61  64
ENDBRANCH  43  57
BRANCH  44  68
ATOM     68  C   UNL A   1      44.544  26.425  33.780  1.00  0.00     0.023 A 
ATOM     69  C   UNL A   1      45.838  26.575  34.320  1.00  0.00     0.012 A 
ATOM     70  C   UNL A   1      43.459  26.292  34.673  1.00  0.00     0.148 A 
ATOM     71  C   UNL A   1      46.039  26.634  35.704  1.00  0.00     0.002 A 
ATOM     72  C   UNL A   1      43.665  26.346  36.049  1.00  0.00     0.091 A 
ATOM     73  F   UNL A   1      42.219  26.209  34.174  1.00  0.00    -0.205 F 
ATOM     74  C   UNL A   1      44.953  26.532  36.568  1.00  0.00     0.022 A 
BRANCH  72  75
ATOM     75  S   UNL A   1      42.309  26.250  37.227  1.00  0.00     0.127 S 
ATOM     76  O   UNL A   1      41.751  24.928  36.942  1.00  0.00    -0.237 OA
ATOM     77  O   UNL A   1      43.011  26.355  38.504  1.00  0.00    -0.237 OA
ATOM     78  O   UNL A   1      41.421  27.358  36.901  1.00  0.00    -0.744 OA
ENDBRANCH  72  75
ENDBRANCH  44  68
BRANCH  56  79
ATOM     79  C   UNL A   1      45.196  29.511  28.388  1.00  0.00     0.023 A 
ATOM     80  C   UNL A   1      45.812  28.308  27.985  1.00  0.00     0.012 A 
ATOM     81  C   UNL A   1      45.861  30.727  28.157  1.00  0.00     0.148 A 
ATOM     82  C   UNL A   1      47.075  28.318  27.386  1.00  0.00     0.002 A 
ATOM     83  C   UNL A   1      47.092  30.736  27.516  1.00  0.00     0.091 A 
ATOM     84  F   UNL A   1      45.260  31.861  28.545  1.00  0.00    -0.205 F 
ATOM     85  C   UNL A   1      47.709  29.533  27.138  1.00  0.00     0.022 A 
BRANCH  83  86
ATOM     86  S   UNL A   1      47.891  32.274  27.053  1.00  0.00     0.127 S 
ATOM     87  O   UNL A   1      46.907  32.871  26.153  1.00  0.00    -0.237 OA
ATOM     88  O   UNL A   1      48.036  32.955  28.340  1.00  0.00    -0.237 OA
ATOM     89  O   UNL A   1      49.158  31.896  26.437  1.00  0.00    -0.744 OA
ENDBRANCH  83  86
ENDBRANCH  56  79
ENDBRANCH  30  31
ENDBRANCH  22  25
ENDBRANCH  20  21
ENDBRANCH  19  20
ENDBRANCH   1  19
TORSDOF 18
ENDMDL
