MODEL 1
REMARK VINA RESULT:     -12.8      0.000      0.000
REMARK SMILES C[C@]1(c2ccccc2C(=O)NCCCCNC(=O)c2ccc(-c3c4nc(c(-c5cccc(S(=O)(=O)[O-])c5F)c5ccc([nH]5)c(-c5cccc(S(=O)(=O)[O-])c5F)c5nc(c(-c6cccc(S(=O)(=O)[O-])c6F)c6ccc3[nH]6)C=C5)C=C4)cc2)NN=C(c2ccccc2)S1
REMARK SMILES IDX 14 1 13 2 12 3 11 4 9 5 10 6 8 8 3 9 4 10 5 11 7 12 6 13
REMARK SMILES IDX 2 14 1 15 82 16 91 17 83 18 84 20 85 21 86 22 90 23 87 24
REMARK SMILES IDX 89 25 88 26 15 27 16 28 17 29 18 31 19 32 20 33 81 34 21 35
REMARK SMILES IDX 80 36 22 37 23 38 24 39 74 40 25 41 79 42 73 43 75 44 26 45
REMARK SMILES IDX 78 46 72 47 71 48 27 50 59 51 39 52 58 53 40 54 43 55 57 56
REMARK SMILES IDX 76 57 41 58 42 59 56 61 77 62 44 63 28 64 29 65 37 66 30 67
REMARK SMILES IDX 32 68 38 69 31 70 33 71 34 72 35 73 36 74 60 75 61 76 69 77
REMARK SMILES IDX 62 78 64 79 70 80 63 81 65 82 66 83 67 84 68 85 45 86 46 87
REMARK SMILES IDX 54 88 47 89 49 90 55 91 48 92 50 93 51 94 52 95 53 96
REMARK H PARENT 11 7 82 19 16 30 75 49 43 60
REMARK Flexibility Score: inf
ROOT
ATOM      1  C   UNL A   1      37.924  20.033  24.742  1.00  0.00     0.023 C 
ENDROOT
BRANCH   1   2
ATOM      2  C   UNL A   1      36.789  21.029  24.878  1.00  0.00     0.023 C 
BRANCH   2   3
ATOM      3  C   UNL A   1      36.892  22.396  24.193  1.00  0.00     0.116 C 
BRANCH   3   4
ATOM      4  N   UNL A   1      35.791  22.740  23.307  1.00  0.00    -0.352 N 
ATOM      5  C   UNL A   1      34.697  23.582  23.351  1.00  0.00     0.251 C 
ATOM      6  O   UNL A   1      34.216  23.866  22.246  1.00  0.00    -0.269 OA
ATOM      7  H   UNL A   1      35.838  22.247  22.456  1.00  0.00     0.163 HD
BRANCH   5   8
ATOM      8  C   UNL A   1      34.005  24.197  24.559  1.00  0.00     0.046 A 
ATOM      9  C   UNL A   1      32.866  23.724  25.298  1.00  0.00     0.002 A 
ATOM     10  C   UNL A   1      32.299  24.566  26.287  1.00  0.00     0.008 A 
ATOM     11  C   UNL A   1      32.725  25.880  26.462  1.00  0.00     0.000 A 
ATOM     12  C   UNL A   1      34.382  25.547  24.747  1.00  0.00     0.014 A 
ATOM     13  C   UNL A   1      33.742  26.382  25.668  1.00  0.00     0.001 A 
BRANCH   9  14
ATOM     14  C   UNL A   1      32.195  22.367  25.082  1.00  0.00     0.129 C 
ATOM     15  C   UNL A   1      30.730  22.568  25.528  1.00  0.00     0.054 C 
ATOM     16  N   UNL A   1      32.079  21.830  23.692  1.00  0.00    -0.288 NA
ATOM     17  S   UNL A   1      33.298  21.106  25.797  1.00  0.00    -0.070 SA
ATOM     18  N   UNL A   1      32.216  20.440  23.560  1.00  0.00    -0.171 NA
ATOM     19  H   UNL A   1      31.918  22.415  22.917  1.00  0.00     0.185 HD
ATOM     20  C   UNL A   1      32.874  19.975  24.576  1.00  0.00     0.126 C 
BRANCH  20  21
ATOM     21  C   UNL A   1      33.400  18.639  24.866  1.00  0.00     0.009 A 
ATOM     22  C   UNL A   1      32.653  17.874  25.771  1.00  0.00     0.011 A 
ATOM     23  C   UNL A   1      34.221  18.008  23.918  1.00  0.00     0.011 A 
ATOM     24  C   UNL A   1      32.694  16.481  25.699  1.00  0.00     0.001 A 
ATOM     25  C   UNL A   1      34.259  16.613  23.857  1.00  0.00     0.001 A 
ATOM     26  C   UNL A   1      33.484  15.853  24.736  1.00  0.00     0.000 A 
ENDBRANCH  20  21
ENDBRANCH   9  14
ENDBRANCH   5   8
ENDBRANCH   3   4
ENDBRANCH   2   3
ENDBRANCH   1   2
BRANCH   1  27
ATOM     27  C   UNL A   1      38.730  19.910  26.015  1.00  0.00     0.116 C 
BRANCH  27  28
ATOM     28  N   UNL A   1      40.000  19.190  25.834  1.00  0.00    -0.352 N 
ATOM     29  C   UNL A   1      41.286  19.628  26.043  1.00  0.00     0.251 C 
ATOM     30  H   UNL A   1      39.917  18.262  25.518  1.00  0.00     0.163 HD
ATOM     31  O   UNL A   1      42.246  18.914  25.761  1.00  0.00    -0.269 OA
BRANCH  29  32
ATOM     32  C   UNL A   1      41.487  20.990  26.566  1.00  0.00     0.039 A 
ATOM     33  C   UNL A   1      42.110  21.172  27.802  1.00  0.00     0.014 A 
ATOM     34  C   UNL A   1      41.180  22.080  25.754  1.00  0.00     0.014 A 
ATOM     35  C   UNL A   1      42.519  22.453  28.172  1.00  0.00     0.010 A 
ATOM     36  C   UNL A   1      41.727  23.313  26.051  1.00  0.00     0.010 A 
ATOM     37  C   UNL A   1      42.381  23.522  27.274  1.00  0.00    -0.014 A 
BRANCH  37  38
ATOM     38  C   UNL A   1      42.886  24.883  27.571  1.00  0.00     0.031 A 
ATOM     39  C   UNL A   1      41.966  25.885  28.216  1.00  0.00     0.074 A 
ATOM     40  C   UNL A   1      44.104  25.260  27.134  1.00  0.00     0.049 A 
ATOM     41  N   UNL A   1      42.149  27.160  28.423  1.00  0.00    -0.248 NA
ATOM     42  C   UNL A   1      40.633  25.400  28.621  1.00  0.00     0.031 C 
ATOM     43  C   UNL A   1      45.042  24.415  26.389  1.00  0.00     0.029 A 
ATOM     44  N   UNL A   1      44.748  26.469  27.220  1.00  0.00    -0.354 N 
ATOM     45  C   UNL A   1      40.940  27.638  28.912  1.00  0.00     0.074 A 
ATOM     46  C   UNL A   1      40.013  26.531  28.917  1.00  0.00     0.031 C 
ATOM     47  C   UNL A   1      46.139  25.127  26.094  1.00  0.00     0.029 A 
ATOM     48  C   UNL A   1      45.972  26.488  26.594  1.00  0.00     0.049 A 
ATOM     49  H   UNL A   1      44.370  27.249  27.687  1.00  0.00     0.167 HD
ATOM     50  C   UNL A   1      40.637  28.878  29.359  1.00  0.00     0.034 A 
ATOM     51  C   UNL A   1      46.854  27.494  26.429  1.00  0.00     0.034 A 
ATOM     52  C   UNL A   1      41.593  29.944  29.438  1.00  0.00     0.049 A 
ATOM     53  C   UNL A   1      46.538  28.840  27.020  1.00  0.00     0.074 A 
ATOM     54  C   UNL A   1      41.450  31.187  30.025  1.00  0.00     0.029 A 
ATOM     55  N   UNL A   1      42.872  29.894  28.906  1.00  0.00    -0.354 N 
ATOM     56  N   UNL A   1      45.462  29.221  27.667  1.00  0.00    -0.248 NA
ATOM     57  C   UNL A   1      47.563  29.883  26.889  1.00  0.00     0.031 C 
ATOM     58  C   UNL A   1      42.636  31.900  29.822  1.00  0.00     0.029 A 
ATOM     59  C   UNL A   1      43.524  31.092  29.127  1.00  0.00     0.049 A 
ATOM     60  H   UNL A   1      43.259  29.118  28.439  1.00  0.00     0.167 HD
ATOM     61  C   UNL A   1      45.684  30.544  28.031  1.00  0.00     0.074 A 
ATOM     62  C   UNL A   1      47.011  30.887  27.560  1.00  0.00     0.031 C 
ATOM     63  C   UNL A   1      44.857  31.403  28.677  1.00  0.00     0.034 A 
BRANCH  50  64
ATOM     64  C   UNL A   1      39.233  29.117  29.851  1.00  0.00     0.023 A 
ATOM     65  C   UNL A   1      38.878  28.749  31.166  1.00  0.00     0.012 A 
ATOM     66  C   UNL A   1      38.269  29.711  29.017  1.00  0.00     0.148 A 
ATOM     67  C   UNL A   1      37.573  28.919  31.625  1.00  0.00     0.002 A 
ATOM     68  C   UNL A   1      36.982  29.926  29.499  1.00  0.00     0.091 A 
ATOM     69  F   UNL A   1      38.613  30.029  27.761  1.00  0.00    -0.205 F 
ATOM     70  C   UNL A   1      36.628  29.516  30.795  1.00  0.00     0.022 A 
BRANCH  68  71
ATOM     71  S   UNL A   1      35.719  30.762  28.534  1.00  0.00     0.127 S 
ATOM     72  O   UNL A   1      35.072  29.638  27.859  1.00  0.00    -0.237 OA
ATOM     73  O   UNL A   1      34.908  31.398  29.573  1.00  0.00    -0.237 OA
ATOM     74  O   UNL A   1      36.430  31.692  27.669  1.00  0.00    -0.744 OA
ENDBRANCH  68  71
ENDBRANCH  50  64
BRANCH  51  75
ATOM     75  C   UNL A   1      48.139  27.232  25.722  1.00  0.00     0.023 A 
ATOM     76  C   UNL A   1      49.218  26.670  26.432  1.00  0.00     0.012 A 
ATOM     77  C   UNL A   1      48.273  27.465  24.339  1.00  0.00     0.148 A 
ATOM     78  C   UNL A   1      50.412  26.357  25.781  1.00  0.00     0.002 A 
ATOM     79  C   UNL A   1      49.445  27.101  23.686  1.00  0.00     0.091 A 
ATOM     80  F   UNL A   1      47.238  28.009  23.685  1.00  0.00    -0.205 F 
ATOM     81  C   UNL A   1      50.521  26.560  24.407  1.00  0.00     0.022 A 
BRANCH  79  82
ATOM     82  S   UNL A   1      49.622  27.189  21.901  1.00  0.00     0.127 S 
ATOM     83  O   UNL A   1      49.393  28.608  21.646  1.00  0.00    -0.237 OA
ATOM     84  O   UNL A   1      51.004  26.743  21.712  1.00  0.00    -0.237 OA
ATOM     85  O   UNL A   1      48.621  26.279  21.358  1.00  0.00    -0.744 OA
ENDBRANCH  79  82
ENDBRANCH  51  75
BRANCH  63  86
ATOM     86  C   UNL A   1      45.353  32.805  28.912  1.00  0.00     0.023 A 
ATOM     87  C   UNL A   1      46.126  33.082  30.056  1.00  0.00     0.012 A 
ATOM     88  C   UNL A   1      45.143  33.816  27.954  1.00  0.00     0.148 A 
ATOM     89  C   UNL A   1      46.664  34.353  30.255  1.00  0.00     0.002 A 
ATOM     90  C   UNL A   1      45.721  35.065  28.135  1.00  0.00     0.091 A 
ATOM     91  F   UNL A   1      44.392  33.531  26.879  1.00  0.00    -0.205 F 
ATOM     92  C   UNL A   1      46.472  35.339  29.290  1.00  0.00     0.022 A 
BRANCH  90  93
ATOM     93  S   UNL A   1      45.614  36.367  26.902  1.00  0.00     0.127 S 
ATOM     94  O   UNL A   1      44.178  36.634  26.876  1.00  0.00    -0.237 OA
ATOM     95  O   UNL A   1      46.422  37.428  27.502  1.00  0.00    -0.237 OA
ATOM     96  O   UNL A   1      46.166  35.806  25.675  1.00  0.00    -0.744 OA
ENDBRANCH  90  93
ENDBRANCH  63  86
ENDBRANCH  37  38
ENDBRANCH  29  32
ENDBRANCH  27  28
ENDBRANCH   1  27
TORSDOF 16
ENDMDL
MODEL 2
REMARK VINA RESULT:     -12.5      6.363     11.288
REMARK SMILES C[C@]1(c2ccccc2C(=O)NCCCCNC(=O)c2ccc(-c3c4nc(c(-c5cccc(S(=O)(=O)[O-])c5F)c5ccc([nH]5)c(-c5cccc(S(=O)(=O)[O-])c5F)c5nc(c(-c6cccc(S(=O)(=O)[O-])c6F)c6ccc3[nH]6)C=C5)C=C4)cc2)NN=C(c2ccccc2)S1
REMARK SMILES IDX 14 1 13 2 12 3 11 4 9 5 10 6 8 8 3 9 4 10 5 11 7 12 6 13
REMARK SMILES IDX 2 14 1 15 82 16 91 17 83 18 84 20 85 21 86 22 90 23 87 24
REMARK SMILES IDX 89 25 88 26 15 27 16 28 17 29 18 31 19 32 20 33 81 34 21 35
REMARK SMILES IDX 80 36 22 37 23 38 24 39 74 40 25 41 79 42 73 43 75 44 26 45
REMARK SMILES IDX 78 46 72 47 71 48 27 50 59 51 39 52 58 53 40 54 43 55 57 56
REMARK SMILES IDX 76 57 41 58 42 59 56 61 77 62 44 63 28 64 29 65 37 66 30 67
REMARK SMILES IDX 32 68 38 69 31 70 33 71 34 72 35 73 36 74 60 75 61 76 69 77
REMARK SMILES IDX 62 78 64 79 70 80 63 81 65 82 66 83 67 84 68 85 45 86 46 87
REMARK SMILES IDX 54 88 47 89 49 90 55 91 48 92 50 93 51 94 52 95 53 96
REMARK H PARENT 11 7 82 19 16 30 75 49 43 60
REMARK Flexibility Score: inf
ROOT
ATOM      1  C   UNL A   1      31.403  32.213  26.767  1.00  0.00     0.023 C 
ENDROOT
BRANCH   1   2
ATOM      2  C   UNL A   1      31.677  30.791  26.319  1.00  0.00     0.023 C 
BRANCH   2   3
ATOM      3  C   UNL A   1      33.112  30.251  26.341  1.00  0.00     0.116 C 
BRANCH   3   4
ATOM      4  N   UNL A   1      33.534  29.536  25.147  1.00  0.00    -0.352 N 
ATOM      5  C   UNL A   1      32.915  28.850  24.121  1.00  0.00     0.251 C 
ATOM      6  O   UNL A   1      33.602  28.715  23.099  1.00  0.00    -0.269 OA
ATOM      7  H   UNL A   1      34.513  29.544  25.043  1.00  0.00     0.163 HD
BRANCH   5   8
ATOM      8  C   UNL A   1      31.522  28.238  24.076  1.00  0.00     0.046 A 
ATOM      9  C   UNL A   1      31.082  26.938  24.508  1.00  0.00     0.002 A 
ATOM     10  C   UNL A   1      29.758  26.534  24.204  1.00  0.00     0.008 A 
ATOM     11  C   UNL A   1      28.929  27.295  23.385  1.00  0.00     0.000 A 
ATOM     12  C   UNL A   1      30.659  28.961  23.221  1.00  0.00     0.014 A 
ATOM     13  C   UNL A   1      29.392  28.491  22.864  1.00  0.00     0.001 A 
BRANCH   9  14
ATOM     14  C   UNL A   1      31.952  25.936  25.267  1.00  0.00     0.129 C 
ATOM     15  C   UNL A   1      32.291  26.629  26.605  1.00  0.00     0.054 C 
ATOM     16  N   UNL A   1      31.356  24.627  25.678  1.00  0.00    -0.288 NA
ATOM     17  S   UNL A   1      33.214  25.333  24.100  1.00  0.00    -0.070 SA
ATOM     18  N   UNL A   1      32.218  23.522  25.630  1.00  0.00    -0.171 NA
ATOM     19  H   UNL A   1      30.418  24.546  25.964  1.00  0.00     0.185 HD
ATOM     20  C   UNL A   1      33.188  23.768  24.805  1.00  0.00     0.126 C 
BRANCH  20  21
ATOM     21  C   UNL A   1      34.267  22.921  24.290  1.00  0.00     0.009 A 
ATOM     22  C   UNL A   1      35.188  23.556  23.447  1.00  0.00     0.011 A 
ATOM     23  C   UNL A   1      34.643  21.779  25.015  1.00  0.00     0.011 A 
ATOM     24  C   UNL A   1      36.494  23.075  23.362  1.00  0.00     0.001 A 
ATOM     25  C   UNL A   1      35.953  21.302  24.919  1.00  0.00     0.001 A 
ATOM     26  C   UNL A   1      36.880  21.959  24.106  1.00  0.00     0.000 A 
ENDBRANCH  20  21
ENDBRANCH   9  14
ENDBRANCH   5   8
ENDBRANCH   3   4
ENDBRANCH   2   3
ENDBRANCH   1   2
BRANCH   1  27
ATOM     27  C   UNL A   1      32.676  32.972  27.068  1.00  0.00     0.116 C 
BRANCH  27  28
ATOM     28  N   UNL A   1      32.462  34.159  27.908  1.00  0.00    -0.352 N 
ATOM     29  C   UNL A   1      33.212  34.626  28.962  1.00  0.00     0.251 C 
ATOM     30  H   UNL A   1      31.668  34.696  27.685  1.00  0.00     0.163 HD
ATOM     31  O   UNL A   1      32.840  35.599  29.614  1.00  0.00    -0.269 OA
BRANCH  29  32
ATOM     32  C   UNL A   1      34.443  33.902  29.322  1.00  0.00     0.039 A 
ATOM     33  C   UNL A   1      35.686  34.463  29.025  1.00  0.00     0.014 A 
ATOM     34  C   UNL A   1      34.348  32.737  30.080  1.00  0.00     0.014 A 
ATOM     35  C   UNL A   1      36.834  33.900  29.584  1.00  0.00     0.010 A 
ATOM     36  C   UNL A   1      35.463  32.284  30.756  1.00  0.00     0.010 A 
ATOM     37  C   UNL A   1      36.723  32.842  30.499  1.00  0.00    -0.014 A 
BRANCH  37  38
ATOM     38  C   UNL A   1      37.896  32.270  31.201  1.00  0.00     0.031 A 
ATOM     39  C   UNL A   1      38.656  31.138  30.561  1.00  0.00     0.074 A 
ATOM     40  C   UNL A   1      38.186  32.660  32.458  1.00  0.00     0.049 A 
ATOM     41  N   UNL A   1      39.607  30.397  31.060  1.00  0.00    -0.248 NA
ATOM     42  C   UNL A   1      38.244  30.744  29.201  1.00  0.00     0.031 C 
ATOM     43  C   UNL A   1      37.447  33.663  33.230  1.00  0.00     0.029 A 
ATOM     44  N   UNL A   1      39.158  32.227  33.324  1.00  0.00    -0.354 N 
ATOM     45  C   UNL A   1      39.853  29.414  30.110  1.00  0.00     0.074 A 
ATOM     46  C   UNL A   1      38.915  29.617  29.032  1.00  0.00     0.031 C 
ATOM     47  C   UNL A   1      37.996  33.773  34.449  1.00  0.00     0.029 A 
ATOM     48  C   UNL A   1      39.101  32.826  34.561  1.00  0.00     0.049 A 
ATOM     49  H   UNL A   1      39.834  31.553  33.084  1.00  0.00     0.167 HD
ATOM     50  C   UNL A   1      40.804  28.452  30.113  1.00  0.00     0.034 A 
ATOM     51  C   UNL A   1      39.846  32.623  35.666  1.00  0.00     0.034 A 
ATOM     52  C   UNL A   1      41.791  28.320  31.145  1.00  0.00     0.049 A 
ATOM     53  C   UNL A   1      40.961  31.617  35.613  1.00  0.00     0.074 A 
ATOM     54  C   UNL A   1      42.901  27.497  31.175  1.00  0.00     0.029 A 
ATOM     55  N   UNL A   1      41.783  29.030  32.336  1.00  0.00    -0.354 N 
ATOM     56  N   UNL A   1      41.315  30.832  34.623  1.00  0.00    -0.248 NA
ATOM     57  C   UNL A   1      41.801  31.488  36.811  1.00  0.00     0.031 C 
ATOM     58  C   UNL A   1      43.548  27.689  32.400  1.00  0.00     0.029 A 
ATOM     59  C   UNL A   1      42.853  28.647  33.122  1.00  0.00     0.049 A 
ATOM     60  H   UNL A   1      41.112  29.707  32.585  1.00  0.00     0.167 HD
ATOM     61  C   UNL A   1      42.422  30.123  35.073  1.00  0.00     0.074 A 
ATOM     62  C   UNL A   1      42.702  30.598  36.413  1.00  0.00     0.031 C 
ATOM     63  C   UNL A   1      43.132  29.154  34.442  1.00  0.00     0.034 A 
BRANCH  50  64
ATOM     64  C   UNL A   1      40.851  27.517  28.932  1.00  0.00     0.023 A 
ATOM     65  C   UNL A   1      39.972  26.415  28.873  1.00  0.00     0.012 A 
ATOM     66  C   UNL A   1      41.759  27.732  27.879  1.00  0.00     0.148 A 
ATOM     67  C   UNL A   1      40.031  25.513  27.813  1.00  0.00     0.002 A 
ATOM     68  C   UNL A   1      41.777  26.858  26.798  1.00  0.00     0.091 A 
ATOM     69  F   UNL A   1      42.607  28.767  27.963  1.00  0.00    -0.205 F 
ATOM     70  C   UNL A   1      40.926  25.740  26.771  1.00  0.00     0.022 A 
BRANCH  68  71
ATOM     71  S   UNL A   1      42.836  27.111  25.371  1.00  0.00     0.127 S 
ATOM     72  O   UNL A   1      44.137  27.326  26.003  1.00  0.00    -0.237 OA
ATOM     73  O   UNL A   1      42.706  25.838  24.661  1.00  0.00    -0.237 OA
ATOM     74  O   UNL A   1      42.284  28.257  24.663  1.00  0.00    -0.744 OA
ENDBRANCH  68  71
ENDBRANCH  50  64
BRANCH  51  75
ATOM     75  C   UNL A   1      39.587  33.440  36.884  1.00  0.00     0.023 A 
ATOM     76  C   UNL A   1      40.006  34.784  36.920  1.00  0.00     0.012 A 
ATOM     77  C   UNL A   1      38.862  32.918  37.973  1.00  0.00     0.148 A 
ATOM     78  C   UNL A   1      39.722  35.590  38.023  1.00  0.00     0.002 A 
ATOM     79  C   UNL A   1      38.533  33.741  39.045  1.00  0.00     0.091 A 
ATOM     80  F   UNL A   1      38.479  31.635  37.923  1.00  0.00    -0.205 F 
ATOM     81  C   UNL A   1      38.975  35.072  39.079  1.00  0.00     0.022 A 
BRANCH  79  82
ATOM     82  S   UNL A   1      37.454  33.205  40.378  1.00  0.00     0.127 S 
ATOM     83  O   UNL A   1      37.384  34.404  41.208  1.00  0.00    -0.237 OA
ATOM     84  O   UNL A   1      36.223  32.881  39.656  1.00  0.00    -0.237 OA
ATOM     85  O   UNL A   1      38.114  32.054  40.982  1.00  0.00    -0.744 OA
ENDBRANCH  79  82
ENDBRANCH  51  75
BRANCH  63  86
ATOM     86  C   UNL A   1      44.278  28.530  35.191  1.00  0.00     0.023 A 
ATOM     87  C   UNL A   1      45.581  29.031  35.003  1.00  0.00     0.012 A 
ATOM     88  C   UNL A   1      44.052  27.524  36.151  1.00  0.00     0.148 A 
ATOM     89  C   UNL A   1      46.647  28.523  35.744  1.00  0.00     0.002 A 
ATOM     90  C   UNL A   1      45.111  27.057  36.919  1.00  0.00     0.091 A 
ATOM     91  F   UNL A   1      42.805  27.053  36.302  1.00  0.00    -0.205 F 
ATOM     92  C   UNL A   1      46.410  27.547  36.709  1.00  0.00     0.022 A 
BRANCH  90  93
ATOM     93  S   UNL A   1      44.889  25.874  38.252  1.00  0.00     0.127 S 
ATOM     94  O   UNL A   1      44.301  24.737  37.546  1.00  0.00    -0.237 OA
ATOM     95  O   UNL A   1      46.261  25.664  38.712  1.00  0.00    -0.237 OA
ATOM     96  O   UNL A   1      44.017  26.522  39.224  1.00  0.00    -0.744 OA
ENDBRANCH  90  93
ENDBRANCH  63  86
ENDBRANCH  37  38
ENDBRANCH  29  32
ENDBRANCH  27  28
ENDBRANCH   1  27
TORSDOF 16
ENDMDL
MODEL 3
REMARK VINA RESULT:     -12.4      6.725     11.732
REMARK SMILES C[C@]1(c2ccccc2C(=O)NCCCCNC(=O)c2ccc(-c3c4nc(c(-c5cccc(S(=O)(=O)[O-])c5F)c5ccc([nH]5)c(-c5cccc(S(=O)(=O)[O-])c5F)c5nc(c(-c6cccc(S(=O)(=O)[O-])c6F)c6ccc3[nH]6)C=C5)C=C4)cc2)NN=C(c2ccccc2)S1
REMARK SMILES IDX 14 1 13 2 12 3 11 4 9 5 10 6 8 8 3 9 4 10 5 11 7 12 6 13
REMARK SMILES IDX 2 14 1 15 82 16 91 17 83 18 84 20 85 21 86 22 90 23 87 24
REMARK SMILES IDX 89 25 88 26 15 27 16 28 17 29 18 31 19 32 20 33 81 34 21 35
REMARK SMILES IDX 80 36 22 37 23 38 24 39 74 40 25 41 79 42 73 43 75 44 26 45
REMARK SMILES IDX 78 46 72 47 71 48 27 50 59 51 39 52 58 53 40 54 43 55 57 56
REMARK SMILES IDX 76 57 41 58 42 59 56 61 77 62 44 63 28 64 29 65 37 66 30 67
REMARK SMILES IDX 32 68 38 69 31 70 33 71 34 72 35 73 36 74 60 75 61 76 69 77
REMARK SMILES IDX 62 78 64 79 70 80 63 81 65 82 66 83 67 84 68 85 45 86 46 87
REMARK SMILES IDX 54 88 47 89 49 90 55 91 48 92 50 93 51 94 52 95 53 96
REMARK H PARENT 11 7 82 19 16 30 75 49 43 60
REMARK Flexibility Score: inf
ROOT
ATOM      1  C   UNL A   1      32.184  31.026  26.883  1.00  0.00     0.023 C 
ENDROOT
BRANCH   1   2
ATOM      2  C   UNL A   1      32.733  29.638  26.616  1.00  0.00     0.023 C 
BRANCH   2   3
ATOM      3  C   UNL A   1      32.393  28.489  27.573  1.00  0.00     0.116 C 
BRANCH   3   4
ATOM      4  N   UNL A   1      31.454  27.503  27.062  1.00  0.00    -0.352 N 
ATOM      5  C   UNL A   1      31.530  26.339  26.322  1.00  0.00     0.251 C 
ATOM      6  O   UNL A   1      30.544  25.595  26.424  1.00  0.00    -0.269 OA
ATOM      7  H   UNL A   1      30.526  27.720  27.308  1.00  0.00     0.163 HD
BRANCH   5   8
ATOM      8  C   UNL A   1      32.642  25.854  25.404  1.00  0.00     0.046 A 
ATOM      9  C   UNL A   1      32.691  25.821  23.967  1.00  0.00     0.002 A 
ATOM     10  C   UNL A   1      33.777  25.161  23.339  1.00  0.00     0.008 A 
ATOM     11  C   UNL A   1      34.711  24.431  24.067  1.00  0.00     0.000 A 
ATOM     12  C   UNL A   1      33.593  25.073  26.101  1.00  0.00     0.014 A 
ATOM     13  C   UNL A   1      34.599  24.358  25.446  1.00  0.00     0.001 A 
BRANCH   9  14
ATOM     14  C   UNL A   1      31.634  26.436  23.049  1.00  0.00     0.129 C 
ATOM     15  C   UNL A   1      31.728  25.631  21.733  1.00  0.00     0.054 C 
ATOM     16  N   UNL A   1      30.193  26.333  23.434  1.00  0.00    -0.288 NA
ATOM     17  S   UNL A   1      31.836  28.244  23.137  1.00  0.00    -0.070 SA
ATOM     18  N   UNL A   1      29.393  27.438  23.110  1.00  0.00    -0.171 NA
ATOM     19  H   UNL A   1      29.828  25.538  23.887  1.00  0.00     0.185 HD
ATOM     20  C   UNL A   1      30.143  28.488  22.981  1.00  0.00     0.126 C 
BRANCH  20  21
ATOM     21  C   UNL A   1      29.814  29.902  22.785  1.00  0.00     0.009 A 
ATOM     22  C   UNL A   1      29.262  30.232  21.541  1.00  0.00     0.011 A 
ATOM     23  C   UNL A   1      29.554  30.704  23.908  1.00  0.00     0.011 A 
ATOM     24  C   UNL A   1      28.416  31.336  21.430  1.00  0.00     0.001 A 
ATOM     25  C   UNL A   1      28.709  31.811  23.785  1.00  0.00     0.001 A 
ATOM     26  C   UNL A   1      28.130  32.114  22.552  1.00  0.00     0.000 A 
ENDBRANCH  20  21
ENDBRANCH   9  14
ENDBRANCH   5   8
ENDBRANCH   3   4
ENDBRANCH   2   3
ENDBRANCH   1   2
BRANCH   1  27
ATOM     27  C   UNL A   1      33.222  31.943  27.489  1.00  0.00     0.116 C 
BRANCH  27  28
ATOM     28  N   UNL A   1      32.771  33.338  27.605  1.00  0.00    -0.352 N 
ATOM     29  C   UNL A   1      33.191  34.319  28.473  1.00  0.00     0.251 C 
ATOM     30  H   UNL A   1      32.069  33.608  26.972  1.00  0.00     0.163 HD
ATOM     31  O   UNL A   1      32.643  35.419  28.488  1.00  0.00    -0.269 OA
BRANCH  29  32
ATOM     32  C   UNL A   1      34.276  34.003  29.417  1.00  0.00     0.039 A 
ATOM     33  C   UNL A   1      34.037  33.127  30.477  1.00  0.00     0.014 A 
ATOM     34  C   UNL A   1      35.561  34.471  29.154  1.00  0.00     0.014 A 
ATOM     35  C   UNL A   1      35.119  32.641  31.212  1.00  0.00     0.010 A 
ATOM     36  C   UNL A   1      36.636  33.866  29.776  1.00  0.00     0.010 A 
ATOM     37  C   UNL A   1      36.429  32.963  30.828  1.00  0.00    -0.014 A 
BRANCH  37  38
ATOM     38  C   UNL A   1      37.620  32.398  31.507  1.00  0.00     0.031 A 
ATOM     39  C   UNL A   1      38.407  31.311  30.825  1.00  0.00     0.074 A 
ATOM     40  C   UNL A   1      37.903  32.749  32.776  1.00  0.00     0.049 A 
ATOM     41  N   UNL A   1      39.380  30.578  31.294  1.00  0.00    -0.248 NA
ATOM     42  C   UNL A   1      38.002  30.955  29.452  1.00  0.00     0.031 C 
ATOM     43  C   UNL A   1      37.140  33.703  33.586  1.00  0.00     0.029 A 
ATOM     44  N   UNL A   1      38.889  32.312  33.624  1.00  0.00    -0.354 N 
ATOM     45  C   UNL A   1      39.648  29.636  30.309  1.00  0.00     0.074 A 
ATOM     46  C   UNL A   1      38.702  29.853  29.240  1.00  0.00     0.031 C 
ATOM     47  C   UNL A   1      37.690  33.784  34.807  1.00  0.00     0.029 A 
ATOM     48  C   UNL A   1      38.819  32.863  34.882  1.00  0.00     0.049 A 
ATOM     49  H   UNL A   1      39.582  31.665  33.358  1.00  0.00     0.167 HD
ATOM     50  C   UNL A   1      40.625  28.701  30.274  1.00  0.00     0.034 A 
ATOM     51  C   UNL A   1      39.573  32.641  35.977  1.00  0.00     0.034 A 
ATOM     52  C   UNL A   1      41.619  28.559  31.299  1.00  0.00     0.049 A 
ATOM     53  C   UNL A   1      40.715  31.667  35.885  1.00  0.00     0.074 A 
ATOM     54  C   UNL A   1      42.750  27.765  31.296  1.00  0.00     0.029 A 
ATOM     55  N   UNL A   1      41.595  29.224  32.515  1.00  0.00    -0.354 N 
ATOM     56  N   UNL A   1      41.086  30.928  34.867  1.00  0.00    -0.248 NA
ATOM     57  C   UNL A   1      41.562  31.518  37.076  1.00  0.00     0.031 C 
ATOM     58  C   UNL A   1      43.396  27.930  32.525  1.00  0.00     0.029 A 
ATOM     59  C   UNL A   1      42.677  28.842  33.284  1.00  0.00     0.049 A 
ATOM     60  H   UNL A   1      40.907  29.873  32.789  1.00  0.00     0.167 HD
ATOM     61  C   UNL A   1      42.214  30.235  35.288  1.00  0.00     0.074 A 
ATOM     62  C   UNL A   1      42.485  30.668  36.644  1.00  0.00     0.031 C 
ATOM     63  C   UNL A   1      42.947  29.308  34.621  1.00  0.00     0.034 A 
BRANCH  50  64
ATOM     64  C   UNL A   1      40.693  27.811  29.060  1.00  0.00     0.023 A 
ATOM     65  C   UNL A   1      39.850  26.684  28.967  1.00  0.00     0.012 A 
ATOM     66  C   UNL A   1      41.585  28.094  28.009  1.00  0.00     0.148 A 
ATOM     67  C   UNL A   1      39.930  25.823  27.874  1.00  0.00     0.002 A 
ATOM     68  C   UNL A   1      41.623  27.260  26.897  1.00  0.00     0.091 A 
ATOM     69  F   UNL A   1      42.399  29.153  28.124  1.00  0.00    -0.205 F 
ATOM     70  C   UNL A   1      40.809  26.117  26.835  1.00  0.00     0.022 A 
BRANCH  68  71
ATOM     71  S   UNL A   1      42.662  27.600  25.473  1.00  0.00     0.127 S 
ATOM     72  O   UNL A   1      42.080  28.844  24.973  1.00  0.00    -0.237 OA
ATOM     73  O   UNL A   1      43.983  27.748  26.084  1.00  0.00    -0.237 OA
ATOM     74  O   UNL A   1      42.527  26.445  24.597  1.00  0.00    -0.744 OA
ENDBRANCH  68  71
ENDBRANCH  50  64
BRANCH  51  75
ATOM     75  C   UNL A   1      39.296  33.406  37.225  1.00  0.00     0.023 A 
ATOM     76  C   UNL A   1      38.475  32.838  38.218  1.00  0.00     0.012 A 
ATOM     77  C   UNL A   1      39.902  34.655  37.466  1.00  0.00     0.148 A 
ATOM     78  C   UNL A   1      38.250  33.506  39.423  1.00  0.00     0.002 A 
ATOM     79  C   UNL A   1      39.718  35.289  38.690  1.00  0.00     0.091 A 
ATOM     80  F   UNL A   1      40.673  35.182  36.505  1.00  0.00    -0.205 F 
ATOM     81  C   UNL A   1      38.881  34.724  39.663  1.00  0.00     0.022 A 
BRANCH  79  82
ATOM     82  S   UNL A   1      40.604  36.785  39.144  1.00  0.00     0.127 S 
ATOM     83  O   UNL A   1      39.587  37.811  38.935  1.00  0.00    -0.237 OA
ATOM     84  O   UNL A   1      40.938  36.523  40.545  1.00  0.00    -0.237 OA
ATOM     85  O   UNL A   1      41.758  36.846  38.256  1.00  0.00    -0.744 OA
ENDBRANCH  79  82
ENDBRANCH  51  75
BRANCH  63  86
ATOM     86  C   UNL A   1      44.112  28.688  35.344  1.00  0.00     0.023 A 
ATOM     87  C   UNL A   1      45.391  29.262  35.213  1.00  0.00     0.012 A 
ATOM     88  C   UNL A   1      43.922  27.608  36.227  1.00  0.00     0.148 A 
ATOM     89  C   UNL A   1      46.471  28.755  35.935  1.00  0.00     0.002 A 
ATOM     90  C   UNL A   1      44.992  27.139  36.979  1.00  0.00     0.091 A 
ATOM     91  F   UNL A   1      42.698  27.069  36.324  1.00  0.00    -0.205 F 
ATOM     92  C   UNL A   1      46.269  27.703  36.826  1.00  0.00     0.022 A 
BRANCH  90  93
ATOM     93  S   UNL A   1      44.809  25.856  38.223  1.00  0.00     0.127 S 
ATOM     94  O   UNL A   1      43.813  26.446  39.114  1.00  0.00    -0.237 OA
ATOM     95  O   UNL A   1      44.326  24.724  37.431  1.00  0.00    -0.237 OA
ATOM     96  O   UNL A   1      46.132  25.667  38.804  1.00  0.00    -0.744 OA
ENDBRANCH  90  93
ENDBRANCH  63  86
ENDBRANCH  37  38
ENDBRANCH  29  32
ENDBRANCH  27  28
ENDBRANCH   1  27
TORSDOF 16
ENDMDL
