MODEL 1
REMARK VINA RESULT:     -12.8      0.000      0.000
REMARK SMILES CC1(C)S[C@H](c2ccc(-c3ccccc3)o2)[NH2+][C@H]1C(=O)NCCCCNC(=O)c1ccc(-c2c3nc(c(-c4cccc(S(=O)(=O)[O-])c4F)c4ccc([nH]4)c(-c4cccc(S(=O)(=O)[O-])c4F)c4nc(c(-c5cccc(S(=O)(=O)[O-])c5F)c5ccc2[nH]5)C=C4)C=C3)cc1
REMARK SMILES IDX 24 1 23 2 22 3 21 4 19 5 20 6 18 8 1 9 2 10 3 11 4 12 5 13
REMARK SMILES IDX 17 14 6 17 7 18 16 19 8 20 9 21 10 22 11 23 15 24 12 25
REMARK SMILES IDX 14 26 13 27 25 28 26 29 27 30 28 32 29 33 30 34 91 35 31 36
REMARK SMILES IDX 90 37 32 38 33 39 34 40 84 41 35 42 89 43 83 44 85 45 36 46
REMARK SMILES IDX 88 47 82 48 81 49 37 51 69 52 49 53 68 54 50 55 53 56 67 57
REMARK SMILES IDX 86 58 51 59 52 60 66 62 87 63 54 64 38 65 39 66 47 67 40 68
REMARK SMILES IDX 42 69 48 70 41 71 43 72 44 73 45 74 46 75 70 76 71 77 79 78
REMARK SMILES IDX 72 79 74 80 80 81 73 82 75 83 76 84 77 85 78 86 55 87 56 88
REMARK SMILES IDX 64 89 57 90 59 91 65 92 58 93 60 94 61 95 62 96 63 97
REMARK H PARENT 21 7 17 15 17 16 26 31 85 50 53 61
REMARK Flexibility Score: inf
ROOT
ATOM      1  C   UNL A   1      31.628  28.991  26.521  1.00  0.00     0.023 C 
ENDROOT
BRANCH   1   2
ATOM      2  C   UNL A   1      32.066  27.617  27.004  1.00  0.00     0.023 C 
BRANCH   2   3
ATOM      3  C   UNL A   1      31.212  26.445  26.514  1.00  0.00     0.116 C 
BRANCH   3   4
ATOM      4  N   UNL A   1      30.561  26.730  25.248  1.00  0.00    -0.351 N 
ATOM      5  C   UNL A   1      30.721  26.260  23.978  1.00  0.00     0.279 C 
ATOM      6  O   UNL A   1      30.045  26.818  23.105  1.00  0.00    -0.268 OA
ATOM      7  H   UNL A   1      29.852  27.409  25.323  1.00  0.00     0.163 HD
BRANCH   5   8
ATOM      8  C   UNL A   1      31.706  25.139  23.575  1.00  0.00     0.289 C 
ATOM      9  C   UNL A   1      33.762  26.763  23.869  1.00  0.00     0.030 C 
ATOM     10  C   UNL A   1      33.092  25.632  23.100  1.00  0.00     0.078 C 
ATOM     11  C   UNL A   1      33.055  26.010  21.614  1.00  0.00     0.030 C 
ATOM     12  S   UNL A   1      34.164  24.178  23.325  1.00  0.00    -0.078 SA
ATOM     13  C   UNL A   1      32.966  23.249  24.319  1.00  0.00     0.311 C 
ATOM     14  N   UNL A   1      31.779  24.056  24.579  1.00  0.00    -0.317 N 
ATOM     15  H   UNL A   1      31.836  24.459  25.514  1.00  0.00     0.348 HD
ATOM     16  H   UNL A   1      30.944  23.472  24.517  1.00  0.00     0.348 HD
BRANCH  13  17
ATOM     17  C   UNL A   1      32.718  21.927  23.666  1.00  0.00     0.172 A 
ATOM     18  C   UNL A   1      32.154  21.624  22.440  1.00  0.00     0.054 A 
ATOM     19  O   UNL A   1      33.023  20.768  24.332  1.00  0.00    -0.454 OA
ATOM     20  C   UNL A   1      32.126  20.219  22.343  1.00  0.00     0.051 A 
ATOM     21  C   UNL A   1      32.677  19.732  23.509  1.00  0.00     0.134 A 
BRANCH  21  22
ATOM     22  C   UNL A   1      32.944  18.383  23.983  1.00  0.00     0.017 A 
ATOM     23  C   UNL A   1      33.666  17.467  23.210  1.00  0.00     0.012 A 
ATOM     24  C   UNL A   1      32.519  18.002  25.266  1.00  0.00     0.012 A 
ATOM     25  C   UNL A   1      33.976  16.202  23.720  1.00  0.00     0.001 A 
ATOM     26  C   UNL A   1      32.817  16.734  25.769  1.00  0.00     0.001 A 
ATOM     27  C   UNL A   1      33.553  15.838  24.999  1.00  0.00     0.000 A 
ENDBRANCH  21  22
ENDBRANCH  13  17
ENDBRANCH   5   8
ENDBRANCH   3   4
ENDBRANCH   2   3
ENDBRANCH   1   2
BRANCH   1  28
ATOM     28  C   UNL A   1      32.765  29.904  26.097  1.00  0.00     0.116 C 
BRANCH  28  29
ATOM     29  N   UNL A   1      32.543  31.298  26.459  1.00  0.00    -0.352 N 
ATOM     30  C   UNL A   1      33.273  32.091  27.316  1.00  0.00     0.251 C 
ATOM     31  H   UNL A   1      31.768  31.731  26.034  1.00  0.00     0.163 HD
ATOM     32  O   UNL A   1      32.874  33.208  27.616  1.00  0.00    -0.269 OA
BRANCH  30  33
ATOM     33  C   UNL A   1      34.528  31.558  27.881  1.00  0.00     0.039 A 
ATOM     34  C   UNL A   1      35.622  32.410  28.044  1.00  0.00     0.014 A 
ATOM     35  C   UNL A   1      34.592  30.229  28.303  1.00  0.00     0.014 A 
ATOM     36  C   UNL A   1      36.765  31.939  28.693  1.00  0.00     0.010 A 
ATOM     37  C   UNL A   1      35.685  29.797  29.038  1.00  0.00     0.010 A 
ATOM     38  C   UNL A   1      36.792  30.638  29.221  1.00  0.00    -0.014 A 
BRANCH  38  39
ATOM     39  C   UNL A   1      37.979  30.108  29.934  1.00  0.00     0.031 A 
ATOM     40  C   UNL A   1      38.276  30.590  31.329  1.00  0.00     0.074 A 
ATOM     41  C   UNL A   1      38.837  29.286  29.299  1.00  0.00     0.049 A 
ATOM     42  N   UNL A   1      39.309  30.336  32.088  1.00  0.00    -0.248 NA
ATOM     43  C   UNL A   1      37.306  31.521  31.935  1.00  0.00     0.031 C 
ATOM     44  C   UNL A   1      38.706  28.826  27.914  1.00  0.00     0.029 A 
ATOM     45  N   UNL A   1      40.007  28.714  29.728  1.00  0.00    -0.354 N 
ATOM     46  C   UNL A   1      39.139  31.112  33.229  1.00  0.00     0.074 A 
ATOM     47  C   UNL A   1      37.930  31.881  33.045  1.00  0.00     0.031 C 
ATOM     48  C   UNL A   1      39.749  28.034  27.613  1.00  0.00     0.029 A 
ATOM     49  C   UNL A   1      40.632  27.948  28.771  1.00  0.00     0.049 A 
ATOM     50  H   UNL A   1      40.366  28.838  30.637  1.00  0.00     0.167 HD
ATOM     51  C   UNL A   1      39.897  31.150  34.349  1.00  0.00     0.034 A 
ATOM     52  C   UNL A   1      41.786  27.254  28.827  1.00  0.00     0.034 A 
ATOM     53  C   UNL A   1      41.052  30.322  34.557  1.00  0.00     0.049 A 
ATOM     54  C   UNL A   1      42.558  27.236  30.120  1.00  0.00     0.074 A 
ATOM     55  C   UNL A   1      41.836  30.206  35.691  1.00  0.00     0.029 A 
ATOM     56  N   UNL A   1      41.580  29.457  33.612  1.00  0.00    -0.354 N 
ATOM     57  N   UNL A   1      42.296  27.855  31.246  1.00  0.00    -0.248 NA
ATOM     58  C   UNL A   1      43.758  26.391  30.165  1.00  0.00     0.031 C 
ATOM     59  C   UNL A   1      42.842  29.269  35.429  1.00  0.00     0.029 A 
ATOM     60  C   UNL A   1      42.674  28.794  34.136  1.00  0.00     0.049 A 
ATOM     61  H   UNL A   1      41.228  29.332  32.701  1.00  0.00     0.167 HD
ATOM     62  C   UNL A   1      43.271  27.442  32.145  1.00  0.00     0.074 A 
ATOM     63  C   UNL A   1      44.120  26.505  31.436  1.00  0.00     0.031 C 
ATOM     64  C   UNL A   1      43.461  27.814  33.435  1.00  0.00     0.034 A 
BRANCH  51  65
ATOM     65  C   UNL A   1      39.452  32.065  35.461  1.00  0.00     0.023 A 
ATOM     66  C   UNL A   1      38.622  31.558  36.484  1.00  0.00     0.012 A 
ATOM     67  C   UNL A   1      39.876  33.406  35.516  1.00  0.00     0.148 A 
ATOM     68  C   UNL A   1      38.187  32.382  37.520  1.00  0.00     0.002 A 
ATOM     69  C   UNL A   1      39.477  34.209  36.578  1.00  0.00     0.091 A 
ATOM     70  F   UNL A   1      40.644  33.877  34.524  1.00  0.00    -0.205 F 
ATOM     71  C   UNL A   1      38.622  33.703  37.572  1.00  0.00     0.022 A 
BRANCH  69  72
ATOM     72  S   UNL A   1      40.046  35.900  36.780  1.00  0.00     0.127 S 
ATOM     73  O   UNL A   1      39.700  36.484  35.485  1.00  0.00    -0.237 OA
ATOM     74  O   UNL A   1      39.227  36.371  37.898  1.00  0.00    -0.237 OA
ATOM     75  O   UNL A   1      41.470  35.811  37.068  1.00  0.00    -0.744 OA
ENDBRANCH  69  72
ENDBRANCH  51  65
BRANCH  52  76
ATOM     76  C   UNL A   1      42.224  26.439  27.659  1.00  0.00     0.023 A 
ATOM     77  C   UNL A   1      43.058  27.027  26.687  1.00  0.00     0.012 A 
ATOM     78  C   UNL A   1      41.853  25.088  27.517  1.00  0.00     0.148 A 
ATOM     79  C   UNL A   1      43.486  26.296  25.578  1.00  0.00     0.002 A 
ATOM     80  C   UNL A   1      42.325  24.351  26.436  1.00  0.00     0.091 A 
ATOM     81  F   UNL A   1      41.051  24.549  28.446  1.00  0.00    -0.205 F 
ATOM     82  C   UNL A   1      43.128  24.957  25.457  1.00  0.00     0.022 A 
BRANCH  80  83
ATOM     83  S   UNL A   1      42.021  22.589  26.269  1.00  0.00     0.127 S 
ATOM     84  O   UNL A   1      40.561  22.538  26.238  1.00  0.00    -0.237 OA
ATOM     85  O   UNL A   1      42.676  22.286  24.996  1.00  0.00    -0.237 OA
ATOM     86  O   UNL A   1      42.654  21.972  27.428  1.00  0.00    -0.744 OA
ENDBRANCH  80  83
ENDBRANCH  52  76
BRANCH  64  87
ATOM     87  C   UNL A   1      44.598  27.176  34.186  1.00  0.00     0.023 A 
ATOM     88  C   UNL A   1      45.877  27.763  34.150  1.00  0.00     0.012 A 
ATOM     89  C   UNL A   1      44.377  26.042  34.991  1.00  0.00     0.148 A 
ATOM     90  C   UNL A   1      46.928  27.214  34.883  1.00  0.00     0.002 A 
ATOM     91  C   UNL A   1      45.418  25.528  35.755  1.00  0.00     0.091 A 
ATOM     92  F   UNL A   1      43.157  25.485  34.995  1.00  0.00    -0.205 F 
ATOM     93  C   UNL A   1      46.697  26.104  35.693  1.00  0.00     0.022 A 
BRANCH  91  94
ATOM     94  S   UNL A   1      45.177  24.164  36.900  1.00  0.00     0.127 S 
ATOM     95  O   UNL A   1      44.157  24.705  37.796  1.00  0.00    -0.237 OA
ATOM     96  O   UNL A   1      44.709  23.093  36.018  1.00  0.00    -0.237 OA
ATOM     97  O   UNL A   1      46.480  23.917  37.502  1.00  0.00    -0.744 OA
ENDBRANCH  91  94
ENDBRANCH  64  87
ENDBRANCH  38  39
ENDBRANCH  30  33
ENDBRANCH  28  29
ENDBRANCH   1  28
TORSDOF 16
ENDMDL
MODEL 2
REMARK VINA RESULT:     -12.8      3.396      9.032
REMARK SMILES CC1(C)S[C@H](c2ccc(-c3ccccc3)o2)[NH2+][C@H]1C(=O)NCCCCNC(=O)c1ccc(-c2c3nc(c(-c4cccc(S(=O)(=O)[O-])c4F)c4ccc([nH]4)c(-c4cccc(S(=O)(=O)[O-])c4F)c4nc(c(-c5cccc(S(=O)(=O)[O-])c5F)c5ccc2[nH]5)C=C4)C=C3)cc1
REMARK SMILES IDX 24 1 23 2 22 3 21 4 19 5 20 6 18 8 1 9 2 10 3 11 4 12 5 13
REMARK SMILES IDX 17 14 6 17 7 18 16 19 8 20 9 21 10 22 11 23 15 24 12 25
REMARK SMILES IDX 14 26 13 27 25 28 26 29 27 30 28 32 29 33 30 34 91 35 31 36
REMARK SMILES IDX 90 37 32 38 33 39 34 40 84 41 35 42 89 43 83 44 85 45 36 46
REMARK SMILES IDX 88 47 82 48 81 49 37 51 69 52 49 53 68 54 50 55 53 56 67 57
REMARK SMILES IDX 86 58 51 59 52 60 66 62 87 63 54 64 38 65 39 66 47 67 40 68
REMARK SMILES IDX 42 69 48 70 41 71 43 72 44 73 45 74 46 75 70 76 71 77 79 78
REMARK SMILES IDX 72 79 74 80 80 81 73 82 75 83 76 84 77 85 78 86 55 87 56 88
REMARK SMILES IDX 64 89 57 90 59 91 65 92 58 93 60 94 61 95 62 96 63 97
REMARK H PARENT 21 7 17 15 17 16 26 31 85 50 53 61
REMARK Flexibility Score: inf
ROOT
ATOM      1  C   UNL A   1      31.891  31.525  26.910  1.00  0.00     0.023 C 
ENDROOT
BRANCH   1   2
ATOM      2  C   UNL A   1      32.233  30.054  26.722  1.00  0.00     0.023 C 
BRANCH   2   3
ATOM      3  C   UNL A   1      33.634  29.770  26.175  1.00  0.00     0.116 C 
BRANCH   3   4
ATOM      4  N   UNL A   1      34.012  28.377  26.328  1.00  0.00    -0.351 N 
ATOM      5  C   UNL A   1      33.568  27.213  25.773  1.00  0.00     0.279 C 
ATOM      6  O   UNL A   1      34.065  26.174  26.225  1.00  0.00    -0.268 OA
ATOM      7  H   UNL A   1      34.746  28.244  26.969  1.00  0.00     0.163 HD
BRANCH   5   8
ATOM      8  C   UNL A   1      32.476  27.121  24.682  1.00  0.00     0.289 C 
ATOM      9  C   UNL A   1      33.891  25.349  23.336  1.00  0.00     0.030 C 
ATOM     10  C   UNL A   1      32.957  26.553  23.328  1.00  0.00     0.078 C 
ATOM     11  C   UNL A   1      33.593  27.655  22.471  1.00  0.00     0.030 C 
ATOM     12  S   UNL A   1      31.422  25.982  22.533  1.00  0.00    -0.078 SA
ATOM     13  C   UNL A   1      30.409  26.112  24.031  1.00  0.00     0.311 C 
ATOM     14  N   UNL A   1      31.231  26.494  25.174  1.00  0.00    -0.317 N 
ATOM     15  H   UNL A   1      31.458  25.666  25.725  1.00  0.00     0.348 HD
ATOM     16  H   UNL A   1      30.721  27.155  25.761  1.00  0.00     0.348 HD
BRANCH  13  17
ATOM     17  C   UNL A   1      29.241  27.001  23.749  1.00  0.00     0.172 A 
ATOM     18  C   UNL A   1      27.883  26.756  23.854  1.00  0.00     0.054 A 
ATOM     19  O   UNL A   1      29.445  28.264  23.261  1.00  0.00    -0.454 OA
ATOM     20  C   UNL A   1      27.226  27.927  23.426  1.00  0.00     0.051 A 
ATOM     21  C   UNL A   1      28.212  28.829  23.085  1.00  0.00     0.134 A 
BRANCH  21  22
ATOM     22  C   UNL A   1      28.166  30.201  22.606  1.00  0.00     0.017 A 
ATOM     23  C   UNL A   1      28.299  31.285  23.481  1.00  0.00     0.012 A 
ATOM     24  C   UNL A   1      28.042  30.452  21.230  1.00  0.00     0.012 A 
ATOM     25  C   UNL A   1      28.329  32.593  22.987  1.00  0.00     0.001 A 
ATOM     26  C   UNL A   1      28.059  31.759  20.738  1.00  0.00     0.001 A 
ATOM     27  C   UNL A   1      28.211  32.828  21.617  1.00  0.00     0.000 A 
ENDBRANCH  21  22
ENDBRANCH  13  17
ENDBRANCH   5   8
ENDBRANCH   3   4
ENDBRANCH   2   3
ENDBRANCH   1   2
BRANCH   1  28
ATOM     28  C   UNL A   1      33.082  32.415  27.217  1.00  0.00     0.116 C 
BRANCH  28  29
ATOM     29  N   UNL A   1      32.702  33.784  27.546  1.00  0.00    -0.352 N 
ATOM     30  C   UNL A   1      33.162  34.583  28.568  1.00  0.00     0.251 C 
ATOM     31  H   UNL A   1      32.026  34.191  26.958  1.00  0.00     0.163 HD
ATOM     32  O   UNL A   1      32.641  35.667  28.789  1.00  0.00    -0.269 OA
BRANCH  30  33
ATOM     33  C   UNL A   1      34.277  34.094  29.404  1.00  0.00     0.039 A 
ATOM     34  C   UNL A   1      34.004  33.274  30.500  1.00  0.00     0.014 A 
ATOM     35  C   UNL A   1      35.594  34.404  29.058  1.00  0.00     0.014 A 
ATOM     36  C   UNL A   1      35.063  32.712  31.214  1.00  0.00     0.010 A 
ATOM     37  C   UNL A   1      36.639  33.761  29.702  1.00  0.00     0.010 A 
ATOM     38  C   UNL A   1      36.387  32.927  30.800  1.00  0.00    -0.014 A 
BRANCH  38  39
ATOM     39  C   UNL A   1      37.539  32.330  31.520  1.00  0.00     0.031 A 
ATOM     40  C   UNL A   1      38.316  31.216  30.870  1.00  0.00     0.074 A 
ATOM     41  C   UNL A   1      37.816  32.710  32.782  1.00  0.00     0.049 A 
ATOM     42  N   UNL A   1      39.285  30.490  31.362  1.00  0.00    -0.248 NA
ATOM     43  C   UNL A   1      37.919  30.835  29.503  1.00  0.00     0.031 C 
ATOM     44  C   UNL A   1      37.073  33.711  33.552  1.00  0.00     0.029 A 
ATOM     45  N   UNL A   1      38.784  32.276  33.652  1.00  0.00    -0.354 N 
ATOM     46  C   UNL A   1      39.574  29.540  30.389  1.00  0.00     0.074 A 
ATOM     47  C   UNL A   1      38.648  29.749  29.300  1.00  0.00     0.031 C 
ATOM     48  C   UNL A   1      37.620  33.822  34.775  1.00  0.00     0.029 A 
ATOM     49  C   UNL A   1      38.734  32.885  34.885  1.00  0.00     0.049 A 
ATOM     50  H   UNL A   1      39.452  31.592  33.417  1.00  0.00     0.167 HD
ATOM     51  C   UNL A   1      40.550  28.602  30.383  1.00  0.00     0.034 A 
ATOM     52  C   UNL A   1      39.504  32.709  35.976  1.00  0.00     0.034 A 
ATOM     53  C   UNL A   1      41.517  28.454  31.434  1.00  0.00     0.049 A 
ATOM     54  C   UNL A   1      40.645  31.729  35.906  1.00  0.00     0.074 A 
ATOM     55  C   UNL A   1      42.609  27.606  31.487  1.00  0.00     0.029 A 
ATOM     56  N   UNL A   1      41.516  29.183  32.613  1.00  0.00    -0.354 N 
ATOM     57  N   UNL A   1      41.002  30.947  34.915  1.00  0.00    -0.248 NA
ATOM     58  C   UNL A   1      41.517  31.639  37.085  1.00  0.00     0.031 C 
ATOM     59  C   UNL A   1      43.267  27.822  32.703  1.00  0.00     0.029 A 
ATOM     60  C   UNL A   1      42.592  28.814  33.399  1.00  0.00     0.049 A 
ATOM     61  H   UNL A   1      40.847  29.864  32.855  1.00  0.00     0.167 HD
ATOM     62  C   UNL A   1      42.160  30.305  35.333  1.00  0.00     0.074 A 
ATOM     63  C   UNL A   1      42.456  30.804  36.662  1.00  0.00     0.031 C 
ATOM     64  C   UNL A   1      42.905  29.374  34.687  1.00  0.00     0.034 A 
BRANCH  51  65
ATOM     65  C   UNL A   1      40.661  27.719  29.168  1.00  0.00     0.023 A 
ATOM     66  C   UNL A   1      39.874  26.550  29.086  1.00  0.00     0.012 A 
ATOM     67  C   UNL A   1      41.509  28.057  28.096  1.00  0.00     0.148 A 
ATOM     68  C   UNL A   1      39.962  25.709  27.979  1.00  0.00     0.002 A 
ATOM     69  C   UNL A   1      41.556  27.238  26.973  1.00  0.00     0.091 A 
ATOM     70  F   UNL A   1      42.268  29.157  28.200  1.00  0.00    -0.205 F 
ATOM     71  C   UNL A   1      40.795  26.058  26.919  1.00  0.00     0.022 A 
BRANCH  69  72
ATOM     72  S   UNL A   1      42.536  27.640  25.523  1.00  0.00     0.127 S 
ATOM     73  O   UNL A   1      43.884  27.700  26.085  1.00  0.00    -0.237 OA
ATOM     74  O   UNL A   1      42.289  26.488  24.654  1.00  0.00    -0.237 OA
ATOM     75  O   UNL A   1      42.009  28.901  25.021  1.00  0.00    -0.744 OA
ENDBRANCH  69  72
ENDBRANCH  51  65
BRANCH  52  76
ATOM     76  C   UNL A   1      39.287  33.551  37.187  1.00  0.00     0.023 A 
ATOM     77  C   UNL A   1      39.792  34.866  37.206  1.00  0.00     0.012 A 
ATOM     78  C   UNL A   1      38.562  33.078  38.298  1.00  0.00     0.148 A 
ATOM     79  C   UNL A   1      39.611  35.683  38.323  1.00  0.00     0.002 A 
ATOM     80  C   UNL A   1      38.341  33.914  39.386  1.00  0.00     0.091 A 
ATOM     81  F   UNL A   1      38.097  31.821  38.264  1.00  0.00    -0.205 F 
ATOM     82  C   UNL A   1      38.878  35.211  39.408  1.00  0.00     0.022 A 
BRANCH  80  83
ATOM     83  S   UNL A   1      37.300  33.436  40.769  1.00  0.00     0.127 S 
ATOM     84  O   UNL A   1      37.138  34.704  41.476  1.00  0.00    -0.237 OA
ATOM     85  O   UNL A   1      36.097  32.950  40.092  1.00  0.00    -0.237 OA
ATOM     86  O   UNL A   1      38.044  32.403  41.478  1.00  0.00    -0.744 OA
ENDBRANCH  80  83
ENDBRANCH  52  76
BRANCH  64  87
ATOM     87  C   UNL A   1      44.141  28.865  35.379  1.00  0.00     0.023 A 
ATOM     88  C   UNL A   1      45.376  29.506  35.168  1.00  0.00     0.012 A 
ATOM     89  C   UNL A   1      44.058  27.802  36.299  1.00  0.00     0.148 A 
ATOM     90  C   UNL A   1      46.519  29.078  35.842  1.00  0.00     0.002 A 
ATOM     91  C   UNL A   1      45.192  27.412  37.002  1.00  0.00     0.091 A 
ATOM     92  F   UNL A   1      42.877  27.190  36.470  1.00  0.00    -0.205 F 
ATOM     93  C   UNL A   1      46.425  28.040  36.766  1.00  0.00     0.022 A 
BRANCH  91  94
ATOM     94  S   UNL A   1      45.134  26.152  38.281  1.00  0.00     0.127 S 
ATOM     95  O   UNL A   1      44.195  26.739  39.235  1.00  0.00    -0.237 OA
ATOM     96  O   UNL A   1      44.618  24.989  37.554  1.00  0.00    -0.237 OA
ATOM     97  O   UNL A   1      46.504  26.002  38.753  1.00  0.00    -0.744 OA
ENDBRANCH  91  94
ENDBRANCH  64  87
ENDBRANCH  38  39
ENDBRANCH  30  33
ENDBRANCH  28  29
ENDBRANCH   1  28
TORSDOF 16
ENDMDL
MODEL 3
REMARK VINA RESULT:     -12.6      2.380      7.913
REMARK SMILES CC1(C)S[C@H](c2ccc(-c3ccccc3)o2)[NH2+][C@H]1C(=O)NCCCCNC(=O)c1ccc(-c2c3nc(c(-c4cccc(S(=O)(=O)[O-])c4F)c4ccc([nH]4)c(-c4cccc(S(=O)(=O)[O-])c4F)c4nc(c(-c5cccc(S(=O)(=O)[O-])c5F)c5ccc2[nH]5)C=C4)C=C3)cc1
REMARK SMILES IDX 24 1 23 2 22 3 21 4 19 5 20 6 18 8 1 9 2 10 3 11 4 12 5 13
REMARK SMILES IDX 17 14 6 17 7 18 16 19 8 20 9 21 10 22 11 23 15 24 12 25
REMARK SMILES IDX 14 26 13 27 25 28 26 29 27 30 28 32 29 33 30 34 91 35 31 36
REMARK SMILES IDX 90 37 32 38 33 39 34 40 84 41 35 42 89 43 83 44 85 45 36 46
REMARK SMILES IDX 88 47 82 48 81 49 37 51 69 52 49 53 68 54 50 55 53 56 67 57
REMARK SMILES IDX 86 58 51 59 52 60 66 62 87 63 54 64 38 65 39 66 47 67 40 68
REMARK SMILES IDX 42 69 48 70 41 71 43 72 44 73 45 74 46 75 70 76 71 77 79 78
REMARK SMILES IDX 72 79 74 80 80 81 73 82 75 83 76 84 77 85 78 86 55 87 56 88
REMARK SMILES IDX 64 89 57 90 59 91 65 92 58 93 60 94 61 95 62 96 63 97
REMARK H PARENT 21 7 17 15 17 16 26 31 85 50 53 61
REMARK Flexibility Score: inf
ROOT
ATOM      1  C   UNL A   1      31.841  31.472  26.588  1.00  0.00     0.023 C 
ENDROOT
BRANCH   1   2
ATOM      2  C   UNL A   1      31.857  29.964  26.788  1.00  0.00     0.023 C 
BRANCH   2   3
ATOM      3  C   UNL A   1      33.170  29.267  26.423  1.00  0.00     0.116 C 
BRANCH   3   4
ATOM      4  N   UNL A   1      33.506  29.426  25.020  1.00  0.00    -0.351 N 
ATOM      5  C   UNL A   1      33.462  28.596  23.939  1.00  0.00     0.279 C 
ATOM      6  O   UNL A   1      33.935  29.047  22.889  1.00  0.00    -0.268 OA
ATOM      7  H   UNL A   1      33.837  30.327  24.801  1.00  0.00     0.163 HD
BRANCH   5   8
ATOM      8  C   UNL A   1      32.919  27.148  23.966  1.00  0.00     0.289 C 
ATOM      9  C   UNL A   1      30.890  27.821  22.423  1.00  0.00     0.030 C 
ATOM     10  C   UNL A   1      31.425  27.008  23.595  1.00  0.00     0.078 C 
ATOM     11  C   UNL A   1      30.534  27.270  24.814  1.00  0.00     0.030 C 
ATOM     12  S   UNL A   1      31.269  25.264  23.097  1.00  0.00    -0.078 SA
ATOM     13  C   UNL A   1      33.055  24.965  23.003  1.00  0.00     0.311 C 
ATOM     14  N   UNL A   1      33.795  26.197  23.250  1.00  0.00    -0.317 N 
ATOM     15  H   UNL A   1      34.090  26.604  22.362  1.00  0.00     0.348 HD
ATOM     16  H   UNL A   1      34.621  25.997  23.816  1.00  0.00     0.348 HD
BRANCH  13  17
ATOM     17  C   UNL A   1      33.400  23.814  23.894  1.00  0.00     0.172 A 
ATOM     18  C   UNL A   1      33.943  23.797  25.166  1.00  0.00     0.054 A 
ATOM     19  O   UNL A   1      33.230  22.530  23.448  1.00  0.00    -0.454 OA
ATOM     20  C   UNL A   1      34.098  22.443  25.523  1.00  0.00     0.051 A 
ATOM     21  C   UNL A   1      33.640  21.700  24.455  1.00  0.00     0.134 A 
BRANCH  21  22
ATOM     22  C   UNL A   1      33.518  20.268  24.234  1.00  0.00     0.017 A 
ATOM     23  C   UNL A   1      32.450  19.730  23.508  1.00  0.00     0.012 A 
ATOM     24  C   UNL A   1      34.519  19.405  24.708  1.00  0.00     0.012 A 
ATOM     25  C   UNL A   1      32.396  18.357  23.243  1.00  0.00     0.001 A 
ATOM     26  C   UNL A   1      34.458  18.033  24.455  1.00  0.00     0.001 A 
ATOM     27  C   UNL A   1      33.400  17.511  23.715  1.00  0.00     0.000 A 
ENDBRANCH  21  22
ENDBRANCH  13  17
ENDBRANCH   5   8
ENDBRANCH   3   4
ENDBRANCH   2   3
ENDBRANCH   1   2
BRANCH   1  28
ATOM     28  C   UNL A   1      32.945  32.217  27.317  1.00  0.00     0.116 C 
BRANCH  28  29
ATOM     29  N   UNL A   1      32.623  33.618  27.563  1.00  0.00    -0.352 N 
ATOM     30  C   UNL A   1      33.153  34.470  28.506  1.00  0.00     0.251 C 
ATOM     31  H   UNL A   1      31.935  34.006  26.977  1.00  0.00     0.163 HD
ATOM     32  O   UNL A   1      32.676  35.584  28.671  1.00  0.00    -0.269 OA
BRANCH  30  33
ATOM     33  C   UNL A   1      34.288  34.003  29.327  1.00  0.00     0.039 A 
ATOM     34  C   UNL A   1      34.047  33.158  30.412  1.00  0.00     0.014 A 
ATOM     35  C   UNL A   1      35.592  34.358  28.977  1.00  0.00     0.014 A 
ATOM     36  C   UNL A   1      35.128  32.617  31.110  1.00  0.00     0.010 A 
ATOM     37  C   UNL A   1      36.661  33.738  29.605  1.00  0.00     0.010 A 
ATOM     38  C   UNL A   1      36.442  32.880  30.691  1.00  0.00    -0.014 A 
BRANCH  38  39
ATOM     39  C   UNL A   1      37.616  32.307  31.394  1.00  0.00     0.031 A 
ATOM     40  C   UNL A   1      38.383  31.182  30.751  1.00  0.00     0.074 A 
ATOM     41  C   UNL A   1      37.925  32.720  32.638  1.00  0.00     0.049 A 
ATOM     42  N   UNL A   1      39.369  30.474  31.234  1.00  0.00    -0.248 NA
ATOM     43  C   UNL A   1      37.952  30.764  29.405  1.00  0.00     0.031 C 
ATOM     44  C   UNL A   1      37.198  33.736  33.403  1.00  0.00     0.029 A 
ATOM     45  N   UNL A   1      38.919  32.313  33.493  1.00  0.00    -0.354 N 
ATOM     46  C   UNL A   1      39.638  29.501  30.278  1.00  0.00     0.074 A 
ATOM     47  C   UNL A   1      38.682  29.678  29.209  1.00  0.00     0.031 C 
ATOM     48  C   UNL A   1      37.776  33.880  34.607  1.00  0.00     0.029 A 
ATOM     49  C   UNL A   1      38.898  32.953  34.710  1.00  0.00     0.049 A 
ATOM     50  H   UNL A   1      39.585  31.628  33.256  1.00  0.00     0.167 HD
ATOM     51  C   UNL A   1      40.619  28.569  30.269  1.00  0.00     0.034 A 
ATOM     52  C   UNL A   1      39.699  32.809  35.784  1.00  0.00     0.034 A 
ATOM     53  C   UNL A   1      41.615  28.453  31.296  1.00  0.00     0.049 A 
ATOM     54  C   UNL A   1      40.844  31.834  35.707  1.00  0.00     0.074 A 
ATOM     55  C   UNL A   1      42.713  27.612  31.341  1.00  0.00     0.029 A 
ATOM     56  N   UNL A   1      41.641  29.211  32.456  1.00  0.00    -0.354 N 
ATOM     57  N   UNL A   1      41.179  31.029  34.728  1.00  0.00    -0.248 NA
ATOM     58  C   UNL A   1      41.747  31.778  36.864  1.00  0.00     0.031 C 
ATOM     59  C   UNL A   1      43.403  27.862  32.533  1.00  0.00     0.029 A 
ATOM     60  C   UNL A   1      42.740  28.868  33.222  1.00  0.00     0.049 A 
ATOM     61  H   UNL A   1      40.975  29.894  32.700  1.00  0.00     0.167 HD
ATOM     62  C   UNL A   1      42.352  30.404  35.130  1.00  0.00     0.074 A 
ATOM     63  C   UNL A   1      42.680  30.937  36.437  1.00  0.00     0.031 C 
ATOM     64  C   UNL A   1      43.085  29.462  34.487  1.00  0.00     0.034 A 
BRANCH  51  65
ATOM     65  C   UNL A   1      40.703  27.657  29.073  1.00  0.00     0.023 A 
ATOM     66  C   UNL A   1      39.837  26.545  28.987  1.00  0.00     0.012 A 
ATOM     67  C   UNL A   1      41.605  27.912  28.023  1.00  0.00     0.148 A 
ATOM     68  C   UNL A   1      39.898  25.678  27.898  1.00  0.00     0.002 A 
ATOM     69  C   UNL A   1      41.627  27.069  26.917  1.00  0.00     0.091 A 
ATOM     70  F   UNL A   1      42.437  28.957  28.131  1.00  0.00    -0.205 F 
ATOM     71  C   UNL A   1      40.785  25.946  26.859  1.00  0.00     0.022 A 
BRANCH  69  72
ATOM     72  S   UNL A   1      42.676  27.372  25.491  1.00  0.00     0.127 S 
ATOM     73  O   UNL A   1      43.981  27.566  26.121  1.00  0.00    -0.237 OA
ATOM     74  O   UNL A   1      42.543  26.124  24.738  1.00  0.00    -0.237 OA
ATOM     75  O   UNL A   1      42.120  28.542  24.826  1.00  0.00    -0.744 OA
ENDBRANCH  69  72
ENDBRANCH  51  65
BRANCH  52  76
ATOM     76  C   UNL A   1      39.509  33.679  36.979  1.00  0.00     0.023 A 
ATOM     77  C   UNL A   1      39.930  35.022  36.922  1.00  0.00     0.012 A 
ATOM     78  C   UNL A   1      38.890  33.203  38.151  1.00  0.00     0.148 A 
ATOM     79  C   UNL A   1      39.772  35.867  38.022  1.00  0.00     0.002 A 
ATOM     80  C   UNL A   1      38.689  34.064  39.225  1.00  0.00     0.091 A 
ATOM     81  F   UNL A   1      38.504  31.921  38.190  1.00  0.00    -0.205 F 
ATOM     82  C   UNL A   1      39.144  35.391  39.169  1.00  0.00     0.022 A 
BRANCH  80  83
ATOM     83  S   UNL A   1      37.773  33.574  40.690  1.00  0.00     0.127 S 
ATOM     84  O   UNL A   1      36.498  33.148  40.119  1.00  0.00    -0.237 OA
ATOM     85  O   UNL A   1      38.603  32.491  41.220  1.00  0.00    -0.237 OA
ATOM     86  O   UNL A   1      37.727  34.759  41.536  1.00  0.00    -0.744 OA
ENDBRANCH  80  83
ENDBRANCH  52  76
BRANCH  64  87
ATOM     87  C   UNL A   1      44.342  28.977  35.157  1.00  0.00     0.023 A 
ATOM     88  C   UNL A   1      45.575  29.584  34.855  1.00  0.00     0.012 A 
ATOM     89  C   UNL A   1      44.285  27.974  36.145  1.00  0.00     0.148 A 
ATOM     90  C   UNL A   1      46.740  29.180  35.506  1.00  0.00     0.002 A 
ATOM     91  C   UNL A   1      45.442  27.610  36.823  1.00  0.00     0.091 A 
ATOM     92  F   UNL A   1      43.104  27.393  36.403  1.00  0.00    -0.205 F 
ATOM     93  C   UNL A   1      46.672  28.203  36.497  1.00  0.00     0.022 A 
BRANCH  91  94
ATOM     94  S   UNL A   1      45.421  26.434  38.180  1.00  0.00     0.127 S 
ATOM     95  O   UNL A   1      45.026  25.201  37.500  1.00  0.00    -0.237 OA
ATOM     96  O   UNL A   1      46.811  26.459  38.640  1.00  0.00    -0.237 OA
ATOM     97  O   UNL A   1      44.462  26.957  39.144  1.00  0.00    -0.744 OA
ENDBRANCH  91  94
ENDBRANCH  64  87
ENDBRANCH  38  39
ENDBRANCH  30  33
ENDBRANCH  28  29
ENDBRANCH   1  28
TORSDOF 16
ENDMDL
