MODEL 1
REMARK VINA RESULT:     -13.6      0.000      0.000
REMARK SMILES O=C(NCCCCNC(=O)c1cc(-c2ccc(Cl)cc2)nc2c3c(C4CC4)cc(C(F)(F)F)nc3nn12)c1ccc(-c2c3nc(c(-c4cccc(S(=O)(=O)[O-])c4F)c4ccc([nH]4)c(-c4cccc(S(=O)(=O)[O-])c4F)c4nc(c(-c5cccc(S(=O)(=O)[O-])c5F)c5ccc2[nH]5)C=C4)C=C3)cc1
REMARK SMILES IDX 4 1 3 2 1 3 2 4 38 6 39 7 100 8 40 9 99 10 41 11 42 12 43 13
REMARK SMILES IDX 93 14 44 15 98 16 92 17 94 18 45 19 97 20 91 21 90 22 46 24
REMARK SMILES IDX 78 25 58 26 77 27 59 28 62 29 76 30 95 31 60 32 61 33 75 35
REMARK SMILES IDX 96 36 63 37 47 38 48 39 56 40 49 41 51 42 57 43 50 44 52 45
REMARK SMILES IDX 53 46 54 47 55 48 79 49 80 50 88 51 81 52 83 53 89 54 82 55
REMARK SMILES IDX 84 56 85 57 86 58 87 59 64 60 65 61 73 62 66 63 68 64 74 65
REMARK SMILES IDX 67 66 69 67 70 68 71 69 72 70 5 71 6 72 7 73 8 74 9 75 10 77
REMARK SMILES IDX 11 78 12 79 37 80 13 81 22 82 36 83 21 84 23 85 35 86 24 87
REMARK SMILES IDX 34 88 28 89 29 90 14 91 15 92 20 93 16 94 19 95 17 96 18 97
REMARK SMILES IDX 25 98 26 99 27 100 30 101 31 102 32 103 33 104
REMARK H PARENT 3 5 94 23 62 34 8 76
REMARK Flexibility Score: inf
ROOT
ATOM      1  C   UNL A   1      40.399  21.462  27.392  1.00  0.00     0.116 C 
ENDROOT
BRANCH   1   2
ATOM      2  N   UNL A   1      41.763  21.193  26.959  1.00  0.00    -0.352 N 
ATOM      3  O   UNL A   1      43.880  21.779  26.369  1.00  0.00    -0.269 OA
ATOM      4  C   UNL A   1      42.765  22.113  26.739  1.00  0.00     0.251 C 
ATOM      5  H   UNL A   1      41.995  20.248  26.806  1.00  0.00     0.163 HD
BRANCH   4   6
ATOM      6  C   UNL A   1      42.430  23.528  26.976  1.00  0.00     0.039 A 
ATOM      7  C   UNL A   1      42.348  24.393  25.881  1.00  0.00     0.014 A 
ATOM      8  C   UNL A   1      42.424  24.005  28.287  1.00  0.00     0.014 A 
ATOM      9  C   UNL A   1      42.386  25.764  26.101  1.00  0.00     0.010 A 
ATOM     10  C   UNL A   1      42.432  25.381  28.503  1.00  0.00     0.010 A 
ATOM     11  C   UNL A   1      42.458  26.259  27.410  1.00  0.00    -0.014 A 
BRANCH  11  12
ATOM     12  C   UNL A   1      42.589  27.710  27.597  1.00  0.00     0.031 A 
ATOM     13  C   UNL A   1      41.314  28.467  27.675  1.00  0.00     0.074 A 
ATOM     14  C   UNL A   1      43.688  28.255  28.159  1.00  0.00     0.049 A 
ATOM     15  N   UNL A   1      40.634  28.566  28.777  1.00  0.00    -0.248 NA
ATOM     16  C   UNL A   1      40.617  28.965  26.492  1.00  0.00     0.031 C 
ATOM     17  C   UNL A   1      44.628  27.526  29.023  1.00  0.00     0.029 A 
ATOM     18  N   UNL A   1      44.072  29.569  28.276  1.00  0.00    -0.354 N 
ATOM     19  C   UNL A   1      39.391  29.061  28.440  1.00  0.00     0.074 A 
ATOM     20  C   UNL A   1      39.437  29.329  27.017  1.00  0.00     0.031 C 
ATOM     21  C   UNL A   1      45.351  28.422  29.726  1.00  0.00     0.029 A 
ATOM     22  C   UNL A   1      45.051  29.765  29.243  1.00  0.00     0.049 A 
ATOM     23  H   UNL A   1      43.693  30.297  27.730  1.00  0.00     0.167 HD
ATOM     24  C   UNL A   1      38.379  29.192  29.336  1.00  0.00     0.034 A 
ATOM     25  C   UNL A   1      45.258  30.909  29.950  1.00  0.00     0.034 A 
ATOM     26  C   UNL A   1      38.668  28.765  30.672  1.00  0.00     0.049 A 
ATOM     27  C   UNL A   1      43.974  31.011  30.738  1.00  0.00     0.074 A 
ATOM     28  C   UNL A   1      38.554  27.589  31.384  1.00  0.00     0.029 A 
ATOM     29  N   UNL A   1      39.370  29.610  31.498  1.00  0.00    -0.354 N 
ATOM     30  N   UNL A   1      43.682  30.326  31.814  1.00  0.00    -0.248 NA
ATOM     31  C   UNL A   1      42.828  31.656  30.096  1.00  0.00     0.031 C 
ATOM     32  C   UNL A   1      39.564  27.648  32.396  1.00  0.00     0.029 A 
ATOM     33  C   UNL A   1      40.259  28.842  32.211  1.00  0.00     0.049 A 
ATOM     34  H   UNL A   1      39.256  30.586  31.567  1.00  0.00     0.167 HD
ATOM     35  C   UNL A   1      42.290  30.196  31.799  1.00  0.00     0.074 A 
ATOM     36  C   UNL A   1      41.827  31.062  30.733  1.00  0.00     0.031 C 
ATOM     37  C   UNL A   1      41.606  29.268  32.530  1.00  0.00     0.034 A 
BRANCH  24  38
ATOM     38  C   UNL A   1      37.095  29.835  28.993  1.00  0.00     0.023 A 
ATOM     39  C   UNL A   1      36.368  29.301  27.913  1.00  0.00     0.012 A 
ATOM     40  C   UNL A   1      36.651  31.007  29.626  1.00  0.00     0.148 A 
ATOM     41  C   UNL A   1      35.221  29.939  27.448  1.00  0.00     0.002 A 
ATOM     42  C   UNL A   1      35.503  31.638  29.157  1.00  0.00     0.091 A 
ATOM     43  F   UNL A   1      37.365  31.495  30.649  1.00  0.00    -0.205 F 
ATOM     44  C   UNL A   1      34.791  31.109  28.067  1.00  0.00     0.022 A 
BRANCH  42  45
ATOM     45  S   UNL A   1      34.855  33.149  29.883  1.00  0.00     0.127 S 
ATOM     46  O   UNL A   1      34.376  32.679  31.181  1.00  0.00    -0.237 OA
ATOM     47  O   UNL A   1      36.049  33.994  29.942  1.00  0.00    -0.237 OA
ATOM     48  O   UNL A   1      33.827  33.625  28.966  1.00  0.00    -0.744 OA
ENDBRANCH  42  45
ENDBRANCH  24  38
BRANCH  25  49
ATOM     49  C   UNL A   1      45.820  32.043  29.133  1.00  0.00     0.023 A 
ATOM     50  C   UNL A   1      47.064  32.586  29.545  1.00  0.00     0.012 A 
ATOM     51  C   UNL A   1      45.212  32.613  28.000  1.00  0.00     0.148 A 
ATOM     52  C   UNL A   1      47.727  33.565  28.803  1.00  0.00     0.002 A 
ATOM     53  C   UNL A   1      45.900  33.552  27.231  1.00  0.00     0.091 A 
ATOM     54  F   UNL A   1      43.975  32.228  27.664  1.00  0.00    -0.205 F 
ATOM     55  C   UNL A   1      47.156  34.029  27.628  1.00  0.00     0.022 A 
BRANCH  53  56
ATOM     56  S   UNL A   1      45.274  34.150  25.655  1.00  0.00     0.127 S 
ATOM     57  O   UNL A   1      46.423  34.881  25.122  1.00  0.00    -0.237 OA
ATOM     58  O   UNL A   1      44.970  32.894  24.971  1.00  0.00    -0.237 OA
ATOM     59  O   UNL A   1      44.121  34.979  25.978  1.00  0.00    -0.744 OA
ENDBRANCH  53  56
ENDBRANCH  25  49
BRANCH  37  60
ATOM     60  C   UNL A   1      42.385  28.536  33.577  1.00  0.00     0.023 A 
ATOM     61  C   UNL A   1      42.260  28.967  34.911  1.00  0.00     0.012 A 
ATOM     62  C   UNL A   1      43.163  27.394  33.291  1.00  0.00     0.148 A 
ATOM     63  C   UNL A   1      42.876  28.267  35.948  1.00  0.00     0.002 A 
ATOM     64  C   UNL A   1      43.759  26.689  34.332  1.00  0.00     0.091 A 
ATOM     65  F   UNL A   1      43.276  26.989  32.017  1.00  0.00    -0.205 F 
ATOM     66  C   UNL A   1      43.617  27.124  35.660  1.00  0.00     0.022 A 
BRANCH  64  67
ATOM     67  S   UNL A   1      44.708  25.184  34.069  1.00  0.00     0.127 S 
ATOM     68  O   UNL A   1      45.780  25.636  33.178  1.00  0.00    -0.237 OA
ATOM     69  O   UNL A   1      45.150  24.861  35.425  1.00  0.00    -0.237 OA
ATOM     70  O   UNL A   1      43.797  24.223  33.459  1.00  0.00    -0.744 OA
ENDBRANCH  64  67
ENDBRANCH  37  60
ENDBRANCH  11  12
ENDBRANCH   4   6
ENDBRANCH   1   2
BRANCH   1  71
ATOM     71  C   UNL A   1      39.522  22.053  26.291  1.00  0.00     0.023 C 
BRANCH  71  72
ATOM     72  C   UNL A   1      38.766  23.316  26.696  1.00  0.00     0.023 C 
BRANCH  72  73
ATOM     73  C   UNL A   1      37.486  23.585  25.911  1.00  0.00     0.116 C 
BRANCH  73  74
ATOM     74  N   UNL A   1      37.636  23.446  24.467  1.00  0.00    -0.351 N 
ATOM     75  C   UNL A   1      36.679  23.108  23.552  1.00  0.00     0.270 C 
ATOM     76  H   UNL A   1      38.536  23.616  24.107  1.00  0.00     0.163 HD
ATOM     77  O   UNL A   1      36.915  23.072  22.350  1.00  0.00    -0.268 OA
BRANCH  75  78
ATOM     78  C   UNL A   1      35.381  22.663  24.079  1.00  0.00     0.134 A 
ATOM     79  C   UNL A   1      35.240  21.337  24.205  1.00  0.00     0.063 A 
ATOM     80  N   UNL A   1      34.406  23.539  24.534  1.00  0.00    -0.207 N 
ATOM     81  C   UNL A   1      33.966  20.898  24.839  1.00  0.00     0.075 A 
ATOM     82  C   UNL A   1      33.278  23.042  25.218  1.00  0.00     0.166 A 
ATOM     83  N   UNL A   1      34.410  24.893  24.461  1.00  0.00    -0.145 NA
ATOM     84  N   UNL A   1      33.038  21.689  25.303  1.00  0.00    -0.228 NA
ATOM     85  C   UNL A   1      32.678  24.163  25.762  1.00  0.00     0.069 A 
ATOM     86  C   UNL A   1      33.416  25.270  25.250  1.00  0.00     0.184 A 
ATOM     87  C   UNL A   1      31.599  24.227  26.658  1.00  0.00    -0.028 A 
ATOM     88  N   UNL A   1      33.132  26.553  25.570  1.00  0.00    -0.222 NA
ATOM     89  C   UNL A   1      31.354  25.578  26.991  1.00  0.00     0.038 A 
ATOM     90  C   UNL A   1      32.096  26.671  26.455  1.00  0.00     0.147 A 
BRANCH  81  91
ATOM     91  C   UNL A   1      33.801  19.428  24.883  1.00  0.00     0.000 A 
ATOM     92  C   UNL A   1      34.843  18.617  24.424  1.00  0.00     0.012 A 
ATOM     93  C   UNL A   1      32.656  18.860  25.457  1.00  0.00     0.012 A 
ATOM     94  C   UNL A   1      34.753  17.232  24.573  1.00  0.00     0.021 A 
ATOM     95  C   UNL A   1      32.567  17.473  25.595  1.00  0.00     0.021 A 
ATOM     96  C   UNL A   1      33.619  16.666  25.160  1.00  0.00     0.041 A 
ATOM     97  Cl  UNL A   1      33.526  14.960  25.361  1.00  0.00    -0.084 Cl
ENDBRANCH  81  91
BRANCH  87  98
ATOM     98  C   UNL A   1      30.886  23.020  27.175  1.00  0.00     0.020 C 
ATOM     99  C   UNL A   1      29.391  22.991  27.395  1.00  0.00     0.009 C 
ATOM    100  C   UNL A   1      29.987  22.250  26.236  1.00  0.00     0.009 C 
ENDBRANCH  87  98
BRANCH  90 101
ATOM    101  C   UNL A   1      31.739  28.085  26.907  1.00  0.00     0.433 C 
ATOM    102  F   UNL A   1      32.764  28.718  27.546  1.00  0.00    -0.165 F 
ATOM    103  F   UNL A   1      31.369  28.901  25.878  1.00  0.00    -0.165 F 
ATOM    104  F   UNL A   1      30.690  28.122  27.785  1.00  0.00    -0.165 F 
ENDBRANCH  90 101
ENDBRANCH  75  78
ENDBRANCH  73  74
ENDBRANCH  72  73
ENDBRANCH  71  72
ENDBRANCH   1  71
TORSDOF 17
ENDMDL
MODEL 2
REMARK VINA RESULT:     -12.8      5.608     11.491
REMARK SMILES O=C(NCCCCNC(=O)c1cc(-c2ccc(Cl)cc2)nc2c3c(C4CC4)cc(C(F)(F)F)nc3nn12)c1ccc(-c2c3nc(c(-c4cccc(S(=O)(=O)[O-])c4F)c4ccc([nH]4)c(-c4cccc(S(=O)(=O)[O-])c4F)c4nc(c(-c5cccc(S(=O)(=O)[O-])c5F)c5ccc2[nH]5)C=C4)C=C3)cc1
REMARK SMILES IDX 4 1 3 2 1 3 2 4 38 6 39 7 100 8 40 9 99 10 41 11 42 12 43 13
REMARK SMILES IDX 93 14 44 15 98 16 92 17 94 18 45 19 97 20 91 21 90 22 46 24
REMARK SMILES IDX 78 25 58 26 77 27 59 28 62 29 76 30 95 31 60 32 61 33 75 35
REMARK SMILES IDX 96 36 63 37 47 38 48 39 56 40 49 41 51 42 57 43 50 44 52 45
REMARK SMILES IDX 53 46 54 47 55 48 79 49 80 50 88 51 81 52 83 53 89 54 82 55
REMARK SMILES IDX 84 56 85 57 86 58 87 59 64 60 65 61 73 62 66 63 68 64 74 65
REMARK SMILES IDX 67 66 69 67 70 68 71 69 72 70 5 71 6 72 7 73 8 74 9 75 10 77
REMARK SMILES IDX 11 78 12 79 37 80 13 81 22 82 36 83 21 84 23 85 35 86 24 87
REMARK SMILES IDX 34 88 28 89 29 90 14 91 15 92 20 93 16 94 19 95 17 96 18 97
REMARK SMILES IDX 25 98 26 99 27 100 30 101 31 102 32 103 33 104
REMARK H PARENT 3 5 94 23 62 34 8 76
REMARK Flexibility Score: inf
ROOT
ATOM      1  C   UNL A   1      41.887  25.862  35.486  1.00  0.00     0.116 C 
ENDROOT
BRANCH   1   2
ATOM      2  N   UNL A   1      42.602  24.780  36.148  1.00  0.00    -0.352 N 
ATOM      3  O   UNL A   1      44.286  23.266  36.365  1.00  0.00    -0.269 OA
ATOM      4  C   UNL A   1      43.770  24.176  35.734  1.00  0.00     0.251 C 
ATOM      5  H   UNL A   1      42.206  24.441  36.984  1.00  0.00     0.163 HD
BRANCH   4   6
ATOM      6  C   UNL A   1      44.374  24.683  34.490  1.00  0.00     0.039 A 
ATOM      7  C   UNL A   1      45.263  25.759  34.564  1.00  0.00     0.014 A 
ATOM      8  C   UNL A   1      43.879  24.226  33.269  1.00  0.00     0.014 A 
ATOM      9  C   UNL A   1      45.562  26.467  33.407  1.00  0.00     0.010 A 
ATOM     10  C   UNL A   1      44.205  24.922  32.107  1.00  0.00     0.010 A 
ATOM     11  C   UNL A   1      45.010  26.068  32.182  1.00  0.00    -0.014 A 
BRANCH  11  12
ATOM     12  C   UNL A   1      45.276  26.896  30.998  1.00  0.00     0.031 A 
ATOM     13  C   UNL A   1      45.375  26.163  29.710  1.00  0.00     0.074 A 
ATOM     14  C   UNL A   1      44.954  28.205  30.963  1.00  0.00     0.049 A 
ATOM     15  N   UNL A   1      44.326  25.830  29.021  1.00  0.00    -0.248 NA
ATOM     16  C   UNL A   1      46.622  25.572  29.230  1.00  0.00     0.031 C 
ATOM     17  C   UNL A   1      43.952  28.838  31.834  1.00  0.00     0.029 A 
ATOM     18  N   UNL A   1      45.257  29.173  30.037  1.00  0.00    -0.354 N 
ATOM     19  C   UNL A   1      44.741  24.926  28.067  1.00  0.00     0.074 A 
ATOM     20  C   UNL A   1      46.179  24.823  28.209  1.00  0.00     0.031 C 
ATOM     21  C   UNL A   1      43.586  30.014  31.284  1.00  0.00     0.029 A 
ATOM     22  C   UNL A   1      44.437  30.293  30.135  1.00  0.00     0.049 A 
ATOM     23  H   UNL A   1      45.979  29.084  29.373  1.00  0.00     0.167 HD
ATOM     24  C   UNL A   1      43.883  24.281  27.234  1.00  0.00     0.034 A 
ATOM     25  C   UNL A   1      44.119  31.141  29.118  1.00  0.00     0.034 A 
ATOM     26  C   UNL A   1      42.494  24.583  27.413  1.00  0.00     0.049 A 
ATOM     27  C   UNL A   1      43.343  30.228  28.199  1.00  0.00     0.074 A 
ATOM     28  C   UNL A   1      41.457  24.068  28.161  1.00  0.00     0.029 A 
ATOM     29  N   UNL A   1      41.994  25.740  26.865  1.00  0.00    -0.354 N 
ATOM     30  N   UNL A   1      42.099  29.857  28.362  1.00  0.00    -0.248 NA
ATOM     31  C   UNL A   1      44.099  29.419  27.241  1.00  0.00     0.031 C 
ATOM     32  C   UNL A   1      40.555  25.158  28.377  1.00  0.00     0.029 A 
ATOM     33  C   UNL A   1      41.122  26.282  27.779  1.00  0.00     0.049 A 
ATOM     34  H   UNL A   1      42.218  26.111  25.981  1.00  0.00     0.167 HD
ATOM     35  C   UNL A   1      42.013  28.592  27.774  1.00  0.00     0.074 A 
ATOM     36  C   UNL A   1      43.269  28.397  27.078  1.00  0.00     0.031 C 
ATOM     37  C   UNL A   1      41.007  27.705  28.025  1.00  0.00     0.034 A 
BRANCH  24  38
ATOM     38  C   UNL A   1      44.348  23.410  26.137  1.00  0.00     0.023 A 
ATOM     39  C   UNL A   1      45.000  24.023  25.051  1.00  0.00     0.012 A 
ATOM     40  C   UNL A   1      44.058  22.036  26.096  1.00  0.00     0.148 A 
ATOM     41  C   UNL A   1      45.341  23.283  23.922  1.00  0.00     0.002 A 
ATOM     42  C   UNL A   1      44.403  21.303  24.965  1.00  0.00     0.091 A 
ATOM     43  F   UNL A   1      43.433  21.480  27.142  1.00  0.00    -0.205 F 
ATOM     44  C   UNL A   1      45.039  21.925  23.877  1.00  0.00     0.022 A 
BRANCH  42  45
ATOM     45  S   UNL A   1      44.067  19.546  24.802  1.00  0.00     0.127 S 
ATOM     46  O   UNL A   1      42.633  19.486  25.080  1.00  0.00    -0.237 OA
ATOM     47  O   UNL A   1      44.428  19.295  23.405  1.00  0.00    -0.237 OA
ATOM     48  O   UNL A   1      44.926  18.882  25.773  1.00  0.00    -0.744 OA
ENDBRANCH  42  45
ENDBRANCH  24  38
BRANCH  25  49
ATOM     49  C   UNL A   1      45.264  32.002  28.656  1.00  0.00     0.023 A 
ATOM     50  C   UNL A   1      46.504  31.851  29.327  1.00  0.00     0.012 A 
ATOM     51  C   UNL A   1      45.206  32.949  27.617  1.00  0.00     0.148 A 
ATOM     52  C   UNL A   1      47.658  32.520  28.914  1.00  0.00     0.002 A 
ATOM     53  C   UNL A   1      46.370  33.576  27.170  1.00  0.00     0.091 A 
ATOM     54  F   UNL A   1      44.023  33.225  27.054  1.00  0.00    -0.205 F 
ATOM     55  C   UNL A   1      47.596  33.362  27.815  1.00  0.00     0.022 A 
BRANCH  53  56
ATOM     56  S   UNL A   1      46.401  34.622  25.708  1.00  0.00     0.127 S 
ATOM     57  O   UNL A   1      45.471  33.934  24.815  1.00  0.00    -0.237 OA
ATOM     58  O   UNL A   1      45.913  35.888  26.251  1.00  0.00    -0.237 OA
ATOM     59  O   UNL A   1      47.786  34.629  25.258  1.00  0.00    -0.744 OA
ENDBRANCH  53  56
ENDBRANCH  25  49
BRANCH  37  60
ATOM     60  C   UNL A   1      39.822  28.232  28.773  1.00  0.00     0.023 A 
ATOM     61  C   UNL A   1      38.735  28.719  28.024  1.00  0.00     0.012 A 
ATOM     62  C   UNL A   1      39.723  28.181  30.180  1.00  0.00     0.148 A 
ATOM     63  C   UNL A   1      37.560  29.129  28.654  1.00  0.00     0.002 A 
ATOM     64  C   UNL A   1      38.541  28.574  30.802  1.00  0.00     0.091 A 
ATOM     65  F   UNL A   1      40.763  27.714  30.886  1.00  0.00    -0.205 F 
ATOM     66  C   UNL A   1      37.460  29.048  30.040  1.00  0.00     0.022 A 
BRANCH  64  67
ATOM     67  S   UNL A   1      38.301  28.477  32.581  1.00  0.00     0.127 S 
ATOM     68  O   UNL A   1      38.376  27.036  32.834  1.00  0.00    -0.237 OA
ATOM     69  O   UNL A   1      39.445  29.236  33.085  1.00  0.00    -0.237 OA
ATOM     70  O   UNL A   1      36.992  29.059  32.853  1.00  0.00    -0.744 OA
ENDBRANCH  64  67
ENDBRANCH  37  60
ENDBRANCH  11  12
ENDBRANCH   4   6
ENDBRANCH   1   2
BRANCH   1  71
ATOM     71  C   UNL A   1      41.990  27.194  36.224  1.00  0.00     0.023 C 
BRANCH  71  72
ATOM     72  C   UNL A   1      42.771  28.271  35.476  1.00  0.00     0.023 C 
BRANCH  72  73
ATOM     73  C   UNL A   1      41.959  29.496  35.067  1.00  0.00     0.116 C 
BRANCH  73  74
ATOM     74  N   UNL A   1      41.733  30.446  36.150  1.00  0.00    -0.351 N 
ATOM     75  C   UNL A   1      41.268  31.728  36.058  1.00  0.00     0.270 C 
ATOM     76  H   UNL A   1      41.941  30.126  37.056  1.00  0.00     0.163 HD
ATOM     77  O   UNL A   1      41.070  32.418  37.051  1.00  0.00    -0.268 OA
BRANCH  75  78
ATOM     78  C   UNL A   1      41.134  32.293  34.708  1.00  0.00     0.134 A 
ATOM     79  C   UNL A   1      39.883  32.584  34.331  1.00  0.00     0.063 A 
ATOM     80  N   UNL A   1      42.223  32.624  33.913  1.00  0.00    -0.207 N 
ATOM     81  C   UNL A   1      39.765  33.256  33.007  1.00  0.00     0.075 A 
ATOM     82  C   UNL A   1      42.028  33.354  32.723  1.00  0.00     0.166 A 
ATOM     83  N   UNL A   1      43.533  32.380  34.161  1.00  0.00    -0.145 NA
ATOM     84  N   UNL A   1      40.762  33.607  32.244  1.00  0.00    -0.228 NA
ATOM     85  C   UNL A   1      43.298  33.746  32.342  1.00  0.00     0.069 A 
ATOM     86  C   UNL A   1      44.180  33.106  33.262  1.00  0.00     0.184 A 
ATOM     87  C   UNL A   1      43.668  34.616  31.305  1.00  0.00    -0.028 A 
ATOM     88  N   UNL A   1      45.523  33.259  33.218  1.00  0.00    -0.222 NA
ATOM     89  C   UNL A   1      45.072  34.773  31.312  1.00  0.00     0.038 A 
ATOM     90  C   UNL A   1      45.937  34.111  32.231  1.00  0.00     0.147 A 
BRANCH  81  91
ATOM     91  C   UNL A   1      38.366  33.483  32.580  1.00  0.00     0.000 A 
ATOM     92  C   UNL A   1      37.596  34.429  33.263  1.00  0.00     0.012 A 
ATOM     93  C   UNL A   1      37.853  32.825  31.455  1.00  0.00     0.012 A 
ATOM     94  C   UNL A   1      36.318  34.743  32.795  1.00  0.00     0.021 A 
ATOM     95  C   UNL A   1      36.571  33.136  30.996  1.00  0.00     0.021 A 
ATOM     96  C   UNL A   1      35.813  34.100  31.663  1.00  0.00     0.041 A 
ATOM     97  Cl  UNL A   1      34.247  34.509  31.079  1.00  0.00    -0.084 Cl
ENDBRANCH  81  91
BRANCH  87  98
ATOM     98  C   UNL A   1      42.685  35.274  30.392  1.00  0.00     0.020 C 
ATOM     99  C   UNL A   1      43.041  35.706  28.987  1.00  0.00     0.009 C 
ATOM    100  C   UNL A   1      42.173  34.502  29.198  1.00  0.00     0.009 C 
ENDBRANCH  87  98
BRANCH  90 101
ATOM    101  C   UNL A   1      47.438  34.377  32.142  1.00  0.00     0.433 C 
ATOM    102  F   UNL A   1      47.797  35.041  31.007  1.00  0.00    -0.165 F 
ATOM    103  F   UNL A   1      47.916  35.117  33.184  1.00  0.00    -0.165 F 
ATOM    104  F   UNL A   1      48.190  33.234  32.144  1.00  0.00    -0.165 F 
ENDBRANCH  90 101
ENDBRANCH  75  78
ENDBRANCH  73  74
ENDBRANCH  72  73
ENDBRANCH  71  72
ENDBRANCH   1  71
TORSDOF 17
ENDMDL
MODEL 3
REMARK VINA RESULT:     -12.8      7.981     14.007
REMARK SMILES O=C(NCCCCNC(=O)c1cc(-c2ccc(Cl)cc2)nc2c3c(C4CC4)cc(C(F)(F)F)nc3nn12)c1ccc(-c2c3nc(c(-c4cccc(S(=O)(=O)[O-])c4F)c4ccc([nH]4)c(-c4cccc(S(=O)(=O)[O-])c4F)c4nc(c(-c5cccc(S(=O)(=O)[O-])c5F)c5ccc2[nH]5)C=C4)C=C3)cc1
REMARK SMILES IDX 4 1 3 2 1 3 2 4 38 6 39 7 100 8 40 9 99 10 41 11 42 12 43 13
REMARK SMILES IDX 93 14 44 15 98 16 92 17 94 18 45 19 97 20 91 21 90 22 46 24
REMARK SMILES IDX 78 25 58 26 77 27 59 28 62 29 76 30 95 31 60 32 61 33 75 35
REMARK SMILES IDX 96 36 63 37 47 38 48 39 56 40 49 41 51 42 57 43 50 44 52 45
REMARK SMILES IDX 53 46 54 47 55 48 79 49 80 50 88 51 81 52 83 53 89 54 82 55
REMARK SMILES IDX 84 56 85 57 86 58 87 59 64 60 65 61 73 62 66 63 68 64 74 65
REMARK SMILES IDX 67 66 69 67 70 68 71 69 72 70 5 71 6 72 7 73 8 74 9 75 10 77
REMARK SMILES IDX 11 78 12 79 37 80 13 81 22 82 36 83 21 84 23 85 35 86 24 87
REMARK SMILES IDX 34 88 28 89 29 90 14 91 15 92 20 93 16 94 19 95 17 96 18 97
REMARK SMILES IDX 25 98 26 99 27 100 30 101 31 102 32 103 33 104
REMARK H PARENT 3 5 94 23 62 34 8 76
REMARK Flexibility Score: inf
ROOT
ATOM      1  C   UNL A   1      45.604  23.566  36.666  1.00  0.00     0.116 C 
ENDROOT
BRANCH   1   2
ATOM      2  N   UNL A   1      44.156  23.719  36.663  1.00  0.00    -0.352 N 
ATOM      3  O   UNL A   1      42.168  24.402  35.793  1.00  0.00    -0.269 OA
ATOM      4  C   UNL A   1      43.383  24.321  35.693  1.00  0.00     0.251 C 
ATOM      5  H   UNL A   1      43.676  23.354  37.441  1.00  0.00     0.163 HD
BRANCH   4   6
ATOM      6  C   UNL A   1      44.091  24.861  34.520  1.00  0.00     0.039 A 
ATOM      7  C   UNL A   1      44.701  26.115  34.621  1.00  0.00     0.014 A 
ATOM      8  C   UNL A   1      43.946  24.214  33.292  1.00  0.00     0.014 A 
ATOM      9  C   UNL A   1      45.057  26.787  33.458  1.00  0.00     0.010 A 
ATOM     10  C   UNL A   1      44.332  24.880  32.132  1.00  0.00     0.010 A 
ATOM     11  C   UNL A   1      44.846  26.182  32.211  1.00  0.00    -0.014 A 
BRANCH  11  12
ATOM     12  C   UNL A   1      45.151  26.960  31.003  1.00  0.00     0.031 A 
ATOM     13  C   UNL A   1      45.261  26.178  29.745  1.00  0.00     0.074 A 
ATOM     14  C   UNL A   1      44.852  28.273  30.912  1.00  0.00     0.049 A 
ATOM     15  N   UNL A   1      44.220  25.838  29.047  1.00  0.00    -0.248 NA
ATOM     16  C   UNL A   1      46.506  25.548  29.313  1.00  0.00     0.031 C 
ATOM     17  C   UNL A   1      43.846  28.956  31.738  1.00  0.00     0.029 A 
ATOM     18  N   UNL A   1      45.192  29.200  29.957  1.00  0.00    -0.354 N 
ATOM     19  C   UNL A   1      44.637  24.891  28.136  1.00  0.00     0.074 A 
ATOM     20  C   UNL A   1      46.070  24.768  28.311  1.00  0.00     0.031 C 
ATOM     21  C   UNL A   1      43.512  30.117  31.138  1.00  0.00     0.029 A 
ATOM     22  C   UNL A   1      44.391  30.337  29.996  1.00  0.00     0.049 A 
ATOM     23  H   UNL A   1      45.925  29.074  29.312  1.00  0.00     0.167 HD
ATOM     24  C   UNL A   1      43.784  24.231  27.310  1.00  0.00     0.034 A 
ATOM     25  C   UNL A   1      44.109  31.151  28.943  1.00  0.00     0.034 A 
ATOM     26  C   UNL A   1      42.398  24.564  27.450  1.00  0.00     0.049 A 
ATOM     27  C   UNL A   1      43.335  30.219  28.042  1.00  0.00     0.074 A 
ATOM     28  C   UNL A   1      41.337  24.096  28.195  1.00  0.00     0.029 A 
ATOM     29  N   UNL A   1      41.930  25.708  26.849  1.00  0.00    -0.354 N 
ATOM     30  N   UNL A   1      42.081  29.876  28.194  1.00  0.00    -0.248 NA
ATOM     31  C   UNL A   1      44.094  29.361  27.131  1.00  0.00     0.031 C 
ATOM     32  C   UNL A   1      40.451  25.209  28.352  1.00  0.00     0.029 A 
ATOM     33  C   UNL A   1      41.050  26.299  27.724  1.00  0.00     0.049 A 
ATOM     34  H   UNL A   1      42.178  26.042  25.957  1.00  0.00     0.167 HD
ATOM     35  C   UNL A   1      41.983  28.591  27.652  1.00  0.00     0.074 A 
ATOM     36  C   UNL A   1      43.249  28.349  26.989  1.00  0.00     0.031 C 
ATOM     37  C   UNL A   1      40.956  27.732  27.915  1.00  0.00     0.034 A 
BRANCH  24  38
ATOM     38  C   UNL A   1      44.254  23.311  26.256  1.00  0.00     0.023 A 
ATOM     39  C   UNL A   1      44.999  23.862  25.196  1.00  0.00     0.012 A 
ATOM     40  C   UNL A   1      43.887  21.956  26.225  1.00  0.00     0.148 A 
ATOM     41  C   UNL A   1      45.355  23.080  24.101  1.00  0.00     0.002 A 
ATOM     42  C   UNL A   1      44.248  21.180  25.127  1.00  0.00     0.091 A 
ATOM     43  F   UNL A   1      43.175  21.459  27.245  1.00  0.00    -0.205 F 
ATOM     44  C   UNL A   1      44.976  21.741  24.064  1.00  0.00     0.022 A 
BRANCH  42  45
ATOM     45  S   UNL A   1      43.817  19.442  24.978  1.00  0.00     0.127 S 
ATOM     46  O   UNL A   1      44.607  18.842  26.051  1.00  0.00    -0.237 OA
ATOM     47  O   UNL A   1      42.373  19.465  25.221  1.00  0.00    -0.237 OA
ATOM     48  O   UNL A   1      44.193  19.052  23.625  1.00  0.00    -0.744 OA
ENDBRANCH  42  45
ENDBRANCH  24  38
BRANCH  25  49
ATOM     49  C   UNL A   1      45.278  31.975  28.472  1.00  0.00     0.023 A 
ATOM     50  C   UNL A   1      46.556  31.645  28.991  1.00  0.00     0.012 A 
ATOM     51  C   UNL A   1      45.209  33.048  27.565  1.00  0.00     0.148 A 
ATOM     52  C   UNL A   1      47.722  32.270  28.545  1.00  0.00     0.002 A 
ATOM     53  C   UNL A   1      46.378  33.635  27.080  1.00  0.00     0.091 A 
ATOM     54  F   UNL A   1      44.009  33.483  27.163  1.00  0.00    -0.205 F 
ATOM     55  C   UNL A   1      47.635  33.248  27.566  1.00  0.00     0.022 A 
BRANCH  53  56
ATOM     56  S   UNL A   1      46.368  34.853  25.757  1.00  0.00     0.127 S 
ATOM     57  O   UNL A   1      45.548  34.199  24.740  1.00  0.00    -0.237 OA
ATOM     58  O   UNL A   1      45.735  35.992  26.421  1.00  0.00    -0.237 OA
ATOM     59  O   UNL A   1      47.763  35.044  25.386  1.00  0.00    -0.744 OA
ENDBRANCH  53  56
ENDBRANCH  25  49
BRANCH  37  60
ATOM     60  C   UNL A   1      39.767  28.307  28.619  1.00  0.00     0.023 A 
ATOM     61  C   UNL A   1      38.711  28.802  27.830  1.00  0.00     0.012 A 
ATOM     62  C   UNL A   1      39.631  28.296  30.022  1.00  0.00     0.148 A 
ATOM     63  C   UNL A   1      37.532  29.258  28.418  1.00  0.00     0.002 A 
ATOM     64  C   UNL A   1      38.444  28.733  30.604  1.00  0.00     0.091 A 
ATOM     65  F   UNL A   1      40.640  27.821  30.768  1.00  0.00    -0.205 F 
ATOM     66  C   UNL A   1      37.395  29.215  29.803  1.00  0.00     0.022 A 
BRANCH  64  67
ATOM     67  S   UNL A   1      38.156  28.688  32.378  1.00  0.00     0.127 S 
ATOM     68  O   UNL A   1      38.266  27.260  32.682  1.00  0.00    -0.237 OA
ATOM     69  O   UNL A   1      39.262  29.498  32.887  1.00  0.00    -0.237 OA
ATOM     70  O   UNL A   1      36.824  29.239  32.594  1.00  0.00    -0.744 OA
ENDBRANCH  64  67
ENDBRANCH  37  60
ENDBRANCH  11  12
ENDBRANCH   4   6
ENDBRANCH   1   2
BRANCH   1  71
ATOM     71  C   UNL A   1      46.234  23.810  38.034  1.00  0.00     0.023 C 
BRANCH  71  72
ATOM     72  C   UNL A   1      45.656  22.953  39.158  1.00  0.00     0.023 C 
BRANCH  72  73
ATOM     73  C   UNL A   1      46.186  21.523  39.221  1.00  0.00     0.116 C 
BRANCH  73  74
ATOM     74  N   UNL A   1      46.169  20.828  37.939  1.00  0.00    -0.351 N 
ATOM     75  C   UNL A   1      46.414  19.505  37.699  1.00  0.00     0.270 C 
ATOM     76  H   UNL A   1      45.956  21.378  37.152  1.00  0.00     0.163 HD
ATOM     77  O   UNL A   1      46.320  19.022  36.576  1.00  0.00    -0.268 OA
BRANCH  75  78
ATOM     78  C   UNL A   1      46.922  18.707  38.823  1.00  0.00     0.134 A 
ATOM     79  C   UNL A   1      48.152  19.029  39.244  1.00  0.00     0.063 A 
ATOM     80  N   UNL A   1      46.154  17.765  39.493  1.00  0.00    -0.207 N 
ATOM     81  C   UNL A   1      48.618  18.291  40.450  1.00  0.00     0.075 A 
ATOM     82  C   UNL A   1      46.631  17.190  40.688  1.00  0.00     0.166 A 
ATOM     83  N   UNL A   1      44.909  17.334  39.174  1.00  0.00    -0.145 NA
ATOM     84  N   UNL A   1      47.918  17.420  41.123  1.00  0.00    -0.228 NA
ATOM     85  C   UNL A   1      45.536  16.537  41.223  1.00  0.00     0.069 A 
ATOM     86  C   UNL A   1      44.512  16.654  40.238  1.00  0.00     0.184 A 
ATOM     87  C   UNL A   1      45.416  15.918  42.477  1.00  0.00    -0.028 A 
ATOM     88  N   UNL A   1      43.270  16.143  40.406  1.00  0.00    -0.222 NA
ATOM     89  C   UNL A   1      44.100  15.426  42.626  1.00  0.00     0.038 A 
ATOM     90  C   UNL A   1      43.095  15.540  41.621  1.00  0.00     0.147 A 
BRANCH  81  91
ATOM     91  C   UNL A   1      50.011  18.604  40.837  1.00  0.00     0.000 A 
ATOM     92  C   UNL A   1      50.249  19.689  41.685  1.00  0.00     0.012 A 
ATOM     93  C   UNL A   1      51.063  17.774  40.430  1.00  0.00     0.012 A 
ATOM     94  C   UNL A   1      51.543  19.923  42.157  1.00  0.00     0.021 A 
ATOM     95  C   UNL A   1      52.357  18.017  40.898  1.00  0.00     0.021 A 
ATOM     96  C   UNL A   1      52.589  19.085  41.766  1.00  0.00     0.041 A 
ATOM     97  Cl  UNL A   1      54.176  19.365  42.370  1.00  0.00    -0.084 Cl
ENDBRANCH  81  91
BRANCH  87  98
ATOM     98  C   UNL A   1      46.528  15.855  43.474  1.00  0.00     0.020 C 
ATOM     99  C   UNL A   1      46.358  16.292  44.911  1.00  0.00     0.009 C 
ATOM    100  C   UNL A   1      46.451  14.832  44.583  1.00  0.00     0.009 C 
ENDBRANCH  87  98
BRANCH  90 101
ATOM    101  C   UNL A   1      41.706  14.977  41.912  1.00  0.00     0.433 C 
ATOM    102  F   UNL A   1      40.951  14.807  40.790  1.00  0.00    -0.165 F 
ATOM    103  F   UNL A   1      41.738  13.764  42.537  1.00  0.00    -0.165 F 
ATOM    104  F   UNL A   1      40.960  15.778  42.731  1.00  0.00    -0.165 F 
ENDBRANCH  90 101
ENDBRANCH  75  78
ENDBRANCH  73  74
ENDBRANCH  72  73
ENDBRANCH  71  72
ENDBRANCH   1  71
TORSDOF 17
ENDMDL
