MODEL 1
REMARK VINA RESULT:     -12.4      0.000      0.000
REMARK SMILES COc1cc([C@H]2[NH2+]CCC3=c4ccccc4=N[C@H]32)ccc1OCC(=O)NCCCCNC(=O)c1ccc(-c2c3nc(c(-c4cccc(S(=O)(=O)[O-])c4F)c4ccc([nH]4)c(-c4cccc(S(=O)(=O)[O-])c4F)c4nc(c(-c5cccc(S(=O)(=O)[O-])c5F)c5ccc2[nH]5)C=C4)C=C3)cc1
REMARK SMILES IDX 28 1 27 2 26 3 24 4 25 5 23 7 22 8 21 9 3 10 4 11 5 12 20 13
REMARK SMILES IDX 19 14 2 15 1 16 6 17 7 18 18 19 8 20 10 23 17 24 9 25 11 26
REMARK SMILES IDX 16 27 12 28 15 29 13 30 14 31 29 32 30 33 31 34 32 35 33 37
REMARK SMILES IDX 34 38 35 39 96 40 36 41 95 42 37 43 38 44 39 45 89 46 40 47
REMARK SMILES IDX 94 48 88 49 90 50 41 51 93 52 87 53 86 54 42 56 74 57 54 58
REMARK SMILES IDX 73 59 55 60 58 61 72 62 91 63 56 64 57 65 71 67 92 68 59 69
REMARK SMILES IDX 43 70 44 71 52 72 45 73 47 74 53 75 46 76 48 77 49 78 50 79
REMARK SMILES IDX 51 80 75 81 76 82 84 83 77 84 79 85 85 86 78 87 80 88 81 89
REMARK SMILES IDX 82 90 83 91 60 92 61 93 69 94 62 95 64 96 70 97 63 98 65 99
REMARK SMILES IDX 66 100 67 101 68 102
REMARK H PARENT 26 6 7 21 7 22 31 36 90 55 58 66
REMARK Flexibility Score: inf
ROOT
ATOM      1  C   UNL A   1      33.010  29.274  24.670  1.00  0.00     0.023 C 
ENDROOT
BRANCH   1   2
ATOM      2  C   UNL A   1      31.498  29.487  24.728  1.00  0.00     0.116 C 
BRANCH   2   3
ATOM      3  N   UNL A   1      30.930  29.889  23.457  1.00  0.00    -0.353 N 
ATOM      4  C   UNL A   1      30.308  29.130  22.511  1.00  0.00     0.257 C 
ATOM      5  O   UNL A   1      29.690  29.721  21.621  1.00  0.00    -0.271 OA
ATOM      6  H   UNL A   1      31.004  30.848  23.247  1.00  0.00     0.163 HD
BRANCH   4   7
ATOM      7  C   UNL A   1      30.300  27.598  22.602  1.00  0.00     0.329 C 
BRANCH   7   8
ATOM      8  O   UNL A   1      31.505  26.878  22.446  1.00  0.00    -0.480 OA
BRANCH   8   9
ATOM      9  C   UNL A   1      31.818  25.881  23.324  1.00  0.00     0.161 A 
ATOM     10  C   UNL A   1      32.692  24.808  23.163  1.00  0.00     0.161 A 
ATOM     11  C   UNL A   1      32.788  23.818  24.166  1.00  0.00     0.060 A 
ATOM     12  C   UNL A   1      32.045  23.901  25.366  1.00  0.00     0.016 A 
ATOM     13  C   UNL A   1      31.092  25.972  24.508  1.00  0.00     0.051 A 
ATOM     14  C   UNL A   1      31.239  25.029  25.524  1.00  0.00     0.014 A 
BRANCH  10  15
ATOM     15  O   UNL A   1      33.348  24.618  21.976  1.00  0.00    -0.493 OA
ATOM     16  C   UNL A   1      33.264  23.265  21.525  1.00  0.00     0.278 C 
ENDBRANCH  10  15
BRANCH  12  17
ATOM     17  C   UNL A   1      32.122  22.764  26.400  1.00  0.00     0.243 C 
ATOM     18  N   UNL A   1      31.289  21.601  25.978  1.00  0.00    -0.338 N 
ATOM     19  C   UNL A   1      33.518  22.242  26.926  1.00  0.00     0.196 C 
ATOM     20  C   UNL A   1      31.953  20.763  24.963  1.00  0.00     0.265 C 
ATOM     21  H   UNL A   1      30.413  21.952  25.589  1.00  0.00     0.346 HD
ATOM     22  H   UNL A   1      31.130  21.020  26.800  1.00  0.00     0.346 HD
ATOM     23  C   UNL A   1      34.164  21.307  25.944  1.00  0.00    -0.025 C 
ATOM     24  N   UNL A   1      34.533  23.310  27.179  1.00  0.00    -0.270 NA
ATOM     25  C   UNL A   1      33.314  20.204  25.417  1.00  0.00     0.095 C 
ATOM     26  C   UNL A   1      35.377  21.727  25.605  1.00  0.00     0.001 A 
ATOM     27  C   UNL A   1      35.525  22.953  26.416  1.00  0.00     0.066 A 
ATOM     28  C   UNL A   1      36.339  21.343  24.627  1.00  0.00     0.010 A 
ATOM     29  C   UNL A   1      36.774  23.720  26.207  1.00  0.00     0.028 A 
ATOM     30  C   UNL A   1      37.418  22.124  24.449  1.00  0.00     0.001 A 
ATOM     31  C   UNL A   1      37.635  23.314  25.259  1.00  0.00     0.002 A 
ENDBRANCH  12  17
ENDBRANCH   8   9
ENDBRANCH   7   8
ENDBRANCH   4   7
ENDBRANCH   2   3
ENDBRANCH   1   2
BRANCH   1  32
ATOM     32  C   UNL A   1      33.626  28.501  25.838  1.00  0.00     0.023 C 
BRANCH  32  33
ATOM     33  C   UNL A   1      33.261  28.992  27.232  1.00  0.00     0.116 C 
BRANCH  33  34
ATOM     34  N   UNL A   1      33.431  30.426  27.400  1.00  0.00    -0.352 N 
ATOM     35  C   UNL A   1      34.486  31.125  27.944  1.00  0.00     0.251 C 
ATOM     36  H   UNL A   1      32.681  30.978  27.079  1.00  0.00     0.163 HD
ATOM     37  O   UNL A   1      34.401  32.335  28.095  1.00  0.00    -0.269 OA
BRANCH  35  38
ATOM     38  C   UNL A   1      35.704  30.402  28.378  1.00  0.00     0.039 A 
ATOM     39  C   UNL A   1      36.806  30.373  27.519  1.00  0.00     0.014 A 
ATOM     40  C   UNL A   1      35.770  29.773  29.624  1.00  0.00     0.014 A 
ATOM     41  C   UNL A   1      37.998  29.777  27.941  1.00  0.00     0.010 A 
ATOM     42  C   UNL A   1      36.980  29.246  30.069  1.00  0.00     0.010 A 
ATOM     43  C   UNL A   1      38.108  29.243  29.234  1.00  0.00    -0.014 A 
BRANCH  43  44
ATOM     44  C   UNL A   1      39.397  28.699  29.739  1.00  0.00     0.031 A 
ATOM     45  C   UNL A   1      40.148  29.413  30.832  1.00  0.00     0.074 A 
ATOM     46  C   UNL A   1      39.941  27.615  29.148  1.00  0.00     0.049 A 
ATOM     47  N   UNL A   1      41.319  29.134  31.344  1.00  0.00    -0.248 NA
ATOM     48  C   UNL A   1      39.515  30.613  31.407  1.00  0.00     0.031 C 
ATOM     49  C   UNL A   1      39.356  26.880  28.023  1.00  0.00     0.029 A 
ATOM     50  N   UNL A   1      41.128  26.965  29.383  1.00  0.00    -0.354 N 
ATOM     51  C   UNL A   1      41.583  30.143  32.263  1.00  0.00     0.074 A 
ATOM     52  C   UNL A   1      40.459  31.053  32.228  1.00  0.00     0.031 C 
ATOM     53  C   UNL A   1      40.187  25.889  27.662  1.00  0.00     0.029 A 
ATOM     54  C   UNL A   1      41.379  25.935  28.504  1.00  0.00     0.049 A 
ATOM     55  H   UNL A   1      41.742  27.211  30.112  1.00  0.00     0.167 HD
ATOM     56  C   UNL A   1      42.654  30.288  33.078  1.00  0.00     0.034 A 
ATOM     57  C   UNL A   1      42.454  25.132  28.374  1.00  0.00     0.034 A 
ATOM     58  C   UNL A   1      43.744  29.352  33.153  1.00  0.00     0.049 A 
ATOM     59  C   UNL A   1      43.605  25.288  29.333  1.00  0.00     0.074 A 
ATOM     60  C   UNL A   1      44.815  29.356  34.029  1.00  0.00     0.029 A 
ATOM     61  N   UNL A   1      43.911  28.261  32.319  1.00  0.00    -0.354 N 
ATOM     62  N   UNL A   1      43.750  26.140  30.317  1.00  0.00    -0.248 NA
ATOM     63  C   UNL A   1      44.727  24.346  29.188  1.00  0.00     0.031 C 
ATOM     64  C   UNL A   1      45.649  28.282  33.703  1.00  0.00     0.029 A 
ATOM     65  C   UNL A   1      45.076  27.590  32.649  1.00  0.00     0.049 A 
ATOM     66  H   UNL A   1      43.292  27.999  31.599  1.00  0.00     0.167 HD
ATOM     67  C   UNL A   1      44.952  25.813  30.933  1.00  0.00     0.074 A 
ATOM     68  C   UNL A   1      45.488  24.670  30.224  1.00  0.00     0.031 C 
ATOM     69  C   UNL A   1      45.567  26.415  31.979  1.00  0.00     0.034 A 
BRANCH  56  70
ATOM     70  C   UNL A   1      42.692  31.477  34.001  1.00  0.00     0.023 A 
ATOM     71  C   UNL A   1      43.171  32.714  33.527  1.00  0.00     0.012 A 
ATOM     72  C   UNL A   1      42.150  31.394  35.299  1.00  0.00     0.148 A 
ATOM     73  C   UNL A   1      43.129  33.848  34.337  1.00  0.00     0.002 A 
ATOM     74  C   UNL A   1      42.069  32.538  36.084  1.00  0.00     0.091 A 
ATOM     75  F   UNL A   1      41.715  30.203  35.736  1.00  0.00    -0.205 F 
ATOM     76  C   UNL A   1      42.566  33.763  35.609  1.00  0.00     0.022 A 
BRANCH  74  77
ATOM     77  S   UNL A   1      41.286  32.555  37.700  1.00  0.00     0.127 S 
ATOM     78  O   UNL A   1      41.374  33.971  38.055  1.00  0.00    -0.237 OA
ATOM     79  O   UNL A   1      39.936  32.086  37.391  1.00  0.00    -0.237 OA
ATOM     80  O   UNL A   1      42.068  31.658  38.538  1.00  0.00    -0.744 OA
ENDBRANCH  74  77
ENDBRANCH  56  70
BRANCH  57  81
ATOM     81  C   UNL A   1      42.487  24.078  27.318  1.00  0.00     0.023 A 
ATOM     82  C   UNL A   1      43.199  24.310  26.125  1.00  0.00     0.012 A 
ATOM     83  C   UNL A   1      41.812  22.854  27.486  1.00  0.00     0.148 A 
ATOM     84  C   UNL A   1      43.197  23.363  25.099  1.00  0.00     0.002 A 
ATOM     85  C   UNL A   1      41.864  21.890  26.485  1.00  0.00     0.091 A 
ATOM     86  F   UNL A   1      41.127  22.655  28.621  1.00  0.00    -0.205 F 
ATOM     87  C   UNL A   1      42.537  22.151  25.282  1.00  0.00     0.022 A 
BRANCH  85  88
ATOM     88  S   UNL A   1      41.159  20.252  26.700  1.00  0.00     0.127 S 
ATOM     89  O   UNL A   1      39.881  20.383  26.008  1.00  0.00    -0.237 OA
ATOM     90  O   UNL A   1      42.144  19.405  26.024  1.00  0.00    -0.237 OA
ATOM     91  O   UNL A   1      41.088  20.046  28.140  1.00  0.00    -0.744 OA
ENDBRANCH  85  88
ENDBRANCH  57  81
BRANCH  69  92
ATOM     92  C   UNL A   1      46.864  25.827  32.469  1.00  0.00     0.023 A 
ATOM     93  C   UNL A   1      46.874  24.978  33.593  1.00  0.00     0.012 A 
ATOM     94  C   UNL A   1      48.061  26.052  31.761  1.00  0.00     0.148 A 
ATOM     95  C   UNL A   1      48.061  24.386  34.022  1.00  0.00     0.002 A 
ATOM     96  C   UNL A   1      49.229  25.418  32.163  1.00  0.00     0.091 A 
ATOM     97  F   UNL A   1      48.034  26.877  30.703  1.00  0.00    -0.205 F 
ATOM     98  C   UNL A   1      49.235  24.595  33.301  1.00  0.00     0.022 A 
BRANCH  96  99
ATOM     99  S   UNL A   1      50.763  25.547  31.237  1.00  0.00     0.127 S 
ATOM    100  O   UNL A   1      51.085  26.966  31.390  1.00  0.00    -0.237 OA
ATOM    101  O   UNL A   1      51.645  24.639  31.971  1.00  0.00    -0.237 OA
ATOM    102  O   UNL A   1      50.451  25.122  29.879  1.00  0.00    -0.744 OA
ENDBRANCH  96  99
ENDBRANCH  69  92
ENDBRANCH  43  44
ENDBRANCH  35  38
ENDBRANCH  33  34
ENDBRANCH  32  33
ENDBRANCH   1  32
TORSDOF 18
ENDMDL
MODEL 2
REMARK VINA RESULT:     -12.2      1.562      2.120
REMARK SMILES COc1cc([C@H]2[NH2+]CCC3=c4ccccc4=N[C@H]32)ccc1OCC(=O)NCCCCNC(=O)c1ccc(-c2c3nc(c(-c4cccc(S(=O)(=O)[O-])c4F)c4ccc([nH]4)c(-c4cccc(S(=O)(=O)[O-])c4F)c4nc(c(-c5cccc(S(=O)(=O)[O-])c5F)c5ccc2[nH]5)C=C4)C=C3)cc1
REMARK SMILES IDX 28 1 27 2 26 3 24 4 25 5 23 7 22 8 21 9 3 10 4 11 5 12 20 13
REMARK SMILES IDX 19 14 2 15 1 16 6 17 7 18 18 19 8 20 10 23 17 24 9 25 11 26
REMARK SMILES IDX 16 27 12 28 15 29 13 30 14 31 29 32 30 33 31 34 32 35 33 37
REMARK SMILES IDX 34 38 35 39 96 40 36 41 95 42 37 43 38 44 39 45 89 46 40 47
REMARK SMILES IDX 94 48 88 49 90 50 41 51 93 52 87 53 86 54 42 56 74 57 54 58
REMARK SMILES IDX 73 59 55 60 58 61 72 62 91 63 56 64 57 65 71 67 92 68 59 69
REMARK SMILES IDX 43 70 44 71 52 72 45 73 47 74 53 75 46 76 48 77 49 78 50 79
REMARK SMILES IDX 51 80 75 81 76 82 84 83 77 84 79 85 85 86 78 87 80 88 81 89
REMARK SMILES IDX 82 90 83 91 60 92 61 93 69 94 62 95 64 96 70 97 63 98 65 99
REMARK SMILES IDX 66 100 67 101 68 102
REMARK H PARENT 26 6 7 21 7 22 31 36 90 55 58 66
REMARK Flexibility Score: inf
ROOT
ATOM      1  C   UNL A   1      33.654  26.473  26.062  1.00  0.00     0.023 C 
ENDROOT
BRANCH   1   2
ATOM      2  C   UNL A   1      33.782  26.445  24.540  1.00  0.00     0.116 C 
BRANCH   2   3
ATOM      3  N   UNL A   1      33.204  27.608  23.899  1.00  0.00    -0.353 N 
ATOM      4  C   UNL A   1      32.701  27.739  22.638  1.00  0.00     0.257 C 
ATOM      5  O   UNL A   1      32.040  28.752  22.389  1.00  0.00    -0.271 OA
ATOM      6  H   UNL A   1      33.169  28.421  24.453  1.00  0.00     0.163 HD
BRANCH   4   7
ATOM      7  C   UNL A   1      32.872  26.625  21.596  1.00  0.00     0.329 C 
BRANCH   7   8
ATOM      8  O   UNL A   1      31.895  25.612  21.484  1.00  0.00    -0.480 OA
BRANCH   8   9
ATOM      9  C   UNL A   1      31.798  24.654  22.451  1.00  0.00     0.161 A 
ATOM     10  C   UNL A   1      30.880  24.545  23.495  1.00  0.00     0.161 A 
ATOM     11  C   UNL A   1      31.025  23.524  24.460  1.00  0.00     0.060 A 
ATOM     12  C   UNL A   1      32.064  22.568  24.381  1.00  0.00     0.016 A 
ATOM     13  C   UNL A   1      32.815  23.708  22.364  1.00  0.00     0.051 A 
ATOM     14  C   UNL A   1      32.916  22.662  23.280  1.00  0.00     0.014 A 
BRANCH  10  15
ATOM     15  O   UNL A   1      29.926  25.509  23.683  1.00  0.00    -0.493 OA
ATOM     16  C   UNL A   1      29.912  25.996  25.027  1.00  0.00     0.278 C 
ENDBRANCH  10  15
BRANCH  12  17
ATOM     17  C   UNL A   1      32.231  21.517  25.492  1.00  0.00     0.243 C 
ATOM     18  N   UNL A   1      31.879  20.155  24.997  1.00  0.00    -0.338 N 
ATOM     19  C   UNL A   1      33.568  21.437  26.334  1.00  0.00     0.196 C 
ATOM     20  C   UNL A   1      32.962  19.537  24.208  1.00  0.00     0.265 C 
ATOM     21  H   UNL A   1      31.048  20.227  24.409  1.00  0.00     0.346 HD
ATOM     22  H   UNL A   1      31.715  19.563  25.811  1.00  0.00     0.346 HD
ATOM     23  C   UNL A   1      34.652  20.721  25.581  1.00  0.00    -0.025 C 
ATOM     24  N   UNL A   1      34.154  22.760  26.709  1.00  0.00    -0.270 NA
ATOM     25  C   UNL A   1      34.290  19.410  24.976  1.00  0.00     0.095 C 
ATOM     26  C   UNL A   1      35.739  21.476  25.470  1.00  0.00     0.001 A 
ATOM     27  C   UNL A   1      35.349  22.702  26.197  1.00  0.00     0.066 A 
ATOM     28  C   UNL A   1      36.962  21.381  24.744  1.00  0.00     0.010 A 
ATOM     29  C   UNL A   1      36.342  23.800  26.194  1.00  0.00     0.028 A 
ATOM     30  C   UNL A   1      37.784  22.444  24.734  1.00  0.00     0.001 A 
ATOM     31  C   UNL A   1      37.470  23.654  25.478  1.00  0.00     0.002 A 
ENDBRANCH  12  17
ENDBRANCH   8   9
ENDBRANCH   7   8
ENDBRANCH   4   7
ENDBRANCH   2   3
ENDBRANCH   1   2
BRANCH   1  32
ATOM     32  C   UNL A   1      33.368  27.839  26.688  1.00  0.00     0.023 C 
BRANCH  32  33
ATOM     33  C   UNL A   1      34.444  28.900  26.502  1.00  0.00     0.116 C 
BRANCH  33  34
ATOM     34  N   UNL A   1      34.056  30.207  27.007  1.00  0.00    -0.352 N 
ATOM     35  C   UNL A   1      34.673  30.999  27.949  1.00  0.00     0.251 C 
ATOM     36  H   UNL A   1      33.232  30.580  26.618  1.00  0.00     0.163 HD
ATOM     37  O   UNL A   1      34.136  32.032  28.322  1.00  0.00    -0.269 OA
BRANCH  35  38
ATOM     38  C   UNL A   1      35.967  30.578  28.535  1.00  0.00     0.039 A 
ATOM     39  C   UNL A   1      35.953  29.725  29.642  1.00  0.00     0.014 A 
ATOM     40  C   UNL A   1      37.182  31.001  27.992  1.00  0.00     0.014 A 
ATOM     41  C   UNL A   1      37.158  29.239  30.158  1.00  0.00     0.010 A 
ATOM     42  C   UNL A   1      38.376  30.458  28.461  1.00  0.00     0.010 A 
ATOM     43  C   UNL A   1      38.378  29.570  29.549  1.00  0.00    -0.014 A 
BRANCH  43  44
ATOM     44  C   UNL A   1      39.662  28.982  30.016  1.00  0.00     0.031 A 
ATOM     45  C   UNL A   1      40.439  29.637  31.127  1.00  0.00     0.074 A 
ATOM     46  C   UNL A   1      40.178  27.914  29.374  1.00  0.00     0.049 A 
ATOM     47  N   UNL A   1      41.610  29.316  31.614  1.00  0.00    -0.248 NA
ATOM     48  C   UNL A   1      39.836  30.824  31.758  1.00  0.00     0.031 C 
ATOM     49  C   UNL A   1      39.566  27.236  28.228  1.00  0.00     0.029 A 
ATOM     50  N   UNL A   1      41.356  27.232  29.569  1.00  0.00    -0.354 N 
ATOM     51  C   UNL A   1      41.904  30.281  32.570  1.00  0.00     0.074 A 
ATOM     52  C   UNL A   1      40.797  31.212  32.585  1.00  0.00     0.031 C 
ATOM     53  C   UNL A   1      40.375  26.245  27.817  1.00  0.00     0.029 A 
ATOM     54  C   UNL A   1      41.576  26.235  28.645  1.00  0.00     0.049 A 
ATOM     55  H   UNL A   1      41.983  27.437  30.300  1.00  0.00     0.167 HD
ATOM     56  C   UNL A   1      42.987  30.372  33.376  1.00  0.00     0.034 A 
ATOM     57  C   UNL A   1      42.634  25.417  28.469  1.00  0.00     0.034 A 
ATOM     58  C   UNL A   1      44.059  29.415  33.400  1.00  0.00     0.049 A 
ATOM     59  C   UNL A   1      43.799  25.513  29.419  1.00  0.00     0.074 A 
ATOM     60  C   UNL A   1      45.140  29.362  34.262  1.00  0.00     0.029 A 
ATOM     61  N   UNL A   1      44.196  28.355  32.520  1.00  0.00    -0.354 N 
ATOM     62  N   UNL A   1      43.971  26.321  30.436  1.00  0.00    -0.248 NA
ATOM     63  C   UNL A   1      44.901  24.557  29.223  1.00  0.00     0.031 C 
ATOM     64  C   UNL A   1      45.950  28.287  33.883  1.00  0.00     0.029 A 
ATOM     65  C   UNL A   1      45.352  27.650  32.808  1.00  0.00     0.049 A 
ATOM     66  H   UNL A   1      43.564  28.135  31.798  1.00  0.00     0.167 HD
ATOM     67  C   UNL A   1      45.174  25.947  31.023  1.00  0.00     0.074 A 
ATOM     68  C   UNL A   1      45.680  24.824  30.262  1.00  0.00     0.031 C 
ATOM     69  C   UNL A   1      45.812  26.494  32.086  1.00  0.00     0.034 A 
BRANCH  56  70
ATOM     70  C   UNL A   1      43.059  31.522  34.347  1.00  0.00     0.023 A 
ATOM     71  C   UNL A   1      43.664  32.732  33.952  1.00  0.00     0.012 A 
ATOM     72  C   UNL A   1      42.427  31.439  35.604  1.00  0.00     0.148 A 
ATOM     73  C   UNL A   1      43.658  33.837  34.803  1.00  0.00     0.002 A 
ATOM     74  C   UNL A   1      42.386  32.557  36.427  1.00  0.00     0.091 A 
ATOM     75  F   UNL A   1      41.872  30.273  35.964  1.00  0.00    -0.205 F 
ATOM     76  C   UNL A   1      43.009  33.754  36.032  1.00  0.00     0.022 A 
BRANCH  74  77
ATOM     77  S   UNL A   1      41.503  32.583  37.990  1.00  0.00     0.127 S 
ATOM     78  O   UNL A   1      42.238  31.579  38.760  1.00  0.00    -0.237 OA
ATOM     79  O   UNL A   1      41.706  33.961  38.434  1.00  0.00    -0.237 OA
ATOM     80  O   UNL A   1      40.123  32.236  37.681  1.00  0.00    -0.744 OA
ENDBRANCH  74  77
ENDBRANCH  56  70
BRANCH  57  81
ATOM     81  C   UNL A   1      42.635  24.408  27.371  1.00  0.00     0.023 A 
ATOM     82  C   UNL A   1      43.234  24.722  26.136  1.00  0.00     0.012 A 
ATOM     83  C   UNL A   1      42.040  23.143  27.541  1.00  0.00     0.148 A 
ATOM     84  C   UNL A   1      43.196  23.816  25.074  1.00  0.00     0.002 A 
ATOM     85  C   UNL A   1      42.060  22.222  26.501  1.00  0.00     0.091 A 
ATOM     86  F   UNL A   1      41.462  22.864  28.718  1.00  0.00    -0.205 F 
ATOM     87  C   UNL A   1      42.617  22.564  25.260  1.00  0.00     0.022 A 
BRANCH  85  88
ATOM     88  S   UNL A   1      41.461  20.540  26.702  1.00  0.00     0.127 S 
ATOM     89  O   UNL A   1      42.214  20.091  27.869  1.00  0.00    -0.237 OA
ATOM     90  O   UNL A   1      40.030  20.752  26.934  1.00  0.00    -0.237 OA
ATOM     91  O   UNL A   1      41.765  19.867  25.447  1.00  0.00    -0.744 OA
ENDBRANCH  85  88
ENDBRANCH  57  81
BRANCH  69  92
ATOM     92  C   UNL A   1      47.104  25.862  32.535  1.00  0.00     0.023 A 
ATOM     93  C   UNL A   1      48.329  26.313  32.009  1.00  0.00     0.012 A 
ATOM     94  C   UNL A   1      47.103  24.878  33.543  1.00  0.00     0.148 A 
ATOM     95  C   UNL A   1      49.534  25.772  32.457  1.00  0.00     0.002 A 
ATOM     96  C   UNL A   1      48.308  24.381  34.022  1.00  0.00     0.091 A 
ATOM     97  F   UNL A   1      45.924  24.450  34.019  1.00  0.00    -0.205 F 
ATOM     98  C   UNL A   1      49.524  24.816  33.471  1.00  0.00     0.022 A 
BRANCH  96  99
ATOM     99  S   UNL A   1      48.397  23.225  35.394  1.00  0.00     0.127 S 
ATOM    100  O   UNL A   1      47.731  22.048  34.836  1.00  0.00    -0.237 OA
ATOM    101  O   UNL A   1      49.839  23.078  35.583  1.00  0.00    -0.237 OA
ATOM    102  O   UNL A   1      47.703  23.865  36.504  1.00  0.00    -0.744 OA
ENDBRANCH  96  99
ENDBRANCH  69  92
ENDBRANCH  43  44
ENDBRANCH  35  38
ENDBRANCH  33  34
ENDBRANCH  32  33
ENDBRANCH   1  32
TORSDOF 18
ENDMDL
MODEL 3
REMARK VINA RESULT:     -12.0      3.436      8.293
REMARK SMILES COc1cc([C@H]2[NH2+]CCC3=c4ccccc4=N[C@H]32)ccc1OCC(=O)NCCCCNC(=O)c1ccc(-c2c3nc(c(-c4cccc(S(=O)(=O)[O-])c4F)c4ccc([nH]4)c(-c4cccc(S(=O)(=O)[O-])c4F)c4nc(c(-c5cccc(S(=O)(=O)[O-])c5F)c5ccc2[nH]5)C=C4)C=C3)cc1
REMARK SMILES IDX 28 1 27 2 26 3 24 4 25 5 23 7 22 8 21 9 3 10 4 11 5 12 20 13
REMARK SMILES IDX 19 14 2 15 1 16 6 17 7 18 18 19 8 20 10 23 17 24 9 25 11 26
REMARK SMILES IDX 16 27 12 28 15 29 13 30 14 31 29 32 30 33 31 34 32 35 33 37
REMARK SMILES IDX 34 38 35 39 96 40 36 41 95 42 37 43 38 44 39 45 89 46 40 47
REMARK SMILES IDX 94 48 88 49 90 50 41 51 93 52 87 53 86 54 42 56 74 57 54 58
REMARK SMILES IDX 73 59 55 60 58 61 72 62 91 63 56 64 57 65 71 67 92 68 59 69
REMARK SMILES IDX 43 70 44 71 52 72 45 73 47 74 53 75 46 76 48 77 49 78 50 79
REMARK SMILES IDX 51 80 75 81 76 82 84 83 77 84 79 85 85 86 78 87 80 88 81 89
REMARK SMILES IDX 82 90 83 91 60 92 61 93 69 94 62 95 64 96 70 97 63 98 65 99
REMARK SMILES IDX 66 100 67 101 68 102
REMARK H PARENT 26 6 7 21 7 22 31 36 90 55 58 66
REMARK Flexibility Score: inf
ROOT
ATOM      1  C   UNL A   1      32.133  29.738  26.711  1.00  0.00     0.023 C 
ENDROOT
BRANCH   1   2
ATOM      2  C   UNL A   1      32.091  29.074  25.336  1.00  0.00     0.116 C 
BRANCH   2   3
ATOM      3  N   UNL A   1      31.261  29.787  24.385  1.00  0.00    -0.353 N 
ATOM      4  C   UNL A   1      30.216  29.330  23.639  1.00  0.00     0.257 C 
ATOM      5  O   UNL A   1      29.503  30.169  23.081  1.00  0.00    -0.271 OA
ATOM      6  H   UNL A   1      31.484  30.738  24.261  1.00  0.00     0.163 HD
BRANCH   4   7
ATOM      7  C   UNL A   1      29.885  27.832  23.571  1.00  0.00     0.329 C 
BRANCH   7   8
ATOM      8  O   UNL A   1      30.807  26.934  22.990  1.00  0.00    -0.480 OA
BRANCH   8   9
ATOM      9  C   UNL A   1      31.261  25.869  23.712  1.00  0.00     0.161 A 
ATOM     10  C   UNL A   1      32.152  24.865  23.336  1.00  0.00     0.161 A 
ATOM     11  C   UNL A   1      32.407  23.782  24.207  1.00  0.00     0.060 A 
ATOM     12  C   UNL A   1      31.808  23.701  25.485  1.00  0.00     0.016 A 
ATOM     13  C   UNL A   1      30.679  25.797  24.974  1.00  0.00     0.051 A 
ATOM     14  C   UNL A   1      30.983  24.762  25.857  1.00  0.00     0.014 A 
BRANCH  10  15
ATOM     15  O   UNL A   1      32.670  24.836  22.068  1.00  0.00    -0.493 OA
ATOM     16  C   UNL A   1      33.289  26.074  21.712  1.00  0.00     0.278 C 
ENDBRANCH  10  15
BRANCH  12  17
ATOM     17  C   UNL A   1      32.052  22.468  26.374  1.00  0.00     0.243 C 
ATOM     18  N   UNL A   1      31.332  21.275  25.840  1.00  0.00    -0.338 N 
ATOM     19  C   UNL A   1      33.519  22.049  26.790  1.00  0.00     0.196 C 
ATOM     20  C   UNL A   1      32.039  20.640  24.712  1.00  0.00     0.265 C 
ATOM     21  H   UNL A   1      30.408  21.568  25.523  1.00  0.00     0.346 HD
ATOM     22  H   UNL A   1      31.273  20.589  26.592  1.00  0.00     0.346 HD
ATOM     23  C   UNL A   1      34.218  21.312  25.683  1.00  0.00    -0.025 C 
ATOM     24  N   UNL A   1      34.422  23.188  27.138  1.00  0.00    -0.270 NA
ATOM     25  C   UNL A   1      33.470  20.189  25.055  1.00  0.00     0.095 C 
ATOM     26  C   UNL A   1      35.363  21.902  25.361  1.00  0.00     0.001 A 
ATOM     27  C   UNL A   1      35.413  23.035  26.307  1.00  0.00     0.066 A 
ATOM     28  C   UNL A   1      36.317  21.745  24.314  1.00  0.00     0.010 A 
ATOM     29  C   UNL A   1      36.561  23.957  26.154  1.00  0.00     0.028 A 
ATOM     30  C   UNL A   1      37.296  22.658  24.198  1.00  0.00     0.001 A 
ATOM     31  C   UNL A   1      37.419  23.762  25.137  1.00  0.00     0.002 A 
ENDBRANCH  12  17
ENDBRANCH   8   9
ENDBRANCH   7   8
ENDBRANCH   4   7
ENDBRANCH   2   3
ENDBRANCH   1   2
BRANCH   1  32
ATOM     32  C   UNL A   1      31.860  31.243  26.741  1.00  0.00     0.023 C 
BRANCH  32  33
ATOM     33  C   UNL A   1      33.036  32.130  27.125  1.00  0.00     0.116 C 
BRANCH  33  34
ATOM     34  N   UNL A   1      32.643  33.485  27.479  1.00  0.00    -0.352 N 
ATOM     35  C   UNL A   1      33.153  34.319  28.449  1.00  0.00     0.251 C 
ATOM     36  H   UNL A   1      31.905  33.860  26.946  1.00  0.00     0.163 HD
ATOM     37  O   UNL A   1      32.618  35.396  28.667  1.00  0.00    -0.269 OA
BRANCH  35  38
ATOM     38  C   UNL A   1      34.324  33.891  29.249  1.00  0.00     0.039 A 
ATOM     39  C   UNL A   1      34.113  33.049  30.344  1.00  0.00     0.014 A 
ATOM     40  C   UNL A   1      35.619  34.298  28.916  1.00  0.00     0.014 A 
ATOM     41  C   UNL A   1      35.208  32.557  31.061  1.00  0.00     0.010 A 
ATOM     42  C   UNL A   1      36.710  33.748  29.586  1.00  0.00     0.010 A 
ATOM     43  C   UNL A   1      36.518  32.870  30.665  1.00  0.00    -0.014 A 
BRANCH  43  44
ATOM     44  C   UNL A   1      37.697  32.274  31.348  1.00  0.00     0.031 A 
ATOM     45  C   UNL A   1      38.455  31.142  30.707  1.00  0.00     0.074 A 
ATOM     46  C   UNL A   1      38.027  32.686  32.589  1.00  0.00     0.049 A 
ATOM     47  N   UNL A   1      39.455  30.447  31.184  1.00  0.00    -0.248 NA
ATOM     48  C   UNL A   1      38.017  30.715  29.367  1.00  0.00     0.031 C 
ATOM     49  C   UNL A   1      37.321  33.717  33.355  1.00  0.00     0.029 A 
ATOM     50  N   UNL A   1      39.016  32.261  33.443  1.00  0.00    -0.354 N 
ATOM     51  C   UNL A   1      39.735  29.476  30.229  1.00  0.00     0.074 A 
ATOM     52  C   UNL A   1      38.789  29.658  29.151  1.00  0.00     0.031 C 
ATOM     53  C   UNL A   1      37.893  33.837  34.565  1.00  0.00     0.029 A 
ATOM     54  C   UNL A   1      38.982  32.873  34.676  1.00  0.00     0.049 A 
ATOM     55  H   UNL A   1      39.686  31.583  33.197  1.00  0.00     0.167 HD
ATOM     56  C   UNL A   1      40.705  28.533  30.239  1.00  0.00     0.034 A 
ATOM     57  C   UNL A   1      39.729  32.668  35.780  1.00  0.00     0.034 A 
ATOM     58  C   UNL A   1      41.682  28.389  31.286  1.00  0.00     0.049 A 
ATOM     59  C   UNL A   1      40.835  31.646  35.737  1.00  0.00     0.074 A 
ATOM     60  C   UNL A   1      42.771  27.538  31.328  1.00  0.00     0.029 A 
ATOM     61  N   UNL A   1      41.681  29.100  32.473  1.00  0.00    -0.354 N 
ATOM     62  N   UNL A   1      41.198  30.863  34.751  1.00  0.00    -0.248 NA
ATOM     63  C   UNL A   1      41.661  31.504  36.947  1.00  0.00     0.031 C 
ATOM     64  C   UNL A   1      43.413  27.710  32.558  1.00  0.00     0.029 A 
ATOM     65  C   UNL A   1      42.743  28.696  33.264  1.00  0.00     0.049 A 
ATOM     66  H   UNL A   1      41.023  29.791  32.719  1.00  0.00     0.167 HD
ATOM     67  C   UNL A   1      42.313  30.169  35.204  1.00  0.00     0.074 A 
ATOM     68  C   UNL A   1      42.582  30.639  36.547  1.00  0.00     0.031 C 
ATOM     69  C   UNL A   1      43.040  29.216  34.572  1.00  0.00     0.034 A 
BRANCH  56  70
ATOM     70  C   UNL A   1      40.805  27.599  29.061  1.00  0.00     0.023 A 
ATOM     71  C   UNL A   1      39.898  26.528  28.941  1.00  0.00     0.012 A 
ATOM     72  C   UNL A   1      41.723  27.853  28.023  1.00  0.00     0.148 A 
ATOM     73  C   UNL A   1      39.915  25.709  27.812  1.00  0.00     0.002 A 
ATOM     74  C   UNL A   1      41.703  27.061  26.881  1.00  0.00     0.091 A 
ATOM     75  F   UNL A   1      42.587  28.867  28.166  1.00  0.00    -0.205 F 
ATOM     76  C   UNL A   1      40.807  25.983  26.778  1.00  0.00     0.022 A 
BRANCH  74  77
ATOM     77  S   UNL A   1      42.750  27.381  25.457  1.00  0.00     0.127 S 
ATOM     78  O   UNL A   1      42.677  26.105  24.745  1.00  0.00    -0.237 OA
ATOM     79  O   UNL A   1      42.049  28.485  24.803  1.00  0.00    -0.237 OA
ATOM     80  O   UNL A   1      44.063  27.719  25.988  1.00  0.00    -0.744 OA
ENDBRANCH  74  77
ENDBRANCH  56  70
BRANCH  57  81
ATOM     81  C   UNL A   1      39.488  33.468  37.016  1.00  0.00     0.023 A 
ATOM     82  C   UNL A   1      40.030  34.764  37.123  1.00  0.00     0.012 A 
ATOM     83  C   UNL A   1      38.732  32.952  38.085  1.00  0.00     0.148 A 
ATOM     84  C   UNL A   1      39.867  35.510  38.292  1.00  0.00     0.002 A 
ATOM     85  C   UNL A   1      38.521  33.723  39.222  1.00  0.00     0.091 A 
ATOM     86  F   UNL A   1      38.235  31.712  37.973  1.00  0.00    -0.205 F 
ATOM     87  C   UNL A   1      39.106  34.993  39.337  1.00  0.00     0.022 A 
BRANCH  85  88
ATOM     88  S   UNL A   1      37.440  33.188  40.553  1.00  0.00     0.127 S 
ATOM     89  O   UNL A   1      36.215  32.859  39.830  1.00  0.00    -0.237 OA
ATOM     90  O   UNL A   1      38.166  32.037  41.092  1.00  0.00    -0.237 OA
ATOM     91  O   UNL A   1      37.359  34.320  41.466  1.00  0.00    -0.744 OA
ENDBRANCH  85  88
ENDBRANCH  57  81
BRANCH  69  92
ATOM     92  C   UNL A   1      44.234  28.646  35.292  1.00  0.00     0.023 A 
ATOM     93  C   UNL A   1      45.511  29.204  35.092  1.00  0.00     0.012 A 
ATOM     94  C   UNL A   1      44.071  27.609  36.232  1.00  0.00     0.148 A 
ATOM     95  C   UNL A   1      46.614  28.718  35.795  1.00  0.00     0.002 A 
ATOM     96  C   UNL A   1      45.163  27.165  36.966  1.00  0.00     0.091 A 
ATOM     97  F   UNL A   1      42.849  27.080  36.395  1.00  0.00    -0.205 F 
ATOM     98  C   UNL A   1      46.438  27.709  36.739  1.00  0.00     0.022 A 
BRANCH  96  99
ATOM     99  S   UNL A   1      45.014  25.943  38.273  1.00  0.00     0.127 S 
ATOM    100  O   UNL A   1      46.412  25.742  38.654  1.00  0.00    -0.237 OA
ATOM    101  O   UNL A   1      44.207  26.650  39.268  1.00  0.00    -0.237 OA
ATOM    102  O   UNL A   1      44.359  24.788  37.672  1.00  0.00    -0.744 OA
ENDBRANCH  96  99
ENDBRANCH  69  92
ENDBRANCH  43  44
ENDBRANCH  35  38
ENDBRANCH  33  34
ENDBRANCH  32  33
ENDBRANCH   1  32
TORSDOF 18
ENDMDL
