MODEL 1
REMARK VINA RESULT:     -13.2      0.000      0.000
REMARK SMILES Cc1ccc(S(=O)(=O)Nc2cc(C(=O)NCCCCNC(=O)c3ccc(-c4c5nc(c(-c6cccc(S(=O)(=O)[O-])c6F)c6ccc([nH]6)c(-c6cccc(S(=O)(=O)[O-])c6F)c6nc(c(-c7cccc(S(=O)(=O)[O-])c7F)c7ccc4[nH]7)C=C6)C=C5)cc3)ccc2C)c(Br)c1
REMARK SMILES IDX 17 1 16 2 15 3 13 4 14 5 12 7 10 8 11 9 88 10 87 11 89 12
REMARK SMILES IDX 86 13 9 14 6 16 7 17 8 18 5 19 1 20 2 21 3 22 92 23 4 24
REMARK SMILES IDX 90 25 91 26 18 27 19 28 20 29 21 30 22 32 23 33 24 34 85 35
REMARK SMILES IDX 25 36 84 37 26 38 27 39 28 40 78 41 29 42 83 43 77 44 79 45
REMARK SMILES IDX 30 46 82 47 76 48 75 49 31 51 63 52 43 53 62 54 44 55 47 56
REMARK SMILES IDX 61 57 80 58 45 59 46 60 60 62 81 63 48 64 32 65 33 66 41 67
REMARK SMILES IDX 34 68 36 69 42 70 35 71 37 72 38 73 39 74 40 75 64 76 65 77
REMARK SMILES IDX 73 78 66 79 68 80 74 81 67 82 69 83 70 84 71 85 72 86 49 87
REMARK SMILES IDX 50 88 58 89 51 90 53 91 59 92 52 93 54 94 55 95 56 96 57 97
REMARK H PARENT 15 6 9 15 20 31 79 50 47 61
REMARK Flexibility Score: inf
ROOT
ATOM      1  C   UNL A   1      35.907  21.595  24.533  1.00  0.00     0.023 C 
ENDROOT
BRANCH   1   2
ATOM      2  C   UNL A   1      35.148  21.224  25.812  1.00  0.00     0.116 C 
BRANCH   2   3
ATOM      3  N   UNL A   1      33.964  20.427  25.521  1.00  0.00    -0.352 N 
ATOM      4  C   UNL A   1      32.641  20.716  25.307  1.00  0.00     0.251 C 
ATOM      5  O   UNL A   1      31.885  19.768  25.084  1.00  0.00    -0.269 OA
ATOM      6  H   UNL A   1      34.158  19.464  25.466  1.00  0.00     0.163 HD
BRANCH   4   7
ATOM      7  C   UNL A   1      32.077  22.095  25.245  1.00  0.00     0.041 A 
ATOM      8  C   UNL A   1      31.323  24.059  24.049  1.00  0.00     0.053 A 
ATOM      9  C   UNL A   1      32.124  22.915  24.126  1.00  0.00     0.040 A 
ATOM     10  C   UNL A   1      30.586  24.514  25.151  1.00  0.00    -0.027 A 
ATOM     11  C   UNL A   1      30.652  23.762  26.331  1.00  0.00     0.006 A 
ATOM     12  C   UNL A   1      29.731  25.749  25.132  1.00  0.00     0.046 C 
ATOM     13  C   UNL A   1      31.358  22.551  26.364  1.00  0.00     0.014 A 
BRANCH   8  14
ATOM     14  N   UNL A   1      31.162  24.607  22.752  1.00  0.00    -0.279 N 
ATOM     15  H   UNL A   1      30.513  24.204  22.131  1.00  0.00     0.180 HD
BRANCH  14  16
ATOM     16  S   UNL A   1      32.081  25.960  22.250  1.00  0.00     0.263 S 
ATOM     17  O   UNL A   1      31.102  26.708  21.468  1.00  0.00    -0.201 OA
ATOM     18  O   UNL A   1      33.251  25.402  21.622  1.00  0.00    -0.201 OA
BRANCH  16  19
ATOM     19  C   UNL A   1      32.644  27.029  23.560  1.00  0.00     0.101 A 
ATOM     20  C   UNL A   1      33.308  29.205  27.248  1.00  0.00     0.044 C 
ATOM     21  C   UNL A   1      33.124  28.471  25.953  1.00  0.00    -0.050 A 
ATOM     22  C   UNL A   1      34.027  27.508  25.514  1.00  0.00     0.005 A 
ATOM     23  C   UNL A   1      32.079  28.814  25.098  1.00  0.00     0.020 A 
ATOM     24  C   UNL A   1      33.799  26.818  24.312  1.00  0.00     0.024 A 
ATOM     25  C   UNL A   1      31.871  28.140  23.890  1.00  0.00     0.038 A 
ATOM     26  Br  UNL A   1      30.754  28.997  22.622  1.00  0.00    -0.049 Br
ENDBRANCH  16  19
ENDBRANCH  14  16
ENDBRANCH   8  14
ENDBRANCH   4   7
ENDBRANCH   2   3
ENDBRANCH   1   2
BRANCH   1  27
ATOM     27  C   UNL A   1      37.411  21.856  24.716  1.00  0.00     0.023 C 
BRANCH  27  28
ATOM     28  C   UNL A   1      37.780  22.918  25.748  1.00  0.00     0.116 C 
BRANCH  28  29
ATOM     29  N   UNL A   1      38.895  22.496  26.587  1.00  0.00    -0.352 N 
ATOM     30  C   UNL A   1      39.989  23.206  27.042  1.00  0.00     0.251 C 
ATOM     31  H   UNL A   1      38.863  21.555  26.875  1.00  0.00     0.163 HD
ATOM     32  O   UNL A   1      41.033  22.588  27.227  1.00  0.00    -0.269 OA
BRANCH  30  33
ATOM     33  C   UNL A   1      39.880  24.646  27.357  1.00  0.00     0.039 A 
ATOM     34  C   UNL A   1      40.408  25.639  26.516  1.00  0.00     0.014 A 
ATOM     35  C   UNL A   1      39.373  25.007  28.596  1.00  0.00     0.014 A 
ATOM     36  C   UNL A   1      40.460  26.971  26.949  1.00  0.00     0.010 A 
ATOM     37  C   UNL A   1      39.248  26.319  28.946  1.00  0.00     0.010 A 
ATOM     38  C   UNL A   1      39.903  27.289  28.183  1.00  0.00    -0.014 A 
BRANCH  38  39
ATOM     39  C   UNL A   1      40.084  28.527  28.924  1.00  0.00     0.031 A 
ATOM     40  C   UNL A   1      39.129  29.634  28.851  1.00  0.00     0.074 A 
ATOM     41  C   UNL A   1      40.947  28.412  29.959  1.00  0.00     0.049 A 
ATOM     42  N   UNL A   1      39.323  30.775  29.415  1.00  0.00    -0.248 NA
ATOM     43  C   UNL A   1      37.858  29.535  28.151  1.00  0.00     0.031 C 
ATOM     44  C   UNL A   1      40.947  29.117  31.227  1.00  0.00     0.029 A 
ATOM     45  N   UNL A   1      42.078  27.590  30.025  1.00  0.00    -0.354 N 
ATOM     46  C   UNL A   1      38.115  31.436  29.426  1.00  0.00     0.074 A 
ATOM     47  C   UNL A   1      37.269  30.674  28.535  1.00  0.00     0.031 C 
ATOM     48  C   UNL A   1      42.134  28.919  31.824  1.00  0.00     0.029 A 
ATOM     49  C   UNL A   1      42.990  28.232  30.860  1.00  0.00     0.049 A 
ATOM     50  H   UNL A   1      42.204  26.726  29.569  1.00  0.00     0.167 HD
ATOM     51  C   UNL A   1      37.927  32.441  30.330  1.00  0.00     0.034 A 
ATOM     52  C   UNL A   1      44.218  28.651  30.437  1.00  0.00     0.034 A 
ATOM     53  C   UNL A   1      39.130  32.613  31.170  1.00  0.00     0.049 A 
ATOM     54  C   UNL A   1      44.324  30.146  30.602  1.00  0.00     0.074 A 
ATOM     55  C   UNL A   1      39.440  32.183  32.452  1.00  0.00     0.029 A 
ATOM     56  N   UNL A   1      40.329  33.040  30.603  1.00  0.00    -0.354 N 
ATOM     57  N   UNL A   1      43.283  30.921  30.735  1.00  0.00    -0.248 NA
ATOM     58  C   UNL A   1      45.576  30.880  30.709  1.00  0.00     0.031 C 
ATOM     59  C   UNL A   1      40.849  32.289  32.624  1.00  0.00     0.029 A 
ATOM     60  C   UNL A   1      41.395  32.809  31.461  1.00  0.00     0.049 A 
ATOM     61  H   UNL A   1      40.408  33.450  29.711  1.00  0.00     0.167 HD
ATOM     62  C   UNL A   1      43.670  32.207  30.952  1.00  0.00     0.074 A 
ATOM     63  C   UNL A   1      45.125  32.130  30.934  1.00  0.00     0.031 C 
ATOM     64  C   UNL A   1      42.756  33.213  31.104  1.00  0.00     0.034 A 
BRANCH  51  65
ATOM     65  C   UNL A   1      36.578  33.051  30.696  1.00  0.00     0.023 A 
ATOM     66  C   UNL A   1      36.063  32.771  31.983  1.00  0.00     0.012 A 
ATOM     67  C   UNL A   1      35.755  33.855  29.871  1.00  0.00     0.148 A 
ATOM     68  C   UNL A   1      34.785  33.166  32.394  1.00  0.00     0.002 A 
ATOM     69  C   UNL A   1      34.451  34.198  30.253  1.00  0.00     0.091 A 
ATOM     70  F   UNL A   1      36.251  34.379  28.747  1.00  0.00    -0.205 F 
ATOM     71  C   UNL A   1      33.962  33.850  31.515  1.00  0.00     0.022 A 
BRANCH  69  72
ATOM     72  S   UNL A   1      33.300  35.032  29.143  1.00  0.00     0.127 S 
ATOM     73  O   UNL A   1      33.002  33.985  28.164  1.00  0.00    -0.237 OA
ATOM     74  O   UNL A   1      32.188  35.364  30.033  1.00  0.00    -0.237 OA
ATOM     75  O   UNL A   1      34.027  36.169  28.591  1.00  0.00    -0.744 OA
ENDBRANCH  69  72
ENDBRANCH  51  65
BRANCH  52  76
ATOM     76  C   UNL A   1      44.806  27.795  29.356  1.00  0.00     0.023 A 
ATOM     77  C   UNL A   1      45.113  26.468  29.729  1.00  0.00     0.012 A 
ATOM     78  C   UNL A   1      44.580  28.060  27.997  1.00  0.00     0.148 A 
ATOM     79  C   UNL A   1      44.937  25.401  28.846  1.00  0.00     0.002 A 
ATOM     80  C   UNL A   1      44.453  26.994  27.099  1.00  0.00     0.091 A 
ATOM     81  F   UNL A   1      44.392  29.330  27.616  1.00  0.00    -0.205 F 
ATOM     82  C   UNL A   1      44.559  25.663  27.537  1.00  0.00     0.022 A 
BRANCH  80  83
ATOM     83  S   UNL A   1      44.037  27.276  25.374  1.00  0.00     0.127 S 
ATOM     84  O   UNL A   1      43.591  25.949  24.963  1.00  0.00    -0.237 OA
ATOM     85  O   UNL A   1      42.977  28.280  25.450  1.00  0.00    -0.237 OA
ATOM     86  O   UNL A   1      45.271  27.763  24.775  1.00  0.00    -0.744 OA
ENDBRANCH  80  83
ENDBRANCH  52  76
BRANCH  64  87
ATOM     87  C   UNL A   1      43.065  34.685  30.941  1.00  0.00     0.023 A 
ATOM     88  C   UNL A   1      43.685  35.432  31.961  1.00  0.00     0.012 A 
ATOM     89  C   UNL A   1      42.929  35.320  29.680  1.00  0.00     0.148 A 
ATOM     90  C   UNL A   1      44.112  36.747  31.762  1.00  0.00     0.002 A 
ATOM     91  C   UNL A   1      43.475  36.578  29.451  1.00  0.00     0.091 A 
ATOM     92  F   UNL A   1      42.258  34.716  28.688  1.00  0.00    -0.205 F 
ATOM     93  C   UNL A   1      44.038  37.308  30.497  1.00  0.00     0.022 A 
BRANCH  91  94
ATOM     94  S   UNL A   1      43.647  37.217  27.780  1.00  0.00     0.127 S 
ATOM     95  O   UNL A   1      42.281  37.642  27.477  1.00  0.00    -0.237 OA
ATOM     96  O   UNL A   1      44.601  38.313  27.963  1.00  0.00    -0.237 OA
ATOM     97  O   UNL A   1      44.164  36.104  26.997  1.00  0.00    -0.744 OA
ENDBRANCH  91  94
ENDBRANCH  64  87
ENDBRANCH  38  39
ENDBRANCH  30  33
ENDBRANCH  28  29
ENDBRANCH  27  28
ENDBRANCH   1  27
TORSDOF 17
ENDMDL
MODEL 2
REMARK VINA RESULT:     -13.2      1.678      2.264
REMARK SMILES Cc1ccc(S(=O)(=O)Nc2cc(C(=O)NCCCCNC(=O)c3ccc(-c4c5nc(c(-c6cccc(S(=O)(=O)[O-])c6F)c6ccc([nH]6)c(-c6cccc(S(=O)(=O)[O-])c6F)c6nc(c(-c7cccc(S(=O)(=O)[O-])c7F)c7ccc4[nH]7)C=C6)C=C5)cc3)ccc2C)c(Br)c1
REMARK SMILES IDX 17 1 16 2 15 3 13 4 14 5 12 7 10 8 11 9 88 10 87 11 89 12
REMARK SMILES IDX 86 13 9 14 6 16 7 17 8 18 5 19 1 20 2 21 3 22 92 23 4 24
REMARK SMILES IDX 90 25 91 26 18 27 19 28 20 29 21 30 22 32 23 33 24 34 85 35
REMARK SMILES IDX 25 36 84 37 26 38 27 39 28 40 78 41 29 42 83 43 77 44 79 45
REMARK SMILES IDX 30 46 82 47 76 48 75 49 31 51 63 52 43 53 62 54 44 55 47 56
REMARK SMILES IDX 61 57 80 58 45 59 46 60 60 62 81 63 48 64 32 65 33 66 41 67
REMARK SMILES IDX 34 68 36 69 42 70 35 71 37 72 38 73 39 74 40 75 64 76 65 77
REMARK SMILES IDX 73 78 66 79 68 80 74 81 67 82 69 83 70 84 71 85 72 86 49 87
REMARK SMILES IDX 50 88 58 89 51 90 53 91 59 92 52 93 54 94 55 95 56 96 57 97
REMARK H PARENT 15 6 9 15 20 31 79 50 47 61
REMARK Flexibility Score: inf
ROOT
ATOM      1  C   UNL A   1      36.391  20.603  24.988  1.00  0.00     0.023 C 
ENDROOT
BRANCH   1   2
ATOM      2  C   UNL A   1      35.381  21.095  26.030  1.00  0.00     0.116 C 
BRANCH   2   3
ATOM      3  N   UNL A   1      34.046  20.571  25.774  1.00  0.00    -0.352 N 
ATOM      4  C   UNL A   1      32.919  21.068  25.172  1.00  0.00     0.251 C 
ATOM      5  O   UNL A   1      31.931  20.332  25.129  1.00  0.00    -0.269 OA
ATOM      6  H   UNL A   1      33.927  19.653  26.108  1.00  0.00     0.163 HD
BRANCH   4   7
ATOM      7  C   UNL A   1      32.837  22.395  24.498  1.00  0.00     0.041 A 
ATOM      8  C   UNL A   1      33.151  24.795  24.426  1.00  0.00     0.053 A 
ATOM      9  C   UNL A   1      32.940  23.617  25.151  1.00  0.00     0.040 A 
ATOM     10  C   UNL A   1      33.089  24.815  23.026  1.00  0.00    -0.027 A 
ATOM     11  C   UNL A   1      32.841  23.602  22.370  1.00  0.00     0.006 A 
ATOM     12  C   UNL A   1      33.282  26.054  22.199  1.00  0.00     0.046 C 
ATOM     13  C   UNL A   1      32.753  22.405  23.095  1.00  0.00     0.014 A 
BRANCH   8  14
ATOM     14  N   UNL A   1      33.609  25.904  25.180  1.00  0.00    -0.279 N 
ATOM     15  H   UNL A   1      34.572  26.099  25.219  1.00  0.00     0.180 HD
BRANCH  14  16
ATOM     16  S   UNL A   1      32.510  26.907  26.023  1.00  0.00     0.263 S 
ATOM     17  O   UNL A   1      33.402  27.916  26.583  1.00  0.00    -0.201 OA
ATOM     18  O   UNL A   1      31.777  26.015  26.884  1.00  0.00    -0.201 OA
BRANCH  16  19
ATOM     19  C   UNL A   1      31.318  27.757  25.006  1.00  0.00     0.101 A 
ATOM     20  C   UNL A   1      29.182  29.993  21.970  1.00  0.00     0.044 C 
ATOM     21  C   UNL A   1      29.875  29.203  23.042  1.00  0.00    -0.050 A 
ATOM     22  C   UNL A   1      29.696  27.832  23.184  1.00  0.00     0.005 A 
ATOM     23  C   UNL A   1      30.649  29.856  23.998  1.00  0.00     0.020 A 
ATOM     24  C   UNL A   1      30.391  27.125  24.178  1.00  0.00     0.024 A 
ATOM     25  C   UNL A   1      31.319  29.149  25.003  1.00  0.00     0.038 A 
ATOM     26  Br  UNL A   1      31.919  30.156  26.492  1.00  0.00    -0.049 Br
ENDBRANCH  16  19
ENDBRANCH  14  16
ENDBRANCH   8  14
ENDBRANCH   4   7
ENDBRANCH   2   3
ENDBRANCH   1   2
BRANCH   1  27
ATOM     27  C   UNL A   1      37.543  21.573  24.682  1.00  0.00     0.023 C 
BRANCH  27  28
ATOM     28  C   UNL A   1      37.794  22.656  25.728  1.00  0.00     0.116 C 
BRANCH  28  29
ATOM     29  N   UNL A   1      38.896  22.307  26.617  1.00  0.00    -0.352 N 
ATOM     30  C   UNL A   1      39.957  23.069  27.065  1.00  0.00     0.251 C 
ATOM     31  H   UNL A   1      38.880  21.382  26.952  1.00  0.00     0.163 HD
ATOM     32  O   UNL A   1      41.011  22.491  27.310  1.00  0.00    -0.269 OA
BRANCH  30  33
ATOM     33  C   UNL A   1      39.801  24.521  27.302  1.00  0.00     0.039 A 
ATOM     34  C   UNL A   1      40.293  25.483  26.407  1.00  0.00     0.014 A 
ATOM     35  C   UNL A   1      39.286  24.931  28.523  1.00  0.00     0.014 A 
ATOM     36  C   UNL A   1      40.302  26.838  26.768  1.00  0.00     0.010 A 
ATOM     37  C   UNL A   1      39.120  26.255  28.802  1.00  0.00     0.010 A 
ATOM     38  C   UNL A   1      39.739  27.203  27.986  1.00  0.00    -0.014 A 
BRANCH  38  39
ATOM     39  C   UNL A   1      39.881  28.485  28.657  1.00  0.00     0.031 A 
ATOM     40  C   UNL A   1      38.950  29.594  28.442  1.00  0.00     0.074 A 
ATOM     41  C   UNL A   1      40.663  28.429  29.760  1.00  0.00     0.049 A 
ATOM     42  N   UNL A   1      39.117  30.767  28.946  1.00  0.00    -0.248 NA
ATOM     43  C   UNL A   1      37.733  29.461  27.656  1.00  0.00     0.031 C 
ATOM     44  C   UNL A   1      40.577  29.214  30.978  1.00  0.00     0.029 A 
ATOM     45  N   UNL A   1      41.774  27.603  29.963  1.00  0.00    -0.354 N 
ATOM     46  C   UNL A   1      37.921  31.438  28.824  1.00  0.00     0.074 A 
ATOM     47  C   UNL A   1      37.133  30.628  27.921  1.00  0.00     0.031 C 
ATOM     48  C   UNL A   1      41.714  29.044  31.674  1.00  0.00     0.029 A 
ATOM     49  C   UNL A   1      42.629  28.289  30.822  1.00  0.00     0.049 A 
ATOM     50  H   UNL A   1      41.922  26.710  29.575  1.00  0.00     0.167 HD
ATOM     51  C   UNL A   1      37.680  32.501  29.644  1.00  0.00     0.034 A 
ATOM     52  C   UNL A   1      43.891  28.668  30.468  1.00  0.00     0.034 A 
ATOM     53  C   UNL A   1      38.818  32.715  30.561  1.00  0.00     0.049 A 
ATOM     54  C   UNL A   1      44.006  30.170  30.545  1.00  0.00     0.074 A 
ATOM     55  C   UNL A   1      39.025  32.366  31.887  1.00  0.00     0.029 A 
ATOM     56  N   UNL A   1      40.062  33.094  30.060  1.00  0.00    -0.354 N 
ATOM     57  N   UNL A   1      42.969  30.961  30.549  1.00  0.00    -0.248 NA
ATOM     58  C   UNL A   1      45.256  30.899  30.700  1.00  0.00     0.031 C 
ATOM     59  C   UNL A   1      40.418  32.470  32.158  1.00  0.00     0.029 A 
ATOM     60  C   UNL A   1      41.057  32.909  31.009  1.00  0.00     0.049 A 
ATOM     61  H   UNL A   1      40.214  33.445  29.152  1.00  0.00     0.167 HD
ATOM     62  C   UNL A   1      43.356  32.255  30.713  1.00  0.00     0.074 A 
ATOM     63  C   UNL A   1      44.806  32.164  30.810  1.00  0.00     0.031 C 
ATOM     64  C   UNL A   1      42.447  33.278  30.731  1.00  0.00     0.034 A 
BRANCH  51  65
ATOM     65  C   UNL A   1      36.315  33.145  29.868  1.00  0.00     0.023 A 
ATOM     66  C   UNL A   1      35.668  33.709  28.743  1.00  0.00     0.012 A 
ATOM     67  C   UNL A   1      35.623  33.271  31.096  1.00  0.00     0.148 A 
ATOM     68  C   UNL A   1      34.476  34.436  28.837  1.00  0.00     0.002 A 
ATOM     69  C   UNL A   1      34.464  34.051  31.204  1.00  0.00     0.091 A 
ATOM     70  F   UNL A   1      36.021  32.563  32.157  1.00  0.00    -0.205 F 
ATOM     71  C   UNL A   1      33.890  34.639  30.075  1.00  0.00     0.022 A 
BRANCH  69  72
ATOM     72  S   UNL A   1      33.680  34.412  32.788  1.00  0.00     0.127 S 
ATOM     73  O   UNL A   1      33.289  33.079  33.251  1.00  0.00    -0.237 OA
ATOM     74  O   UNL A   1      34.770  35.021  33.548  1.00  0.00    -0.237 OA
ATOM     75  O   UNL A   1      32.553  35.287  32.488  1.00  0.00    -0.744 OA
ENDBRANCH  69  72
ENDBRANCH  51  65
BRANCH  52  76
ATOM     76  C   UNL A   1      44.547  27.740  29.491  1.00  0.00     0.023 A 
ATOM     77  C   UNL A   1      44.748  26.419  29.948  1.00  0.00     0.012 A 
ATOM     78  C   UNL A   1      44.477  27.953  28.106  1.00  0.00     0.148 A 
ATOM     79  C   UNL A   1      44.615  25.322  29.095  1.00  0.00     0.002 A 
ATOM     80  C   UNL A   1      44.393  26.853  27.244  1.00  0.00     0.091 A 
ATOM     81  F   UNL A   1      44.392  29.211  27.657  1.00  0.00    -0.205 F 
ATOM     82  C   UNL A   1      44.389  25.541  27.744  1.00  0.00     0.022 A 
BRANCH  80  83
ATOM     83  S   UNL A   1      44.173  27.075  25.474  1.00  0.00     0.127 S 
ATOM     84  O   UNL A   1      43.238  28.195  25.437  1.00  0.00    -0.237 OA
ATOM     85  O   UNL A   1      45.523  27.391  25.010  1.00  0.00    -0.237 OA
ATOM     86  O   UNL A   1      43.671  25.792  25.004  1.00  0.00    -0.744 OA
ENDBRANCH  80  83
ENDBRANCH  52  76
BRANCH  64  87
ATOM     87  C   UNL A   1      42.788  34.733  30.499  1.00  0.00     0.023 A 
ATOM     88  C   UNL A   1      43.319  35.544  31.519  1.00  0.00     0.012 A 
ATOM     89  C   UNL A   1      42.778  35.281  29.191  1.00  0.00     0.148 A 
ATOM     90  C   UNL A   1      43.778  36.840  31.273  1.00  0.00     0.002 A 
ATOM     91  C   UNL A   1      43.357  36.517  28.929  1.00  0.00     0.091 A 
ATOM     92  F   UNL A   1      42.195  34.615  28.183  1.00  0.00    -0.205 F 
ATOM     93  C   UNL A   1      43.830  37.314  29.972  1.00  0.00     0.022 A 
BRANCH  91  94
ATOM     94  S   UNL A   1      43.692  37.040  27.242  1.00  0.00     0.127 S 
ATOM     95  O   UNL A   1      44.325  35.849  26.678  1.00  0.00    -0.237 OA
ATOM     96  O   UNL A   1      42.349  37.318  26.730  1.00  0.00    -0.237 OA
ATOM     97  O   UNL A   1      44.536  38.219  27.369  1.00  0.00    -0.744 OA
ENDBRANCH  91  94
ENDBRANCH  64  87
ENDBRANCH  38  39
ENDBRANCH  30  33
ENDBRANCH  28  29
ENDBRANCH  27  28
ENDBRANCH   1  27
TORSDOF 17
ENDMDL
MODEL 3
REMARK VINA RESULT:     -12.4      1.964      2.546
REMARK SMILES Cc1ccc(S(=O)(=O)Nc2cc(C(=O)NCCCCNC(=O)c3ccc(-c4c5nc(c(-c6cccc(S(=O)(=O)[O-])c6F)c6ccc([nH]6)c(-c6cccc(S(=O)(=O)[O-])c6F)c6nc(c(-c7cccc(S(=O)(=O)[O-])c7F)c7ccc4[nH]7)C=C6)C=C5)cc3)ccc2C)c(Br)c1
REMARK SMILES IDX 17 1 16 2 15 3 13 4 14 5 12 7 10 8 11 9 88 10 87 11 89 12
REMARK SMILES IDX 86 13 9 14 6 16 7 17 8 18 5 19 1 20 2 21 3 22 92 23 4 24
REMARK SMILES IDX 90 25 91 26 18 27 19 28 20 29 21 30 22 32 23 33 24 34 85 35
REMARK SMILES IDX 25 36 84 37 26 38 27 39 28 40 78 41 29 42 83 43 77 44 79 45
REMARK SMILES IDX 30 46 82 47 76 48 75 49 31 51 63 52 43 53 62 54 44 55 47 56
REMARK SMILES IDX 61 57 80 58 45 59 46 60 60 62 81 63 48 64 32 65 33 66 41 67
REMARK SMILES IDX 34 68 36 69 42 70 35 71 37 72 38 73 39 74 40 75 64 76 65 77
REMARK SMILES IDX 73 78 66 79 68 80 74 81 67 82 69 83 70 84 71 85 72 86 49 87
REMARK SMILES IDX 50 88 58 89 51 90 53 91 59 92 52 93 54 94 55 95 56 96 57 97
REMARK H PARENT 15 6 9 15 20 31 79 50 47 61
REMARK Flexibility Score: inf
ROOT
ATOM      1  C   UNL A   1      35.532  21.182  25.658  1.00  0.00     0.023 C 
ENDROOT
BRANCH   1   2
ATOM      2  C   UNL A   1      34.428  20.822  24.658  1.00  0.00     0.116 C 
BRANCH   2   3
ATOM      3  N   UNL A   1      33.102  21.046  25.217  1.00  0.00    -0.352 N 
ATOM      4  C   UNL A   1      32.224  22.099  25.213  1.00  0.00     0.251 C 
ATOM      5  O   UNL A   1      31.155  21.945  25.807  1.00  0.00    -0.269 OA
ATOM      6  H   UNL A   1      32.760  20.265  25.708  1.00  0.00     0.163 HD
BRANCH   4   7
ATOM      7  C   UNL A   1      32.440  23.376  24.476  1.00  0.00     0.041 A 
ATOM      8  C   UNL A   1      33.236  25.656  24.308  1.00  0.00     0.053 A 
ATOM      9  C   UNL A   1      32.761  24.587  25.075  1.00  0.00     0.040 A 
ATOM     10  C   UNL A   1      33.238  25.610  22.907  1.00  0.00    -0.027 A 
ATOM     11  C   UNL A   1      32.777  24.437  22.296  1.00  0.00     0.006 A 
ATOM     12  C   UNL A   1      33.712  26.737  22.034  1.00  0.00     0.046 C 
ATOM     13  C   UNL A   1      32.419  23.324  23.071  1.00  0.00     0.014 A 
BRANCH   8  14
ATOM     14  N   UNL A   1      33.877  26.692  25.032  1.00  0.00    -0.279 N 
ATOM     15  H   UNL A   1      34.852  26.660  25.165  1.00  0.00     0.180 HD
BRANCH  14  16
ATOM     16  S   UNL A   1      32.980  27.997  25.680  1.00  0.00     0.263 S 
ATOM     17  O   UNL A   1      33.897  29.114  25.477  1.00  0.00    -0.201 OA
ATOM     18  O   UNL A   1      32.617  27.575  27.008  1.00  0.00    -0.201 OA
BRANCH  16  19
ATOM     19  C   UNL A   1      31.469  28.386  24.818  1.00  0.00     0.101 A 
ATOM     20  C   UNL A   1      28.393  29.704  22.065  1.00  0.00     0.044 C 
ATOM     21  C   UNL A   1      29.421  29.220  23.045  1.00  0.00    -0.050 A 
ATOM     22  C   UNL A   1      29.701  27.869  23.217  1.00  0.00     0.005 A 
ATOM     23  C   UNL A   1      30.059  30.125  23.891  1.00  0.00     0.020 A 
ATOM     24  C   UNL A   1      30.696  27.459  24.119  1.00  0.00     0.024 A 
ATOM     25  C   UNL A   1      31.032  29.708  24.805  1.00  0.00     0.038 A 
ATOM     26  Br  UNL A   1      31.458  30.919  26.199  1.00  0.00    -0.049 Br
ENDBRANCH  16  19
ENDBRANCH  14  16
ENDBRANCH   8  14
ENDBRANCH   4   7
ENDBRANCH   2   3
ENDBRANCH   1   2
BRANCH   1  27
ATOM     27  C   UNL A   1      36.876  21.587  25.034  1.00  0.00     0.023 C 
BRANCH  27  28
ATOM     28  C   UNL A   1      37.590  22.761  25.700  1.00  0.00     0.116 C 
BRANCH  28  29
ATOM     29  N   UNL A   1      38.840  22.350  26.328  1.00  0.00    -0.352 N 
ATOM     30  C   UNL A   1      39.994  23.068  26.573  1.00  0.00     0.251 C 
ATOM     31  H   UNL A   1      38.865  21.412  26.626  1.00  0.00     0.163 HD
ATOM     32  O   UNL A   1      41.058  22.456  26.574  1.00  0.00    -0.269 OA
BRANCH  30  33
ATOM     33  C   UNL A   1      39.936  24.511  26.889  1.00  0.00     0.039 A 
ATOM     34  C   UNL A   1      40.506  25.485  26.053  1.00  0.00     0.014 A 
ATOM     35  C   UNL A   1      39.435  24.889  28.126  1.00  0.00     0.014 A 
ATOM     36  C   UNL A   1      40.604  26.814  26.489  1.00  0.00     0.010 A 
ATOM     37  C   UNL A   1      39.357  26.205  28.477  1.00  0.00     0.010 A 
ATOM     38  C   UNL A   1      40.052  27.150  27.720  1.00  0.00    -0.014 A 
BRANCH  38  39
ATOM     39  C   UNL A   1      40.274  28.380  28.463  1.00  0.00     0.031 A 
ATOM     40  C   UNL A   1      39.288  29.462  28.507  1.00  0.00     0.074 A 
ATOM     41  C   UNL A   1      41.239  28.271  29.405  1.00  0.00     0.049 A 
ATOM     42  N   UNL A   1      39.508  30.597  29.072  1.00  0.00    -0.248 NA
ATOM     43  C   UNL A   1      37.956  29.339  27.935  1.00  0.00     0.031 C 
ATOM     44  C   UNL A   1      41.347  28.954  30.681  1.00  0.00     0.029 A 
ATOM     45  N   UNL A   1      42.391  27.479  29.342  1.00  0.00    -0.354 N 
ATOM     46  C   UNL A   1      38.291  31.224  29.216  1.00  0.00     0.074 A 
ATOM     47  C   UNL A   1      37.379  30.455  28.398  1.00  0.00     0.031 C 
ATOM     48  C   UNL A   1      42.592  28.778  31.152  1.00  0.00     0.029 A 
ATOM     49  C   UNL A   1      43.365  28.132  30.095  1.00  0.00     0.049 A 
ATOM     50  H   UNL A   1      42.493  26.627  28.859  1.00  0.00     0.167 HD
ATOM     51  C   UNL A   1      38.168  32.209  30.153  1.00  0.00     0.034 A 
ATOM     52  C   UNL A   1      44.533  28.592  29.561  1.00  0.00     0.034 A 
ATOM     53  C   UNL A   1      39.444  32.399  30.874  1.00  0.00     0.049 A 
ATOM     54  C   UNL A   1      44.617  30.086  29.744  1.00  0.00     0.074 A 
ATOM     55  C   UNL A   1      39.891  31.956  32.110  1.00  0.00     0.029 A 
ATOM     56  N   UNL A   1      40.569  32.868  30.198  1.00  0.00    -0.354 N 
ATOM     57  N   UNL A   1      43.575  30.830  29.994  1.00  0.00    -0.248 NA
ATOM     58  C   UNL A   1      45.854  30.853  29.741  1.00  0.00     0.031 C 
ATOM     59  C   UNL A   1      41.307  32.097  32.143  1.00  0.00     0.029 A 
ATOM     60  C   UNL A   1      41.721  32.652  30.942  1.00  0.00     0.049 A 
ATOM     61  H   UNL A   1      40.548  33.296  29.311  1.00  0.00     0.167 HD
ATOM     62  C   UNL A   1      43.948  32.122  30.198  1.00  0.00     0.074 A 
ATOM     63  C   UNL A   1      45.395  32.085  30.034  1.00  0.00     0.031 C 
ATOM     64  C   UNL A   1      43.028  33.100  30.460  1.00  0.00     0.034 A 
BRANCH  51  65
ATOM     65  C   UNL A   1      36.846  32.775  30.664  1.00  0.00     0.023 A 
ATOM     66  C   UNL A   1      36.432  32.395  31.962  1.00  0.00     0.012 A 
ATOM     67  C   UNL A   1      35.959  33.628  29.965  1.00  0.00     0.148 A 
ATOM     68  C   UNL A   1      35.186  32.744  32.495  1.00  0.00     0.002 A 
ATOM     69  C   UNL A   1      34.686  33.927  30.468  1.00  0.00     0.091 A 
ATOM     70  F   UNL A   1      36.367  34.239  28.849  1.00  0.00    -0.205 F 
ATOM     71  C   UNL A   1      34.295  33.482  31.733  1.00  0.00     0.022 A 
BRANCH  69  72
ATOM     72  S   UNL A   1      33.450  34.828  29.513  1.00  0.00     0.127 S 
ATOM     73  O   UNL A   1      32.366  34.991  30.484  1.00  0.00    -0.237 OA
ATOM     74  O   UNL A   1      34.152  36.065  29.175  1.00  0.00    -0.237 OA
ATOM     75  O   UNL A   1      33.109  33.968  28.385  1.00  0.00    -0.744 OA
ENDBRANCH  69  72
ENDBRANCH  51  65
BRANCH  52  76
ATOM     76  C   UNL A   1      45.032  27.771  28.410  1.00  0.00     0.023 A 
ATOM     77  C   UNL A   1      44.793  28.312  27.127  1.00  0.00     0.012 A 
ATOM     78  C   UNL A   1      46.093  26.863  28.553  1.00  0.00     0.148 A 
ATOM     79  C   UNL A   1      45.720  28.177  26.092  1.00  0.00     0.002 A 
ATOM     80  C   UNL A   1      46.996  26.688  27.498  1.00  0.00     0.091 A 
ATOM     81  F   UNL A   1      46.265  26.264  29.737  1.00  0.00    -0.205 F 
ATOM     82  C   UNL A   1      46.851  27.400  26.296  1.00  0.00     0.022 A 
BRANCH  80  83
ATOM     83  S   UNL A   1      48.441  25.635  27.678  1.00  0.00     0.127 S 
ATOM     84  O   UNL A   1      47.824  24.327  27.868  1.00  0.00    -0.237 OA
ATOM     85  O   UNL A   1      49.134  25.804  26.401  1.00  0.00    -0.237 OA
ATOM     86  O   UNL A   1      49.158  26.190  28.818  1.00  0.00    -0.744 OA
ENDBRANCH  80  83
ENDBRANCH  52  76
BRANCH  64  87
ATOM     87  C   UNL A   1      43.282  34.582  30.296  1.00  0.00     0.023 A 
ATOM     88  C   UNL A   1      43.784  35.371  31.348  1.00  0.00     0.012 A 
ATOM     89  C   UNL A   1      43.217  35.193  29.017  1.00  0.00     0.148 A 
ATOM     90  C   UNL A   1      44.165  36.702  31.160  1.00  0.00     0.002 A 
ATOM     91  C   UNL A   1      43.721  36.472  28.810  1.00  0.00     0.091 A 
ATOM     92  F   UNL A   1      42.655  34.545  27.987  1.00  0.00    -0.205 F 
ATOM     93  C   UNL A   1      44.166  37.242  29.884  1.00  0.00     0.022 A 
BRANCH  91  94
ATOM     94  S   UNL A   1      43.995  37.096  27.147  1.00  0.00     0.127 S 
ATOM     95  O   UNL A   1      44.701  35.980  26.519  1.00  0.00    -0.237 OA
ATOM     96  O   UNL A   1      42.629  37.304  26.663  1.00  0.00    -0.237 OA
ATOM     97  O   UNL A   1      44.758  38.324  27.322  1.00  0.00    -0.744 OA
ENDBRANCH  91  94
ENDBRANCH  64  87
ENDBRANCH  38  39
ENDBRANCH  30  33
ENDBRANCH  28  29
ENDBRANCH  27  28
ENDBRANCH   1  27
TORSDOF 17
ENDMDL
