MODEL 1
REMARK VINA RESULT:     -10.0      0.000      0.000
REMARK SMILES CC(C)(C)c1ccc(OCc2nnc(SCC(=O)NCCCCNC(=O)c3ccc(-c4c5nc(c(-c6cccc(S(=O)(=O)[O-])c6F)c6ccc([nH]6)c(-c6cccc(S(=O)(=O)[O-])c6F)c6nc(c(-c7cccc(S(=O)(=O)[O-])c7F)c7ccc4[nH]7)C=C6)C=C5)cc3)o2)cc1
REMARK SMILES IDX 20 1 19 2 17 3 18 4 16 6 15 7 14 8 11 9 12 10 90 11 13 12
REMARK SMILES IDX 10 13 9 14 8 15 5 16 6 17 92 18 7 19 91 20 2 21 1 22 3 23
REMARK SMILES IDX 4 24 21 25 22 26 23 27 24 28 25 29 26 31 27 32 28 33 89 34
REMARK SMILES IDX 29 35 88 36 30 37 31 38 32 39 82 40 33 41 87 42 81 43 83 44
REMARK SMILES IDX 34 45 86 46 80 47 79 48 35 50 67 51 47 52 66 53 48 54 51 55
REMARK SMILES IDX 65 56 84 57 49 58 50 59 64 61 85 62 52 63 36 64 37 65 45 66
REMARK SMILES IDX 38 67 40 68 46 69 39 70 41 71 42 72 43 73 44 74 68 75 69 76
REMARK SMILES IDX 77 77 70 78 72 79 78 80 71 81 73 82 74 83 75 84 76 85 53 86
REMARK SMILES IDX 54 87 62 88 55 89 57 90 63 91 56 92 58 93 59 94 60 95 61 96
REMARK H PARENT 19 5 24 30 83 49 51 60
REMARK Flexibility Score: inf
ROOT
ATOM      1  C   UNL A   1      35.173  32.921  28.774  1.00  0.00     0.116 C 
ENDROOT
BRANCH   1   2
ATOM      2  N   UNL A   1      35.981  31.967  28.036  1.00  0.00    -0.355 N 
ATOM      3  C   UNL A   1      35.716  30.674  27.695  1.00  0.00     0.230 C 
ATOM      4  O   UNL A   1      36.622  30.010  27.186  1.00  0.00    -0.274 OA
ATOM      5  H   UNL A   1      36.855  32.306  27.734  1.00  0.00     0.163 HD
BRANCH   3   6
ATOM      6  C   UNL A   1      34.329  30.089  27.862  1.00  0.00     0.179 C 
BRANCH   6   7
ATOM      7  S   UNL A   1      33.397  29.896  26.329  1.00  0.00    -0.055 SA
BRANCH   7   8
ATOM      8  C   UNL A   1      33.107  28.190  26.297  1.00  0.00     0.277 A 
ATOM      9  C   UNL A   1      33.301  26.089  26.054  1.00  0.00     0.254 A 
ATOM     10  N   UNL A   1      32.110  26.300  26.579  1.00  0.00    -0.108 NA
ATOM     11  O   UNL A   1      34.001  27.252  25.851  1.00  0.00    -0.412 OA
ATOM     12  N   UNL A   1      31.976  27.659  26.709  1.00  0.00    -0.101 NA
BRANCH   9  13
ATOM     13  C   UNL A   1      33.944  24.798  25.697  1.00  0.00     0.328 C 
BRANCH  13  14
ATOM     14  O   UNL A   1      33.214  23.690  26.251  1.00  0.00    -0.484 OA
BRANCH  14  15
ATOM     15  C   UNL A   1      33.344  22.459  25.668  1.00  0.00     0.120 A 
ATOM     16  C   UNL A   1      33.358  19.776  24.719  1.00  0.00    -0.042 A 
ATOM     17  C   UNL A   1      32.157  20.438  25.023  1.00  0.00     0.008 A 
ATOM     18  C   UNL A   1      34.542  20.517  24.854  1.00  0.00     0.008 A 
ATOM     19  C   UNL A   1      32.151  21.761  25.487  1.00  0.00     0.047 A 
ATOM     20  C   UNL A   1      34.534  21.845  25.297  1.00  0.00     0.047 A 
BRANCH  16  21
ATOM     21  C   UNL A   1      33.378  18.286  24.335  1.00  0.00    -0.013 C 
ATOM     22  C   UNL A   1      32.540  17.511  25.374  1.00  0.00     0.016 C 
ATOM     23  C   UNL A   1      34.801  17.681  24.323  1.00  0.00     0.016 C 
ATOM     24  C   UNL A   1      32.779  18.043  22.932  1.00  0.00     0.016 C 
ENDBRANCH  16  21
ENDBRANCH  14  15
ENDBRANCH  13  14
ENDBRANCH   9  13
ENDBRANCH   7   8
ENDBRANCH   6   7
ENDBRANCH   3   6
ENDBRANCH   1   2
BRANCH   1  25
ATOM     25  C   UNL A   1      35.316  34.329  28.193  1.00  0.00     0.023 C 
BRANCH  25  26
ATOM     26  C   UNL A   1      34.202  35.306  28.593  1.00  0.00     0.023 C 
BRANCH  26  27
ATOM     27  C   UNL A   1      33.050  34.702  29.392  1.00  0.00     0.116 C 
BRANCH  27  28
ATOM     28  N   UNL A   1      32.720  35.474  30.579  1.00  0.00    -0.352 N 
ATOM     29  C   UNL A   1      33.289  35.444  31.827  1.00  0.00     0.251 C 
ATOM     30  H   UNL A   1      31.980  36.113  30.472  1.00  0.00     0.163 HD
ATOM     31  O   UNL A   1      32.768  36.087  32.741  1.00  0.00    -0.269 OA
BRANCH  29  32
ATOM     32  C   UNL A   1      34.499  34.632  32.094  1.00  0.00     0.039 A 
ATOM     33  C   UNL A   1      35.751  35.192  31.822  1.00  0.00     0.014 A 
ATOM     34  C   UNL A   1      34.415  33.326  32.585  1.00  0.00     0.014 A 
ATOM     35  C   UNL A   1      36.913  34.463  32.088  1.00  0.00     0.010 A 
ATOM     36  C   UNL A   1      35.576  32.629  32.920  1.00  0.00     0.010 A 
ATOM     37  C   UNL A   1      36.839  33.185  32.668  1.00  0.00    -0.014 A 
BRANCH  37  38
ATOM     38  C   UNL A   1      38.077  32.440  33.024  1.00  0.00     0.031 A 
ATOM     39  C   UNL A   1      38.816  32.737  34.303  1.00  0.00     0.074 A 
ATOM     40  C   UNL A   1      38.566  31.519  32.168  1.00  0.00     0.049 A 
ATOM     41  N   UNL A   1      39.896  32.170  34.781  1.00  0.00    -0.248 NA
ATOM     42  C   UNL A   1      38.292  33.823  35.146  1.00  0.00     0.031 C 
ATOM     43  C   UNL A   1      37.993  31.194  30.859  1.00  0.00     0.029 A 
ATOM     44  N   UNL A   1      39.658  30.694  32.263  1.00  0.00    -0.354 N 
ATOM     45  C   UNL A   1      40.190  32.840  35.963  1.00  0.00     0.074 A 
ATOM     46  C   UNL A   1      39.202  33.887  36.108  1.00  0.00     0.031 C 
ATOM     47  C   UNL A   1      38.726  30.227  30.285  1.00  0.00     0.029 A 
ATOM     48  C   UNL A   1      39.834  29.881  31.167  1.00  0.00     0.049 A 
ATOM     49  H   UNL A   1      40.261  30.685  33.042  1.00  0.00     0.167 HD
ATOM     50  C   UNL A   1      41.169  32.589  36.864  1.00  0.00     0.034 A 
ATOM     51  C   UNL A   1      40.779  28.956  30.904  1.00  0.00     0.034 A 
ATOM     52  C   UNL A   1      42.133  31.529  36.735  1.00  0.00     0.049 A 
ATOM     53  C   UNL A   1      41.837  28.677  31.937  1.00  0.00     0.074 A 
ATOM     54  C   UNL A   1      43.121  31.150  37.628  1.00  0.00     0.029 A 
ATOM     55  N   UNL A   1      42.238  30.681  35.643  1.00  0.00    -0.354 N 
ATOM     56  N   UNL A   1      42.001  29.218  33.120  1.00  0.00    -0.248 NA
ATOM     57  C   UNL A   1      42.818  27.630  31.615  1.00  0.00     0.031 C 
ATOM     58  C   UNL A   1      43.839  30.090  37.064  1.00  0.00     0.029 A 
ATOM     59  C   UNL A   1      43.276  29.784  35.836  1.00  0.00     0.049 A 
ATOM     60  H   UNL A   1      41.658  30.711  34.848  1.00  0.00     0.167 HD
ATOM     61  C   UNL A   1      43.074  28.549  33.699  1.00  0.00     0.074 A 
ATOM     62  C   UNL A   1      43.504  27.546  32.746  1.00  0.00     0.031 C 
ATOM     63  C   UNL A   1      43.661  28.757  34.904  1.00  0.00     0.034 A 
BRANCH  50  64
ATOM     64  C   UNL A   1      41.214  33.440  38.109  1.00  0.00     0.023 A 
ATOM     65  C   UNL A   1      40.454  33.061  39.236  1.00  0.00     0.012 A 
ATOM     66  C   UNL A   1      42.051  34.570  38.192  1.00  0.00     0.148 A 
ATOM     67  C   UNL A   1      40.500  33.809  40.411  1.00  0.00     0.002 A 
ATOM     68  C   UNL A   1      42.127  35.285  39.383  1.00  0.00     0.091 A 
ATOM     69  F   UNL A   1      42.753  34.927  37.107  1.00  0.00    -0.205 F 
ATOM     70  C   UNL A   1      41.344  34.913  40.489  1.00  0.00     0.022 A 
BRANCH  68  71
ATOM     71  S   UNL A   1      43.242  36.674  39.615  1.00  0.00     0.127 S 
ATOM     72  O   UNL A   1      42.792  37.590  38.566  1.00  0.00    -0.237 OA
ATOM     73  O   UNL A   1      42.920  37.102  40.976  1.00  0.00    -0.237 OA
ATOM     74  O   UNL A   1      44.588  36.145  39.442  1.00  0.00    -0.744 OA
ENDBRANCH  68  71
ENDBRANCH  50  64
BRANCH  51  75
ATOM     75  C   UNL A   1      40.732  28.172  29.636  1.00  0.00     0.023 A 
ATOM     76  C   UNL A   1      39.762  27.162  29.482  1.00  0.00     0.012 A 
ATOM     77  C   UNL A   1      41.635  28.420  28.585  1.00  0.00     0.148 A 
ATOM     78  C   UNL A   1      39.721  26.384  28.325  1.00  0.00     0.002 A 
ATOM     79  C   UNL A   1      41.552  27.681  27.412  1.00  0.00     0.091 A 
ATOM     80  F   UNL A   1      42.558  29.377  28.754  1.00  0.00    -0.205 F 
ATOM     81  C   UNL A   1      40.610  26.648  27.287  1.00  0.00     0.022 A 
BRANCH  79  82
ATOM     82  S   UNL A   1      42.570  28.039  25.977  1.00  0.00     0.127 S 
ATOM     83  O   UNL A   1      42.461  29.493  25.888  1.00  0.00    -0.237 OA
ATOM     84  O   UNL A   1      43.880  27.544  26.404  1.00  0.00    -0.237 OA
ATOM     85  O   UNL A   1      41.977  27.290  24.877  1.00  0.00    -0.744 OA
ENDBRANCH  79  82
ENDBRANCH  51  75
BRANCH  63  86
ATOM     86  C   UNL A   1      44.807  27.852  35.284  1.00  0.00     0.023 A 
ATOM     87  C   UNL A   1      46.136  28.273  35.077  1.00  0.00     0.012 A 
ATOM     88  C   UNL A   1      44.563  26.604  35.891  1.00  0.00     0.148 A 
ATOM     89  C   UNL A   1      47.203  27.445  35.426  1.00  0.00     0.002 A 
ATOM     90  C   UNL A   1      45.633  25.809  36.285  1.00  0.00     0.091 A 
ATOM     91  F   UNL A   1      43.292  26.213  36.064  1.00  0.00    -0.205 F 
ATOM     92  C   UNL A   1      46.952  26.220  36.038  1.00  0.00     0.022 A 
BRANCH  90  93
ATOM     93  S   UNL A   1      45.406  24.262  37.169  1.00  0.00     0.127 S 
ATOM     94  O   UNL A   1      44.632  24.694  38.332  1.00  0.00    -0.237 OA
ATOM     95  O   UNL A   1      44.656  23.459  36.202  1.00  0.00    -0.237 OA
ATOM     96  O   UNL A   1      46.744  23.764  37.456  1.00  0.00    -0.744 OA
ENDBRANCH  90  93
ENDBRANCH  63  86
ENDBRANCH  37  38
ENDBRANCH  29  32
ENDBRANCH  27  28
ENDBRANCH  26  27
ENDBRANCH  25  26
ENDBRANCH   1  25
TORSDOF 20
ENDMDL
MODEL 2
REMARK VINA RESULT:      -9.9      6.465     12.793
REMARK SMILES CC(C)(C)c1ccc(OCc2nnc(SCC(=O)NCCCCNC(=O)c3ccc(-c4c5nc(c(-c6cccc(S(=O)(=O)[O-])c6F)c6ccc([nH]6)c(-c6cccc(S(=O)(=O)[O-])c6F)c6nc(c(-c7cccc(S(=O)(=O)[O-])c7F)c7ccc4[nH]7)C=C6)C=C5)cc3)o2)cc1
REMARK SMILES IDX 20 1 19 2 17 3 18 4 16 6 15 7 14 8 11 9 12 10 90 11 13 12
REMARK SMILES IDX 10 13 9 14 8 15 5 16 6 17 92 18 7 19 91 20 2 21 1 22 3 23
REMARK SMILES IDX 4 24 21 25 22 26 23 27 24 28 25 29 26 31 27 32 28 33 89 34
REMARK SMILES IDX 29 35 88 36 30 37 31 38 32 39 82 40 33 41 87 42 81 43 83 44
REMARK SMILES IDX 34 45 86 46 80 47 79 48 35 50 67 51 47 52 66 53 48 54 51 55
REMARK SMILES IDX 65 56 84 57 49 58 50 59 64 61 85 62 52 63 36 64 37 65 45 66
REMARK SMILES IDX 38 67 40 68 46 69 39 70 41 71 42 72 43 73 44 74 68 75 69 76
REMARK SMILES IDX 77 77 70 78 72 79 78 80 71 81 73 82 74 83 75 84 76 85 53 86
REMARK SMILES IDX 54 87 62 88 55 89 57 90 63 91 56 92 58 93 59 94 60 95 61 96
REMARK H PARENT 19 5 24 30 83 49 51 60
REMARK Flexibility Score: inf
ROOT
ATOM      1  C   UNL A   1      45.791  22.781  25.638  1.00  0.00     0.116 C 
ENDROOT
BRANCH   1   2
ATOM      2  N   UNL A   1      46.752  23.592  24.912  1.00  0.00    -0.355 N 
ATOM      3  C   UNL A   1      46.771  24.936  24.689  1.00  0.00     0.230 C 
ATOM      4  O   UNL A   1      47.620  25.384  23.914  1.00  0.00    -0.274 OA
ATOM      5  H   UNL A   1      47.506  23.094  24.521  1.00  0.00     0.163 HD
BRANCH   3   6
ATOM      6  C   UNL A   1      45.831  25.867  25.427  1.00  0.00     0.179 C 
BRANCH   6   7
ATOM      7  S   UNL A   1      44.087  25.670  25.011  1.00  0.00    -0.055 SA
BRANCH   7   8
ATOM      8  C   UNL A   1      43.462  27.253  25.327  1.00  0.00     0.277 A 
ATOM      9  C   UNL A   1      43.177  29.230  26.049  1.00  0.00     0.254 A 
ATOM     10  N   UNL A   1      42.189  28.989  25.210  1.00  0.00    -0.108 NA
ATOM     11  O   UNL A   1      44.037  28.167  26.170  1.00  0.00    -0.412 OA
ATOM     12  N   UNL A   1      42.360  27.702  24.767  1.00  0.00    -0.101 NA
BRANCH   9  13
ATOM     13  C   UNL A   1      43.461  30.469  26.819  1.00  0.00     0.328 C 
BRANCH  13  14
ATOM     14  O   UNL A   1      43.631  31.594  25.939  1.00  0.00    -0.484 OA
BRANCH  14  15
ATOM     15  C   UNL A   1      44.734  32.389  26.092  1.00  0.00     0.120 A 
ATOM     16  C   UNL A   1      47.119  33.814  26.709  1.00  0.00    -0.042 A 
ATOM     17  C   UNL A   1      47.094  32.410  26.670  1.00  0.00     0.008 A 
ATOM     18  C   UNL A   1      45.927  34.478  26.377  1.00  0.00     0.008 A 
ATOM     19  C   UNL A   1      45.920  31.709  26.362  1.00  0.00     0.047 A 
ATOM     20  C   UNL A   1      44.760  33.777  26.048  1.00  0.00     0.047 A 
BRANCH  16  21
ATOM     21  C   UNL A   1      48.368  34.583  27.173  1.00  0.00    -0.013 C 
ATOM     22  C   UNL A   1      47.913  35.710  28.123  1.00  0.00     0.016 C 
ATOM     23  C   UNL A   1      49.150  35.229  26.006  1.00  0.00     0.016 C 
ATOM     24  C   UNL A   1      49.362  33.670  27.923  1.00  0.00     0.016 C 
ENDBRANCH  16  21
ENDBRANCH  14  15
ENDBRANCH  13  14
ENDBRANCH   9  13
ENDBRANCH   7   8
ENDBRANCH   6   7
ENDBRANCH   3   6
ENDBRANCH   1   2
BRANCH   1  25
ATOM     25  C   UNL A   1      45.822  21.329  25.159  1.00  0.00     0.023 C 
BRANCH  25  26
ATOM     26  C   UNL A   1      44.516  20.553  25.372  1.00  0.00     0.023 C 
BRANCH  26  27
ATOM     27  C   UNL A   1      43.251  21.402  25.467  1.00  0.00     0.116 C 
BRANCH  27  28
ATOM     28  N   UNL A   1      42.207  20.775  26.262  1.00  0.00    -0.352 N 
ATOM     29  C   UNL A   1      41.517  21.265  27.342  1.00  0.00     0.251 C 
ATOM     30  H   UNL A   1      41.959  19.864  25.984  1.00  0.00     0.163 HD
ATOM     31  O   UNL A   1      40.761  20.516  27.962  1.00  0.00    -0.269 OA
BRANCH  29  32
ATOM     32  C   UNL A   1      41.688  22.669  27.782  1.00  0.00     0.039 A 
ATOM     33  C   UNL A   1      42.552  22.934  28.847  1.00  0.00     0.014 A 
ATOM     34  C   UNL A   1      40.992  23.719  27.175  1.00  0.00     0.014 A 
ATOM     35  C   UNL A   1      42.756  24.251  29.269  1.00  0.00     0.010 A 
ATOM     36  C   UNL A   1      41.254  25.038  27.546  1.00  0.00     0.010 A 
ATOM     37  C   UNL A   1      42.132  25.320  28.604  1.00  0.00    -0.014 A 
BRANCH  37  38
ATOM     38  C   UNL A   1      42.409  26.727  29.001  1.00  0.00     0.031 A 
ATOM     39  C   UNL A   1      43.824  27.236  29.106  1.00  0.00     0.074 A 
ATOM     40  C   UNL A   1      41.381  27.542  29.314  1.00  0.00     0.049 A 
ATOM     41  N   UNL A   1      44.247  28.436  29.416  1.00  0.00    -0.248 NA
ATOM     42  C   UNL A   1      44.906  26.271  28.853  1.00  0.00     0.031 C 
ATOM     43  C   UNL A   1      39.969  27.152  29.332  1.00  0.00     0.029 A 
ATOM     44  N   UNL A   1      41.362  28.863  29.684  1.00  0.00    -0.354 N 
ATOM     45  C   UNL A   1      45.635  28.365  29.415  1.00  0.00     0.074 A 
ATOM     46  C   UNL A   1      45.985  26.993  29.119  1.00  0.00     0.031 C 
ATOM     47  C   UNL A   1      39.222  28.214  29.675  1.00  0.00     0.029 A 
ATOM     48  C   UNL A   1      40.099  29.352  29.926  1.00  0.00     0.049 A 
ATOM     49  H   UNL A   1      42.176  29.411  29.769  1.00  0.00     0.167 HD
ATOM     50  C   UNL A   1      46.539  29.356  29.607  1.00  0.00     0.034 A 
ATOM     51  C   UNL A   1      39.691  30.581  30.303  1.00  0.00     0.034 A 
ATOM     52  C   UNL A   1      46.191  30.726  29.872  1.00  0.00     0.049 A 
ATOM     53  C   UNL A   1      40.715  31.668  30.481  1.00  0.00     0.074 A 
ATOM     54  C   UNL A   1      47.032  31.816  30.014  1.00  0.00     0.029 A 
ATOM     55  N   UNL A   1      44.898  31.198  30.042  1.00  0.00    -0.354 N 
ATOM     56  N   UNL A   1      42.016  31.615  30.320  1.00  0.00    -0.248 NA
ATOM     57  C   UNL A   1      40.211  32.999  30.852  1.00  0.00     0.031 C 
ATOM     58  C   UNL A   1      46.250  32.942  30.294  1.00  0.00     0.029 A 
ATOM     59  C   UNL A   1      44.918  32.560  30.293  1.00  0.00     0.049 A 
ATOM     60  H   UNL A   1      44.085  30.645  29.991  1.00  0.00     0.167 HD
ATOM     61  C   UNL A   1      42.478  32.909  30.529  1.00  0.00     0.074 A 
ATOM     62  C   UNL A   1      41.315  33.729  30.802  1.00  0.00     0.031 C 
ATOM     63  C   UNL A   1      43.752  33.375  30.512  1.00  0.00     0.034 A 
BRANCH  50  64
ATOM     64  C   UNL A   1      48.001  29.007  29.480  1.00  0.00     0.023 A 
ATOM     65  C   UNL A   1      48.744  28.702  30.639  1.00  0.00     0.012 A 
ATOM     66  C   UNL A   1      48.623  28.915  28.218  1.00  0.00     0.148 A 
ATOM     67  C   UNL A   1      50.089  28.344  30.550  1.00  0.00     0.002 A 
ATOM     68  C   UNL A   1      49.952  28.511  28.135  1.00  0.00     0.091 A 
ATOM     69  F   UNL A   1      47.907  29.224  27.129  1.00  0.00    -0.205 F 
ATOM     70  C   UNL A   1      50.689  28.238  29.299  1.00  0.00     0.022 A 
BRANCH  68  71
ATOM     71  S   UNL A   1      50.796  28.266  26.568  1.00  0.00     0.127 S 
ATOM     72  O   UNL A   1      50.905  29.639  26.074  1.00  0.00    -0.237 OA
ATOM     73  O   UNL A   1      52.063  27.669  26.993  1.00  0.00    -0.237 OA
ATOM     74  O   UNL A   1      49.941  27.388  25.781  1.00  0.00    -0.744 OA
ENDBRANCH  68  71
ENDBRANCH  50  64
BRANCH  51  75
ATOM     75  C   UNL A   1      38.238  30.871  30.472  1.00  0.00     0.023 A 
ATOM     76  C   UNL A   1      37.653  30.762  31.750  1.00  0.00     0.012 A 
ATOM     77  C   UNL A   1      37.435  31.256  29.382  1.00  0.00     0.148 A 
ATOM     78  C   UNL A   1      36.288  30.985  31.930  1.00  0.00     0.002 A 
ATOM     79  C   UNL A   1      36.087  31.534  29.579  1.00  0.00     0.091 A 
ATOM     80  F   UNL A   1      38.006  31.344  28.173  1.00  0.00    -0.205 F 
ATOM     81  C   UNL A   1      35.507  31.380  30.847  1.00  0.00     0.022 A 
BRANCH  79  82
ATOM     82  S   UNL A   1      35.037  32.172  28.269  1.00  0.00     0.127 S 
ATOM     83  O   UNL A   1      35.837  33.282  27.758  1.00  0.00    -0.237 OA
ATOM     84  O   UNL A   1      34.938  31.019  27.373  1.00  0.00    -0.237 OA
ATOM     85  O   UNL A   1      33.784  32.538  28.914  1.00  0.00    -0.744 OA
ENDBRANCH  79  82
ENDBRANCH  51  75
BRANCH  63  86
ATOM     86  C   UNL A   1      43.956  34.850  30.752  1.00  0.00     0.023 A 
ATOM     87  C   UNL A   1      44.346  35.309  32.026  1.00  0.00     0.012 A 
ATOM     88  C   UNL A   1      43.808  35.775  29.700  1.00  0.00     0.148 A 
ATOM     89  C   UNL A   1      44.539  36.671  32.260  1.00  0.00     0.002 A 
ATOM     90  C   UNL A   1      44.055  37.124  29.927  1.00  0.00     0.091 A 
ATOM     91  F   UNL A   1      43.420  35.322  28.499  1.00  0.00    -0.205 F 
ATOM     92  C   UNL A   1      44.404  37.575  31.210  1.00  0.00     0.022 A 
BRANCH  90  93
ATOM     93  S   UNL A   1      44.002  38.346  28.612  1.00  0.00     0.127 S 
ATOM     94  O   UNL A   1      42.630  38.202  28.127  1.00  0.00    -0.237 OA
ATOM     95  O   UNL A   1      44.266  39.591  29.335  1.00  0.00    -0.237 OA
ATOM     96  O   UNL A   1      45.044  37.965  27.668  1.00  0.00    -0.744 OA
ENDBRANCH  90  93
ENDBRANCH  63  86
ENDBRANCH  37  38
ENDBRANCH  29  32
ENDBRANCH  27  28
ENDBRANCH  26  27
ENDBRANCH  25  26
ENDBRANCH   1  25
TORSDOF 20
ENDMDL
MODEL 3
REMARK VINA RESULT:      -9.9      6.861      9.816
REMARK SMILES CC(C)(C)c1ccc(OCc2nnc(SCC(=O)NCCCCNC(=O)c3ccc(-c4c5nc(c(-c6cccc(S(=O)(=O)[O-])c6F)c6ccc([nH]6)c(-c6cccc(S(=O)(=O)[O-])c6F)c6nc(c(-c7cccc(S(=O)(=O)[O-])c7F)c7ccc4[nH]7)C=C6)C=C5)cc3)o2)cc1
REMARK SMILES IDX 20 1 19 2 17 3 18 4 16 6 15 7 14 8 11 9 12 10 90 11 13 12
REMARK SMILES IDX 10 13 9 14 8 15 5 16 6 17 92 18 7 19 91 20 2 21 1 22 3 23
REMARK SMILES IDX 4 24 21 25 22 26 23 27 24 28 25 29 26 31 27 32 28 33 89 34
REMARK SMILES IDX 29 35 88 36 30 37 31 38 32 39 82 40 33 41 87 42 81 43 83 44
REMARK SMILES IDX 34 45 86 46 80 47 79 48 35 50 67 51 47 52 66 53 48 54 51 55
REMARK SMILES IDX 65 56 84 57 49 58 50 59 64 61 85 62 52 63 36 64 37 65 45 66
REMARK SMILES IDX 38 67 40 68 46 69 39 70 41 71 42 72 43 73 44 74 68 75 69 76
REMARK SMILES IDX 77 77 70 78 72 79 78 80 71 81 73 82 74 83 75 84 76 85 53 86
REMARK SMILES IDX 54 87 62 88 55 89 57 90 63 91 56 92 58 93 59 94 60 95 61 96
REMARK H PARENT 19 5 24 30 83 49 51 60
REMARK Flexibility Score: inf
ROOT
ATOM      1  C   UNL A   1      34.861  33.831  33.895  1.00  0.00     0.116 C 
ENDROOT
BRANCH   1   2
ATOM      2  N   UNL A   1      34.645  35.249  34.124  1.00  0.00    -0.355 N 
ATOM      3  C   UNL A   1      33.949  36.158  33.385  1.00  0.00     0.230 C 
ATOM      4  O   UNL A   1      34.026  37.347  33.704  1.00  0.00    -0.274 OA
ATOM      5  H   UNL A   1      35.067  35.609  34.937  1.00  0.00     0.163 HD
BRANCH   3   6
ATOM      6  C   UNL A   1      33.042  35.719  32.253  1.00  0.00     0.179 C 
BRANCH   6   7
ATOM      7  S   UNL A   1      33.289  36.600  30.698  1.00  0.00    -0.055 SA
BRANCH   7   8
ATOM      8  C   UNL A   1      33.408  35.298  29.564  1.00  0.00     0.277 A 
ATOM      9  C   UNL A   1      34.063  33.614  28.448  1.00  0.00     0.254 A 
ATOM     10  N   UNL A   1      32.865  33.924  27.994  1.00  0.00    -0.108 NA
ATOM     11  O   UNL A   1      34.475  34.446  29.459  1.00  0.00    -0.412 OA
ATOM     12  N   UNL A   1      32.455  35.029  28.697  1.00  0.00    -0.101 NA
BRANCH   9  13
ATOM     13  C   UNL A   1      34.961  32.508  28.023  1.00  0.00     0.328 C 
BRANCH  13  14
ATOM     14  O   UNL A   1      34.974  31.453  29.000  1.00  0.00    -0.484 OA
BRANCH  14  15
ATOM     15  C   UNL A   1      36.092  30.673  29.111  1.00  0.00     0.120 A 
ATOM     16  C   UNL A   1      38.379  28.985  28.962  1.00  0.00    -0.042 A 
ATOM     17  C   UNL A   1      38.149  29.993  28.010  1.00  0.00     0.008 A 
ATOM     18  C   UNL A   1      37.457  28.887  30.016  1.00  0.00     0.008 A 
ATOM     19  C   UNL A   1      37.025  30.826  28.087  1.00  0.00     0.047 A 
ATOM     20  C   UNL A   1      36.345  29.734  30.104  1.00  0.00     0.047 A 
BRANCH  16  21
ATOM     21  C   UNL A   1      39.539  27.986  28.809  1.00  0.00    -0.013 C 
ATOM     22  C   UNL A   1      40.204  27.808  30.190  1.00  0.00     0.016 C 
ATOM     23  C   UNL A   1      40.623  28.462  27.815  1.00  0.00     0.016 C 
ATOM     24  C   UNL A   1      39.052  26.608  28.310  1.00  0.00     0.016 C 
ENDBRANCH  16  21
ENDBRANCH  14  15
ENDBRANCH  13  14
ENDBRANCH   9  13
ENDBRANCH   7   8
ENDBRANCH   6   7
ENDBRANCH   3   6
ENDBRANCH   1   2
BRANCH   1  25
ATOM     25  C   UNL A   1      35.675  33.596  32.622  1.00  0.00     0.023 C 
BRANCH  25  26
ATOM     26  C   UNL A   1      37.190  33.489  32.838  1.00  0.00     0.023 C 
BRANCH  26  27
ATOM     27  C   UNL A   1      37.626  32.895  34.175  1.00  0.00     0.116 C 
BRANCH  27  28
ATOM     28  N   UNL A   1      37.555  31.443  34.198  1.00  0.00    -0.352 N 
ATOM     29  C   UNL A   1      38.324  30.519  33.537  1.00  0.00     0.251 C 
ATOM     30  H   UNL A   1      36.850  31.066  34.773  1.00  0.00     0.163 HD
ATOM     31  O   UNL A   1      38.010  29.328  33.588  1.00  0.00    -0.269 OA
BRANCH  29  32
ATOM     32  C   UNL A   1      39.507  30.936  32.748  1.00  0.00     0.039 A 
ATOM     33  C   UNL A   1      39.363  31.104  31.368  1.00  0.00     0.014 A 
ATOM     34  C   UNL A   1      40.753  31.140  33.346  1.00  0.00     0.014 A 
ATOM     35  C   UNL A   1      40.452  31.523  30.600  1.00  0.00     0.010 A 
ATOM     36  C   UNL A   1      41.819  31.632  32.591  1.00  0.00     0.010 A 
ATOM     37  C   UNL A   1      41.684  31.820  31.207  1.00  0.00    -0.014 A 
BRANCH  37  38
ATOM     38  C   UNL A   1      42.822  32.341  30.402  1.00  0.00     0.031 A 
ATOM     39  C   UNL A   1      42.888  33.795  30.008  1.00  0.00     0.074 A 
ATOM     40  C   UNL A   1      43.782  31.491  29.983  1.00  0.00     0.049 A 
ATOM     41  N   UNL A   1      43.815  34.423  29.329  1.00  0.00    -0.248 NA
ATOM     42  C   UNL A   1      41.759  34.651  30.407  1.00  0.00     0.031 C 
ATOM     43  C   UNL A   1      43.794  30.047  30.224  1.00  0.00     0.029 A 
ATOM     44  N   UNL A   1      44.926  31.714  29.259  1.00  0.00    -0.354 N 
ATOM     45  C   UNL A   1      43.375  35.735  29.203  1.00  0.00     0.074 A 
ATOM     46  C   UNL A   1      42.075  35.805  29.836  1.00  0.00     0.031 C 
ATOM     47  C   UNL A   1      44.901  29.518  29.677  1.00  0.00     0.029 A 
ATOM     48  C   UNL A   1      45.662  30.576  29.024  1.00  0.00     0.049 A 
ATOM     49  H   UNL A   1      45.195  32.605  28.936  1.00  0.00     0.167 HD
ATOM     50  C   UNL A   1      44.006  36.796  28.645  1.00  0.00     0.034 A 
ATOM     51  C   UNL A   1      46.824  30.404  28.360  1.00  0.00     0.034 A 
ATOM     52  C   UNL A   1      45.310  36.734  28.042  1.00  0.00     0.049 A 
ATOM     53  C   UNL A   1      47.516  31.605  27.776  1.00  0.00     0.074 A 
ATOM     54  C   UNL A   1      46.063  37.767  27.511  1.00  0.00     0.029 A 
ATOM     55  N   UNL A   1      46.056  35.576  27.884  1.00  0.00    -0.354 N 
ATOM     56  N   UNL A   1      47.155  32.865  27.807  1.00  0.00    -0.248 NA
ATOM     57  C   UNL A   1      48.799  31.365  27.099  1.00  0.00     0.031 C 
ATOM     58  C   UNL A   1      47.253  37.229  27.008  1.00  0.00     0.029 A 
ATOM     59  C   UNL A   1      47.257  35.867  27.258  1.00  0.00     0.049 A 
ATOM     60  H   UNL A   1      45.774  34.679  28.174  1.00  0.00     0.167 HD
ATOM     61  C   UNL A   1      48.184  33.571  27.193  1.00  0.00     0.074 A 
ATOM     62  C   UNL A   1      49.194  32.600  26.824  1.00  0.00     0.031 C 
ATOM     63  C   UNL A   1      48.278  34.901  26.943  1.00  0.00     0.034 A 
BRANCH  50  64
ATOM     64  C   UNL A   1      43.318  38.138  28.710  1.00  0.00     0.023 A 
ATOM     65  C   UNL A   1      42.395  38.493  27.704  1.00  0.00     0.012 A 
ATOM     66  C   UNL A   1      43.527  39.014  29.793  1.00  0.00     0.148 A 
ATOM     67  C   UNL A   1      41.719  39.711  27.754  1.00  0.00     0.002 A 
ATOM     68  C   UNL A   1      42.814  40.207  29.861  1.00  0.00     0.091 A 
ATOM     69  F   UNL A   1      44.419  38.669  30.732  1.00  0.00    -0.205 F 
ATOM     70  C   UNL A   1      41.920  40.562  28.837  1.00  0.00     0.022 A 
BRANCH  68  71
ATOM     71  S   UNL A   1      42.938  41.336  31.252  1.00  0.00     0.127 S 
ATOM     72  O   UNL A   1      42.650  40.449  32.379  1.00  0.00    -0.237 OA
ATOM     73  O   UNL A   1      44.331  41.778  31.165  1.00  0.00    -0.237 OA
ATOM     74  O   UNL A   1      41.951  42.380  31.014  1.00  0.00    -0.744 OA
ENDBRANCH  68  71
ENDBRANCH  50  64
BRANCH  51  75
ATOM     75  C   UNL A   1      47.445  29.051  28.271  1.00  0.00     0.023 A 
ATOM     76  C   UNL A   1      48.338  28.631  29.276  1.00  0.00     0.012 A 
ATOM     77  C   UNL A   1      47.157  28.180  27.203  1.00  0.00     0.148 A 
ATOM     78  C   UNL A   1      48.967  27.389  29.196  1.00  0.00     0.002 A 
ATOM     79  C   UNL A   1      47.742  26.921  27.160  1.00  0.00     0.091 A 
ATOM     80  F   UNL A   1      46.313  28.601  26.250  1.00  0.00    -0.205 F 
ATOM     81  C   UNL A   1      48.664  26.531  28.143  1.00  0.00     0.022 A 
BRANCH  79  82
ATOM     82  S   UNL A   1      47.310  25.703  25.912  1.00  0.00     0.127 S 
ATOM     83  O   UNL A   1      48.070  26.175  24.758  1.00  0.00    -0.237 OA
ATOM     84  O   UNL A   1      47.807  24.465  26.513  1.00  0.00    -0.237 OA
ATOM     85  O   UNL A   1      45.861  25.768  25.786  1.00  0.00    -0.744 OA
ENDBRANCH  79  82
ENDBRANCH  51  75
BRANCH  63  86
ATOM     86  C   UNL A   1      49.537  35.396  26.276  1.00  0.00     0.023 A 
ATOM     87  C   UNL A   1      49.569  35.579  24.879  1.00  0.00     0.012 A 
ATOM     88  C   UNL A   1      50.672  35.724  27.042  1.00  0.00     0.148 A 
ATOM     89  C   UNL A   1      50.728  36.037  24.251  1.00  0.00     0.002 A 
ATOM     90  C   UNL A   1      51.804  36.232  26.416  1.00  0.00     0.091 A 
ATOM     91  F   UNL A   1      50.630  35.527  28.368  1.00  0.00    -0.205 F 
ATOM     92  C   UNL A   1      51.839  36.373  25.019  1.00  0.00     0.022 A 
BRANCH  90  93
ATOM     93  S   UNL A   1      53.246  36.783  27.334  1.00  0.00     0.127 S 
ATOM     94  O   UNL A   1      54.114  37.268  26.262  1.00  0.00    -0.237 OA
ATOM     95  O   UNL A   1      52.688  37.832  28.187  1.00  0.00    -0.237 OA
ATOM     96  O   UNL A   1      53.733  35.615  28.055  1.00  0.00    -0.744 OA
ENDBRANCH  90  93
ENDBRANCH  63  86
ENDBRANCH  37  38
ENDBRANCH  29  32
ENDBRANCH  27  28
ENDBRANCH  26  27
ENDBRANCH  25  26
ENDBRANCH   1  25
TORSDOF 20
ENDMDL
