MODEL 1
REMARK VINA RESULT:     -11.2      0.000      0.000
REMARK SMILES CCCC[C@@H](C(=O)NCCCCNC(=O)c1ccc(-c2c3nc(c(-c4cccc(S(=O)(=O)[O-])c4F)c4ccc([nH]4)c(-c4cccc(S(=O)(=O)[O-])c4F)c4nc(c(-c5cccc(S(=O)(=O)[O-])c5F)c5ccc2[nH]5)C=C4)C=C3)cc1)[C@H](O)c1ccc(OC)c(O)c1
REMARK SMILES IDX 10 1 9 2 8 3 6 4 7 5 5 7 4 8 3 9 2 10 1 11 79 12 81 13 82 14
REMARK SMILES IDX 89 15 83 16 87 17 84 18 88 19 85 21 86 22 80 23 11 25 12 26
REMARK SMILES IDX 13 27 14 28 15 30 16 31 17 32 78 33 18 34 77 35 19 36 20 37
REMARK SMILES IDX 21 38 71 39 22 40 76 41 70 42 72 43 23 44 75 45 69 46 68 47
REMARK SMILES IDX 24 49 56 50 36 51 55 52 37 53 40 54 54 55 73 56 38 57 39 58
REMARK SMILES IDX 53 60 74 61 41 62 25 63 26 64 34 65 27 66 29 67 35 68 28 69
REMARK SMILES IDX 30 70 31 71 32 72 33 73 57 74 58 75 66 76 59 77 61 78 67 79
REMARK SMILES IDX 60 80 62 81 63 82 64 83 65 84 42 85 43 86 51 87 44 88 46 89
REMARK SMILES IDX 52 90 45 91 47 92 48 93 49 94 50 95
REMARK H PARENT 8 6 88 20 80 24 13 29 72 48 40 59
REMARK Flexibility Score: inf
ROOT
ATOM      1  C   UNL A   1      34.385  22.305  26.231  1.00  0.00     0.023 C 
ENDROOT
BRANCH   1   2
ATOM      2  C   UNL A   1      33.197  22.633  25.330  1.00  0.00     0.116 C 
BRANCH   2   3
ATOM      3  N   UNL A   1      33.604  22.646  23.950  1.00  0.00    -0.356 N 
ATOM      4  C   UNL A   1      33.717  23.657  23.058  1.00  0.00     0.226 C 
ATOM      5  O   UNL A   1      34.178  23.318  21.964  1.00  0.00    -0.275 OA
ATOM      6  H   UNL A   1      33.845  21.761  23.591  1.00  0.00     0.163 HD
BRANCH   4   7
ATOM      7  C   UNL A   1      33.369  25.125  23.387  1.00  0.00     0.111 C 
BRANCH   7   8
ATOM      8  C   UNL A   1      34.045  25.793  24.620  1.00  0.00     0.016 C 
BRANCH   8   9
ATOM      9  C   UNL A   1      33.227  26.177  25.861  1.00  0.00     0.001 C 
BRANCH   9  10
ATOM     10  C   UNL A   1      33.460  27.549  26.487  1.00  0.00    -0.003 C 
ATOM     11  C   UNL A   1      33.402  28.678  25.476  1.00  0.00     0.004 C 
ENDBRANCH   9  10
ENDBRANCH   8   9
ENDBRANCH   7   8
BRANCH   7  12
ATOM     12  C   UNL A   1      31.801  25.205  23.513  1.00  0.00     0.157 C 
BRANCH  12  13
ATOM     13  C   UNL A   1      31.047  26.510  23.231  1.00  0.00    -0.015 A 
ATOM     14  C   UNL A   1      29.745  26.669  23.734  1.00  0.00     0.010 A 
ATOM     15  C   UNL A   1      31.607  27.610  22.562  1.00  0.00     0.056 A 
ATOM     16  C   UNL A   1      29.047  27.875  23.569  1.00  0.00     0.051 A 
ATOM     17  C   UNL A   1      30.912  28.815  22.397  1.00  0.00     0.158 A 
ATOM     18  C   UNL A   1      29.625  28.964  22.910  1.00  0.00     0.160 A 
BRANCH  17  19
ATOM     19  O   UNL A   1      31.541  29.827  21.723  1.00  0.00    -0.504 OA
ATOM     20  H   UNL A   1      32.476  29.880  21.726  1.00  0.00     0.293 HD
ENDBRANCH  17  19
BRANCH  18  21
ATOM     21  O   UNL A   1      28.823  30.073  22.861  1.00  0.00    -0.493 OA
ATOM     22  C   UNL A   1      27.416  29.857  22.860  1.00  0.00     0.278 C 
ENDBRANCH  18  21
ENDBRANCH  12  13
BRANCH  12  23
ATOM     23  O   UNL A   1      31.243  24.147  22.708  1.00  0.00    -0.388 OA
ATOM     24  H   UNL A   1      30.291  24.292  22.598  1.00  0.00     0.211 HD
ENDBRANCH  12  23
ENDBRANCH   7  12
ENDBRANCH   4   7
ENDBRANCH   2   3
ENDBRANCH   1   2
BRANCH   1  25
ATOM     25  C   UNL A   1      35.502  21.511  25.560  1.00  0.00     0.023 C 
BRANCH  25  26
ATOM     26  C   UNL A   1      36.884  22.137  25.670  1.00  0.00     0.116 C 
BRANCH  26  27
ATOM     27  N   UNL A   1      37.972  21.169  25.660  1.00  0.00    -0.352 N 
ATOM     28  C   UNL A   1      39.272  21.339  26.086  1.00  0.00     0.251 C 
ATOM     29  H   UNL A   1      37.750  20.278  25.304  1.00  0.00     0.163 HD
ATOM     30  O   UNL A   1      40.093  20.451  25.937  1.00  0.00    -0.269 OA
BRANCH  28  31
ATOM     31  C   UNL A   1      39.655  22.637  26.681  1.00  0.00     0.039 A 
ATOM     32  C   UNL A   1      40.617  22.654  27.691  1.00  0.00     0.014 A 
ATOM     33  C   UNL A   1      39.127  23.829  26.180  1.00  0.00     0.014 A 
ATOM     34  C   UNL A   1      41.109  23.878  28.144  1.00  0.00     0.010 A 
ATOM     35  C   UNL A   1      39.685  25.041  26.565  1.00  0.00     0.010 A 
ATOM     36  C   UNL A   1      40.680  25.079  27.553  1.00  0.00    -0.014 A 
BRANCH  36  37
ATOM     37  C   UNL A   1      41.286  26.377  27.940  1.00  0.00     0.031 A 
ATOM     38  C   UNL A   1      42.720  26.680  27.606  1.00  0.00     0.074 A 
ATOM     39  C   UNL A   1      40.564  27.251  28.668  1.00  0.00     0.049 A 
ATOM     40  N   UNL A   1      43.404  27.771  27.841  1.00  0.00    -0.248 NA
ATOM     41  C   UNL A   1      43.502  25.612  26.962  1.00  0.00     0.031 C 
ATOM     42  C   UNL A   1      39.205  27.017  29.168  1.00  0.00     0.029 A 
ATOM     43  N   UNL A   1      40.874  28.505  29.131  1.00  0.00    -0.354 N 
ATOM     44  C   UNL A   1      44.697  27.508  27.405  1.00  0.00     0.074 A 
ATOM     45  C   UNL A   1      44.716  26.140  26.936  1.00  0.00     0.031 C 
ATOM     46  C   UNL A   1      38.794  28.099  29.848  1.00  0.00     0.029 A 
ATOM     47  C   UNL A   1      39.858  29.098  29.842  1.00  0.00     0.049 A 
ATOM     48  H   UNL A   1      41.742  28.938  28.969  1.00  0.00     0.167 HD
ATOM     49  C   UNL A   1      45.763  28.341  27.360  1.00  0.00     0.034 A 
ATOM     50  C   UNL A   1      39.784  30.318  30.409  1.00  0.00     0.034 A 
ATOM     51  C   UNL A   1      45.721  29.717  27.773  1.00  0.00     0.049 A 
ATOM     52  C   UNL A   1      40.940  31.265  30.243  1.00  0.00     0.074 A 
ATOM     53  C   UNL A   1      46.709  30.680  27.664  1.00  0.00     0.029 A 
ATOM     54  N   UNL A   1      44.631  30.328  28.374  1.00  0.00    -0.354 N 
ATOM     55  N   UNL A   1      42.089  31.067  29.644  1.00  0.00    -0.248 NA
ATOM     56  C   UNL A   1      40.771  32.622  30.783  1.00  0.00     0.031 C 
ATOM     57  C   UNL A   1      46.218  31.872  28.211  1.00  0.00     0.029 A 
ATOM     58  C   UNL A   1      44.919  31.654  28.644  1.00  0.00     0.049 A 
ATOM     59  H   UNL A   1      43.778  29.883  28.578  1.00  0.00     0.167 HD
ATOM     60  C   UNL A   1      42.768  32.278  29.707  1.00  0.00     0.074 A 
ATOM     61  C   UNL A   1      41.887  33.213  30.378  1.00  0.00     0.031 C 
ATOM     62  C   UNL A   1      44.014  32.584  29.267  1.00  0.00     0.034 A 
BRANCH  49  63
ATOM     63  C   UNL A   1      47.043  27.803  26.777  1.00  0.00     0.023 A 
ATOM     64  C   UNL A   1      48.004  27.223  27.631  1.00  0.00     0.012 A 
ATOM     65  C   UNL A   1      47.281  27.830  25.389  1.00  0.00     0.148 A 
ATOM     66  C   UNL A   1      49.197  26.716  27.120  1.00  0.00     0.002 A 
ATOM     67  C   UNL A   1      48.455  27.281  24.882  1.00  0.00     0.091 A 
ATOM     68  F   UNL A   1      46.370  28.408  24.594  1.00  0.00    -0.205 F 
ATOM     69  C   UNL A   1      49.418  26.735  25.747  1.00  0.00     0.022 A 
BRANCH  67  70
ATOM     70  S   UNL A   1      48.794  27.188  23.121  1.00  0.00     0.127 S 
ATOM     71  O   UNL A   1      50.254  27.257  23.097  1.00  0.00    -0.237 OA
ATOM     72  O   UNL A   1      48.240  25.880  22.767  1.00  0.00    -0.237 OA
ATOM     73  O   UNL A   1      48.101  28.320  22.521  1.00  0.00    -0.744 OA
ENDBRANCH  67  70
ENDBRANCH  49  63
BRANCH  50  74
ATOM     74  C   UNL A   1      38.526  30.745  31.084  1.00  0.00     0.023 A 
ATOM     75  C   UNL A   1      38.393  30.561  32.474  1.00  0.00     0.012 A 
ATOM     76  C   UNL A   1      37.488  31.377  30.373  1.00  0.00     0.148 A 
ATOM     77  C   UNL A   1      37.237  30.970  33.139  1.00  0.00     0.002 A 
ATOM     78  C   UNL A   1      36.362  31.832  31.051  1.00  0.00     0.091 A 
ATOM     79  F   UNL A   1      37.630  31.535  29.049  1.00  0.00    -0.205 F 
ATOM     80  C   UNL A   1      36.226  31.614  32.431  1.00  0.00     0.022 A 
BRANCH  78  81
ATOM     81  S   UNL A   1      35.081  32.797  30.243  1.00  0.00     0.127 S 
ATOM     82  O   UNL A   1      34.159  33.054  31.346  1.00  0.00    -0.237 OA
ATOM     83  O   UNL A   1      35.826  33.966  29.777  1.00  0.00    -0.237 OA
ATOM     84  O   UNL A   1      34.571  31.949  29.173  1.00  0.00    -0.744 OA
ENDBRANCH  78  81
ENDBRANCH  50  74
BRANCH  62  85
ATOM     85  C   UNL A   1      44.494  33.996  29.476  1.00  0.00     0.023 A 
ATOM     86  C   UNL A   1      45.066  34.363  30.710  1.00  0.00     0.012 A 
ATOM     87  C   UNL A   1      44.432  34.941  28.434  1.00  0.00     0.148 A 
ATOM     88  C   UNL A   1      45.536  35.659  30.916  1.00  0.00     0.002 A 
ATOM     89  C   UNL A   1      44.944  36.219  28.631  1.00  0.00     0.091 A 
ATOM     90  F   UNL A   1      43.863  34.584  27.274  1.00  0.00    -0.205 F 
ATOM     91  C   UNL A   1      45.485  36.583  29.875  1.00  0.00     0.022 A 
BRANCH  89  92
ATOM     92  S   UNL A   1      45.000  37.432  27.309  1.00  0.00     0.127 S 
ATOM     93  O   UNL A   1      43.588  37.555  26.955  1.00  0.00    -0.237 OA
ATOM     94  O   UNL A   1      45.565  38.606  27.979  1.00  0.00    -0.237 OA
ATOM     95  O   UNL A   1      45.862  36.857  26.285  1.00  0.00    -0.744 OA
ENDBRANCH  89  92
ENDBRANCH  62  85
ENDBRANCH  36  37
ENDBRANCH  28  31
ENDBRANCH  26  27
ENDBRANCH  25  26
ENDBRANCH   1  25
TORSDOF 22
ENDMDL
MODEL 2
REMARK VINA RESULT:     -11.0      5.227     10.065
REMARK SMILES CCCC[C@@H](C(=O)NCCCCNC(=O)c1ccc(-c2c3nc(c(-c4cccc(S(=O)(=O)[O-])c4F)c4ccc([nH]4)c(-c4cccc(S(=O)(=O)[O-])c4F)c4nc(c(-c5cccc(S(=O)(=O)[O-])c5F)c5ccc2[nH]5)C=C4)C=C3)cc1)[C@H](O)c1ccc(OC)c(O)c1
REMARK SMILES IDX 10 1 9 2 8 3 6 4 7 5 5 7 4 8 3 9 2 10 1 11 79 12 81 13 82 14
REMARK SMILES IDX 89 15 83 16 87 17 84 18 88 19 85 21 86 22 80 23 11 25 12 26
REMARK SMILES IDX 13 27 14 28 15 30 16 31 17 32 78 33 18 34 77 35 19 36 20 37
REMARK SMILES IDX 21 38 71 39 22 40 76 41 70 42 72 43 23 44 75 45 69 46 68 47
REMARK SMILES IDX 24 49 56 50 36 51 55 52 37 53 40 54 54 55 73 56 38 57 39 58
REMARK SMILES IDX 53 60 74 61 41 62 25 63 26 64 34 65 27 66 29 67 35 68 28 69
REMARK SMILES IDX 30 70 31 71 32 72 33 73 57 74 58 75 66 76 59 77 61 78 67 79
REMARK SMILES IDX 60 80 62 81 63 82 64 83 65 84 42 85 43 86 51 87 44 88 46 89
REMARK SMILES IDX 52 90 45 91 47 92 48 93 49 94 50 95
REMARK H PARENT 8 6 88 20 80 24 13 29 72 48 40 59
REMARK Flexibility Score: inf
ROOT
ATOM      1  C   UNL A   1      32.009  27.867  26.273  1.00  0.00     0.023 C 
ENDROOT
BRANCH   1   2
ATOM      2  C   UNL A   1      31.630  26.655  25.424  1.00  0.00     0.116 C 
BRANCH   2   3
ATOM      3  N   UNL A   1      31.008  25.647  26.241  1.00  0.00    -0.356 N 
ATOM      4  C   UNL A   1      31.369  24.374  26.525  1.00  0.00     0.226 C 
ATOM      5  O   UNL A   1      30.633  23.809  27.338  1.00  0.00    -0.275 OA
ATOM      6  H   UNL A   1      30.170  25.935  26.671  1.00  0.00     0.163 HD
BRANCH   4   7
ATOM      7  C   UNL A   1      32.630  23.698  25.945  1.00  0.00     0.111 C 
BRANCH   7   8
ATOM      8  C   UNL A   1      33.893  24.571  25.687  1.00  0.00     0.016 C 
BRANCH   8   9
ATOM      9  C   UNL A   1      34.810  24.302  24.486  1.00  0.00     0.001 C 
BRANCH   9  10
ATOM     10  C   UNL A   1      35.926  23.273  24.642  1.00  0.00    -0.003 C 
ATOM     11  C   UNL A   1      37.090  23.783  25.470  1.00  0.00     0.004 C 
ENDBRANCH   9  10
ENDBRANCH   8   9
ENDBRANCH   7   8
BRANCH   7  12
ATOM     12  C   UNL A   1      32.188  22.971  24.619  1.00  0.00     0.157 C 
BRANCH  12  13
ATOM     13  C   UNL A   1      32.432  21.470  24.417  1.00  0.00    -0.015 A 
ATOM     14  C   UNL A   1      32.874  20.698  25.503  1.00  0.00     0.010 A 
ATOM     15  C   UNL A   1      32.161  20.786  23.222  1.00  0.00     0.056 A 
ATOM     16  C   UNL A   1      33.035  19.310  25.388  1.00  0.00     0.051 A 
ATOM     17  C   UNL A   1      32.319  19.399  23.104  1.00  0.00     0.158 A 
ATOM     18  C   UNL A   1      32.749  18.643  24.192  1.00  0.00     0.160 A 
BRANCH  17  19
ATOM     19  O   UNL A   1      32.036  18.825  21.894  1.00  0.00    -0.504 OA
ATOM     20  H   UNL A   1      31.527  19.292  21.263  1.00  0.00     0.293 HD
ENDBRANCH  17  19
BRANCH  18  21
ATOM     21  O   UNL A   1      32.929  17.287  24.257  1.00  0.00    -0.493 OA
ATOM     22  C   UNL A   1      32.645  16.652  25.499  1.00  0.00     0.278 C 
ENDBRANCH  18  21
ENDBRANCH  12  13
BRANCH  12  23
ATOM     23  O   UNL A   1      30.793  23.262  24.406  1.00  0.00    -0.388 OA
ATOM     24  H   UNL A   1      30.312  23.172  25.242  1.00  0.00     0.211 HD
ENDBRANCH  12  23
ENDBRANCH   7  12
ENDBRANCH   4   7
ENDBRANCH   2   3
ENDBRANCH   1   2
BRANCH   1  25
ATOM     25  C   UNL A   1      33.402  27.809  26.890  1.00  0.00     0.023 C 
BRANCH  25  26
ATOM     26  C   UNL A   1      34.340  28.924  26.453  1.00  0.00     0.116 C 
BRANCH  26  27
ATOM     27  N   UNL A   1      33.861  30.260  26.780  1.00  0.00    -0.352 N 
ATOM     28  C   UNL A   1      34.406  31.173  27.658  1.00  0.00     0.251 C 
ATOM     29  H   UNL A   1      33.042  30.548  26.315  1.00  0.00     0.163 HD
ATOM     30  O   UNL A   1      33.838  32.227  27.886  1.00  0.00    -0.269 OA
BRANCH  28  31
ATOM     31  C   UNL A   1      35.666  30.822  28.348  1.00  0.00     0.039 A 
ATOM     32  C   UNL A   1      35.660  29.766  29.258  1.00  0.00     0.014 A 
ATOM     33  C   UNL A   1      36.856  31.480  28.026  1.00  0.00     0.014 A 
ATOM     34  C   UNL A   1      36.870  29.316  29.789  1.00  0.00     0.010 A 
ATOM     35  C   UNL A   1      38.065  30.971  28.482  1.00  0.00     0.010 A 
ATOM     36  C   UNL A   1      38.085  29.886  29.370  1.00  0.00    -0.014 A 
BRANCH  36  37
ATOM     37  C   UNL A   1      39.383  29.335  29.832  1.00  0.00     0.031 A 
ATOM     38  C   UNL A   1      40.119  29.969  30.979  1.00  0.00     0.074 A 
ATOM     39  C   UNL A   1      39.939  28.308  29.159  1.00  0.00     0.049 A 
ATOM     40  N   UNL A   1      41.246  29.604  31.532  1.00  0.00    -0.248 NA
ATOM     41  C   UNL A   1      39.538  31.192  31.557  1.00  0.00     0.031 C 
ATOM     42  C   UNL A   1      39.387  27.690  27.949  1.00  0.00     0.029 A 
ATOM     43  N   UNL A   1      41.099  27.611  29.384  1.00  0.00    -0.354 N 
ATOM     44  C   UNL A   1      41.525  30.566  32.495  1.00  0.00     0.074 A 
ATOM     45  C   UNL A   1      40.474  31.557  32.419  1.00  0.00     0.031 C 
ATOM     46  C   UNL A   1      40.198  26.696  27.553  1.00  0.00     0.029 A 
ATOM     47  C   UNL A   1      41.329  26.610  28.471  1.00  0.00     0.049 A 
ATOM     48  H   UNL A   1      41.710  27.811  30.129  1.00  0.00     0.167 HD
ATOM     49  C   UNL A   1      42.540  30.603  33.390  1.00  0.00     0.034 A 
ATOM     50  C   UNL A   1      42.328  25.710  28.393  1.00  0.00     0.034 A 
ATOM     51  C   UNL A   1      43.547  29.583  33.499  1.00  0.00     0.049 A 
ATOM     52  C   UNL A   1      43.380  25.700  29.468  1.00  0.00     0.074 A 
ATOM     53  C   UNL A   1      44.553  29.462  34.442  1.00  0.00     0.029 A 
ATOM     54  N   UNL A   1      43.678  28.507  32.635  1.00  0.00    -0.354 N 
ATOM     55  N   UNL A   1      43.515  26.501  30.497  1.00  0.00    -0.248 NA
ATOM     56  C   UNL A   1      44.388  24.632  29.403  1.00  0.00     0.031 C 
ATOM     57  C   UNL A   1      45.299  28.317  34.139  1.00  0.00     0.029 A 
ATOM     58  C   UNL A   1      44.746  27.716  33.019  1.00  0.00     0.049 A 
ATOM     59  H   UNL A   1      43.095  28.331  31.862  1.00  0.00     0.167 HD
ATOM     60  C   UNL A   1      44.599  26.018  31.218  1.00  0.00     0.074 A 
ATOM     61  C   UNL A   1      45.069  24.837  30.522  1.00  0.00     0.031 C 
ATOM     62  C   UNL A   1      45.168  26.516  32.344  1.00  0.00     0.034 A 
BRANCH  49  63
ATOM     63  C   UNL A   1      42.564  31.747  34.369  1.00  0.00     0.023 A 
ATOM     64  C   UNL A   1      43.156  32.971  33.991  1.00  0.00     0.012 A 
ATOM     65  C   UNL A   1      41.972  31.632  35.641  1.00  0.00     0.148 A 
ATOM     66  C   UNL A   1      43.192  34.047  34.875  1.00  0.00     0.002 A 
ATOM     67  C   UNL A   1      41.972  32.725  36.501  1.00  0.00     0.091 A 
ATOM     68  F   UNL A   1      41.438  30.454  35.996  1.00  0.00    -0.205 F 
ATOM     69  C   UNL A   1      42.592  33.928  36.124  1.00  0.00     0.022 A 
BRANCH  67  70
ATOM     70  S   UNL A   1      41.157  32.694  38.101  1.00  0.00     0.127 S 
ATOM     71  O   UNL A   1      41.245  34.097  38.505  1.00  0.00    -0.237 OA
ATOM     72  O   UNL A   1      39.808  32.245  37.752  1.00  0.00    -0.237 OA
ATOM     73  O   UNL A   1      41.914  31.756  38.917  1.00  0.00    -0.744 OA
ENDBRANCH  67  70
ENDBRANCH  49  63
BRANCH  50  74
ATOM     74  C   UNL A   1      42.311  24.676  27.319  1.00  0.00     0.023 A 
ATOM     75  C   UNL A   1      43.139  24.840  26.192  1.00  0.00     0.012 A 
ATOM     76  C   UNL A   1      41.525  23.514  27.431  1.00  0.00     0.148 A 
ATOM     77  C   UNL A   1      43.162  23.880  25.180  1.00  0.00     0.002 A 
ATOM     78  C   UNL A   1      41.594  22.535  26.445  1.00  0.00     0.091 A 
ATOM     79  F   UNL A   1      40.737  23.381  28.507  1.00  0.00    -0.205 F 
ATOM     80  C   UNL A   1      42.399  22.723  25.311  1.00  0.00     0.022 A 
BRANCH  78  81
ATOM     81  S   UNL A   1      40.756  20.954  26.603  1.00  0.00     0.127 S 
ATOM     82  O   UNL A   1      39.412  21.279  26.134  1.00  0.00    -0.237 OA
ATOM     83  O   UNL A   1      41.534  20.104  25.701  1.00  0.00    -0.237 OA
ATOM     84  O   UNL A   1      40.869  20.591  28.010  1.00  0.00    -0.744 OA
ENDBRANCH  78  81
ENDBRANCH  50  74
BRANCH  62  85
ATOM     85  C   UNL A   1      46.351  25.774  32.909  1.00  0.00     0.023 A 
ATOM     86  C   UNL A   1      47.657  26.187  32.579  1.00  0.00     0.012 A 
ATOM     87  C   UNL A   1      46.170  24.707  33.810  1.00  0.00     0.148 A 
ATOM     88  C   UNL A   1      48.764  25.527  33.108  1.00  0.00     0.002 A 
ATOM     89  C   UNL A   1      47.279  24.082  34.370  1.00  0.00     0.091 A 
ATOM     90  F   UNL A   1      44.921  24.311  34.096  1.00  0.00    -0.205 F 
ATOM     91  C   UNL A   1      48.576  24.482  34.011  1.00  0.00     0.022 A 
BRANCH  89  92
ATOM     92  S   UNL A   1      47.115  22.795  35.612  1.00  0.00     0.127 S 
ATOM     93  O   UNL A   1      46.475  21.725  34.850  1.00  0.00    -0.237 OA
ATOM     94  O   UNL A   1      48.508  22.531  35.980  1.00  0.00    -0.237 OA
ATOM     95  O   UNL A   1      46.315  23.379  36.680  1.00  0.00    -0.744 OA
ENDBRANCH  89  92
ENDBRANCH  62  85
ENDBRANCH  36  37
ENDBRANCH  28  31
ENDBRANCH  26  27
ENDBRANCH  25  26
ENDBRANCH   1  25
TORSDOF 22
ENDMDL
MODEL 3
REMARK VINA RESULT:     -10.8      5.157     10.341
REMARK SMILES CCCC[C@@H](C(=O)NCCCCNC(=O)c1ccc(-c2c3nc(c(-c4cccc(S(=O)(=O)[O-])c4F)c4ccc([nH]4)c(-c4cccc(S(=O)(=O)[O-])c4F)c4nc(c(-c5cccc(S(=O)(=O)[O-])c5F)c5ccc2[nH]5)C=C4)C=C3)cc1)[C@H](O)c1ccc(OC)c(O)c1
REMARK SMILES IDX 10 1 9 2 8 3 6 4 7 5 5 7 4 8 3 9 2 10 1 11 79 12 81 13 82 14
REMARK SMILES IDX 89 15 83 16 87 17 84 18 88 19 85 21 86 22 80 23 11 25 12 26
REMARK SMILES IDX 13 27 14 28 15 30 16 31 17 32 78 33 18 34 77 35 19 36 20 37
REMARK SMILES IDX 21 38 71 39 22 40 76 41 70 42 72 43 23 44 75 45 69 46 68 47
REMARK SMILES IDX 24 49 56 50 36 51 55 52 37 53 40 54 54 55 73 56 38 57 39 58
REMARK SMILES IDX 53 60 74 61 41 62 25 63 26 64 34 65 27 66 29 67 35 68 28 69
REMARK SMILES IDX 30 70 31 71 32 72 33 73 57 74 58 75 66 76 59 77 61 78 67 79
REMARK SMILES IDX 60 80 62 81 63 82 64 83 65 84 42 85 43 86 51 87 44 88 46 89
REMARK SMILES IDX 52 90 45 91 47 92 48 93 49 94 50 95
REMARK H PARENT 8 6 88 20 80 24 13 29 72 48 40 59
REMARK Flexibility Score: inf
ROOT
ATOM      1  C   UNL A   1      32.151  27.278  24.528  1.00  0.00     0.023 C 
ENDROOT
BRANCH   1   2
ATOM      2  C   UNL A   1      32.106  25.779  24.240  1.00  0.00     0.116 C 
BRANCH   2   3
ATOM      3  N   UNL A   1      32.038  25.036  25.470  1.00  0.00    -0.356 N 
ATOM      4  C   UNL A   1      32.627  23.878  25.852  1.00  0.00     0.226 C 
ATOM      5  O   UNL A   1      32.407  23.563  27.025  1.00  0.00    -0.275 OA
ATOM      6  H   UNL A   1      31.462  25.442  26.156  1.00  0.00     0.163 HD
BRANCH   4   7
ATOM      7  C   UNL A   1      33.551  23.050  24.934  1.00  0.00     0.111 C 
BRANCH   7   8
ATOM      8  C   UNL A   1      34.572  23.802  24.029  1.00  0.00     0.016 C 
BRANCH   8   9
ATOM      9  C   UNL A   1      35.825  23.097  23.493  1.00  0.00     0.001 C 
BRANCH   9  10
ATOM     10  C   UNL A   1      36.986  22.851  24.453  1.00  0.00    -0.003 C 
ATOM     11  C   UNL A   1      37.309  21.380  24.627  1.00  0.00     0.004 C 
ENDBRANCH   9  10
ENDBRANCH   8   9
ENDBRANCH   7   8
BRANCH   7  12
ATOM     12  C   UNL A   1      32.620  22.130  24.058  1.00  0.00     0.157 C 
BRANCH  12  13
ATOM     13  C   UNL A   1      32.923  20.638  23.875  1.00  0.00    -0.015 A 
ATOM     14  C   UNL A   1      33.880  20.029  24.704  1.00  0.00     0.010 A 
ATOM     15  C   UNL A   1      32.241  19.804  22.976  1.00  0.00     0.056 A 
ATOM     16  C   UNL A   1      34.133  18.652  24.626  1.00  0.00     0.051 A 
ATOM     17  C   UNL A   1      32.492  18.428  22.897  1.00  0.00     0.158 A 
ATOM     18  C   UNL A   1      33.436  17.834  23.732  1.00  0.00     0.160 A 
BRANCH  17  19
ATOM     19  O   UNL A   1      31.780  17.701  21.982  1.00  0.00    -0.504 OA
ATOM     20  H   UNL A   1      32.201  17.023  21.493  1.00  0.00     0.293 HD
ENDBRANCH  17  19
BRANCH  18  21
ATOM     21  O   UNL A   1      33.782  16.511  23.804  1.00  0.00    -0.493 OA
ATOM     22  C   UNL A   1      34.292  16.040  25.047  1.00  0.00     0.278 C 
ENDBRANCH  18  21
ENDBRANCH  12  13
BRANCH  12  23
ATOM     23  O   UNL A   1      31.271  22.287  24.542  1.00  0.00    -0.388 OA
ATOM     24  H   UNL A   1      31.253  22.145  25.501  1.00  0.00     0.211 HD
ENDBRANCH  12  23
ENDBRANCH   7  12
ENDBRANCH   4   7
ENDBRANCH   2   3
ENDBRANCH   1   2
BRANCH   1  25
ATOM     25  C   UNL A   1      33.452  27.971  24.134  1.00  0.00     0.023 C 
BRANCH  25  26
ATOM     26  C   UNL A   1      34.032  28.891  25.197  1.00  0.00     0.116 C 
BRANCH  26  27
ATOM     27  N   UNL A   1      33.164  30.006  25.549  1.00  0.00    -0.352 N 
ATOM     28  C   UNL A   1      33.246  30.841  26.643  1.00  0.00     0.251 C 
ATOM     29  H   UNL A   1      32.423  30.186  24.926  1.00  0.00     0.163 HD
ATOM     30  O   UNL A   1      32.389  31.685  26.843  1.00  0.00    -0.269 OA
BRANCH  28  31
ATOM     31  C   UNL A   1      34.368  30.658  27.588  1.00  0.00     0.039 A 
ATOM     32  C   UNL A   1      34.409  29.499  28.362  1.00  0.00     0.014 A 
ATOM     33  C   UNL A   1      35.411  31.586  27.638  1.00  0.00     0.014 A 
ATOM     34  C   UNL A   1      35.542  29.232  29.132  1.00  0.00     0.010 A 
ATOM     35  C   UNL A   1      36.574  31.273  28.330  1.00  0.00     0.010 A 
ATOM     36  C   UNL A   1      36.651  30.095  29.087  1.00  0.00    -0.014 A 
BRANCH  36  37
ATOM     37  C   UNL A   1      37.907  29.759  29.802  1.00  0.00     0.031 A 
ATOM     38  C   UNL A   1      38.183  30.323  31.168  1.00  0.00     0.074 A 
ATOM     39  C   UNL A   1      38.838  29.008  29.181  1.00  0.00     0.049 A 
ATOM     40  N   UNL A   1      39.212  30.114  31.949  1.00  0.00    -0.248 NA
ATOM     41  C   UNL A   1      37.202  31.274  31.715  1.00  0.00     0.031 C 
ATOM     42  C   UNL A   1      38.744  28.510  27.805  1.00  0.00     0.029 A 
ATOM     43  N   UNL A   1      40.053  28.545  29.617  1.00  0.00    -0.354 N 
ATOM     44  C   UNL A   1      39.018  30.929  33.057  1.00  0.00     0.074 A 
ATOM     45  C   UNL A   1      37.798  31.673  32.827  1.00  0.00     0.031 C 
ATOM     46  C   UNL A   1      39.845  27.796  27.520  1.00  0.00     0.029 A 
ATOM     47  C   UNL A   1      40.725  27.792  28.683  1.00  0.00     0.049 A 
ATOM     48  H   UNL A   1      40.411  28.736  30.514  1.00  0.00     0.167 HD
ATOM     49  C   UNL A   1      39.763  31.022  34.183  1.00  0.00     0.034 A 
ATOM     50  C   UNL A   1      41.908  27.152  28.764  1.00  0.00     0.034 A 
ATOM     51  C   UNL A   1      40.941  30.236  34.430  1.00  0.00     0.049 A 
ATOM     52  C   UNL A   1      42.658  27.177  30.066  1.00  0.00     0.074 A 
ATOM     53  C   UNL A   1      41.706  30.168  35.581  1.00  0.00     0.029 A 
ATOM     54  N   UNL A   1      41.527  29.381  33.509  1.00  0.00    -0.354 N 
ATOM     55  N   UNL A   1      42.354  27.794  31.182  1.00  0.00    -0.248 NA
ATOM     56  C   UNL A   1      43.888  26.375  30.140  1.00  0.00     0.031 C 
ATOM     57  C   UNL A   1      42.761  29.277  35.350  1.00  0.00     0.029 A 
ATOM     58  C   UNL A   1      42.643  28.780  34.062  1.00  0.00     0.049 A 
ATOM     59  H   UNL A   1      41.196  29.225  32.596  1.00  0.00     0.167 HD
ATOM     60  C   UNL A   1      43.333  27.432  32.098  1.00  0.00     0.074 A 
ATOM     61  C   UNL A   1      44.227  26.519  31.414  1.00  0.00     0.031 C 
ATOM     62  C   UNL A   1      43.492  27.835  33.384  1.00  0.00     0.034 A 
BRANCH  49  63
ATOM     63  C   UNL A   1      39.280  31.955  35.263  1.00  0.00     0.023 A 
ATOM     64  C   UNL A   1      38.336  31.495  36.205  1.00  0.00     0.012 A 
ATOM     65  C   UNL A   1      39.784  33.265  35.375  1.00  0.00     0.148 A 
ATOM     66  C   UNL A   1      37.872  32.335  37.215  1.00  0.00     0.002 A 
ATOM     67  C   UNL A   1      39.350  34.082  36.414  1.00  0.00     0.091 A 
ATOM     68  F   UNL A   1      40.661  33.695  34.456  1.00  0.00    -0.205 F 
ATOM     69  C   UNL A   1      38.385  33.622  37.326  1.00  0.00     0.022 A 
BRANCH  67  70
ATOM     70  S   UNL A   1      40.011  35.730  36.686  1.00  0.00     0.127 S 
ATOM     71  O   UNL A   1      39.336  36.118  37.924  1.00  0.00    -0.237 OA
ATOM     72  O   UNL A   1      41.444  35.468  36.830  1.00  0.00    -0.237 OA
ATOM     73  O   UNL A   1      39.653  36.503  35.506  1.00  0.00    -0.744 OA
ENDBRANCH  67  70
ENDBRANCH  49  63
BRANCH  50  74
ATOM     74  C   UNL A   1      42.391  26.344  27.608  1.00  0.00     0.023 A 
ATOM     75  C   UNL A   1      43.282  26.924  26.685  1.00  0.00     0.012 A 
ATOM     76  C   UNL A   1      42.019  24.995  27.448  1.00  0.00     0.148 A 
ATOM     77  C   UNL A   1      43.769  26.188  25.605  1.00  0.00     0.002 A 
ATOM     78  C   UNL A   1      42.551  24.251  26.401  1.00  0.00     0.091 A 
ATOM     79  F   UNL A   1      41.163  24.463  28.332  1.00  0.00    -0.205 F 
ATOM     80  C   UNL A   1      43.413  24.849  25.469  1.00  0.00     0.022 A 
BRANCH  78  81
ATOM     81  S   UNL A   1      42.260  22.486  26.233  1.00  0.00     0.127 S 
ATOM     82  O   UNL A   1      40.804  22.432  26.122  1.00  0.00    -0.237 OA
ATOM     83  O   UNL A   1      42.984  22.173  25.002  1.00  0.00    -0.237 OA
ATOM     84  O   UNL A   1      42.829  21.881  27.430  1.00  0.00    -0.744 OA
ENDBRANCH  78  81
ENDBRANCH  50  74
BRANCH  62  85
ATOM     85  C   UNL A   1      44.663  27.273  34.146  1.00  0.00     0.023 A 
ATOM     86  C   UNL A   1      45.909  27.928  34.094  1.00  0.00     0.012 A 
ATOM     87  C   UNL A   1      44.515  26.131  34.958  1.00  0.00     0.148 A 
ATOM     88  C   UNL A   1      46.999  27.435  34.809  1.00  0.00     0.002 A 
ATOM     89  C   UNL A   1      45.595  25.672  35.705  1.00  0.00     0.091 A 
ATOM     90  F   UNL A   1      43.329  25.506  34.978  1.00  0.00    -0.205 F 
ATOM     91  C   UNL A   1      46.840  26.315  35.622  1.00  0.00     0.022 A 
BRANCH  89  92
ATOM     92  S   UNL A   1      45.440  24.294  36.846  1.00  0.00     0.127 S 
ATOM     93  O   UNL A   1      45.504  23.148  35.941  1.00  0.00    -0.237 OA
ATOM     94  O   UNL A   1      46.616  24.460  37.703  1.00  0.00    -0.237 OA
ATOM     95  O   UNL A   1      44.169  24.491  37.530  1.00  0.00    -0.744 OA
ENDBRANCH  89  92
ENDBRANCH  62  85
ENDBRANCH  36  37
ENDBRANCH  28  31
ENDBRANCH  26  27
ENDBRANCH  25  26
ENDBRANCH   1  25
TORSDOF 22
ENDMDL
