MODEL 1
REMARK VINA RESULT:     -12.2      0.000      0.000
REMARK SMILES Cc1ccc(NC(=O)C[C@H]2C(=O)NCCN2C(=O)CCC(=O)NCCCCNC(=O)c2ccc(-c3c4nc(c(-c5cccc(S(=O)(=O)[O-])c5F)c5ccc([nH]5)c(-c5cccc(S(=O)(=O)[O-])c5F)c5nc(c(-c6cccc(S(=O)(=O)[O-])c6F)c6ccc3[nH]6)C=C5)C=C4)cc2)c(C)c1
REMARK SMILES IDX 24 1 23 2 21 3 22 4 20 6 19 7 17 8 18 9 16 10 10 11 11 12
REMARK SMILES IDX 12 13 13 14 15 15 14 16 9 18 7 19 6 20 8 22 5 23 1 24 2 25
REMARK SMILES IDX 3 26 96 27 4 28 94 29 95 30 25 31 26 32 27 33 28 34 29 35
REMARK SMILES IDX 30 37 31 38 32 39 93 40 33 41 92 42 34 43 35 44 36 45 86 46
REMARK SMILES IDX 37 47 91 48 85 49 87 50 38 51 90 52 84 53 83 54 39 56 71 57
REMARK SMILES IDX 51 58 70 59 52 60 55 61 69 62 88 63 53 64 54 65 68 67 89 68
REMARK SMILES IDX 56 69 40 70 41 71 49 72 42 73 44 74 50 75 43 76 45 77 46 78
REMARK SMILES IDX 47 79 48 80 72 81 73 82 81 83 74 84 76 85 82 86 75 87 77 88
REMARK SMILES IDX 78 89 79 90 80 91 57 92 58 93 66 94 59 95 61 96 67 97 60 98
REMARK SMILES IDX 62 99 63 100 64 101 65 102
REMARK H PARENT 23 5 13 17 6 21 28 36 87 55 55 66
REMARK Flexibility Score: inf
ROOT
ATOM      1  C   UNL A   1      37.030  21.278  25.699  1.00  0.00     0.116 C 
ENDROOT
BRANCH   1   2
ATOM      2  N   UNL A   1      35.951  21.916  26.489  1.00  0.00    -0.356 N 
ATOM      3  C   UNL A   1      35.323  23.135  26.455  1.00  0.00     0.220 C 
ATOM      4  O   UNL A   1      34.406  23.362  27.219  1.00  0.00    -0.275 OA
ATOM      5  H   UNL A   1      35.605  21.332  27.202  1.00  0.00     0.163 HD
BRANCH   3   6
ATOM      6  C   UNL A   1      35.820  24.175  25.510  1.00  0.00     0.110 C 
BRANCH   6   7
ATOM      7  C   UNL A   1      34.739  24.502  24.510  1.00  0.00     0.110 C 
BRANCH   7   8
ATOM      8  C   UNL A   1      34.477  23.361  23.576  1.00  0.00     0.223 C 
ATOM      9  O   UNL A   1      35.366  23.105  22.746  1.00  0.00    -0.275 OA
BRANCH   8  10
ATOM     10  N   UNL A   1      33.275  22.630  23.593  1.00  0.00    -0.328 N 
ATOM     11  C   UNL A   1      32.578  21.885  24.779  1.00  0.00     0.183 C 
ATOM     12  C   UNL A   1      32.221  20.440  24.306  1.00  0.00     0.243 C 
ATOM     13  O   UNL A   1      31.973  19.546  25.114  1.00  0.00    -0.273 OA
ATOM     14  N   UNL A   1      32.088  20.165  22.973  1.00  0.00    -0.353 N 
ATOM     15  C   UNL A   1      32.882  22.375  22.195  1.00  0.00     0.141 C 
ATOM     16  C   UNL A   1      32.097  21.118  21.899  1.00  0.00     0.137 C 
ATOM     17  H   UNL A   1      31.975  19.219  22.725  1.00  0.00     0.163 HD
BRANCH  11  18
ATOM     18  C   UNL A   1      31.318  22.362  25.890  1.00  0.00     0.135 C 
BRANCH  18  19
ATOM     19  C   UNL A   1      30.292  23.505  26.629  1.00  0.00     0.227 C 
ATOM     20  N   UNL A   1      29.851  24.816  26.523  1.00  0.00    -0.326 N 
ATOM     21  H   UNL A   1      29.270  24.997  27.297  1.00  0.00     0.169 HD
ATOM     22  O   UNL A   1      29.748  23.025  27.660  1.00  0.00    -0.275 OA
BRANCH  20  23
ATOM     23  C   UNL A   1      29.904  26.017  25.731  1.00  0.00     0.044 A 
ATOM     24  C   UNL A   1      31.152  28.212  22.303  1.00  0.00     0.044 C 
ATOM     25  C   UNL A   1      30.468  27.774  23.577  1.00  0.00    -0.051 A 
ATOM     26  C   UNL A   1      29.334  26.958  23.540  1.00  0.00     0.005 A 
ATOM     27  C   UNL A   1      31.104  27.933  24.815  1.00  0.00     0.009 A 
ATOM     28  C   UNL A   1      29.002  26.150  24.654  1.00  0.00     0.026 A 
ATOM     29  C   UNL A   1      30.817  27.069  25.908  1.00  0.00    -0.027 A 
ATOM     30  C   UNL A   1      31.490  27.336  27.220  1.00  0.00     0.046 C 
ENDBRANCH  20  23
ENDBRANCH  18  19
ENDBRANCH  11  18
ENDBRANCH   8  10
ENDBRANCH   7   8
ENDBRANCH   6   7
ENDBRANCH   3   6
ENDBRANCH   1   2
BRANCH   1  31
ATOM     31  C   UNL A   1      38.578  21.723  25.522  1.00  0.00     0.023 C 
BRANCH  31  32
ATOM     32  C   UNL A   1      39.923  21.385  26.233  1.00  0.00     0.023 C 
BRANCH  32  33
ATOM     33  C   UNL A   1      41.006  22.469  26.460  1.00  0.00     0.116 C 
BRANCH  33  34
ATOM     34  N   UNL A   1      42.073  22.440  25.481  1.00  0.00    -0.352 N 
ATOM     35  C   UNL A   1      43.025  23.384  25.165  1.00  0.00     0.251 C 
ATOM     36  H   UNL A   1      42.126  21.610  24.955  1.00  0.00     0.163 HD
ATOM     37  O   UNL A   1      43.788  23.139  24.231  1.00  0.00    -0.269 OA
BRANCH  35  38
ATOM     38  C   UNL A   1      43.140  24.692  25.874  1.00  0.00     0.039 A 
ATOM     39  C   UNL A   1      42.747  25.846  25.181  1.00  0.00     0.014 A 
ATOM     40  C   UNL A   1      43.675  24.831  27.158  1.00  0.00     0.014 A 
ATOM     41  C   UNL A   1      42.846  27.110  25.781  1.00  0.00     0.010 A 
ATOM     42  C   UNL A   1      43.708  26.090  27.782  1.00  0.00     0.010 A 
ATOM     43  C   UNL A   1      43.306  27.251  27.102  1.00  0.00    -0.014 A 
BRANCH  43  44
ATOM     44  C   UNL A   1      43.341  28.603  27.747  1.00  0.00     0.031 A 
ATOM     45  C   UNL A   1      42.122  29.190  28.423  1.00  0.00     0.074 A 
ATOM     46  C   UNL A   1      44.477  29.332  27.710  1.00  0.00     0.049 A 
ATOM     47  N   UNL A   1      42.016  30.295  29.120  1.00  0.00    -0.248 NA
ATOM     48  C   UNL A   1      40.853  28.462  28.275  1.00  0.00     0.031 C 
ATOM     49  C   UNL A   1      45.697  28.956  26.994  1.00  0.00     0.029 A 
ATOM     50  N   UNL A   1      44.795  30.542  28.285  1.00  0.00    -0.354 N 
ATOM     51  C   UNL A   1      40.673  30.411  29.463  1.00  0.00     0.074 A 
ATOM     52  C   UNL A   1      39.993  29.286  28.857  1.00  0.00     0.031 C 
ATOM     53  C   UNL A   1      46.638  29.892  27.200  1.00  0.00     0.029 A 
ATOM     54  C   UNL A   1      46.092  30.942  28.055  1.00  0.00     0.049 A 
ATOM     55  H   UNL A   1      44.154  31.072  28.812  1.00  0.00     0.167 HD
ATOM     56  C   UNL A   1      40.059  31.338  30.241  1.00  0.00     0.034 A 
ATOM     57  C   UNL A   1      46.779  32.014  28.501  1.00  0.00     0.034 A 
ATOM     58  C   UNL A   1      40.740  32.430  30.887  1.00  0.00     0.049 A 
ATOM     59  C   UNL A   1      46.108  32.970  29.453  1.00  0.00     0.074 A 
ATOM     60  C   UNL A   1      40.230  33.363  31.773  1.00  0.00     0.029 A 
ATOM     61  N   UNL A   1      42.081  32.735  30.716  1.00  0.00    -0.354 N 
ATOM     62  N   UNL A   1      44.884  32.944  29.924  1.00  0.00    -0.248 NA
ATOM     63  C   UNL A   1      46.929  34.071  29.980  1.00  0.00     0.031 C 
ATOM     64  C   UNL A   1      41.261  34.241  32.128  1.00  0.00     0.029 A 
ATOM     65  C   UNL A   1      42.418  33.840  31.480  1.00  0.00     0.049 A 
ATOM     66  H   UNL A   1      42.703  32.240  30.136  1.00  0.00     0.167 HD
ATOM     67  C   UNL A   1      44.800  33.999  30.826  1.00  0.00     0.074 A 
ATOM     68  C   UNL A   1      46.105  34.626  30.859  1.00  0.00     0.031 C 
ATOM     69  C   UNL A   1      43.733  34.422  31.549  1.00  0.00     0.034 A 
BRANCH  56  70
ATOM     70  C   UNL A   1      38.581  31.165  30.502  1.00  0.00     0.023 A 
ATOM     71  C   UNL A   1      38.159  30.292  31.526  1.00  0.00     0.012 A 
ATOM     72  C   UNL A   1      37.615  31.895  29.781  1.00  0.00     0.148 A 
ATOM     73  C   UNL A   1      36.803  30.108  31.795  1.00  0.00     0.002 A 
ATOM     74  C   UNL A   1      36.266  31.742  30.086  1.00  0.00     0.091 A 
ATOM     75  F   UNL A   1      38.029  32.715  28.804  1.00  0.00    -0.205 F 
ATOM     76  C   UNL A   1      35.858  30.838  31.082  1.00  0.00     0.022 A 
BRANCH  74  77
ATOM     77  S   UNL A   1      34.971  32.696  29.284  1.00  0.00     0.127 S 
ATOM     78  O   UNL A   1      35.748  33.565  28.402  1.00  0.00    -0.237 OA
ATOM     79  O   UNL A   1      34.206  31.657  28.594  1.00  0.00    -0.237 OA
ATOM     80  O   UNL A   1      34.249  33.371  30.353  1.00  0.00    -0.744 OA
ENDBRANCH  74  77
ENDBRANCH  56  70
BRANCH  57  81
ATOM     81  C   UNL A   1      48.220  32.180  28.149  1.00  0.00     0.023 A 
ATOM     82  C   UNL A   1      49.192  31.436  28.850  1.00  0.00     0.012 A 
ATOM     83  C   UNL A   1      48.635  33.042  27.115  1.00  0.00     0.148 A 
ATOM     84  C   UNL A   1      50.548  31.575  28.555  1.00  0.00     0.002 A 
ATOM     85  C   UNL A   1      49.984  33.132  26.788  1.00  0.00     0.091 A 
ATOM     86  F   UNL A   1      47.700  33.751  26.467  1.00  0.00    -0.205 F 
ATOM     87  C   UNL A   1      50.944  32.415  27.517  1.00  0.00     0.022 A 
BRANCH  85  88
ATOM     88  S   UNL A   1      50.570  34.077  25.376  1.00  0.00     0.127 S 
ATOM     89  O   UNL A   1      49.343  34.721  24.916  1.00  0.00    -0.237 OA
ATOM     90  O   UNL A   1      51.544  34.976  25.997  1.00  0.00    -0.237 OA
ATOM     91  O   UNL A   1      51.156  33.100  24.468  1.00  0.00    -0.744 OA
ENDBRANCH  85  88
ENDBRANCH  57  81
BRANCH  69  92
ATOM     92  C   UNL A   1      43.935  35.601  32.468  1.00  0.00     0.023 A 
ATOM     93  C   UNL A   1      44.250  35.387  33.824  1.00  0.00     0.012 A 
ATOM     94  C   UNL A   1      43.866  36.918  31.975  1.00  0.00     0.148 A 
ATOM     95  C   UNL A   1      44.451  36.467  34.685  1.00  0.00     0.002 A 
ATOM     96  C   UNL A   1      44.117  37.988  32.827  1.00  0.00     0.091 A 
ATOM     97  F   UNL A   1      43.544  37.107  30.687  1.00  0.00    -0.205 F 
ATOM     98  C   UNL A   1      44.396  37.765  34.185  1.00  0.00     0.022 A 
BRANCH  96  99
ATOM     99  S   UNL A   1      44.161  39.685  32.238  1.00  0.00     0.127 S 
ATOM    100  O   UNL A   1      44.597  39.511  30.854  1.00  0.00    -0.237 OA
ATOM    101  O   UNL A   1      42.768  40.109  32.389  1.00  0.00    -0.237 OA
ATOM    102  O   UNL A   1      45.096  40.382  33.112  1.00  0.00    -0.744 OA
ENDBRANCH  96  99
ENDBRANCH  69  92
ENDBRANCH  43  44
ENDBRANCH  35  38
ENDBRANCH  33  34
ENDBRANCH  32  33
ENDBRANCH  31  32
ENDBRANCH   1  31
TORSDOF 20
ENDMDL
MODEL 2
REMARK VINA RESULT:     -11.6      1.783      2.027
REMARK SMILES Cc1ccc(NC(=O)C[C@H]2C(=O)NCCN2C(=O)CCC(=O)NCCCCNC(=O)c2ccc(-c3c4nc(c(-c5cccc(S(=O)(=O)[O-])c5F)c5ccc([nH]5)c(-c5cccc(S(=O)(=O)[O-])c5F)c5nc(c(-c6cccc(S(=O)(=O)[O-])c6F)c6ccc3[nH]6)C=C5)C=C4)cc2)c(C)c1
REMARK SMILES IDX 24 1 23 2 21 3 22 4 20 6 19 7 17 8 18 9 16 10 10 11 11 12
REMARK SMILES IDX 12 13 13 14 15 15 14 16 9 18 7 19 6 20 8 22 5 23 1 24 2 25
REMARK SMILES IDX 3 26 96 27 4 28 94 29 95 30 25 31 26 32 27 33 28 34 29 35
REMARK SMILES IDX 30 37 31 38 32 39 93 40 33 41 92 42 34 43 35 44 36 45 86 46
REMARK SMILES IDX 37 47 91 48 85 49 87 50 38 51 90 52 84 53 83 54 39 56 71 57
REMARK SMILES IDX 51 58 70 59 52 60 55 61 69 62 88 63 53 64 54 65 68 67 89 68
REMARK SMILES IDX 56 69 40 70 41 71 49 72 42 73 44 74 50 75 43 76 45 77 46 78
REMARK SMILES IDX 47 79 48 80 72 81 73 82 81 83 74 84 76 85 82 86 75 87 77 88
REMARK SMILES IDX 78 89 79 90 80 91 57 92 58 93 66 94 59 95 61 96 67 97 60 98
REMARK SMILES IDX 62 99 63 100 64 101 65 102
REMARK H PARENT 23 5 13 17 6 21 28 36 87 55 55 66
REMARK Flexibility Score: inf
ROOT
ATOM      1  C   UNL A   1      37.102  21.407  25.717  1.00  0.00     0.116 C 
ENDROOT
BRANCH   1   2
ATOM      2  N   UNL A   1      35.963  21.993  26.463  1.00  0.00    -0.356 N 
ATOM      3  C   UNL A   1      35.276  23.177  26.399  1.00  0.00     0.220 C 
ATOM      4  O   UNL A   1      34.321  23.360  27.128  1.00  0.00    -0.275 OA
ATOM      5  H   UNL A   1      35.622  21.394  27.167  1.00  0.00     0.163 HD
BRANCH   3   6
ATOM      6  C   UNL A   1      35.753  24.237  25.466  1.00  0.00     0.110 C 
BRANCH   6   7
ATOM      7  C   UNL A   1      34.681  24.526  24.444  1.00  0.00     0.110 C 
BRANCH   7   8
ATOM      8  C   UNL A   1      34.433  23.353  23.546  1.00  0.00     0.223 C 
ATOM      9  O   UNL A   1      35.322  23.086  22.720  1.00  0.00    -0.275 OA
BRANCH   8  10
ATOM     10  N   UNL A   1      33.243  22.604  23.591  1.00  0.00    -0.328 N 
ATOM     11  C   UNL A   1      32.585  21.850  24.794  1.00  0.00     0.183 C 
ATOM     12  C   UNL A   1      32.239  20.399  24.329  1.00  0.00     0.243 C 
ATOM     13  O   UNL A   1      32.024  19.502  25.143  1.00  0.00    -0.273 OA
ATOM     14  N   UNL A   1      32.080  20.121  23.000  1.00  0.00    -0.353 N 
ATOM     15  C   UNL A   1      32.821  22.342  22.203  1.00  0.00     0.141 C 
ATOM     16  C   UNL A   1      32.049  21.073  21.926  1.00  0.00     0.137 C 
ATOM     17  H   UNL A   1      31.976  19.173  22.755  1.00  0.00     0.163 HD
BRANCH  11  18
ATOM     18  C   UNL A   1      31.344  22.308  25.933  1.00  0.00     0.135 C 
BRANCH  18  19
ATOM     19  C   UNL A   1      30.246  23.412  26.626  1.00  0.00     0.227 C 
ATOM     20  N   UNL A   1      29.768  24.710  26.505  1.00  0.00    -0.326 N 
ATOM     21  H   UNL A   1      29.144  24.866  27.250  1.00  0.00     0.169 HD
ATOM     22  O   UNL A   1      29.667  22.907  27.625  1.00  0.00    -0.275 OA
BRANCH  20  23
ATOM     23  C   UNL A   1      29.823  25.917  25.724  1.00  0.00     0.044 A 
ATOM     24  C   UNL A   1      30.825  28.072  22.192  1.00  0.00     0.044 C 
ATOM     25  C   UNL A   1      30.265  27.665  23.534  1.00  0.00    -0.051 A 
ATOM     26  C   UNL A   1      29.073  26.941  23.626  1.00  0.00     0.005 A 
ATOM     27  C   UNL A   1      31.054  27.751  24.689  1.00  0.00     0.009 A 
ATOM     28  C   UNL A   1      28.813  26.140  24.764  1.00  0.00     0.026 A 
ATOM     29  C   UNL A   1      30.830  26.891  25.800  1.00  0.00    -0.027 A 
ATOM     30  C   UNL A   1      31.674  27.081  27.024  1.00  0.00     0.046 C 
ENDBRANCH  20  23
ENDBRANCH  18  19
ENDBRANCH  11  18
ENDBRANCH   8  10
ENDBRANCH   7   8
ENDBRANCH   6   7
ENDBRANCH   3   6
ENDBRANCH   1   2
BRANCH   1  31
ATOM     31  C   UNL A   1      38.663  21.841  25.714  1.00  0.00     0.023 C 
BRANCH  31  32
ATOM     32  C   UNL A   1      40.003  21.187  26.169  1.00  0.00     0.023 C 
BRANCH  32  33
ATOM     33  C   UNL A   1      41.249  22.049  26.486  1.00  0.00     0.116 C 
BRANCH  33  34
ATOM     34  N   UNL A   1      42.227  22.075  25.418  1.00  0.00    -0.352 N 
ATOM     35  C   UNL A   1      43.092  23.071  25.018  1.00  0.00     0.251 C 
ATOM     36  H   UNL A   1      42.282  21.246  24.891  1.00  0.00     0.163 HD
ATOM     37  O   UNL A   1      43.784  22.863  24.021  1.00  0.00    -0.269 OA
BRANCH  35  38
ATOM     38  C   UNL A   1      43.192  24.387  25.712  1.00  0.00     0.039 A 
ATOM     39  C   UNL A   1      42.830  25.534  24.990  1.00  0.00     0.014 A 
ATOM     40  C   UNL A   1      43.684  24.542  27.010  1.00  0.00     0.014 A 
ATOM     41  C   UNL A   1      42.919  26.805  25.575  1.00  0.00     0.010 A 
ATOM     42  C   UNL A   1      43.706  25.809  27.618  1.00  0.00     0.010 A 
ATOM     43  C   UNL A   1      43.335  26.963  26.909  1.00  0.00    -0.014 A 
BRANCH  43  44
ATOM     44  C   UNL A   1      43.358  28.324  27.535  1.00  0.00     0.031 A 
ATOM     45  C   UNL A   1      42.123  28.924  28.169  1.00  0.00     0.074 A 
ATOM     46  C   UNL A   1      44.497  29.048  27.519  1.00  0.00     0.049 A 
ATOM     47  N   UNL A   1      42.003  30.040  28.847  1.00  0.00    -0.248 NA
ATOM     48  C   UNL A   1      40.856  28.200  27.996  1.00  0.00     0.031 C 
ATOM     49  C   UNL A   1      45.736  28.657  26.841  1.00  0.00     0.029 A 
ATOM     50  N   UNL A   1      44.805  30.264  28.085  1.00  0.00    -0.354 N 
ATOM     51  C   UNL A   1      40.651  30.166  29.152  1.00  0.00     0.074 A 
ATOM     52  C   UNL A   1      39.984  29.035  28.543  1.00  0.00     0.031 C 
ATOM     53  C   UNL A   1      46.674  29.593  27.059  1.00  0.00     0.029 A 
ATOM     54  C   UNL A   1      46.110  30.656  27.885  1.00  0.00     0.049 A 
ATOM     55  H   UNL A   1      44.152  30.804  28.587  1.00  0.00     0.167 HD
ATOM     56  C   UNL A   1      40.021  31.106  29.900  1.00  0.00     0.034 A 
ATOM     57  C   UNL A   1      46.788  31.732  28.334  1.00  0.00     0.034 A 
ATOM     58  C   UNL A   1      40.688  32.204  30.549  1.00  0.00     0.049 A 
ATOM     59  C   UNL A   1      46.096  32.704  29.254  1.00  0.00     0.074 A 
ATOM     60  C   UNL A   1      40.158  33.152  31.407  1.00  0.00     0.029 A 
ATOM     61  N   UNL A   1      42.034  32.502  30.410  1.00  0.00    -0.354 N 
ATOM     62  N   UNL A   1      44.860  32.690  29.692  1.00  0.00    -0.248 NA
ATOM     63  C   UNL A   1      46.906  33.809  29.788  1.00  0.00     0.031 C 
ATOM     64  C   UNL A   1      41.182  34.031  31.778  1.00  0.00     0.029 A 
ATOM     65  C   UNL A   1      42.356  33.617  31.168  1.00  0.00     0.049 A 
ATOM     66  H   UNL A   1      42.670  31.997  29.854  1.00  0.00     0.167 HD
ATOM     67  C   UNL A   1      44.755  33.758  30.577  1.00  0.00     0.074 A 
ATOM     68  C   UNL A   1      46.062  34.380  30.636  1.00  0.00     0.031 C 
ATOM     69  C   UNL A   1      43.670  34.195  31.264  1.00  0.00     0.034 A 
BRANCH  56  70
ATOM     70  C   UNL A   1      38.535  30.943  30.123  1.00  0.00     0.023 A 
ATOM     71  C   UNL A   1      38.082  30.065  31.129  1.00  0.00     0.012 A 
ATOM     72  C   UNL A   1      37.593  31.685  29.383  1.00  0.00     0.148 A 
ATOM     73  C   UNL A   1      36.718  29.889  31.363  1.00  0.00     0.002 A 
ATOM     74  C   UNL A   1      36.236  31.540  29.654  1.00  0.00     0.091 A 
ATOM     75  F   UNL A   1      38.037  32.509  28.423  1.00  0.00    -0.205 F 
ATOM     76  C   UNL A   1      35.797  30.632  30.632  1.00  0.00     0.022 A 
BRANCH  74  77
ATOM     77  S   UNL A   1      34.968  32.509  28.827  1.00  0.00     0.127 S 
ATOM     78  O   UNL A   1      35.723  33.102  27.724  1.00  0.00    -0.237 OA
ATOM     79  O   UNL A   1      34.008  31.481  28.424  1.00  0.00    -0.237 OA
ATOM     80  O   UNL A   1      34.469  33.449  29.821  1.00  0.00    -0.744 OA
ENDBRANCH  74  77
ENDBRANCH  56  70
BRANCH  57  81
ATOM     81  C   UNL A   1      48.239  31.888  28.020  1.00  0.00     0.023 A 
ATOM     82  C   UNL A   1      48.625  32.627  26.883  1.00  0.00     0.012 A 
ATOM     83  C   UNL A   1      49.238  31.335  28.846  1.00  0.00     0.148 A 
ATOM     84  C   UNL A   1      49.971  32.782  26.553  1.00  0.00     0.002 A 
ATOM     85  C   UNL A   1      50.580  31.543  28.542  1.00  0.00     0.091 A 
ATOM     86  F   UNL A   1      48.856  30.625  29.915  1.00  0.00    -0.205 F 
ATOM     87  C   UNL A   1      50.949  32.249  27.388  1.00  0.00     0.022 A 
BRANCH  85  88
ATOM     88  S   UNL A   1      51.905  31.016  29.636  1.00  0.00     0.127 S 
ATOM     89  O   UNL A   1      51.209  30.093  30.528  1.00  0.00    -0.237 OA
ATOM     90  O   UNL A   1      52.837  30.383  28.700  1.00  0.00    -0.237 OA
ATOM     91  O   UNL A   1      52.414  32.235  30.249  1.00  0.00    -0.744 OA
ENDBRANCH  85  88
ENDBRANCH  57  81
BRANCH  69  92
ATOM     92  C   UNL A   1      43.853  35.386  32.171  1.00  0.00     0.023 A 
ATOM     93  C   UNL A   1      43.815  36.688  31.636  1.00  0.00     0.012 A 
ATOM     94  C   UNL A   1      44.008  35.214  33.561  1.00  0.00     0.148 A 
ATOM     95  C   UNL A   1      43.971  37.800  32.463  1.00  0.00     0.002 A 
ATOM     96  C   UNL A   1      44.113  36.329  34.385  1.00  0.00     0.091 A 
ATOM     97  F   UNL A   1      44.064  33.969  34.053  1.00  0.00    -0.205 F 
ATOM     98  C   UNL A   1      44.109  37.622  33.838  1.00  0.00     0.022 A 
BRANCH  96  99
ATOM     99  S   UNL A   1      44.195  36.186  36.175  1.00  0.00     0.127 S 
ATOM    100  O   UNL A   1      45.469  35.494  36.362  1.00  0.00    -0.237 OA
ATOM    101  O   UNL A   1      44.193  37.585  36.604  1.00  0.00    -0.237 OA
ATOM    102  O   UNL A   1      43.007  35.438  36.565  1.00  0.00    -0.744 OA
ENDBRANCH  96  99
ENDBRANCH  69  92
ENDBRANCH  43  44
ENDBRANCH  35  38
ENDBRANCH  33  34
ENDBRANCH  32  33
ENDBRANCH  31  32
ENDBRANCH   1  31
TORSDOF 20
ENDMDL
MODEL 3
REMARK VINA RESULT:     -11.3      3.946      8.668
REMARK SMILES Cc1ccc(NC(=O)C[C@H]2C(=O)NCCN2C(=O)CCC(=O)NCCCCNC(=O)c2ccc(-c3c4nc(c(-c5cccc(S(=O)(=O)[O-])c5F)c5ccc([nH]5)c(-c5cccc(S(=O)(=O)[O-])c5F)c5nc(c(-c6cccc(S(=O)(=O)[O-])c6F)c6ccc3[nH]6)C=C5)C=C4)cc2)c(C)c1
REMARK SMILES IDX 24 1 23 2 21 3 22 4 20 6 19 7 17 8 18 9 16 10 10 11 11 12
REMARK SMILES IDX 12 13 13 14 15 15 14 16 9 18 7 19 6 20 8 22 5 23 1 24 2 25
REMARK SMILES IDX 3 26 96 27 4 28 94 29 95 30 25 31 26 32 27 33 28 34 29 35
REMARK SMILES IDX 30 37 31 38 32 39 93 40 33 41 92 42 34 43 35 44 36 45 86 46
REMARK SMILES IDX 37 47 91 48 85 49 87 50 38 51 90 52 84 53 83 54 39 56 71 57
REMARK SMILES IDX 51 58 70 59 52 60 55 61 69 62 88 63 53 64 54 65 68 67 89 68
REMARK SMILES IDX 56 69 40 70 41 71 49 72 42 73 44 74 50 75 43 76 45 77 46 78
REMARK SMILES IDX 47 79 48 80 72 81 73 82 81 83 74 84 76 85 82 86 75 87 77 88
REMARK SMILES IDX 78 89 79 90 80 91 57 92 58 93 66 94 59 95 61 96 67 97 60 98
REMARK SMILES IDX 62 99 63 100 64 101 65 102
REMARK H PARENT 23 5 13 17 6 21 28 36 87 55 55 66
REMARK Flexibility Score: inf
ROOT
ATOM      1  C   UNL A   1      35.347  34.915  31.336  1.00  0.00     0.116 C 
ENDROOT
BRANCH   1   2
ATOM      2  N   UNL A   1      34.082  35.514  30.848  1.00  0.00    -0.356 N 
ATOM      3  C   UNL A   1      33.434  35.545  29.640  1.00  0.00     0.220 C 
ATOM      4  O   UNL A   1      32.349  36.087  29.553  1.00  0.00    -0.275 OA
ATOM      5  H   UNL A   1      33.596  36.001  31.552  1.00  0.00     0.163 HD
BRANCH   3   6
ATOM      6  C   UNL A   1      34.105  34.957  28.446  1.00  0.00     0.110 C 
BRANCH   6   7
ATOM      7  C   UNL A   1      34.084  33.452  28.549  1.00  0.00     0.110 C 
BRANCH   7   8
ATOM      8  C   UNL A   1      33.050  32.844  27.653  1.00  0.00     0.223 C 
ATOM      9  O   UNL A   1      32.067  33.553  27.375  1.00  0.00    -0.275 OA
BRANCH   8  10
ATOM     10  N   UNL A   1      33.145  31.525  27.173  1.00  0.00    -0.328 N 
ATOM     11  C   UNL A   1      32.011  30.537  26.743  1.00  0.00     0.183 C 
ATOM     12  C   UNL A   1      32.255  29.172  27.464  1.00  0.00     0.243 C 
ATOM     13  O   UNL A   1      31.357  28.336  27.570  1.00  0.00    -0.273 OA
ATOM     14  N   UNL A   1      33.503  28.843  27.912  1.00  0.00    -0.353 N 
ATOM     15  C   UNL A   1      34.516  31.048  27.432  1.00  0.00     0.141 C 
ATOM     16  C   UNL A   1      34.718  29.569  27.667  1.00  0.00     0.137 C 
ATOM     17  H   UNL A   1      33.578  28.026  28.456  1.00  0.00     0.163 HD
BRANCH  11  18
ATOM     18  C   UNL A   1      31.310  30.153  25.191  1.00  0.00     0.135 C 
BRANCH  18  19
ATOM     19  C   UNL A   1      30.803  29.073  23.974  1.00  0.00     0.227 C 
ATOM     20  N   UNL A   1      30.954  27.766  23.533  1.00  0.00    -0.326 N 
ATOM     21  H   UNL A   1      30.450  27.677  22.692  1.00  0.00     0.169 HD
ATOM     22  O   UNL A   1      30.040  29.645  23.150  1.00  0.00    -0.275 OA
BRANCH  20  23
ATOM     23  C   UNL A   1      31.555  26.489  23.815  1.00  0.00     0.044 A 
ATOM     24  C   UNL A   1      33.820  23.858  26.279  1.00  0.00     0.044 C 
ATOM     25  C   UNL A   1      32.937  24.433  25.197  1.00  0.00    -0.051 A 
ATOM     26  C   UNL A   1      31.570  24.629  25.413  1.00  0.00     0.005 A 
ATOM     27  C   UNL A   1      33.502  25.041  24.068  1.00  0.00     0.009 A 
ATOM     28  C   UNL A   1      30.861  25.593  24.656  1.00  0.00     0.026 A 
ATOM     29  C   UNL A   1      32.811  26.061  23.357  1.00  0.00    -0.027 A 
ATOM     30  C   UNL A   1      33.450  26.623  22.123  1.00  0.00     0.046 C 
ENDBRANCH  20  23
ENDBRANCH  18  19
ENDBRANCH  11  18
ENDBRANCH   8  10
ENDBRANCH   7   8
ENDBRANCH   6   7
ENDBRANCH   3   6
ENDBRANCH   1   2
BRANCH   1  31
ATOM     31  C   UNL A   1      35.616  33.443  31.957  1.00  0.00     0.023 C 
BRANCH  31  32
ATOM     32  C   UNL A   1      35.174  31.989  31.611  1.00  0.00     0.023 C 
BRANCH  32  33
ATOM     33  C   UNL A   1      36.210  30.844  31.485  1.00  0.00     0.116 C 
BRANCH  33  34
ATOM     34  N   UNL A   1      36.715  30.373  32.757  1.00  0.00    -0.352 N 
ATOM     35  C   UNL A   1      38.004  30.305  33.240  1.00  0.00     0.251 C 
ATOM     36  H   UNL A   1      36.025  30.048  33.378  1.00  0.00     0.163 HD
ATOM     37  O   UNL A   1      38.176  29.790  34.346  1.00  0.00    -0.269 OA
BRANCH  35  38
ATOM     38  C   UNL A   1      39.187  30.786  32.470  1.00  0.00     0.039 A 
ATOM     39  C   UNL A   1      39.174  30.612  31.078  1.00  0.00     0.014 A 
ATOM     40  C   UNL A   1      40.325  31.337  33.064  1.00  0.00     0.014 A 
ATOM     41  C   UNL A   1      40.262  31.023  30.295  1.00  0.00     0.010 A 
ATOM     42  C   UNL A   1      41.383  31.812  32.271  1.00  0.00     0.010 A 
ATOM     43  C   UNL A   1      41.376  31.654  30.876  1.00  0.00    -0.014 A 
BRANCH  43  44
ATOM     44  C   UNL A   1      42.497  32.147  30.013  1.00  0.00     0.031 A 
ATOM     45  C   UNL A   1      42.595  33.596  29.592  1.00  0.00     0.074 A 
ATOM     46  C   UNL A   1      43.436  31.280  29.577  1.00  0.00     0.049 A 
ATOM     47  N   UNL A   1      43.557  34.203  28.941  1.00  0.00    -0.248 NA
ATOM     48  C   UNL A   1      41.459  34.470  29.916  1.00  0.00     0.031 C 
ATOM     49  C   UNL A   1      43.414  29.832  29.797  1.00  0.00     0.029 A 
ATOM     50  N   UNL A   1      44.592  31.483  28.858  1.00  0.00    -0.354 N 
ATOM     51  C   UNL A   1      43.130  35.513  28.750  1.00  0.00     0.074 A 
ATOM     52  C   UNL A   1      41.800  35.601  29.313  1.00  0.00     0.031 C 
ATOM     53  C   UNL A   1      44.516  29.285  29.259  1.00  0.00     0.029 A 
ATOM     54  C   UNL A   1      45.324  30.336  28.647  1.00  0.00     0.049 A 
ATOM     55  H   UNL A   1      44.870  32.366  28.525  1.00  0.00     0.167 HD
ATOM     56  C   UNL A   1      43.788  36.563  28.196  1.00  0.00     0.034 A 
ATOM     57  C   UNL A   1      46.522  30.148  28.055  1.00  0.00     0.034 A 
ATOM     58  C   UNL A   1      45.131  36.493  27.679  1.00  0.00     0.049 A 
ATOM     59  C   UNL A   1      47.284  31.344  27.547  1.00  0.00     0.074 A 
ATOM     60  C   UNL A   1      45.922  37.517  27.188  1.00  0.00     0.029 A 
ATOM     61  N   UNL A   1      45.881  35.331  27.585  1.00  0.00    -0.354 N 
ATOM     62  N   UNL A   1      46.940  32.609  27.560  1.00  0.00    -0.248 NA
ATOM     63  C   UNL A   1      48.624  31.094  26.993  1.00  0.00     0.031 C 
ATOM     64  C   UNL A   1      47.148  36.972  26.787  1.00  0.00     0.029 A 
ATOM     65  C   UNL A   1      47.127  35.611  27.049  1.00  0.00     0.049 A 
ATOM     66  H   UNL A   1      45.573  34.437  27.860  1.00  0.00     0.167 HD
ATOM     67  C   UNL A   1      48.031  33.307  27.051  1.00  0.00     0.074 A 
ATOM     68  C   UNL A   1      49.058  32.326  26.768  1.00  0.00     0.031 C 
ATOM     69  C   UNL A   1      48.163  34.637  26.822  1.00  0.00     0.034 A 
BRANCH  56  70
ATOM     70  C   UNL A   1      43.092  37.903  28.190  1.00  0.00     0.023 A 
ATOM     71  C   UNL A   1      42.296  38.261  27.082  1.00  0.00     0.012 A 
ATOM     72  C   UNL A   1      43.178  38.783  29.287  1.00  0.00     0.148 A 
ATOM     73  C   UNL A   1      41.637  39.490  27.042  1.00  0.00     0.002 A 
ATOM     74  C   UNL A   1      42.481  39.988  29.260  1.00  0.00     0.091 A 
ATOM     75  F   UNL A   1      43.945  38.435  30.329  1.00  0.00    -0.205 F 
ATOM     76  C   UNL A   1      41.723  40.348  28.133  1.00  0.00     0.022 A 
BRANCH  74  77
ATOM     77  S   UNL A   1      42.456  41.130  30.647  1.00  0.00     0.127 S 
ATOM     78  O   UNL A   1      41.114  41.698  30.538  1.00  0.00    -0.237 OA
ATOM     79  O   UNL A   1      42.647  40.234  31.788  1.00  0.00    -0.237 OA
ATOM     80  O   UNL A   1      43.552  42.063  30.419  1.00  0.00    -0.744 OA
ENDBRANCH  74  77
ENDBRANCH  56  70
BRANCH  57  81
ATOM     81  C   UNL A   1      47.133  28.786  28.018  1.00  0.00     0.023 A 
ATOM     82  C   UNL A   1      48.103  28.437  28.980  1.00  0.00     0.012 A 
ATOM     83  C   UNL A   1      46.746  27.828  27.060  1.00  0.00     0.148 A 
ATOM     84  C   UNL A   1      48.703  27.178  28.966  1.00  0.00     0.002 A 
ATOM     85  C   UNL A   1      47.307  26.555  27.088  1.00  0.00     0.091 A 
ATOM     86  F   UNL A   1      45.833  28.179  26.144  1.00  0.00    -0.205 F 
ATOM     87  C   UNL A   1      48.298  26.234  28.028  1.00  0.00     0.022 A 
BRANCH  85  88
ATOM     88  S   UNL A   1      46.744  25.232  26.010  1.00  0.00     0.127 S 
ATOM     89  O   UNL A   1      45.314  25.195  26.304  1.00  0.00    -0.237 OA
ATOM     90  O   UNL A   1      47.088  25.753  24.686  1.00  0.00    -0.237 OA
ATOM     91  O   UNL A   1      47.507  24.056  26.405  1.00  0.00    -0.744 OA
ENDBRANCH  85  88
ENDBRANCH  57  81
BRANCH  69  92
ATOM     92  C   UNL A   1      49.478  35.123  26.269  1.00  0.00     0.023 A 
ATOM     93  C   UNL A   1      49.626  35.322  24.882  1.00  0.00     0.012 A 
ATOM     94  C   UNL A   1      50.551  35.432  27.128  1.00  0.00     0.148 A 
ATOM     95  C   UNL A   1      50.833  35.781  24.355  1.00  0.00     0.002 A 
ATOM     96  C   UNL A   1      51.734  35.937  26.600  1.00  0.00     0.091 A 
ATOM     97  F   UNL A   1      50.404  35.217  28.443  1.00  0.00    -0.205 F 
ATOM     98  C   UNL A   1      51.882  36.099  25.214  1.00  0.00     0.022 A 
BRANCH  96  99
ATOM     99  S   UNL A   1      53.097  36.462  27.648  1.00  0.00     0.127 S 
ATOM    100  O   UNL A   1      53.996  37.086  26.679  1.00  0.00    -0.237 OA
ATOM    101  O   UNL A   1      52.447  37.397  28.566  1.00  0.00    -0.237 OA
ATOM    102  O   UNL A   1      53.596  35.249  28.283  1.00  0.00    -0.744 OA
ENDBRANCH  96  99
ENDBRANCH  69  92
ENDBRANCH  43  44
ENDBRANCH  35  38
ENDBRANCH  33  34
ENDBRANCH  32  33
ENDBRANCH  31  32
ENDBRANCH   1  31
TORSDOF 20
ENDMDL
