MODEL 1
REMARK VINA RESULT:     -12.8      0.000      0.000
REMARK SMILES O=C(NCCCCNC(=O)c1ccc(-c2c3nc(c(-c4cccc(S(=O)(=O)[O-])c4F)c4ccc([nH]4)c(-c4cccc(S(=O)(=O)[O-])c4F)c4nc(c(-c5cccc(S(=O)(=O)[O-])c5F)c5ccc2[nH]5)C=C4)C=C3)cc1)C1=Cc2ccc(Cl)c(Cl)c2O[C@@H]1C(F)(F)F
REMARK SMILES IDX 6 1 5 2 4 3 3 4 1 5 2 6 74 8 75 9 85 10 76 11 84 12 77 13
REMARK SMILES IDX 83 14 78 15 81 16 79 17 82 18 80 19 86 20 87 21 88 22 89 23
REMARK SMILES IDX 7 24 8 25 9 26 10 28 11 29 12 30 73 31 13 32 72 33 14 34
REMARK SMILES IDX 15 35 16 36 66 37 17 38 71 39 65 40 67 41 18 42 70 43 64 44
REMARK SMILES IDX 63 45 19 47 51 48 31 49 50 50 32 51 35 52 49 53 68 54 33 55
REMARK SMILES IDX 34 56 48 58 69 59 36 60 20 61 21 62 29 63 22 64 24 65 30 66
REMARK SMILES IDX 23 67 25 68 26 69 27 70 28 71 52 72 53 73 61 74 54 75 56 76
REMARK SMILES IDX 62 77 55 78 57 79 58 80 59 81 60 82 37 83 38 84 46 85 39 86
REMARK SMILES IDX 41 87 47 88 40 89 42 90 43 91 44 92 45 93
REMARK H PARENT 3 7 8 27 67 46 35 57
REMARK Flexibility Score: inf
ROOT
ATOM      1  C   UNL A   1      31.430  30.355  25.611  1.00  0.00     0.023 C 
ENDROOT
BRANCH   1   2
ATOM      2  C   UNL A   1      31.403  28.885  25.199  1.00  0.00     0.023 C 
BRANCH   2   3
ATOM      3  C   UNL A   1      32.281  27.964  26.046  1.00  0.00     0.116 C 
BRANCH   3   4
ATOM      4  N   UNL A   1      31.561  26.844  26.660  1.00  0.00    -0.352 N 
ATOM      5  O   UNL A   1      31.219  24.672  27.243  1.00  0.00    -0.270 OA
ATOM      6  C   UNL A   1      31.736  25.489  26.493  1.00  0.00     0.251 C 
ATOM      7  H   UNL A   1      30.844  27.100  27.284  1.00  0.00     0.163 HD
BRANCH   6   8
ATOM      8  C   UNL A   1      32.667  25.045  25.437  1.00  0.00     0.067 C 
ATOM      9  C   UNL A   1      33.885  24.609  25.781  1.00  0.00     0.025 C 
ATOM     10  C   UNL A   1      32.093  24.796  24.077  1.00  0.00     0.314 C 
ATOM     11  C   UNL A   1      34.203  23.310  25.162  1.00  0.00     0.019 A 
ATOM     12  O   UNL A   1      32.267  23.420  23.672  1.00  0.00    -0.474 OA
ATOM     13  C   UNL A   1      35.149  22.511  25.817  1.00  0.00     0.013 A 
ATOM     14  C   UNL A   1      33.303  22.718  24.247  1.00  0.00     0.148 A 
ATOM     15  C   UNL A   1      35.151  21.131  25.620  1.00  0.00     0.023 A 
ATOM     16  C   UNL A   1      33.333  21.330  24.025  1.00  0.00     0.102 A 
ATOM     17  C   UNL A   1      34.243  20.539  24.735  1.00  0.00     0.063 A 
ATOM     18  Cl  UNL A   1      32.156  20.613  22.969  1.00  0.00    -0.079 Cl
ATOM     19  Cl  UNL A   1      34.258  18.814  24.626  1.00  0.00    -0.083 Cl
BRANCH  10  20
ATOM     20  C   UNL A   1      32.692  25.751  23.029  1.00  0.00     0.429 C 
ATOM     21  F   UNL A   1      31.750  26.587  22.528  1.00  0.00    -0.167 F 
ATOM     22  F   UNL A   1      33.670  26.530  23.547  1.00  0.00    -0.167 F 
ATOM     23  F   UNL A   1      33.228  25.086  21.976  1.00  0.00    -0.167 F 
ENDBRANCH  10  20
ENDBRANCH   6   8
ENDBRANCH   3   4
ENDBRANCH   2   3
ENDBRANCH   1   2
BRANCH   1  24
ATOM     24  C   UNL A   1      32.239  30.706  26.860  1.00  0.00     0.116 C 
BRANCH  24  25
ATOM     25  N   UNL A   1      32.329  32.133  27.151  1.00  0.00    -0.352 N 
ATOM     26  C   UNL A   1      33.411  32.854  27.627  1.00  0.00     0.251 C 
ATOM     27  H   UNL A   1      31.510  32.653  26.987  1.00  0.00     0.163 HD
ATOM     28  O   UNL A   1      33.305  34.045  27.865  1.00  0.00    -0.269 OA
BRANCH  26  29
ATOM     29  C   UNL A   1      34.680  32.140  27.904  1.00  0.00     0.039 A 
ATOM     30  C   UNL A   1      35.848  32.889  28.062  1.00  0.00     0.014 A 
ATOM     31  C   UNL A   1      34.684  30.763  28.133  1.00  0.00     0.014 A 
ATOM     32  C   UNL A   1      36.991  32.277  28.586  1.00  0.00     0.010 A 
ATOM     33  C   UNL A   1      35.796  30.175  28.728  1.00  0.00     0.010 A 
ATOM     34  C   UNL A   1      36.947  30.934  28.994  1.00  0.00    -0.014 A 
BRANCH  34  35
ATOM     35  C   UNL A   1      38.049  30.330  29.790  1.00  0.00     0.031 A 
ATOM     36  C   UNL A   1      38.296  30.761  31.207  1.00  0.00     0.074 A 
ATOM     37  C   UNL A   1      38.915  29.493  29.181  1.00  0.00     0.049 A 
ATOM     38  N   UNL A   1      39.262  30.414  32.017  1.00  0.00    -0.248 NA
ATOM     39  C   UNL A   1      37.353  31.736  31.780  1.00  0.00     0.031 C 
ATOM     40  C   UNL A   1      38.850  29.081  27.776  1.00  0.00     0.029 A 
ATOM     41  N   UNL A   1      40.042  28.865  29.654  1.00  0.00    -0.354 N 
ATOM     42  C   UNL A   1      39.070  31.154  33.176  1.00  0.00     0.074 A 
ATOM     43  C   UNL A   1      37.911  31.993  32.954  1.00  0.00     0.031 C 
ATOM     44  C   UNL A   1      39.887  28.274  27.502  1.00  0.00     0.029 A 
ATOM     45  C   UNL A   1      40.708  28.129  28.700  1.00  0.00     0.049 A 
ATOM     46  H   UNL A   1      40.347  28.937  30.588  1.00  0.00     0.167 HD
ATOM     47  C   UNL A   1      39.775  31.118  34.332  1.00  0.00     0.034 A 
ATOM     48  C   UNL A   1      41.852  27.420  28.776  1.00  0.00     0.034 A 
ATOM     49  C   UNL A   1      40.890  30.243  34.570  1.00  0.00     0.049 A 
ATOM     50  C   UNL A   1      42.574  27.339  30.093  1.00  0.00     0.074 A 
ATOM     51  C   UNL A   1      41.597  30.049  35.743  1.00  0.00     0.029 A 
ATOM     52  N   UNL A   1      41.465  29.419  33.615  1.00  0.00    -0.354 N 
ATOM     53  N   UNL A   1      42.265  27.901  31.237  1.00  0.00    -0.248 NA
ATOM     54  C   UNL A   1      43.779  26.499  30.143  1.00  0.00     0.031 C 
ATOM     55  C   UNL A   1      42.607  29.112  35.494  1.00  0.00     0.029 A 
ATOM     56  C   UNL A   1      42.523  28.718  34.169  1.00  0.00     0.049 A 
ATOM     57  H   UNL A   1      41.165  29.342  32.680  1.00  0.00     0.167 HD
ATOM     58  C   UNL A   1      43.219  27.463  32.147  1.00  0.00     0.074 A 
ATOM     59  C   UNL A   1      44.103  26.569  31.428  1.00  0.00     0.031 C 
ATOM     60  C   UNL A   1      43.361  27.789  33.455  1.00  0.00     0.034 A 
BRANCH  47  61
ATOM     61  C   UNL A   1      39.309  32.004  35.458  1.00  0.00     0.023 A 
ATOM     62  C   UNL A   1      38.388  31.497  36.398  1.00  0.00     0.012 A 
ATOM     63  C   UNL A   1      39.808  33.312  35.613  1.00  0.00     0.148 A 
ATOM     64  C   UNL A   1      37.944  32.287  37.455  1.00  0.00     0.002 A 
ATOM     65  C   UNL A   1      39.389  34.081  36.693  1.00  0.00     0.091 A 
ATOM     66  F   UNL A   1      40.662  33.786  34.696  1.00  0.00    -0.205 F 
ATOM     67  C   UNL A   1      38.450  33.575  37.608  1.00  0.00     0.022 A 
BRANCH  65  68
ATOM     68  S   UNL A   1      40.039  35.725  37.013  1.00  0.00     0.127 S 
ATOM     69  O   UNL A   1      41.471  35.458  37.133  1.00  0.00    -0.237 OA
ATOM     70  O   UNL A   1      39.655  36.453  35.804  1.00  0.00    -0.237 OA
ATOM     71  O   UNL A   1      39.378  36.183  38.228  1.00  0.00    -0.744 OA
ENDBRANCH  65  68
ENDBRANCH  47  61
BRANCH  48  72
ATOM     72  C   UNL A   1      42.339  26.669  27.583  1.00  0.00     0.023 A 
ATOM     73  C   UNL A   1      43.155  27.328  26.643  1.00  0.00     0.012 A 
ATOM     74  C   UNL A   1      42.043  25.305  27.399  1.00  0.00     0.148 A 
ATOM     75  C   UNL A   1      43.647  26.649  25.528  1.00  0.00     0.002 A 
ATOM     76  C   UNL A   1      42.581  24.620  26.314  1.00  0.00     0.091 A 
ATOM     77  F   UNL A   1      41.252  24.697  28.295  1.00  0.00    -0.205 F 
ATOM     78  C   UNL A   1      43.370  25.293  25.369  1.00  0.00     0.022 A 
BRANCH  76  79
ATOM     79  S   UNL A   1      42.389  22.845  26.113  1.00  0.00     0.127 S 
ATOM     80  O   UNL A   1      40.936  22.697  26.124  1.00  0.00    -0.237 OA
ATOM     81  O   UNL A   1      43.023  22.613  24.815  1.00  0.00    -0.237 OA
ATOM     82  O   UNL A   1      43.101  22.249  27.237  1.00  0.00    -0.744 OA
ENDBRANCH  76  79
ENDBRANCH  48  72
BRANCH  60  83
ATOM     83  C   UNL A   1      44.504  27.167  34.210  1.00  0.00     0.023 A 
ATOM     84  C   UNL A   1      45.753  27.819  34.237  1.00  0.00     0.012 A 
ATOM     85  C   UNL A   1      44.321  25.991  34.962  1.00  0.00     0.148 A 
ATOM     86  C   UNL A   1      46.808  27.299  34.985  1.00  0.00     0.002 A 
ATOM     87  C   UNL A   1      45.364  25.501  35.740  1.00  0.00     0.091 A 
ATOM     88  F   UNL A   1      43.131  25.374  34.906  1.00  0.00    -0.205 F 
ATOM     89  C   UNL A   1      46.611  26.149  35.746  1.00  0.00     0.022 A 
BRANCH  87  90
ATOM     90  S   UNL A   1      45.170  24.078  36.819  1.00  0.00     0.127 S 
ATOM     91  O   UNL A   1      44.149  24.549  37.753  1.00  0.00    -0.237 OA
ATOM     92  O   UNL A   1      44.716  23.041  35.891  1.00  0.00    -0.237 OA
ATOM     93  O   UNL A   1      46.485  23.834  37.396  1.00  0.00    -0.744 OA
ENDBRANCH  87  90
ENDBRANCH  60  83
ENDBRANCH  34  35
ENDBRANCH  26  29
ENDBRANCH  24  25
ENDBRANCH   1  24
TORSDOF 15
ENDMDL
MODEL 2
REMARK VINA RESULT:     -12.8      1.480      7.661
REMARK SMILES O=C(NCCCCNC(=O)c1ccc(-c2c3nc(c(-c4cccc(S(=O)(=O)[O-])c4F)c4ccc([nH]4)c(-c4cccc(S(=O)(=O)[O-])c4F)c4nc(c(-c5cccc(S(=O)(=O)[O-])c5F)c5ccc2[nH]5)C=C4)C=C3)cc1)C1=Cc2ccc(Cl)c(Cl)c2O[C@@H]1C(F)(F)F
REMARK SMILES IDX 6 1 5 2 4 3 3 4 1 5 2 6 74 8 75 9 85 10 76 11 84 12 77 13
REMARK SMILES IDX 83 14 78 15 81 16 79 17 82 18 80 19 86 20 87 21 88 22 89 23
REMARK SMILES IDX 7 24 8 25 9 26 10 28 11 29 12 30 73 31 13 32 72 33 14 34
REMARK SMILES IDX 15 35 16 36 66 37 17 38 71 39 65 40 67 41 18 42 70 43 64 44
REMARK SMILES IDX 63 45 19 47 51 48 31 49 50 50 32 51 35 52 49 53 68 54 33 55
REMARK SMILES IDX 34 56 48 58 69 59 36 60 20 61 21 62 29 63 22 64 24 65 30 66
REMARK SMILES IDX 23 67 25 68 26 69 27 70 28 71 52 72 53 73 61 74 54 75 56 76
REMARK SMILES IDX 62 77 55 78 57 79 58 80 59 81 60 82 37 83 38 84 46 85 39 86
REMARK SMILES IDX 41 87 47 88 40 89 42 90 43 91 44 92 45 93
REMARK H PARENT 3 7 8 27 67 46 35 57
REMARK Flexibility Score: inf
ROOT
ATOM      1  C   UNL A   1      31.463  30.411  25.495  1.00  0.00     0.023 C 
ENDROOT
BRANCH   1   2
ATOM      2  C   UNL A   1      31.411  28.923  25.155  1.00  0.00     0.023 C 
BRANCH   2   3
ATOM      3  C   UNL A   1      31.925  27.994  26.256  1.00  0.00     0.116 C 
BRANCH   3   4
ATOM      4  N   UNL A   1      31.028  26.877  26.566  1.00  0.00    -0.352 N 
ATOM      5  O   UNL A   1      30.454  24.689  26.815  1.00  0.00    -0.270 OA
ATOM      6  C   UNL A   1      31.169  25.535  26.293  1.00  0.00     0.251 C 
ATOM      7  H   UNL A   1      30.201  27.123  27.041  1.00  0.00     0.163 HD
BRANCH   6   8
ATOM      8  C   UNL A   1      32.293  25.128  25.427  1.00  0.00     0.067 C 
ATOM      9  C   UNL A   1      33.384  24.587  25.984  1.00  0.00     0.025 C 
ATOM     10  C   UNL A   1      32.027  25.037  23.957  1.00  0.00     0.314 C 
ATOM     11  C   UNL A   1      33.777  23.329  25.323  1.00  0.00     0.019 A 
ATOM     12  O   UNL A   1      32.230  23.693  23.463  1.00  0.00    -0.474 OA
ATOM     13  C   UNL A   1      34.519  22.418  26.085  1.00  0.00     0.013 A 
ATOM     14  C   UNL A   1      33.081  22.879  24.179  1.00  0.00     0.148 A 
ATOM     15  C   UNL A   1      34.506  21.063  25.756  1.00  0.00     0.023 A 
ATOM     16  C   UNL A   1      33.101  21.517  23.830  1.00  0.00     0.102 A 
ATOM     17  C   UNL A   1      33.795  20.611  24.640  1.00  0.00     0.063 A 
ATOM     18  Cl  UNL A   1      32.161  20.972  22.477  1.00  0.00    -0.079 Cl
ATOM     19  Cl  UNL A   1      33.761  18.905  24.364  1.00  0.00    -0.083 Cl
BRANCH  10  20
ATOM     20  C   UNL A   1      32.886  26.040  23.166  1.00  0.00     0.429 C 
ATOM     21  F   UNL A   1      33.750  26.697  23.978  1.00  0.00    -0.167 F 
ATOM     22  F   UNL A   1      33.630  25.435  22.211  1.00  0.00    -0.167 F 
ATOM     23  F   UNL A   1      32.134  26.983  22.546  1.00  0.00    -0.167 F 
ENDBRANCH  10  20
ENDBRANCH   6   8
ENDBRANCH   3   4
ENDBRANCH   2   3
ENDBRANCH   1   2
BRANCH   1  24
ATOM     24  C   UNL A   1      32.085  30.789  26.839  1.00  0.00     0.116 C 
BRANCH  24  25
ATOM     25  N   UNL A   1      32.056  32.215  27.148  1.00  0.00    -0.352 N 
ATOM     26  C   UNL A   1      33.075  33.019  27.628  1.00  0.00     0.251 C 
ATOM     27  H   UNL A   1      31.195  32.666  26.995  1.00  0.00     0.163 HD
ATOM     28  O   UNL A   1      32.870  34.194  27.882  1.00  0.00    -0.269 OA
BRANCH  26  29
ATOM     29  C   UNL A   1      34.402  32.412  27.890  1.00  0.00     0.039 A 
ATOM     30  C   UNL A   1      35.510  33.252  28.011  1.00  0.00     0.014 A 
ATOM     31  C   UNL A   1      34.518  31.043  28.140  1.00  0.00     0.014 A 
ATOM     32  C   UNL A   1      36.708  32.741  28.520  1.00  0.00     0.010 A 
ATOM     33  C   UNL A   1      35.685  30.555  28.721  1.00  0.00     0.010 A 
ATOM     34  C   UNL A   1      36.778  31.406  28.951  1.00  0.00    -0.014 A 
BRANCH  34  35
ATOM     35  C   UNL A   1      37.939  30.904  29.733  1.00  0.00     0.031 A 
ATOM     36  C   UNL A   1      38.873  29.883  29.147  1.00  0.00     0.074 A 
ATOM     37  C   UNL A   1      38.067  31.269  31.026  1.00  0.00     0.049 A 
ATOM     38  N   UNL A   1      39.877  29.267  29.713  1.00  0.00    -0.248 NA
ATOM     39  C   UNL A   1      38.625  29.475  27.754  1.00  0.00     0.031 C 
ATOM     40  C   UNL A   1      37.162  32.169  31.746  1.00  0.00     0.029 A 
ATOM     41  N   UNL A   1      38.987  30.900  31.978  1.00  0.00    -0.354 N 
ATOM     42  C   UNL A   1      40.356  28.372  28.765  1.00  0.00     0.074 A 
ATOM     43  C   UNL A   1      39.512  28.504  27.596  1.00  0.00     0.031 C 
ATOM     44  C   UNL A   1      37.569  32.282  33.019  1.00  0.00     0.029 A 
ATOM     45  C   UNL A   1      38.747  31.444  33.220  1.00  0.00     0.049 A 
ATOM     46  H   UNL A   1      39.746  30.302  31.790  1.00  0.00     0.167 HD
ATOM     47  C   UNL A   1      41.419  27.537  28.847  1.00  0.00     0.034 A 
ATOM     48  C   UNL A   1      39.396  31.284  34.390  1.00  0.00     0.034 A 
ATOM     49  C   UNL A   1      42.289  27.449  29.988  1.00  0.00     0.049 A 
ATOM     50  C   UNL A   1      40.618  30.408  34.433  1.00  0.00     0.074 A 
ATOM     51  C   UNL A   1      43.457  26.720  30.125  1.00  0.00     0.029 A 
ATOM     52  N   UNL A   1      42.085  28.107  31.190  1.00  0.00    -0.354 N 
ATOM     53  N   UNL A   1      41.167  29.714  33.466  1.00  0.00    -0.248 NA
ATOM     54  C   UNL A   1      41.331  30.319  35.715  1.00  0.00     0.031 C 
ATOM     55  C   UNL A   1      43.954  26.931  31.416  1.00  0.00     0.029 A 
ATOM     56  C   UNL A   1      43.099  27.797  32.079  1.00  0.00     0.049 A 
ATOM     57  H   UNL A   1      41.328  28.707  31.385  1.00  0.00     0.167 HD
ATOM     58  C   UNL A   1      42.302  29.129  34.012  1.00  0.00     0.074 A 
ATOM     59  C   UNL A   1      42.376  29.569  35.390  1.00  0.00     0.031 C 
ATOM     60  C   UNL A   1      43.191  28.287  33.431  1.00  0.00     0.034 A 
BRANCH  47  61
ATOM     61  C   UNL A   1      41.744  26.704  27.635  1.00  0.00     0.023 A 
ATOM     62  C   UNL A   1      42.324  27.323  26.509  1.00  0.00     0.012 A 
ATOM     63  C   UNL A   1      41.519  25.314  27.621  1.00  0.00     0.148 A 
ATOM     64  C   UNL A   1      42.644  26.580  25.375  1.00  0.00     0.002 A 
ATOM     65  C   UNL A   1      41.876  24.573  26.500  1.00  0.00     0.091 A 
ATOM     66  F   UNL A   1      40.942  24.746  28.690  1.00  0.00    -0.205 F 
ATOM     67  C   UNL A   1      42.429  25.205  25.373  1.00  0.00     0.022 A 
BRANCH  65  68
ATOM     68  S   UNL A   1      41.703  22.785  26.433  1.00  0.00     0.127 S 
ATOM     69  O   UNL A   1      40.249  22.631  26.402  1.00  0.00    -0.237 OA
ATOM     70  O   UNL A   1      42.376  22.455  25.176  1.00  0.00    -0.237 OA
ATOM     71  O   UNL A   1      42.368  22.277  27.625  1.00  0.00    -0.744 OA
ENDBRANCH  65  68
ENDBRANCH  47  61
BRANCH  48  72
ATOM     72  C   UNL A   1      38.944  32.035  35.597  1.00  0.00     0.023 A 
ATOM     73  C   UNL A   1      39.164  33.425  35.662  1.00  0.00     0.012 A 
ATOM     74  C   UNL A   1      38.261  31.399  36.650  1.00  0.00     0.148 A 
ATOM     75  C   UNL A   1      38.734  34.164  36.764  1.00  0.00     0.002 A 
ATOM     76  C   UNL A   1      37.787  32.149  37.721  1.00  0.00     0.091 A 
ATOM     77  F   UNL A   1      38.074  30.073  36.579  1.00  0.00    -0.205 F 
ATOM     78  C   UNL A   1      38.035  33.528  37.788  1.00  0.00     0.022 A 
BRANCH  76  79
ATOM     79  S   UNL A   1      36.758  31.433  39.009  1.00  0.00     0.127 S 
ATOM     80  O   UNL A   1      37.619  31.555  40.183  1.00  0.00    -0.237 OA
ATOM     81  O   UNL A   1      35.595  32.321  39.002  1.00  0.00    -0.237 OA
ATOM     82  O   UNL A   1      36.471  30.075  38.565  1.00  0.00    -0.744 OA
ENDBRANCH  76  79
ENDBRANCH  48  72
BRANCH  60  83
ATOM     83  C   UNL A   1      44.337  27.791  34.271  1.00  0.00     0.023 A 
ATOM     84  C   UNL A   1      45.506  28.570  34.375  1.00  0.00     0.012 A 
ATOM     85  C   UNL A   1      44.224  26.606  35.022  1.00  0.00     0.148 A 
ATOM     86  C   UNL A   1      46.554  28.167  35.202  1.00  0.00     0.002 A 
ATOM     87  C   UNL A   1      45.255  26.232  35.876  1.00  0.00     0.091 A 
ATOM     88  F   UNL A   1      43.112  25.868  34.891  1.00  0.00    -0.205 F 
ATOM     89  C   UNL A   1      46.425  27.006  35.961  1.00  0.00     0.022 A 
BRANCH  87  90
ATOM     90  S   UNL A   1      45.135  24.801  36.957  1.00  0.00     0.127 S 
ATOM     91  O   UNL A   1      46.417  24.848  37.657  1.00  0.00    -0.237 OA
ATOM     92  O   UNL A   1      43.975  25.133  37.786  1.00  0.00    -0.237 OA
ATOM     93  O   UNL A   1      44.939  23.655  36.081  1.00  0.00    -0.744 OA
ENDBRANCH  87  90
ENDBRANCH  60  83
ENDBRANCH  34  35
ENDBRANCH  26  29
ENDBRANCH  24  25
ENDBRANCH   1  24
TORSDOF 15
ENDMDL
MODEL 3
REMARK VINA RESULT:     -12.6      1.124      1.708
REMARK SMILES O=C(NCCCCNC(=O)c1ccc(-c2c3nc(c(-c4cccc(S(=O)(=O)[O-])c4F)c4ccc([nH]4)c(-c4cccc(S(=O)(=O)[O-])c4F)c4nc(c(-c5cccc(S(=O)(=O)[O-])c5F)c5ccc2[nH]5)C=C4)C=C3)cc1)C1=Cc2ccc(Cl)c(Cl)c2O[C@@H]1C(F)(F)F
REMARK SMILES IDX 6 1 5 2 4 3 3 4 1 5 2 6 74 8 75 9 85 10 76 11 84 12 77 13
REMARK SMILES IDX 83 14 78 15 81 16 79 17 82 18 80 19 86 20 87 21 88 22 89 23
REMARK SMILES IDX 7 24 8 25 9 26 10 28 11 29 12 30 73 31 13 32 72 33 14 34
REMARK SMILES IDX 15 35 16 36 66 37 17 38 71 39 65 40 67 41 18 42 70 43 64 44
REMARK SMILES IDX 63 45 19 47 51 48 31 49 50 50 32 51 35 52 49 53 68 54 33 55
REMARK SMILES IDX 34 56 48 58 69 59 36 60 20 61 21 62 29 63 22 64 24 65 30 66
REMARK SMILES IDX 23 67 25 68 26 69 27 70 28 71 52 72 53 73 61 74 54 75 56 76
REMARK SMILES IDX 62 77 55 78 57 79 58 80 59 81 60 82 37 83 38 84 46 85 39 86
REMARK SMILES IDX 41 87 47 88 40 89 42 90 43 91 44 92 45 93
REMARK H PARENT 3 7 8 27 67 46 35 57
REMARK Flexibility Score: inf
ROOT
ATOM      1  C   UNL A   1      31.596  29.727  25.033  1.00  0.00     0.023 C 
ENDROOT
BRANCH   1   2
ATOM      2  C   UNL A   1      32.411  29.170  23.868  1.00  0.00     0.023 C 
BRANCH   2   3
ATOM      3  C   UNL A   1      31.758  28.003  23.127  1.00  0.00     0.116 C 
BRANCH   3   4
ATOM      4  N   UNL A   1      32.678  27.243  22.274  1.00  0.00    -0.352 N 
ATOM      5  O   UNL A   1      33.658  25.366  21.443  1.00  0.00    -0.270 OA
ATOM      6  C   UNL A   1      33.067  25.925  22.356  1.00  0.00     0.251 C 
ATOM      7  H   UNL A   1      33.077  27.752  21.532  1.00  0.00     0.163 HD
BRANCH   6   8
ATOM      8  C   UNL A   1      32.648  25.162  23.549  1.00  0.00     0.067 C 
ATOM      9  C   UNL A   1      31.794  24.142  23.405  1.00  0.00     0.025 C 
ATOM     10  C   UNL A   1      33.447  25.355  24.801  1.00  0.00     0.314 C 
ATOM     11  C   UNL A   1      32.275  22.918  24.071  1.00  0.00     0.019 A 
ATOM     12  O   UNL A   1      34.061  24.120  25.234  1.00  0.00    -0.474 OA
ATOM     13  C   UNL A   1      31.795  21.698  23.579  1.00  0.00     0.013 A 
ATOM     14  C   UNL A   1      33.464  22.944  24.833  1.00  0.00     0.148 A 
ATOM     15  C   UNL A   1      32.528  20.530  23.778  1.00  0.00     0.023 A 
ATOM     16  C   UNL A   1      34.182  21.757  25.062  1.00  0.00     0.102 A 
ATOM     17  C   UNL A   1      33.721  20.557  24.508  1.00  0.00     0.063 A 
ATOM     18  Cl  UNL A   1      35.690  21.827  25.918  1.00  0.00    -0.079 Cl
ATOM     19  Cl  UNL A   1      34.609  19.079  24.624  1.00  0.00    -0.083 Cl
BRANCH  10  20
ATOM     20  C   UNL A   1      32.591  25.959  25.928  1.00  0.00     0.429 C 
ATOM     21  F   UNL A   1      33.230  26.990  26.534  1.00  0.00    -0.167 F 
ATOM     22  F   UNL A   1      31.413  26.445  25.471  1.00  0.00    -0.167 F 
ATOM     23  F   UNL A   1      32.299  25.054  26.894  1.00  0.00    -0.167 F 
ENDBRANCH  10  20
ENDBRANCH   6   8
ENDBRANCH   3   4
ENDBRANCH   2   3
ENDBRANCH   1   2
BRANCH   1  24
ATOM     24  C   UNL A   1      32.359  30.035  26.322  1.00  0.00     0.116 C 
BRANCH  24  25
ATOM     25  N   UNL A   1      32.253  31.416  26.780  1.00  0.00    -0.352 N 
ATOM     26  C   UNL A   1      33.203  32.191  27.423  1.00  0.00     0.251 C 
ATOM     27  H   UNL A   1      31.390  31.856  26.611  1.00  0.00     0.163 HD
ATOM     28  O   UNL A   1      32.937  33.324  27.787  1.00  0.00    -0.269 OA
BRANCH  26  29
ATOM     29  C   UNL A   1      34.528  31.597  27.721  1.00  0.00     0.039 A 
ATOM     30  C   UNL A   1      35.597  32.451  28.001  1.00  0.00     0.014 A 
ATOM     31  C   UNL A   1      34.674  30.214  27.848  1.00  0.00     0.014 A 
ATOM     32  C   UNL A   1      36.773  31.925  28.544  1.00  0.00     0.010 A 
ATOM     33  C   UNL A   1      35.813  29.703  28.461  1.00  0.00     0.010 A 
ATOM     34  C   UNL A   1      36.858  30.556  28.849  1.00  0.00    -0.014 A 
BRANCH  34  35
ATOM     35  C   UNL A   1      37.980  30.012  29.661  1.00  0.00     0.031 A 
ATOM     36  C   UNL A   1      38.219  30.500  31.061  1.00  0.00     0.074 A 
ATOM     37  C   UNL A   1      38.866  29.178  29.079  1.00  0.00     0.049 A 
ATOM     38  N   UNL A   1      39.197  30.209  31.878  1.00  0.00    -0.248 NA
ATOM     39  C   UNL A   1      37.251  31.469  31.603  1.00  0.00     0.031 C 
ATOM     40  C   UNL A   1      38.808  28.714  27.690  1.00  0.00     0.029 A 
ATOM     41  N   UNL A   1      40.012  28.599  29.569  1.00  0.00    -0.354 N 
ATOM     42  C   UNL A   1      38.989  30.985  33.011  1.00  0.00     0.074 A 
ATOM     43  C   UNL A   1      37.806  31.783  32.765  1.00  0.00     0.031 C 
ATOM     44  C   UNL A   1      39.866  27.927  27.440  1.00  0.00     0.029 A 
ATOM     45  C   UNL A   1      40.694  27.847  28.639  1.00  0.00     0.049 A 
ATOM     46  H   UNL A   1      40.317  28.712  30.498  1.00  0.00     0.167 HD
ATOM     47  C   UNL A   1      39.698  31.009  34.165  1.00  0.00     0.034 A 
ATOM     48  C   UNL A   1      41.858  27.174  28.735  1.00  0.00     0.034 A 
ATOM     49  C   UNL A   1      40.838  30.175  34.428  1.00  0.00     0.049 A 
ATOM     50  C   UNL A   1      42.587  27.160  30.051  1.00  0.00     0.074 A 
ATOM     51  C   UNL A   1      41.554  30.042  35.605  1.00  0.00     0.029 A 
ATOM     52  N   UNL A   1      41.432  29.333  33.501  1.00  0.00    -0.354 N 
ATOM     53  N   UNL A   1      42.266  27.754  31.175  1.00  0.00    -0.248 NA
ATOM     54  C   UNL A   1      43.815  26.356  30.126  1.00  0.00     0.031 C 
ATOM     55  C   UNL A   1      42.588  29.126  35.385  1.00  0.00     0.029 A 
ATOM     56  C   UNL A   1      42.511  28.683  34.075  1.00  0.00     0.049 A 
ATOM     57  H   UNL A   1      41.132  29.215  32.570  1.00  0.00     0.167 HD
ATOM     58  C   UNL A   1      43.235  27.375  32.096  1.00  0.00     0.074 A 
ATOM     59  C   UNL A   1      44.141  26.481  31.406  1.00  0.00     0.031 C 
ATOM     60  C   UNL A   1      43.372  27.752  33.392  1.00  0.00     0.034 A 
BRANCH  47  61
ATOM     61  C   UNL A   1      39.212  31.922  35.260  1.00  0.00     0.023 A 
ATOM     62  C   UNL A   1      38.240  31.453  36.167  1.00  0.00     0.012 A 
ATOM     63  C   UNL A   1      39.740  33.218  35.420  1.00  0.00     0.148 A 
ATOM     64  C   UNL A   1      37.775  32.268  37.197  1.00  0.00     0.002 A 
ATOM     65  C   UNL A   1      39.299  34.012  36.473  1.00  0.00     0.091 A 
ATOM     66  F   UNL A   1      40.644  33.657  34.533  1.00  0.00    -0.205 F 
ATOM     67  C   UNL A   1      38.310  33.544  37.355  1.00  0.00     0.022 A 
BRANCH  65  68
ATOM     68  S   UNL A   1      39.981  35.642  36.801  1.00  0.00     0.127 S 
ATOM     69  O   UNL A   1      39.293  36.006  38.038  1.00  0.00    -0.237 OA
ATOM     70  O   UNL A   1      41.407  35.357  36.958  1.00  0.00    -0.237 OA
ATOM     71  O   UNL A   1      39.653  36.450  35.634  1.00  0.00    -0.744 OA
ENDBRANCH  65  68
ENDBRANCH  47  61
BRANCH  48  72
ATOM     72  C   UNL A   1      42.361  26.394  27.568  1.00  0.00     0.023 A 
ATOM     73  C   UNL A   1      43.224  27.018  26.646  1.00  0.00     0.012 A 
ATOM     74  C   UNL A   1      42.035  25.036  27.391  1.00  0.00     0.148 A 
ATOM     75  C   UNL A   1      43.733  26.312  25.556  1.00  0.00     0.002 A 
ATOM     76  C   UNL A   1      42.588  24.323  26.332  1.00  0.00     0.091 A 
ATOM     77  F   UNL A   1      41.200  24.462  28.269  1.00  0.00    -0.205 F 
ATOM     78  C   UNL A   1      43.424  24.962  25.405  1.00  0.00     0.022 A 
BRANCH  76  79
ATOM     79  S   UNL A   1      42.354  22.551  26.148  1.00  0.00     0.127 S 
ATOM     80  O   UNL A   1      40.898  22.443  26.104  1.00  0.00    -0.237 OA
ATOM     81  O   UNL A   1      43.031  22.283  24.878  1.00  0.00    -0.237 OA
ATOM     82  O   UNL A   1      43.004  21.952  27.306  1.00  0.00    -0.744 OA
ENDBRANCH  76  79
ENDBRANCH  48  72
BRANCH  60  83
ATOM     83  C   UNL A   1      44.535  27.189  34.163  1.00  0.00     0.023 A 
ATOM     84  C   UNL A   1      45.740  27.916  34.227  1.00  0.00     0.012 A 
ATOM     85  C   UNL A   1      44.408  25.992  34.894  1.00  0.00     0.148 A 
ATOM     86  C   UNL A   1      46.808  27.449  34.992  1.00  0.00     0.002 A 
ATOM     87  C   UNL A   1      45.462  25.555  35.688  1.00  0.00     0.091 A 
ATOM     88  F   UNL A   1      43.260  25.305  34.801  1.00  0.00    -0.205 F 
ATOM     89  C   UNL A   1      46.666  26.278  35.731  1.00  0.00     0.022 A 
BRANCH  87  90
ATOM     90  S   UNL A   1      45.333  24.106  36.742  1.00  0.00     0.127 S 
ATOM     91  O   UNL A   1      44.548  24.621  37.862  1.00  0.00    -0.237 OA
ATOM     92  O   UNL A   1      44.621  23.158  35.883  1.00  0.00    -0.237 OA
ATOM     93  O   UNL A   1      46.701  23.720  37.058  1.00  0.00    -0.744 OA
ENDBRANCH  87  90
ENDBRANCH  60  83
ENDBRANCH  34  35
ENDBRANCH  26  29
ENDBRANCH  24  25
ENDBRANCH   1  24
TORSDOF 15
ENDMDL
