MODEL 1
REMARK VINA RESULT:     -12.5      0.000      0.000
REMARK SMILES CC[C@](C)(NC(=O)[C@H]1CNc2ccccc2O1)C(=O)NCCCCNC(=O)c1ccc(-c2c3nc(c(-c4cccc(S(=O)(=O)[O-])c4F)c4ccc([nH]4)c(-c4cccc(S(=O)(=O)[O-])c4F)c4nc(c(-c5cccc(S(=O)(=O)[O-])c5F)c5ccc2[nH]5)C=C4)C=C3)cc1
REMARK SMILES IDX 23 1 22 2 21 3 20 4 18 5 19 6 3 8 4 9 2 10 1 11 5 12 6 13
REMARK SMILES IDX 7 15 8 16 9 17 17 18 10 19 16 20 11 21 15 23 12 24 14 25
REMARK SMILES IDX 13 26 24 27 25 28 26 29 27 31 28 32 29 33 90 34 30 35 89 36
REMARK SMILES IDX 31 37 32 38 33 39 83 40 34 41 88 42 82 43 84 44 35 45 87 46
REMARK SMILES IDX 81 47 80 48 36 50 68 51 48 52 67 53 49 54 52 55 66 56 85 57
REMARK SMILES IDX 50 58 51 59 65 61 86 62 53 63 37 64 38 65 46 66 39 67 41 68
REMARK SMILES IDX 47 69 40 70 42 71 43 72 44 73 45 74 69 75 70 76 78 77 71 78
REMARK SMILES IDX 73 79 79 80 72 81 74 82 75 83 76 84 77 85 54 86 55 87 63 88
REMARK SMILES IDX 56 89 58 90 64 91 57 92 59 93 60 94 61 95 62 96
REMARK H PARENT 20 7 5 14 10 22 25 30 84 49 52 60
REMARK Flexibility Score: inf
ROOT
ATOM      1  C   UNL A   1      31.688  31.836  26.857  1.00  0.00     0.023 C 
ENDROOT
BRANCH   1   2
ATOM      2  C   UNL A   1      31.897  30.334  26.713  1.00  0.00     0.023 C 
BRANCH   2   3
ATOM      3  C   UNL A   1      31.619  29.748  25.328  1.00  0.00     0.116 C 
BRANCH   3   4
ATOM      4  N   UNL A   1      32.758  29.688  24.420  1.00  0.00    -0.354 N 
ATOM      5  C   UNL A   1      33.218  28.676  23.613  1.00  0.00     0.245 C 
ATOM      6  O   UNL A   1      34.000  28.986  22.711  1.00  0.00    -0.272 OA
ATOM      7  H   UNL A   1      33.290  30.516  24.378  1.00  0.00     0.163 HD
BRANCH   5   8
ATOM      8  C   UNL A   1      32.642  27.231  23.724  1.00  0.00     0.116 C 
ATOM      9  C   UNL A   1      31.267  27.197  24.419  1.00  0.00     0.045 C 
BRANCH   8  10
ATOM     10  C   UNL A   1      33.679  26.423  24.583  1.00  0.00     0.035 C 
ATOM     11  C   UNL A   1      33.286  26.157  26.035  1.00  0.00     0.007 C 
ENDBRANCH   8  10
BRANCH   8  12
ATOM     12  N   UNL A   1      32.497  26.578  22.391  1.00  0.00    -0.339 N 
ATOM     13  C   UNL A   1      33.100  25.442  21.890  1.00  0.00     0.263 C 
ATOM     14  H   UNL A   1      31.875  27.027  21.773  1.00  0.00     0.164 HD
ATOM     15  O   UNL A   1      33.126  25.321  20.662  1.00  0.00    -0.271 OA
BRANCH  13  16
ATOM     16  C   UNL A   1      33.554  24.322  22.837  1.00  0.00     0.281 C 
ATOM     17  C   UNL A   1      32.490  23.232  23.032  1.00  0.00     0.168 C 
ATOM     18  O   UNL A   1      34.784  23.728  22.432  1.00  0.00    -0.477 OA
ATOM     19  N   UNL A   1      32.926  22.357  24.119  1.00  0.00    -0.378 N 
ATOM     20  C   UNL A   1      35.209  22.832  23.393  1.00  0.00     0.143 A 
ATOM     21  C   UNL A   1      34.299  22.135  24.216  1.00  0.00     0.077 A 
ATOM     22  H   UNL A   1      32.286  21.947  24.745  1.00  0.00     0.160 HD
ATOM     23  C   UNL A   1      36.585  22.664  23.520  1.00  0.00     0.049 A 
ATOM     24  C   UNL A   1      34.817  21.297  25.204  1.00  0.00     0.029 A 
ATOM     25  C   UNL A   1      37.083  21.818  24.506  1.00  0.00     0.004 A 
ATOM     26  C   UNL A   1      36.201  21.137  25.347  1.00  0.00     0.002 A 
ENDBRANCH  13  16
ENDBRANCH   8  12
ENDBRANCH   5   8
ENDBRANCH   3   4
ENDBRANCH   2   3
ENDBRANCH   1   2
BRANCH   1  27
ATOM     27  C   UNL A   1      32.915  32.600  27.322  1.00  0.00     0.116 C 
BRANCH  27  28
ATOM     28  N   UNL A   1      32.621  33.992  27.639  1.00  0.00    -0.352 N 
ATOM     29  C   UNL A   1      33.152  34.786  28.622  1.00  0.00     0.251 C 
ATOM     30  H   UNL A   1      31.947  34.422  27.066  1.00  0.00     0.163 HD
ATOM     31  O   UNL A   1      32.663  35.892  28.846  1.00  0.00    -0.269 OA
BRANCH  29  32
ATOM     32  C   UNL A   1      34.295  34.298  29.416  1.00  0.00     0.039 A 
ATOM     33  C   UNL A   1      34.049  33.554  30.572  1.00  0.00     0.014 A 
ATOM     34  C   UNL A   1      35.606  34.552  29.003  1.00  0.00     0.014 A 
ATOM     35  C   UNL A   1      35.123  33.015  31.281  1.00  0.00     0.010 A 
ATOM     36  C   UNL A   1      36.665  33.936  29.657  1.00  0.00     0.010 A 
ATOM     37  C   UNL A   1      36.437  33.173  30.810  1.00  0.00    -0.014 A 
BRANCH  37  38
ATOM     38  C   UNL A   1      37.589  32.551  31.509  1.00  0.00     0.031 A 
ATOM     39  C   UNL A   1      38.328  31.406  30.871  1.00  0.00     0.074 A 
ATOM     40  C   UNL A   1      37.911  32.961  32.752  1.00  0.00     0.049 A 
ATOM     41  N   UNL A   1      39.321  30.701  31.346  1.00  0.00    -0.248 NA
ATOM     42  C   UNL A   1      37.874  30.975  29.537  1.00  0.00     0.031 C 
ATOM     43  C   UNL A   1      37.218  34.008  33.505  1.00  0.00     0.029 A 
ATOM     44  N   UNL A   1      38.891  32.529  33.611  1.00  0.00    -0.354 N 
ATOM     45  C   UNL A   1      39.582  29.723  30.394  1.00  0.00     0.074 A 
ATOM     46  C   UNL A   1      38.621  29.902  29.330  1.00  0.00     0.031 C 
ATOM     47  C   UNL A   1      37.801  34.145  34.707  1.00  0.00     0.029 A 
ATOM     48  C   UNL A   1      38.883  33.174  34.825  1.00  0.00     0.049 A 
ATOM     49  H   UNL A   1      39.538  31.824  33.379  1.00  0.00     0.167 HD
ATOM     50  C   UNL A   1      40.552  28.779  30.392  1.00  0.00     0.034 A 
ATOM     51  C   UNL A   1      39.656  32.996  35.915  1.00  0.00     0.034 A 
ATOM     52  C   UNL A   1      41.531  28.635  31.434  1.00  0.00     0.049 A 
ATOM     53  C   UNL A   1      40.748  31.961  35.871  1.00  0.00     0.074 A 
ATOM     54  C   UNL A   1      42.614  27.776  31.483  1.00  0.00     0.029 A 
ATOM     55  N   UNL A   1      41.540  29.358  32.618  1.00  0.00    -0.354 N 
ATOM     56  N   UNL A   1      41.083  31.155  34.893  1.00  0.00    -0.248 NA
ATOM     57  C   UNL A   1      41.592  31.837  37.068  1.00  0.00     0.031 C 
ATOM     58  C   UNL A   1      43.256  27.952  32.713  1.00  0.00     0.029 A 
ATOM     59  C   UNL A   1      42.598  28.952  33.411  1.00  0.00     0.049 A 
ATOM     60  H   UNL A   1      40.889  30.056  32.858  1.00  0.00     0.167 HD
ATOM     61  C   UNL A   1      42.200  30.458  35.339  1.00  0.00     0.074 A 
ATOM     62  C   UNL A   1      42.495  30.951  36.670  1.00  0.00     0.031 C 
ATOM     63  C   UNL A   1      42.909  29.489  34.712  1.00  0.00     0.034 A 
BRANCH  50  64
ATOM     64  C   UNL A   1      40.629  27.852  29.208  1.00  0.00     0.023 A 
ATOM     65  C   UNL A   1      39.760  26.744  29.128  1.00  0.00     0.012 A 
ATOM     66  C   UNL A   1      41.517  28.110  28.146  1.00  0.00     0.148 A 
ATOM     67  C   UNL A   1      39.798  25.888  28.027  1.00  0.00     0.002 A 
ATOM     68  C   UNL A   1      41.515  27.281  27.030  1.00  0.00     0.091 A 
ATOM     69  F   UNL A   1      42.351  29.155  28.249  1.00  0.00    -0.205 F 
ATOM     70  C   UNL A   1      40.667  26.163  26.976  1.00  0.00     0.022 A 
BRANCH  68  71
ATOM     71  S   UNL A   1      42.535  27.597  25.585  1.00  0.00     0.127 S 
ATOM     72  O   UNL A   1      41.918  28.810  25.049  1.00  0.00    -0.237 OA
ATOM     73  O   UNL A   1      43.856  27.797  26.181  1.00  0.00    -0.237 OA
ATOM     74  O   UNL A   1      42.419  26.414  24.743  1.00  0.00    -0.744 OA
ENDBRANCH  68  71
ENDBRANCH  50  64
BRANCH  51  75
ATOM     75  C   UNL A   1      39.465  33.856  37.117  1.00  0.00     0.023 A 
ATOM     76  C   UNL A   1      39.929  35.186  37.097  1.00  0.00     0.012 A 
ATOM     77  C   UNL A   1      38.817  33.372  38.270  1.00  0.00     0.148 A 
ATOM     78  C   UNL A   1      39.786  36.006  38.217  1.00  0.00     0.002 A 
ATOM     79  C   UNL A   1      38.625  34.212  39.360  1.00  0.00     0.091 A 
ATOM     80  F   UNL A   1      38.390  32.101  38.272  1.00  0.00    -0.205 F 
ATOM     81  C   UNL A   1      39.127  35.524  39.343  1.00  0.00     0.022 A 
BRANCH  79  82
ATOM     82  S   UNL A   1      37.675  33.718  40.802  1.00  0.00     0.127 S 
ATOM     83  O   UNL A   1      38.583  32.777  41.451  1.00  0.00    -0.237 OA
ATOM     84  O   UNL A   1      37.503  34.993  41.499  1.00  0.00    -0.237 OA
ATOM     85  O   UNL A   1      36.439  33.150  40.282  1.00  0.00    -0.744 OA
ENDBRANCH  79  82
ENDBRANCH  51  75
BRANCH  63  86
ATOM     86  C   UNL A   1      44.108  28.923  35.428  1.00  0.00     0.023 A 
ATOM     87  C   UNL A   1      45.381  29.495  35.232  1.00  0.00     0.012 A 
ATOM     88  C   UNL A   1      43.957  27.871  36.352  1.00  0.00     0.148 A 
ATOM     89  C   UNL A   1      46.490  29.003  35.919  1.00  0.00     0.002 A 
ATOM     90  C   UNL A   1      45.055  27.423  37.073  1.00  0.00     0.091 A 
ATOM     91  F   UNL A   1      42.739  27.330  36.511  1.00  0.00    -0.205 F 
ATOM     92  C   UNL A   1      46.325  27.977  36.848  1.00  0.00     0.022 A 
BRANCH  90  93
ATOM     93  S   UNL A   1      44.920  26.178  38.361  1.00  0.00     0.127 S 
ATOM     94  O   UNL A   1      44.238  25.093  37.658  1.00  0.00    -0.237 OA
ATOM     95  O   UNL A   1      46.323  25.911  38.681  1.00  0.00    -0.237 OA
ATOM     96  O   UNL A   1      44.161  26.796  39.440  1.00  0.00    -0.744 OA
ENDBRANCH  90  93
ENDBRANCH  63  86
ENDBRANCH  37  38
ENDBRANCH  29  32
ENDBRANCH  27  28
ENDBRANCH   1  27
TORSDOF 17
ENDMDL
MODEL 2
REMARK VINA RESULT:     -12.5      2.503      8.194
REMARK SMILES CC[C@](C)(NC(=O)[C@H]1CNc2ccccc2O1)C(=O)NCCCCNC(=O)c1ccc(-c2c3nc(c(-c4cccc(S(=O)(=O)[O-])c4F)c4ccc([nH]4)c(-c4cccc(S(=O)(=O)[O-])c4F)c4nc(c(-c5cccc(S(=O)(=O)[O-])c5F)c5ccc2[nH]5)C=C4)C=C3)cc1
REMARK SMILES IDX 23 1 22 2 21 3 20 4 18 5 19 6 3 8 4 9 2 10 1 11 5 12 6 13
REMARK SMILES IDX 7 15 8 16 9 17 17 18 10 19 16 20 11 21 15 23 12 24 14 25
REMARK SMILES IDX 13 26 24 27 25 28 26 29 27 31 28 32 29 33 90 34 30 35 89 36
REMARK SMILES IDX 31 37 32 38 33 39 83 40 34 41 88 42 82 43 84 44 35 45 87 46
REMARK SMILES IDX 81 47 80 48 36 50 68 51 48 52 67 53 49 54 52 55 66 56 85 57
REMARK SMILES IDX 50 58 51 59 65 61 86 62 53 63 37 64 38 65 46 66 39 67 41 68
REMARK SMILES IDX 47 69 40 70 42 71 43 72 44 73 45 74 69 75 70 76 78 77 71 78
REMARK SMILES IDX 73 79 79 80 72 81 74 82 75 83 76 84 77 85 54 86 55 87 63 88
REMARK SMILES IDX 56 89 58 90 64 91 57 92 59 93 60 94 61 95 62 96
REMARK H PARENT 20 7 5 14 10 22 25 30 84 49 52 60
REMARK Flexibility Score: inf
ROOT
ATOM      1  C   UNL A   1      31.777  29.665  27.231  1.00  0.00     0.023 C 
ENDROOT
BRANCH   1   2
ATOM      2  C   UNL A   1      32.036  28.227  27.665  1.00  0.00     0.023 C 
BRANCH   2   3
ATOM      3  C   UNL A   1      31.439  27.140  26.771  1.00  0.00     0.116 C 
BRANCH   3   4
ATOM      4  N   UNL A   1      32.322  26.600  25.745  1.00  0.00    -0.354 N 
ATOM      5  C   UNL A   1      32.060  25.824  24.642  1.00  0.00     0.245 C 
ATOM      6  O   UNL A   1      32.928  25.776  23.767  1.00  0.00    -0.272 OA
ATOM      7  H   UNL A   1      33.273  26.832  25.863  1.00  0.00     0.163 HD
BRANCH   5   8
ATOM      8  C   UNL A   1      30.658  25.176  24.428  1.00  0.00     0.116 C 
ATOM      9  C   UNL A   1      30.574  24.376  23.113  1.00  0.00     0.045 C 
BRANCH   8  10
ATOM     10  C   UNL A   1      29.639  26.369  24.377  1.00  0.00     0.035 C 
ATOM     11  C   UNL A   1      29.740  27.286  23.159  1.00  0.00     0.007 C 
ENDBRANCH   8  10
BRANCH   8  12
ATOM     12  N   UNL A   1      30.284  24.260  25.544  1.00  0.00    -0.339 N 
ATOM     13  C   UNL A   1      30.981  23.201  26.093  1.00  0.00     0.263 C 
ATOM     14  H   UNL A   1      29.406  24.436  25.953  1.00  0.00     0.164 HD
ATOM     15  O   UNL A   1      30.323  22.369  26.724  1.00  0.00    -0.271 OA
BRANCH  13  16
ATOM     16  C   UNL A   1      32.515  23.176  26.050  1.00  0.00     0.281 C 
ATOM     17  C   UNL A   1      33.141  22.534  27.297  1.00  0.00     0.168 C 
ATOM     18  O   UNL A   1      33.020  22.543  24.877  1.00  0.00    -0.477 OA
ATOM     19  N   UNL A   1      34.582  22.775  27.261  1.00  0.00    -0.378 N 
ATOM     20  C   UNL A   1      34.394  22.677  24.828  1.00  0.00     0.143 A 
ATOM     21  C   UNL A   1      35.175  22.771  25.999  1.00  0.00     0.077 A 
ATOM     22  H   UNL A   1      35.104  22.930  28.082  1.00  0.00     0.160 HD
ATOM     23  C   UNL A   1      34.967  22.731  23.561  1.00  0.00     0.049 A 
ATOM     24  C   UNL A   1      36.549  22.968  25.857  1.00  0.00     0.029 A 
ATOM     25  C   UNL A   1      36.340  22.921  23.439  1.00  0.00     0.004 A 
ATOM     26  C   UNL A   1      37.129  23.040  24.584  1.00  0.00     0.002 A 
ENDBRANCH  13  16
ENDBRANCH   8  12
ENDBRANCH   5   8
ENDBRANCH   3   4
ENDBRANCH   2   3
ENDBRANCH   1   2
BRANCH   1  27
ATOM     27  C   UNL A   1      32.984  30.369  26.636  1.00  0.00     0.116 C 
BRANCH  27  28
ATOM     28  N   UNL A   1      32.997  31.797  26.925  1.00  0.00    -0.352 N 
ATOM     29  C   UNL A   1      33.873  32.517  27.695  1.00  0.00     0.251 C 
ATOM     30  H   UNL A   1      32.274  32.319  26.507  1.00  0.00     0.163 HD
ATOM     31  O   UNL A   1      33.633  33.693  27.961  1.00  0.00    -0.269 OA
BRANCH  29  32
ATOM     32  C   UNL A   1      35.090  31.865  28.215  1.00  0.00     0.039 A 
ATOM     33  C   UNL A   1      36.290  32.581  28.227  1.00  0.00     0.014 A 
ATOM     34  C   UNL A   1      35.039  30.562  28.716  1.00  0.00     0.014 A 
ATOM     35  C   UNL A   1      37.426  32.004  28.795  1.00  0.00     0.010 A 
ATOM     36  C   UNL A   1      36.145  30.029  29.365  1.00  0.00     0.010 A 
ATOM     37  C   UNL A   1      37.354  30.738  29.400  1.00  0.00    -0.014 A 
BRANCH  37  38
ATOM     38  C   UNL A   1      38.531  30.134  30.072  1.00  0.00     0.031 A 
ATOM     39  C   UNL A   1      38.938  30.604  31.442  1.00  0.00     0.074 A 
ATOM     40  C   UNL A   1      39.279  29.228  29.413  1.00  0.00     0.049 A 
ATOM     41  N   UNL A   1      39.963  30.237  32.167  1.00  0.00    -0.248 NA
ATOM     42  C   UNL A   1      38.104  31.643  32.071  1.00  0.00     0.031 C 
ATOM     43  C   UNL A   1      39.031  28.754  28.050  1.00  0.00     0.029 A 
ATOM     44  N   UNL A   1      40.418  28.562  29.792  1.00  0.00    -0.354 N 
ATOM     45  C   UNL A   1      39.920  31.024  33.311  1.00  0.00     0.074 A 
ATOM     46  C   UNL A   1      38.790  31.914  33.170  1.00  0.00     0.031 C 
ATOM     47  C   UNL A   1      39.979  27.865  27.713  1.00  0.00     0.029 A 
ATOM     48  C   UNL A   1      40.924  27.734  28.817  1.00  0.00     0.049 A 
ATOM     49  H   UNL A   1      40.834  28.667  30.679  1.00  0.00     0.167 HD
ATOM     50  C   UNL A   1      40.732  30.991  34.394  1.00  0.00     0.034 A 
ATOM     51  C   UNL A   1      42.028  26.962  28.812  1.00  0.00     0.034 A 
ATOM     52  C   UNL A   1      41.828  30.075  34.545  1.00  0.00     0.049 A 
ATOM     53  C   UNL A   1      42.893  26.920  30.043  1.00  0.00     0.074 A 
ATOM     54  C   UNL A   1      42.650  29.893  35.642  1.00  0.00     0.029 A 
ATOM     55  N   UNL A   1      42.265  29.195  33.567  1.00  0.00    -0.354 N 
ATOM     56  N   UNL A   1      42.741  27.554  31.180  1.00  0.00    -0.248 NA
ATOM     57  C   UNL A   1      44.061  26.030  30.002  1.00  0.00     0.031 C 
ATOM     58  C   UNL A   1      43.609  28.930  35.314  1.00  0.00     0.029 A 
ATOM     59  C   UNL A   1      43.356  28.480  34.027  1.00  0.00     0.049 A 
ATOM     60  H   UNL A   1      41.858  29.094  32.676  1.00  0.00     0.167 HD
ATOM     61  C   UNL A   1      43.768  27.109  32.004  1.00  0.00     0.074 A 
ATOM     62  C   UNL A   1      44.525  26.138  31.240  1.00  0.00     0.031 C 
ATOM     63  C   UNL A   1      44.067  27.480  33.273  1.00  0.00     0.034 A 
BRANCH  50  64
ATOM     64  C   UNL A   1      40.441  31.949  35.520  1.00  0.00     0.023 A 
ATOM     65  C   UNL A   1      41.247  33.093  35.692  1.00  0.00     0.012 A 
ATOM     66  C   UNL A   1      39.335  31.749  36.369  1.00  0.00     0.148 A 
ATOM     67  C   UNL A   1      40.979  34.005  36.714  1.00  0.00     0.002 A 
ATOM     68  C   UNL A   1      39.044  32.688  37.353  1.00  0.00     0.091 A 
ATOM     69  F   UNL A   1      38.593  30.646  36.204  1.00  0.00    -0.205 F 
ATOM     70  C   UNL A   1      39.873  33.807  37.535  1.00  0.00     0.022 A 
BRANCH  68  71
ATOM     71  S   UNL A   1      37.595  32.570  38.407  1.00  0.00     0.127 S 
ATOM     72  O   UNL A   1      37.650  31.171  38.828  1.00  0.00    -0.237 OA
ATOM     73  O   UNL A   1      37.905  33.537  39.461  1.00  0.00    -0.237 OA
ATOM     74  O   UNL A   1      36.457  32.924  37.570  1.00  0.00    -0.744 OA
ENDBRANCH  68  71
ENDBRANCH  50  64
BRANCH  51  75
ATOM     75  C   UNL A   1      42.347  26.120  27.624  1.00  0.00     0.023 A 
ATOM     76  C   UNL A   1      43.119  26.663  26.577  1.00  0.00     0.012 A 
ATOM     77  C   UNL A   1      41.905  24.786  27.531  1.00  0.00     0.148 A 
ATOM     78  C   UNL A   1      43.411  25.905  25.442  1.00  0.00     0.002 A 
ATOM     79  C   UNL A   1      42.249  24.019  26.425  1.00  0.00     0.091 A 
ATOM     80  F   UNL A   1      41.165  24.292  28.533  1.00  0.00    -0.205 F 
ATOM     81  C   UNL A   1      42.985  24.583  25.370  1.00  0.00     0.022 A 
BRANCH  79  82
ATOM     82  S   UNL A   1      41.856  22.271  26.305  1.00  0.00     0.127 S 
ATOM     83  O   UNL A   1      42.645  21.865  25.145  1.00  0.00    -0.237 OA
ATOM     84  O   UNL A   1      42.340  21.766  27.590  1.00  0.00    -0.237 OA
ATOM     85  O   UNL A   1      40.410  22.203  26.142  1.00  0.00    -0.744 OA
ENDBRANCH  79  82
ENDBRANCH  51  75
BRANCH  63  86
ATOM     86  C   UNL A   1      45.232  26.801  33.945  1.00  0.00     0.023 A 
ATOM     87  C   UNL A   1      46.517  27.376  33.881  1.00  0.00     0.012 A 
ATOM     88  C   UNL A   1      45.036  25.630  34.703  1.00  0.00     0.148 A 
ATOM     89  C   UNL A   1      47.595  26.775  34.530  1.00  0.00     0.002 A 
ATOM     90  C   UNL A   1      46.102  25.068  35.392  1.00  0.00     0.091 A 
ATOM     91  F   UNL A   1      43.809  25.089  34.737  1.00  0.00    -0.205 F 
ATOM     92  C   UNL A   1      47.385  25.630  35.296  1.00  0.00     0.022 A 
BRANCH  90  93
ATOM     93  S   UNL A   1      45.907  23.654  36.483  1.00  0.00     0.127 S 
ATOM     94  O   UNL A   1      47.268  23.474  36.985  1.00  0.00    -0.237 OA
ATOM     95  O   UNL A   1      44.953  24.156  37.472  1.00  0.00    -0.237 OA
ATOM     96  O   UNL A   1      45.401  22.570  35.651  1.00  0.00    -0.744 OA
ENDBRANCH  90  93
ENDBRANCH  63  86
ENDBRANCH  37  38
ENDBRANCH  29  32
ENDBRANCH  27  28
ENDBRANCH   1  27
TORSDOF 17
ENDMDL
MODEL 3
REMARK VINA RESULT:     -12.4      3.928      9.027
REMARK SMILES CC[C@](C)(NC(=O)[C@H]1CNc2ccccc2O1)C(=O)NCCCCNC(=O)c1ccc(-c2c3nc(c(-c4cccc(S(=O)(=O)[O-])c4F)c4ccc([nH]4)c(-c4cccc(S(=O)(=O)[O-])c4F)c4nc(c(-c5cccc(S(=O)(=O)[O-])c5F)c5ccc2[nH]5)C=C4)C=C3)cc1
REMARK SMILES IDX 23 1 22 2 21 3 20 4 18 5 19 6 3 8 4 9 2 10 1 11 5 12 6 13
REMARK SMILES IDX 7 15 8 16 9 17 17 18 10 19 16 20 11 21 15 23 12 24 14 25
REMARK SMILES IDX 13 26 24 27 25 28 26 29 27 31 28 32 29 33 90 34 30 35 89 36
REMARK SMILES IDX 31 37 32 38 33 39 83 40 34 41 88 42 82 43 84 44 35 45 87 46
REMARK SMILES IDX 81 47 80 48 36 50 68 51 48 52 67 53 49 54 52 55 66 56 85 57
REMARK SMILES IDX 50 58 51 59 65 61 86 62 53 63 37 64 38 65 46 66 39 67 41 68
REMARK SMILES IDX 47 69 40 70 42 71 43 72 44 73 45 74 69 75 70 76 78 77 71 78
REMARK SMILES IDX 73 79 79 80 72 81 74 82 75 83 76 84 77 85 54 86 55 87 63 88
REMARK SMILES IDX 56 89 58 90 64 91 57 92 59 93 60 94 61 95 62 96
REMARK H PARENT 20 7 5 14 10 22 25 30 84 49 52 60
REMARK Flexibility Score: inf
ROOT
ATOM      1  C   UNL A   1      34.245  28.437  26.135  1.00  0.00     0.023 C 
ENDROOT
BRANCH   1   2
ATOM      2  C   UNL A   1      33.471  27.537  25.178  1.00  0.00     0.023 C 
BRANCH   2   3
ATOM      3  C   UNL A   1      33.574  26.035  25.441  1.00  0.00     0.116 C 
BRANCH   3   4
ATOM      4  N   UNL A   1      34.232  25.249  24.404  1.00  0.00    -0.354 N 
ATOM      5  C   UNL A   1      33.721  24.405  23.448  1.00  0.00     0.245 C 
ATOM      6  O   UNL A   1      34.454  24.121  22.497  1.00  0.00    -0.272 OA
ATOM      7  H   UNL A   1      35.213  25.339  24.386  1.00  0.00     0.163 HD
BRANCH   5   8
ATOM      8  C   UNL A   1      32.225  23.967  23.476  1.00  0.00     0.116 C 
ATOM      9  C   UNL A   1      31.964  22.709  22.624  1.00  0.00     0.045 C 
BRANCH   8  10
ATOM     10  C   UNL A   1      31.415  25.174  22.884  1.00  0.00     0.035 C 
ATOM     11  C   UNL A   1      30.260  25.692  23.738  1.00  0.00     0.007 C 
ENDBRANCH   8  10
BRANCH   8  12
ATOM     12  N   UNL A   1      31.745  23.687  24.861  1.00  0.00    -0.339 N 
ATOM     13  C   UNL A   1      31.653  22.490  25.542  1.00  0.00     0.263 C 
ATOM     14  H   UNL A   1      31.448  24.478  25.367  1.00  0.00     0.164 HD
ATOM     15  O   UNL A   1      30.881  22.455  26.504  1.00  0.00    -0.271 OA
BRANCH  13  16
ATOM     16  C   UNL A   1      32.600  21.329  25.204  1.00  0.00     0.281 C 
ATOM     17  C   UNL A   1      33.750  21.179  26.210  1.00  0.00     0.168 C 
ATOM     18  O   UNL A   1      31.916  20.087  25.064  1.00  0.00    -0.477 OA
ATOM     19  N   UNL A   1      34.707  20.216  25.670  1.00  0.00    -0.378 N 
ATOM     20  C   UNL A   1      32.794  19.117  24.624  1.00  0.00     0.143 A 
ATOM     21  C   UNL A   1      34.169  19.160  24.935  1.00  0.00     0.077 A 
ATOM     22  H   UNL A   1      35.676  20.307  25.818  1.00  0.00     0.160 HD
ATOM     23  C   UNL A   1      32.253  18.100  23.841  1.00  0.00     0.049 A 
ATOM     24  C   UNL A   1      34.995  18.173  24.396  1.00  0.00     0.029 A 
ATOM     25  C   UNL A   1      33.091  17.120  23.318  1.00  0.00     0.004 A 
ATOM     26  C   UNL A   1      34.459  17.158  23.594  1.00  0.00     0.002 A 
ENDBRANCH  13  16
ENDBRANCH   8  12
ENDBRANCH   5   8
ENDBRANCH   3   4
ENDBRANCH   2   3
ENDBRANCH   1   2
BRANCH   1  27
ATOM     27  C   UNL A   1      33.439  28.927  27.326  1.00  0.00     0.116 C 
BRANCH  27  28
ATOM     28  N   UNL A   1      33.538  30.369  27.512  1.00  0.00    -0.352 N 
ATOM     29  C   UNL A   1      34.541  31.100  28.093  1.00  0.00     0.251 C 
ATOM     30  H   UNL A   1      32.776  30.892  27.172  1.00  0.00     0.163 HD
ATOM     31  O   UNL A   1      34.379  32.300  28.310  1.00  0.00    -0.269 OA
BRANCH  29  32
ATOM     32  C   UNL A   1      35.803  30.436  28.470  1.00  0.00     0.039 A 
ATOM     33  C   UNL A   1      36.905  30.541  27.619  1.00  0.00     0.014 A 
ATOM     34  C   UNL A   1      35.903  29.734  29.674  1.00  0.00     0.014 A 
ATOM     35  C   UNL A   1      38.126  29.989  28.008  1.00  0.00     0.010 A 
ATOM     36  C   UNL A   1      37.140  29.269  30.099  1.00  0.00     0.010 A 
ATOM     37  C   UNL A   1      38.262  29.379  29.266  1.00  0.00    -0.014 A 
BRANCH  37  38
ATOM     38  C   UNL A   1      39.567  28.846  29.730  1.00  0.00     0.031 A 
ATOM     39  C   UNL A   1      40.308  29.534  30.844  1.00  0.00     0.074 A 
ATOM     40  C   UNL A   1      40.121  27.797  29.091  1.00  0.00     0.049 A 
ATOM     41  N   UNL A   1      41.480  29.252  31.351  1.00  0.00    -0.248 NA
ATOM     42  C   UNL A   1      39.664  30.713  31.450  1.00  0.00     0.031 C 
ATOM     43  C   UNL A   1      39.535  27.096  27.946  1.00  0.00     0.029 A 
ATOM     44  N   UNL A   1      41.314  27.151  29.298  1.00  0.00    -0.354 N 
ATOM     45  C   UNL A   1      41.730  30.235  32.300  1.00  0.00     0.074 A 
ATOM     46  C   UNL A   1      40.606  31.143  32.275  1.00  0.00     0.031 C 
ATOM     47  C   UNL A   1      40.363  26.113  27.561  1.00  0.00     0.029 A 
ATOM     48  C   UNL A   1      41.554  26.135  28.404  1.00  0.00     0.049 A 
ATOM     49  H   UNL A   1      41.940  27.394  30.019  1.00  0.00     0.167 HD
ATOM     50  C   UNL A   1      42.787  30.357  33.136  1.00  0.00     0.034 A 
ATOM     51  C   UNL A   1      42.618  25.318  28.273  1.00  0.00     0.034 A 
ATOM     52  C   UNL A   1      43.881  29.427  33.184  1.00  0.00     0.049 A 
ATOM     53  C   UNL A   1      43.763  25.454  29.239  1.00  0.00     0.074 A 
ATOM     54  C   UNL A   1      44.952  29.404  34.060  1.00  0.00     0.029 A 
ATOM     55  N   UNL A   1      44.053  28.362  32.313  1.00  0.00    -0.354 N 
ATOM     56  N   UNL A   1      43.906  26.291  30.237  1.00  0.00    -0.248 NA
ATOM     57  C   UNL A   1      44.879  24.511  29.082  1.00  0.00     0.031 C 
ATOM     58  C   UNL A   1      45.792  28.348  33.694  1.00  0.00     0.029 A 
ATOM     59  C   UNL A   1      45.222  27.686  32.618  1.00  0.00     0.049 A 
ATOM     60  H   UNL A   1      43.436  28.122  31.585  1.00  0.00     0.167 HD
ATOM     61  C   UNL A   1      45.105  25.950  30.853  1.00  0.00     0.074 A 
ATOM     62  C   UNL A   1      45.639  24.817  30.125  1.00  0.00     0.031 C 
ATOM     63  C   UNL A   1      45.715  26.529  31.916  1.00  0.00     0.034 A 
BRANCH  50  64
ATOM     64  C   UNL A   1      42.794  31.517  34.097  1.00  0.00     0.023 A 
ATOM     65  C   UNL A   1      43.389  32.738  33.717  1.00  0.00     0.012 A 
ATOM     66  C   UNL A   1      42.159  31.419  35.350  1.00  0.00     0.148 A 
ATOM     67  C   UNL A   1      43.384  33.832  34.583  1.00  0.00     0.002 A 
ATOM     68  C   UNL A   1      42.114  32.528  36.188  1.00  0.00     0.091 A 
ATOM     69  F   UNL A   1      41.617  30.245  35.703  1.00  0.00    -0.205 F 
ATOM     70  C   UNL A   1      42.738  33.729  35.811  1.00  0.00     0.022 A 
BRANCH  68  71
ATOM     71  S   UNL A   1      41.234  32.527  37.753  1.00  0.00     0.127 S 
ATOM     72  O   UNL A   1      42.072  31.641  38.561  1.00  0.00    -0.237 OA
ATOM     73  O   UNL A   1      41.290  33.937  38.137  1.00  0.00    -0.237 OA
ATOM     74  O   UNL A   1      39.897  32.026  37.464  1.00  0.00    -0.744 OA
ENDBRANCH  68  71
ENDBRANCH  50  64
BRANCH  51  75
ATOM     75  C   UNL A   1      42.623  24.258  27.225  1.00  0.00     0.023 A 
ATOM     76  C   UNL A   1      43.256  24.508  25.991  1.00  0.00     0.012 A 
ATOM     77  C   UNL A   1      42.020  23.005  27.446  1.00  0.00     0.148 A 
ATOM     78  C   UNL A   1      43.255  23.543  24.983  1.00  0.00     0.002 A 
ATOM     79  C   UNL A   1      42.073  22.028  26.459  1.00  0.00     0.091 A 
ATOM     80  F   UNL A   1      41.415  22.790  28.622  1.00  0.00    -0.205 F 
ATOM     81  C   UNL A   1      42.673  22.301  25.219  1.00  0.00     0.022 A 
BRANCH  79  82
ATOM     82  S   UNL A   1      41.465  20.358  26.723  1.00  0.00     0.127 S 
ATOM     83  O   UNL A   1      40.028  20.581  26.859  1.00  0.00    -0.237 OA
ATOM     84  O   UNL A   1      41.872  19.692  25.485  1.00  0.00    -0.237 OA
ATOM     85  O   UNL A   1      42.147  19.875  27.915  1.00  0.00    -0.744 OA
ENDBRANCH  79  82
ENDBRANCH  51  75
BRANCH  63  86
ATOM     86  C   UNL A   1      47.008  25.923  32.397  1.00  0.00     0.023 A 
ATOM     87  C   UNL A   1      47.009  25.044  33.498  1.00  0.00     0.012 A 
ATOM     88  C   UNL A   1      48.211  26.169  31.706  1.00  0.00     0.148 A 
ATOM     89  C   UNL A   1      48.195  24.449  33.926  1.00  0.00     0.002 A 
ATOM     90  C   UNL A   1      49.378  25.531  32.104  1.00  0.00     0.091 A 
ATOM     91  F   UNL A   1      48.190  27.022  30.671  1.00  0.00    -0.205 F 
ATOM     92  C   UNL A   1      49.375  24.682  33.223  1.00  0.00     0.022 A 
BRANCH  90  93
ATOM     93  S   UNL A   1      50.921  25.690  31.199  1.00  0.00     0.127 S 
ATOM     94  O   UNL A   1      51.801  24.795  31.950  1.00  0.00    -0.237 OA
ATOM     95  O   UNL A   1      50.551  25.207  29.869  1.00  0.00    -0.237 OA
ATOM     96  O   UNL A   1      51.276  27.102  31.253  1.00  0.00    -0.744 OA
ENDBRANCH  90  93
ENDBRANCH  63  86
ENDBRANCH  37  38
ENDBRANCH  29  32
ENDBRANCH  27  28
ENDBRANCH   1  27
TORSDOF 17
ENDMDL
