MODEL 1
REMARK VINA RESULT:      -9.0      0.000      0.000
REMARK SMILES COc1cc(-c2ccc(NC(=O)CCC(=O)NCCCCNC(=O)c3ccc(-c4c5nc(c(-c6cccc(S(=O)(=O)[O-])c6F)c6ccc([nH]6)c(-c6cccc(S(=O)(=O)[O-])c6F)c6nc(c(-c7cccc(S(=O)(=O)[O-])c7F)c7ccc4[nH]7)C=C6)C=C5)cc3)c(OC)c2)ccc1N
REMARK SMILES IDX 18 1 17 2 15 3 16 4 14 6 13 7 11 8 10 9 12 11 9 12 6 13 7 14
REMARK SMILES IDX 91 15 8 16 88 17 5 18 3 19 4 20 94 21 93 22 92 23 2 24 1 25
REMARK SMILES IDX 95 26 89 29 90 30 19 31 20 32 21 33 22 34 23 35 24 37 25 38
REMARK SMILES IDX 26 39 87 40 27 41 86 42 28 43 29 44 30 45 80 46 31 47 85 48
REMARK SMILES IDX 79 49 81 50 32 51 84 52 78 53 77 54 33 56 65 57 45 58 64 59
REMARK SMILES IDX 46 60 49 61 63 62 82 63 47 64 48 65 62 67 83 68 50 69 34 70
REMARK SMILES IDX 35 71 43 72 36 73 38 74 44 75 37 76 39 77 40 78 41 79 42 80
REMARK SMILES IDX 66 81 67 82 75 83 68 84 70 85 76 86 69 87 71 88 72 89 73 90
REMARK SMILES IDX 74 91 51 92 52 93 60 94 53 95 55 96 61 97 54 98 56 99 57 100
REMARK SMILES IDX 58 101 59 102
REMARK H PARENT 17 5 10 10 95 27 95 28 22 36 81 55 49 66
REMARK Flexibility Score: inf
ROOT
ATOM      1  C   UNL A   1      47.035  23.648  24.469  1.00  0.00     0.116 C 
ENDROOT
BRANCH   1   2
ATOM      2  N   UNL A   1      45.941  22.900  23.740  1.00  0.00    -0.356 N 
ATOM      3  C   UNL A   1      44.662  22.369  23.875  1.00  0.00     0.220 C 
ATOM      4  O   UNL A   1      44.136  22.138  22.767  1.00  0.00    -0.275 OA
ATOM      5  H   UNL A   1      46.252  22.722  22.823  1.00  0.00     0.163 HD
BRANCH   3   6
ATOM      6  C   UNL A   1      43.755  21.974  25.182  1.00  0.00     0.110 C 
BRANCH   6   7
ATOM      7  C   UNL A   1      43.151  23.000  26.340  1.00  0.00     0.110 C 
BRANCH   7   8
ATOM      8  C   UNL A   1      42.337  22.669  27.742  1.00  0.00     0.224 C 
ATOM      9  N   UNL A   1      41.631  23.627  28.493  1.00  0.00    -0.323 N 
ATOM     10  H   UNL A   1      41.330  23.373  29.395  1.00  0.00     0.170 HD
ATOM     11  O   UNL A   1      42.342  21.514  28.193  1.00  0.00    -0.275 OA
BRANCH   9  12
ATOM     12  C   UNL A   1      41.331  24.916  28.044  1.00  0.00     0.083 A 
ATOM     13  C   UNL A   1      39.901  27.230  28.572  1.00  0.00    -0.014 A 
ATOM     14  C   UNL A   1      39.663  26.487  27.400  1.00  0.00     0.011 A 
ATOM     15  C   UNL A   1      41.167  26.992  29.121  1.00  0.00     0.057 A 
ATOM     16  C   UNL A   1      40.341  25.276  27.157  1.00  0.00     0.031 A 
ATOM     17  C   UNL A   1      41.973  25.911  28.682  1.00  0.00     0.142 A 
BRANCH  13  18
ATOM     18  C   UNL A   1      38.827  28.098  29.200  1.00  0.00    -0.014 A 
ATOM     19  C   UNL A   1      37.082  29.884  29.218  1.00  0.00     0.142 A 
ATOM     20  C   UNL A   1      38.014  29.045  28.529  1.00  0.00     0.057 A 
ATOM     21  C   UNL A   1      36.889  29.744  30.602  1.00  0.00     0.074 A 
ATOM     22  C   UNL A   1      37.745  28.886  31.282  1.00  0.00     0.030 A 
ATOM     23  C   UNL A   1      38.674  28.087  30.600  1.00  0.00     0.011 A 
BRANCH  19  24
ATOM     24  O   UNL A   1      36.359  30.751  28.424  1.00  0.00    -0.495 OA
ATOM     25  C   UNL A   1      35.266  30.169  27.708  1.00  0.00     0.278 C 
ENDBRANCH  19  24
BRANCH  21  26
ATOM     26  N   UNL A   1      35.955  30.466  31.348  1.00  0.00    -0.396 N 
ATOM     27  H   UNL A   1      35.003  30.217  31.318  1.00  0.00     0.156 HD
ATOM     28  H   UNL A   1      36.248  31.224  31.903  1.00  0.00     0.156 HD
ENDBRANCH  21  26
ENDBRANCH  13  18
BRANCH  17  29
ATOM     29  O   UNL A   1      43.271  25.698  29.053  1.00  0.00    -0.495 OA
ATOM     30  C   UNL A   1      44.077  26.255  30.144  1.00  0.00     0.278 C 
ENDBRANCH  17  29
ENDBRANCH   9  12
ENDBRANCH   7   8
ENDBRANCH   6   7
ENDBRANCH   3   6
ENDBRANCH   1   2
BRANCH   1  31
ATOM     31  C   UNL A   1      47.030  24.162  25.960  1.00  0.00     0.023 C 
BRANCH  31  32
ATOM     32  C   UNL A   1      46.337  25.434  26.421  1.00  0.00     0.023 C 
BRANCH  32  33
ATOM     33  C   UNL A   1      45.801  26.266  25.280  1.00  0.00     0.116 C 
BRANCH  33  34
ATOM     34  N   UNL A   1      44.390  26.015  24.956  1.00  0.00    -0.352 N 
ATOM     35  C   UNL A   1      43.277  26.757  25.268  1.00  0.00     0.251 C 
ATOM     36  H   UNL A   1      44.216  25.194  24.441  1.00  0.00     0.163 HD
ATOM     37  O   UNL A   1      42.154  26.352  24.956  1.00  0.00    -0.269 OA
BRANCH  35  38
ATOM     38  C   UNL A   1      43.435  28.015  26.017  1.00  0.00     0.039 A 
ATOM     39  C   UNL A   1      42.468  29.017  25.903  1.00  0.00     0.014 A 
ATOM     40  C   UNL A   1      44.501  28.164  26.903  1.00  0.00     0.014 A 
ATOM     41  C   UNL A   1      42.536  30.129  26.742  1.00  0.00     0.010 A 
ATOM     42  C   UNL A   1      44.474  29.181  27.838  1.00  0.00     0.010 A 
ATOM     43  C   UNL A   1      43.515  30.196  27.746  1.00  0.00    -0.014 A 
BRANCH  43  44
ATOM     44  C   UNL A   1      43.601  31.334  28.690  1.00  0.00     0.031 A 
ATOM     45  C   UNL A   1      44.826  32.213  28.680  1.00  0.00     0.074 A 
ATOM     46  C   UNL A   1      42.636  31.514  29.615  1.00  0.00     0.049 A 
ATOM     47  N   UNL A   1      45.138  33.200  29.476  1.00  0.00    -0.248 NA
ATOM     48  C   UNL A   1      45.861  31.911  27.673  1.00  0.00     0.031 C 
ATOM     49  C   UNL A   1      41.455  30.665  29.787  1.00  0.00     0.029 A 
ATOM     50  N   UNL A   1      42.512  32.458  30.600  1.00  0.00    -0.354 N 
ATOM     51  C   UNL A   1      46.415  33.598  29.100  1.00  0.00     0.074 A 
ATOM     52  C   UNL A   1      46.848  32.710  28.046  1.00  0.00     0.031 C 
ATOM     53  C   UNL A   1      40.715  31.139  30.802  1.00  0.00     0.029 A 
ATOM     54  C   UNL A   1      41.387  32.300  31.376  1.00  0.00     0.049 A 
ATOM     55  H   UNL A   1      43.166  33.181  30.740  1.00  0.00     0.167 HD
ATOM     56  C   UNL A   1      47.150  34.637  29.558  1.00  0.00     0.034 A 
ATOM     57  C   UNL A   1      40.951  33.012  32.434  1.00  0.00     0.034 A 
ATOM     58  C   UNL A   1      46.685  35.554  30.559  1.00  0.00     0.049 A 
ATOM     59  C   UNL A   1      41.754  34.203  32.883  1.00  0.00     0.074 A 
ATOM     60  C   UNL A   1      47.297  36.702  31.024  1.00  0.00     0.029 A 
ATOM     61  N   UNL A   1      45.492  35.422  31.253  1.00  0.00    -0.354 N 
ATOM     62  N   UNL A   1      42.885  34.662  32.405  1.00  0.00    -0.248 NA
ATOM     63  C   UNL A   1      41.203  34.996  33.990  1.00  0.00     0.031 C 
ATOM     64  C   UNL A   1      46.487  37.249  32.025  1.00  0.00     0.029 A 
ATOM     65  C   UNL A   1      45.353  36.462  32.153  1.00  0.00     0.049 A 
ATOM     66  H   UNL A   1      44.841  34.695  31.125  1.00  0.00     0.167 HD
ATOM     67  C   UNL A   1      43.163  35.817  33.127  1.00  0.00     0.074 A 
ATOM     68  C   UNL A   1      42.069  35.998  34.059  1.00  0.00     0.031 C 
ATOM     69  C   UNL A   1      44.231  36.648  33.036  1.00  0.00     0.034 A 
BRANCH  56  70
ATOM     70  C   UNL A   1      48.505  34.865  28.940  1.00  0.00     0.023 A 
ATOM     71  C   UNL A   1      49.655  34.317  29.545  1.00  0.00     0.012 A 
ATOM     72  C   UNL A   1      48.637  35.588  27.737  1.00  0.00     0.148 A 
ATOM     73  C   UNL A   1      50.918  34.521  28.990  1.00  0.00     0.002 A 
ATOM     74  C   UNL A   1      49.892  35.741  27.162  1.00  0.00     0.091 A 
ATOM     75  F   UNL A   1      47.537  36.122  27.188  1.00  0.00    -0.205 F 
ATOM     76  C   UNL A   1      51.035  35.222  27.794  1.00  0.00     0.022 A 
BRANCH  74  77
ATOM     77  S   UNL A   1      50.140  36.552  25.580  1.00  0.00     0.127 S 
ATOM     78  O   UNL A   1      49.324  35.722  24.692  1.00  0.00    -0.237 OA
ATOM     79  O   UNL A   1      49.599  37.887  25.834  1.00  0.00    -0.237 OA
ATOM     80  O   UNL A   1      51.573  36.513  25.326  1.00  0.00    -0.744 OA
ENDBRANCH  74  77
ENDBRANCH  56  70
BRANCH  57  81
ATOM     81  C   UNL A   1      39.663  32.656  33.094  1.00  0.00     0.023 A 
ATOM     82  C   UNL A   1      39.650  31.679  34.109  1.00  0.00     0.012 A 
ATOM     83  C   UNL A   1      38.459  33.297  32.744  1.00  0.00     0.148 A 
ATOM     84  C   UNL A   1      38.456  31.320  34.736  1.00  0.00     0.002 A 
ATOM     85  C   UNL A   1      37.283  32.976  33.413  1.00  0.00     0.091 A 
ATOM     86  F   UNL A   1      38.490  34.219  31.772  1.00  0.00    -0.205 F 
ATOM     87  C   UNL A   1      37.276  31.975  34.396  1.00  0.00     0.022 A 
BRANCH  85  88
ATOM     88  S   UNL A   1      35.745  33.861  33.135  1.00  0.00     0.127 S 
ATOM     89  O   UNL A   1      35.502  33.600  31.718  1.00  0.00    -0.237 OA
ATOM     90  O   UNL A   1      34.833  33.177  34.053  1.00  0.00    -0.237 OA
ATOM     91  O   UNL A   1      36.017  35.249  33.485  1.00  0.00    -0.744 OA
ENDBRANCH  85  88
ENDBRANCH  57  81
BRANCH  69  92
ATOM     92  C   UNL A   1      44.254  37.855  33.935  1.00  0.00     0.023 A 
ATOM     93  C   UNL A   1      44.885  37.786  35.192  1.00  0.00     0.012 A 
ATOM     94  C   UNL A   1      43.722  39.082  33.492  1.00  0.00     0.148 A 
ATOM     95  C   UNL A   1      44.953  38.912  36.011  1.00  0.00     0.002 A 
ATOM     96  C   UNL A   1      43.842  40.212  34.289  1.00  0.00     0.091 A 
ATOM     97  F   UNL A   1      43.112  39.120  32.298  1.00  0.00    -0.205 F 
ATOM     98  C   UNL A   1      44.445  40.126  35.555  1.00  0.00     0.022 A 
BRANCH  96  99
ATOM     99  S   UNL A   1      43.311  41.837  33.741  1.00  0.00     0.127 S 
ATOM    100  O   UNL A   1      43.858  41.888  32.386  1.00  0.00    -0.237 OA
ATOM    101  O   UNL A   1      41.853  41.723  33.807  1.00  0.00    -0.237 OA
ATOM    102  O   UNL A   1      43.886  42.788  34.681  1.00  0.00    -0.744 OA
ENDBRANCH  96  99
ENDBRANCH  69  92
ENDBRANCH  43  44
ENDBRANCH  35  38
ENDBRANCH  33  34
ENDBRANCH  32  33
ENDBRANCH  31  32
ENDBRANCH   1  31
TORSDOF 21
ENDMDL
MODEL 2
REMARK VINA RESULT:      -8.9      4.669     11.606
REMARK SMILES COc1cc(-c2ccc(NC(=O)CCC(=O)NCCCCNC(=O)c3ccc(-c4c5nc(c(-c6cccc(S(=O)(=O)[O-])c6F)c6ccc([nH]6)c(-c6cccc(S(=O)(=O)[O-])c6F)c6nc(c(-c7cccc(S(=O)(=O)[O-])c7F)c7ccc4[nH]7)C=C6)C=C5)cc3)c(OC)c2)ccc1N
REMARK SMILES IDX 18 1 17 2 15 3 16 4 14 6 13 7 11 8 10 9 12 11 9 12 6 13 7 14
REMARK SMILES IDX 91 15 8 16 88 17 5 18 3 19 4 20 94 21 93 22 92 23 2 24 1 25
REMARK SMILES IDX 95 26 89 29 90 30 19 31 20 32 21 33 22 34 23 35 24 37 25 38
REMARK SMILES IDX 26 39 87 40 27 41 86 42 28 43 29 44 30 45 80 46 31 47 85 48
REMARK SMILES IDX 79 49 81 50 32 51 84 52 78 53 77 54 33 56 65 57 45 58 64 59
REMARK SMILES IDX 46 60 49 61 63 62 82 63 47 64 48 65 62 67 83 68 50 69 34 70
REMARK SMILES IDX 35 71 43 72 36 73 38 74 44 75 37 76 39 77 40 78 41 79 42 80
REMARK SMILES IDX 66 81 67 82 75 83 68 84 70 85 76 86 69 87 71 88 72 89 73 90
REMARK SMILES IDX 74 91 51 92 52 93 60 94 53 95 55 96 61 97 54 98 56 99 57 100
REMARK SMILES IDX 58 101 59 102
REMARK H PARENT 17 5 10 10 95 27 95 28 22 36 81 55 49 66
REMARK Flexibility Score: inf
ROOT
ATOM      1  C   UNL A   1      37.114  34.030  32.710  1.00  0.00     0.116 C 
ENDROOT
BRANCH   1   2
ATOM      2  N   UNL A   1      37.750  34.452  31.404  1.00  0.00    -0.356 N 
ATOM      3  C   UNL A   1      38.961  34.551  30.725  1.00  0.00     0.220 C 
ATOM      4  O   UNL A   1      38.793  34.683  29.495  1.00  0.00    -0.275 OA
ATOM      5  H   UNL A   1      37.037  34.780  30.809  1.00  0.00     0.163 HD
BRANCH   3   6
ATOM      6  C   UNL A   1      40.520  34.555  31.229  1.00  0.00     0.110 C 
BRANCH   6   7
ATOM      7  C   UNL A   1      41.778  33.651  30.632  1.00  0.00     0.110 C 
BRANCH   7   8
ATOM      8  C   UNL A   1      42.734  33.894  29.303  1.00  0.00     0.224 C 
ATOM      9  N   UNL A   1      43.903  33.162  29.024  1.00  0.00    -0.323 N 
ATOM     10  H   UNL A   1      44.493  33.494  28.309  1.00  0.00     0.170 HD
ATOM     11  O   UNL A   1      42.434  34.780  28.489  1.00  0.00    -0.275 OA
BRANCH   9  12
ATOM     12  C   UNL A   1      44.281  31.996  29.694  1.00  0.00     0.083 A 
ATOM     13  C   UNL A   1      45.724  29.636  29.511  1.00  0.00    -0.014 A 
ATOM     14  C   UNL A   1      44.332  29.616  29.725  1.00  0.00     0.011 A 
ATOM     15  C   UNL A   1      46.317  30.848  29.889  1.00  0.00     0.057 A 
ATOM     16  C   UNL A   1      43.585  30.810  29.755  1.00  0.00     0.031 A 
ATOM     17  C   UNL A   1      45.536  31.994  30.181  1.00  0.00     0.142 A 
BRANCH  13  18
ATOM     18  C   UNL A   1      46.444  28.487  28.833  1.00  0.00    -0.014 A 
ATOM     19  C   UNL A   1      48.363  26.942  28.424  1.00  0.00     0.142 A 
ATOM     20  C   UNL A   1      47.721  27.976  29.176  1.00  0.00     0.057 A 
ATOM     21  C   UNL A   1      47.706  26.339  27.341  1.00  0.00     0.074 A 
ATOM     22  C   UNL A   1      46.496  26.893  26.940  1.00  0.00     0.030 A 
ATOM     23  C   UNL A   1      45.887  27.925  27.667  1.00  0.00     0.011 A 
BRANCH  19  24
ATOM     24  O   UNL A   1      49.602  26.549  28.889  1.00  0.00    -0.495 OA
ATOM     25  C   UNL A   1      49.605  25.418  29.765  1.00  0.00     0.278 C 
ENDBRANCH  19  24
BRANCH  21  26
ATOM     26  N   UNL A   1      48.220  25.277  26.594  1.00  0.00    -0.396 N 
ATOM     27  H   UNL A   1      47.779  25.003  25.758  1.00  0.00     0.156 HD
ATOM     28  H   UNL A   1      49.023  24.800  26.905  1.00  0.00     0.156 HD
ENDBRANCH  21  26
ENDBRANCH  13  18
BRANCH  17  29
ATOM     29  O   UNL A   1      46.020  33.163  30.699  1.00  0.00    -0.495 OA
ATOM     30  C   UNL A   1      45.923  33.748  32.040  1.00  0.00     0.278 C 
ENDBRANCH  17  29
ENDBRANCH   9  12
ENDBRANCH   7   8
ENDBRANCH   6   7
ENDBRANCH   3   6
ENDBRANCH   1   2
BRANCH   1  31
ATOM     31  C   UNL A   1      35.824  33.148  32.921  1.00  0.00     0.023 C 
BRANCH  31  32
ATOM     32  C   UNL A   1      35.032  32.514  31.790  1.00  0.00     0.023 C 
BRANCH  32  33
ATOM     33  C   UNL A   1      34.851  33.432  30.603  1.00  0.00     0.116 C 
BRANCH  33  34
ATOM     34  N   UNL A   1      34.141  32.824  29.469  1.00  0.00    -0.352 N 
ATOM     35  C   UNL A   1      34.523  31.786  28.654  1.00  0.00     0.251 C 
ATOM     36  H   UNL A   1      33.263  33.218  29.262  1.00  0.00     0.163 HD
ATOM     37  O   UNL A   1      33.810  31.448  27.705  1.00  0.00    -0.269 OA
BRANCH  35  38
ATOM     38  C   UNL A   1      35.811  31.114  28.898  1.00  0.00     0.039 A 
ATOM     39  C   UNL A   1      37.005  31.791  28.646  1.00  0.00     0.014 A 
ATOM     40  C   UNL A   1      35.830  29.839  29.461  1.00  0.00     0.014 A 
ATOM     41  C   UNL A   1      38.213  31.213  29.038  1.00  0.00     0.010 A 
ATOM     42  C   UNL A   1      37.006  29.345  29.992  1.00  0.00     0.010 A 
ATOM     43  C   UNL A   1      38.217  30.005  29.754  1.00  0.00    -0.014 A 
BRANCH  43  44
ATOM     44  C   UNL A   1      39.469  29.375  30.231  1.00  0.00     0.031 A 
ATOM     45  C   UNL A   1      40.130  29.897  31.482  1.00  0.00     0.074 A 
ATOM     46  C   UNL A   1      40.060  28.414  29.493  1.00  0.00     0.049 A 
ATOM     47  N   UNL A   1      41.268  29.547  32.019  1.00  0.00    -0.248 NA
ATOM     48  C   UNL A   1      39.445  30.990  32.198  1.00  0.00     0.031 C 
ATOM     49  C   UNL A   1      39.567  27.900  28.213  1.00  0.00     0.029 A 
ATOM     50  N   UNL A   1      41.220  27.714  29.705  1.00  0.00    -0.354 N 
ATOM     51  C   UNL A   1      41.456  30.406  33.095  1.00  0.00     0.074 A 
ATOM     52  C   UNL A   1      40.349  31.332  33.102  1.00  0.00     0.031 C 
ATOM     53  C   UNL A   1      40.406  26.954  27.764  1.00  0.00     0.029 A 
ATOM     54  C   UNL A   1      41.515  26.819  28.704  1.00  0.00     0.049 A 
ATOM     55  H   UNL A   1      41.788  27.841  30.500  1.00  0.00     0.167 HD
ATOM     56  C   UNL A   1      42.439  30.400  34.024  1.00  0.00     0.034 A 
ATOM     57  C   UNL A   1      42.566  25.989  28.559  1.00  0.00     0.034 A 
ATOM     58  C   UNL A   1      43.500  29.434  34.046  1.00  0.00     0.049 A 
ATOM     59  C   UNL A   1      43.613  25.955  29.639  1.00  0.00     0.074 A 
ATOM     60  C   UNL A   1      44.489  29.265  34.996  1.00  0.00     0.029 A 
ATOM     61  N   UNL A   1      43.711  28.474  33.069  1.00  0.00    -0.354 N 
ATOM     62  N   UNL A   1      43.687  26.666  30.739  1.00  0.00    -0.248 NA
ATOM     63  C   UNL A   1      44.700  24.979  29.480  1.00  0.00     0.031 C 
ATOM     64  C   UNL A   1      45.320  28.222  34.576  1.00  0.00     0.029 A 
ATOM     65  C   UNL A   1      44.822  27.715  33.385  1.00  0.00     0.049 A 
ATOM     66  H   UNL A   1      43.152  28.351  32.267  1.00  0.00     0.167 HD
ATOM     67  C   UNL A   1      44.806  26.199  31.419  1.00  0.00     0.074 A 
ATOM     68  C   UNL A   1      45.364  25.130  30.618  1.00  0.00     0.031 C 
ATOM     69  C   UNL A   1      45.331  26.623  32.595  1.00  0.00     0.034 A 
BRANCH  56  70
ATOM     70  C   UNL A   1      42.378  31.434  35.117  1.00  0.00     0.023 A 
ATOM     71  C   UNL A   1      41.927  31.072  36.404  1.00  0.00     0.012 A 
ATOM     72  C   UNL A   1      42.804  32.757  34.884  1.00  0.00     0.148 A 
ATOM     73  C   UNL A   1      41.859  32.016  37.427  1.00  0.00     0.002 A 
ATOM     74  C   UNL A   1      42.784  33.679  35.924  1.00  0.00     0.091 A 
ATOM     75  F   UNL A   1      43.208  33.090  33.650  1.00  0.00    -0.205 F 
ATOM     76  C   UNL A   1      42.298  33.315  37.191  1.00  0.00     0.022 A 
BRANCH  74  77
ATOM     77  S   UNL A   1      43.409  35.352  35.746  1.00  0.00     0.127 S 
ATOM     78  O   UNL A   1      42.468  35.917  34.778  1.00  0.00    -0.237 OA
ATOM     79  O   UNL A   1      43.272  35.875  37.106  1.00  0.00    -0.237 OA
ATOM     80  O   UNL A   1      44.782  35.224  35.278  1.00  0.00    -0.744 OA
ENDBRANCH  74  77
ENDBRANCH  56  70
BRANCH  57  81
ATOM     81  C   UNL A   1      42.641  25.078  27.382  1.00  0.00     0.023 A 
ATOM     82  C   UNL A   1      43.217  25.540  26.182  1.00  0.00     0.012 A 
ATOM     83  C   UNL A   1      42.174  23.751  27.451  1.00  0.00     0.148 A 
ATOM     84  C   UNL A   1      43.292  24.711  25.062  1.00  0.00     0.002 A 
ATOM     85  C   UNL A   1      42.304  22.912  26.349  1.00  0.00     0.091 A 
ATOM     86  F   UNL A   1      41.623  23.331  28.599  1.00  0.00    -0.205 F 
ATOM     87  C   UNL A   1      42.845  23.396  25.149  1.00  0.00     0.022 A 
BRANCH  85  88
ATOM     88  S   UNL A   1      41.879  21.168  26.412  1.00  0.00     0.127 S 
ATOM     89  O   UNL A   1      40.446  21.200  26.128  1.00  0.00    -0.237 OA
ATOM     90  O   UNL A   1      42.708  20.617  25.340  1.00  0.00    -0.237 OA
ATOM     91  O   UNL A   1      42.249  20.718  27.747  1.00  0.00    -0.744 OA
ENDBRANCH  85  88
ENDBRANCH  57  81
BRANCH  69  92
ATOM     92  C   UNL A   1      46.548  25.906  33.115  1.00  0.00     0.023 A 
ATOM     93  C   UNL A   1      47.833  26.424  32.864  1.00  0.00     0.012 A 
ATOM     94  C   UNL A   1      46.406  24.762  33.925  1.00  0.00     0.148 A 
ATOM     95  C   UNL A   1      48.962  25.792  33.382  1.00  0.00     0.002 A 
ATOM     96  C   UNL A   1      47.531  24.170  34.484  1.00  0.00     0.091 A 
ATOM     97  F   UNL A   1      45.173  24.278  34.138  1.00  0.00    -0.205 F 
ATOM     98  C   UNL A   1      48.811  24.675  34.201  1.00  0.00     0.022 A 
BRANCH  96  99
ATOM     99  S   UNL A   1      47.425  22.795  35.632  1.00  0.00     0.127 S 
ATOM    100  O   UNL A   1      46.133  23.039  36.271  1.00  0.00    -0.237 OA
ATOM    101  O   UNL A   1      47.453  21.640  34.733  1.00  0.00    -0.237 OA
ATOM    102  O   UNL A   1      48.585  22.908  36.506  1.00  0.00    -0.744 OA
ENDBRANCH  96  99
ENDBRANCH  69  92
ENDBRANCH  43  44
ENDBRANCH  35  38
ENDBRANCH  33  34
ENDBRANCH  32  33
ENDBRANCH  31  32
ENDBRANCH   1  31
TORSDOF 21
ENDMDL
MODEL 3
REMARK VINA RESULT:      -8.7      4.532      7.756
REMARK SMILES COc1cc(-c2ccc(NC(=O)CCC(=O)NCCCCNC(=O)c3ccc(-c4c5nc(c(-c6cccc(S(=O)(=O)[O-])c6F)c6ccc([nH]6)c(-c6cccc(S(=O)(=O)[O-])c6F)c6nc(c(-c7cccc(S(=O)(=O)[O-])c7F)c7ccc4[nH]7)C=C6)C=C5)cc3)c(OC)c2)ccc1N
REMARK SMILES IDX 18 1 17 2 15 3 16 4 14 6 13 7 11 8 10 9 12 11 9 12 6 13 7 14
REMARK SMILES IDX 91 15 8 16 88 17 5 18 3 19 4 20 94 21 93 22 92 23 2 24 1 25
REMARK SMILES IDX 95 26 89 29 90 30 19 31 20 32 21 33 22 34 23 35 24 37 25 38
REMARK SMILES IDX 26 39 87 40 27 41 86 42 28 43 29 44 30 45 80 46 31 47 85 48
REMARK SMILES IDX 79 49 81 50 32 51 84 52 78 53 77 54 33 56 65 57 45 58 64 59
REMARK SMILES IDX 46 60 49 61 63 62 82 63 47 64 48 65 62 67 83 68 50 69 34 70
REMARK SMILES IDX 35 71 43 72 36 73 38 74 44 75 37 76 39 77 40 78 41 79 42 80
REMARK SMILES IDX 66 81 67 82 75 83 68 84 70 85 76 86 69 87 71 88 72 89 73 90
REMARK SMILES IDX 74 91 51 92 52 93 60 94 53 95 55 96 61 97 54 98 56 99 57 100
REMARK SMILES IDX 58 101 59 102
REMARK H PARENT 17 5 10 10 95 27 95 28 22 36 81 55 49 66
REMARK Flexibility Score: inf
ROOT
ATOM      1  C   UNL A   1      37.824  22.576  25.385  1.00  0.00     0.116 C 
ENDROOT
BRANCH   1   2
ATOM      2  N   UNL A   1      36.319  22.429  25.345  1.00  0.00    -0.356 N 
ATOM      3  C   UNL A   1      35.124  23.137  25.249  1.00  0.00     0.220 C 
ATOM      4  O   UNL A   1      34.171  22.396  24.932  1.00  0.00    -0.275 OA
ATOM      5  H   UNL A   1      36.103  21.471  25.413  1.00  0.00     0.163 HD
BRANCH   3   6
ATOM      6  C   UNL A   1      34.743  24.711  25.496  1.00  0.00     0.110 C 
BRANCH   6   7
ATOM      7  C   UNL A   1      33.948  25.733  24.457  1.00  0.00     0.110 C 
BRANCH   7   8
ATOM      8  C   UNL A   1      32.676  25.446  23.438  1.00  0.00     0.224 C 
ATOM      9  N   UNL A   1      31.354  25.863  23.683  1.00  0.00    -0.323 N 
ATOM     10  H   UNL A   1      30.643  25.497  23.110  1.00  0.00     0.170 HD
ATOM     11  O   UNL A   1      32.865  24.813  22.388  1.00  0.00    -0.275 OA
BRANCH   9  12
ATOM     12  C   UNL A   1      30.985  26.761  24.688  1.00  0.00     0.083 A 
ATOM     13  C   UNL A   1      31.791  28.946  26.190  1.00  0.00    -0.014 A 
ATOM     14  C   UNL A   1      31.474  27.722  26.810  1.00  0.00     0.011 A 
ATOM     15  C   UNL A   1      31.209  29.083  24.924  1.00  0.00     0.057 A 
ATOM     16  C   UNL A   1      31.126  26.591  26.047  1.00  0.00     0.031 A 
ATOM     17  C   UNL A   1      30.613  27.981  24.260  1.00  0.00     0.142 A 
BRANCH  13  18
ATOM     18  C   UNL A   1      32.758  29.932  26.817  1.00  0.00    -0.014 A 
ATOM     19  C   UNL A   1      33.504  32.178  27.614  1.00  0.00     0.142 A 
ATOM     20  C   UNL A   1      32.501  31.297  27.100  1.00  0.00     0.057 A 
ATOM     21  C   UNL A   1      34.782  31.693  27.929  1.00  0.00     0.074 A 
ATOM     22  C   UNL A   1      35.073  30.382  27.570  1.00  0.00     0.030 A 
ATOM     23  C   UNL A   1      34.091  29.533  27.041  1.00  0.00     0.011 A 
BRANCH  19  24
ATOM     24  O   UNL A   1      33.096  33.477  27.843  1.00  0.00    -0.495 OA
ATOM     25  C   UNL A   1      33.719  34.137  28.949  1.00  0.00     0.278 C 
ENDBRANCH  19  24
BRANCH  21  26
ATOM     26  N   UNL A   1      35.802  32.457  28.500  1.00  0.00    -0.396 N 
ATOM     27  H   UNL A   1      36.216  33.188  27.987  1.00  0.00     0.156 HD
ATOM     28  H   UNL A   1      36.107  32.265  29.416  1.00  0.00     0.156 HD
ENDBRANCH  21  26
ENDBRANCH  13  18
BRANCH  17  29
ATOM     29  O   UNL A   1      29.895  28.058  23.100  1.00  0.00    -0.495 OA
ATOM     30  C   UNL A   1      29.333  29.203  22.375  1.00  0.00     0.278 C 
ENDBRANCH  17  29
ENDBRANCH   9  12
ENDBRANCH   7   8
ENDBRANCH   6   7
ENDBRANCH   3   6
ENDBRANCH   1   2
BRANCH   1  31
ATOM     31  C   UNL A   1      38.889  21.516  25.865  1.00  0.00     0.023 C 
BRANCH  31  32
ATOM     32  C   UNL A   1      40.120  21.858  26.687  1.00  0.00     0.023 C 
BRANCH  32  33
ATOM     33  C   UNL A   1      40.810  20.642  27.258  1.00  0.00     0.116 C 
BRANCH  33  34
ATOM     34  N   UNL A   1      41.655  19.917  26.298  1.00  0.00    -0.352 N 
ATOM     35  C   UNL A   1      42.776  20.340  25.628  1.00  0.00     0.251 C 
ATOM     36  H   UNL A   1      41.376  18.992  26.107  1.00  0.00     0.163 HD
ATOM     37  O   UNL A   1      43.325  19.599  24.808  1.00  0.00    -0.269 OA
BRANCH  35  38
ATOM     38  C   UNL A   1      43.287  21.701  25.864  1.00  0.00     0.039 A 
ATOM     39  C   UNL A   1      43.080  22.696  24.907  1.00  0.00     0.014 A 
ATOM     40  C   UNL A   1      43.898  22.010  27.079  1.00  0.00     0.014 A 
ATOM     41  C   UNL A   1      43.414  24.016  25.211  1.00  0.00     0.010 A 
ATOM     42  C   UNL A   1      44.076  23.332  27.436  1.00  0.00     0.010 A 
ATOM     43  C   UNL A   1      43.874  24.349  26.495  1.00  0.00    -0.014 A 
BRANCH  43  44
ATOM     44  C   UNL A   1      44.200  25.741  26.880  1.00  0.00     0.031 A 
ATOM     45  C   UNL A   1      45.607  26.249  26.697  1.00  0.00     0.074 A 
ATOM     46  C   UNL A   1      43.268  26.506  27.484  1.00  0.00     0.049 A 
ATOM     47  N   UNL A   1      46.121  27.397  27.048  1.00  0.00    -0.248 NA
ATOM     48  C   UNL A   1      46.580  25.326  26.082  1.00  0.00     0.031 C 
ATOM     49  C   UNL A   1      41.902  26.087  27.807  1.00  0.00     0.029 A 
ATOM     50  N   UNL A   1      43.339  27.792  27.954  1.00  0.00    -0.354 N 
ATOM     51  C   UNL A   1      47.474  27.313  26.745  1.00  0.00     0.074 A 
ATOM     52  C   UNL A   1      47.718  25.983  26.238  1.00  0.00     0.031 C 
ATOM     53  C   UNL A   1      41.258  27.103  28.403  1.00  0.00     0.029 A 
ATOM     54  C   UNL A   1      42.174  28.231  28.539  1.00  0.00     0.049 A 
ATOM     55  H   UNL A   1      44.148  28.349  27.881  1.00  0.00     0.167 HD
ATOM     56  C   UNL A   1      48.426  28.270  26.838  1.00  0.00     0.034 A 
ATOM     57  C   UNL A   1      41.882  29.409  29.123  1.00  0.00     0.034 A 
ATOM     58  C   UNL A   1      48.160  29.609  27.281  1.00  0.00     0.049 A 
ATOM     59  C   UNL A   1      42.939  30.480  29.154  1.00  0.00     0.074 A 
ATOM     60  C   UNL A   1      49.021  30.689  27.315  1.00  0.00     0.029 A 
ATOM     61  N   UNL A   1      46.941  30.048  27.770  1.00  0.00    -0.354 N 
ATOM     62  N   UNL A   1      44.172  30.435  28.712  1.00  0.00    -0.248 NA
ATOM     63  C   UNL A   1      42.553  31.776  29.730  1.00  0.00     0.031 C 
ATOM     64  C   UNL A   1      48.329  31.777  27.857  1.00  0.00     0.029 A 
ATOM     65  C   UNL A   1      47.026  31.383  28.122  1.00  0.00     0.049 A 
ATOM     66  H   UNL A   1      46.132  29.492  27.857  1.00  0.00     0.167 HD
ATOM     67  C   UNL A   1      44.699  31.704  28.921  1.00  0.00     0.074 A 
ATOM     68  C   UNL A   1      43.642  32.501  29.510  1.00  0.00     0.031 C 
ATOM     69  C   UNL A   1      45.946  32.168  28.660  1.00  0.00     0.034 A 
BRANCH  56  70
ATOM     70  C   UNL A   1      49.823  27.915  26.401  1.00  0.00     0.023 A 
ATOM     71  C   UNL A   1      50.156  27.930  25.030  1.00  0.00     0.012 A 
ATOM     72  C   UNL A   1      50.818  27.604  27.348  1.00  0.00     0.148 A 
ATOM     73  C   UNL A   1      51.443  27.600  24.605  1.00  0.00     0.002 A 
ATOM     74  C   UNL A   1      52.112  27.329  26.921  1.00  0.00     0.091 A 
ATOM     75  F   UNL A   1      50.479  27.571  28.644  1.00  0.00    -0.205 F 
ATOM     76  C   UNL A   1      52.422  27.311  25.551  1.00  0.00     0.022 A 
BRANCH  74  77
ATOM     77  S   UNL A   1      53.465  27.030  28.062  1.00  0.00     0.127 S 
ATOM     78  O   UNL A   1      54.377  26.239  27.236  1.00  0.00    -0.237 OA
ATOM     79  O   UNL A   1      53.927  28.388  28.350  1.00  0.00    -0.237 OA
ATOM     80  O   UNL A   1      52.887  26.329  29.199  1.00  0.00    -0.744 OA
ENDBRANCH  74  77
ENDBRANCH  56  70
BRANCH  57  81
ATOM     81  C   UNL A   1      40.514  29.657  29.661  1.00  0.00     0.023 A 
ATOM     82  C   UNL A   1      39.470  29.991  28.776  1.00  0.00     0.012 A 
ATOM     83  C   UNL A   1      40.235  29.537  31.036  1.00  0.00     0.148 A 
ATOM     84  C   UNL A   1      38.183  30.237  29.254  1.00  0.00     0.002 A 
ATOM     85  C   UNL A   1      38.937  29.727  31.499  1.00  0.00     0.091 A 
ATOM     86  F   UNL A   1      41.242  29.225  31.863  1.00  0.00    -0.205 F 
ATOM     87  C   UNL A   1      37.915  30.096  30.612  1.00  0.00     0.022 A 
BRANCH  85  88
ATOM     88  S   UNL A   1      38.473  29.435  33.209  1.00  0.00     0.127 S 
ATOM     89  O   UNL A   1      39.704  28.875  33.762  1.00  0.00    -0.237 OA
ATOM     90  O   UNL A   1      38.150  30.787  33.668  1.00  0.00    -0.237 OA
ATOM     91  O   UNL A   1      37.332  28.531  33.161  1.00  0.00    -0.744 OA
ENDBRANCH  85  88
ENDBRANCH  57  81
BRANCH  69  92
ATOM     92  C   UNL A   1      46.232  33.613  28.968  1.00  0.00     0.023 A 
ATOM     93  C   UNL A   1      46.915  33.962  30.149  1.00  0.00     0.012 A 
ATOM     94  C   UNL A   1      45.894  34.617  28.039  1.00  0.00     0.148 A 
ATOM     95  C   UNL A   1      47.226  35.294  30.417  1.00  0.00     0.002 A 
ATOM     96  C   UNL A   1      46.256  35.934  28.287  1.00  0.00     0.091 A 
ATOM     97  F   UNL A   1      45.230  34.263  26.928  1.00  0.00    -0.205 F 
ATOM     98  C   UNL A   1      46.909  36.277  29.482  1.00  0.00     0.022 A 
BRANCH  96  99
ATOM     99  S   UNL A   1      45.982  37.248  27.095  1.00  0.00     0.127 S 
ATOM    100  O   UNL A   1      46.539  38.405  27.794  1.00  0.00    -0.237 OA
ATOM    101  O   UNL A   1      46.767  36.792  25.947  1.00  0.00    -0.237 OA
ATOM    102  O   UNL A   1      44.544  37.291  26.865  1.00  0.00    -0.744 OA
ENDBRANCH  96  99
ENDBRANCH  69  92
ENDBRANCH  43  44
ENDBRANCH  35  38
ENDBRANCH  33  34
ENDBRANCH  32  33
ENDBRANCH  31  32
ENDBRANCH   1  31
TORSDOF 21
ENDMDL
