MODEL 1
REMARK VINA RESULT:     -11.5      0.000      0.000
REMARK SMILES C#CC[C@@H](C(=O)NCCCCNC(=O)c1ccc(-c2c3nc(c(-c4cccc(S(=O)(=O)[O-])c4F)c4ccc([nH]4)c(-c4cccc(S(=O)(=O)[O-])c4F)c4nc(c(-c5cccc(S(=O)(=O)[O-])c5F)c5ccc2[nH]5)C=C4)C=C3)cc1)[C@H]1CCS(=O)(=O)C1
REMARK SMILES IDX 10 1 9 2 8 3 7 4 5 5 6 6 4 8 3 9 2 10 1 11 78 12 79 13 84 14
REMARK SMILES IDX 80 15 81 16 82 17 83 18 11 19 12 20 13 21 14 23 15 24 16 25
REMARK SMILES IDX 77 26 17 27 76 28 18 29 19 30 20 31 70 32 21 33 75 34 69 35
REMARK SMILES IDX 71 36 22 37 74 38 68 39 67 40 23 42 55 43 35 44 54 45 36 46
REMARK SMILES IDX 39 47 53 48 72 49 37 50 38 51 52 53 73 54 40 55 24 56 25 57
REMARK SMILES IDX 33 58 26 59 28 60 34 61 27 62 29 63 30 64 31 65 32 66 56 67
REMARK SMILES IDX 57 68 65 69 58 70 60 71 66 72 59 73 61 74 62 75 63 76 64 77
REMARK SMILES IDX 41 78 42 79 50 80 43 81 45 82 51 83 44 84 46 85 47 86 48 87
REMARK SMILES IDX 49 88
REMARK H PARENT 7 7 12 22 71 41 39 52
REMARK Flexibility Score: inf
ROOT
ATOM      1  C   UNL A   1      31.515  29.462  26.890  1.00  0.00     0.023 C 
ENDROOT
BRANCH   1   2
ATOM      2  C   UNL A   1      32.153  28.207  27.435  1.00  0.00     0.023 C 
BRANCH   2   3
ATOM      3  C   UNL A   1      32.303  27.021  26.468  1.00  0.00     0.116 C 
BRANCH   3   4
ATOM      4  N   UNL A   1      31.175  26.126  26.640  1.00  0.00    -0.356 N 
ATOM      5  C   UNL A   1      30.116  25.792  25.863  1.00  0.00     0.224 C 
ATOM      6  O   UNL A   1      29.192  25.247  26.475  1.00  0.00    -0.275 OA
ATOM      7  H   UNL A   1      31.179  25.661  27.508  1.00  0.00     0.163 HD
BRANCH   5   8
ATOM      8  C   UNL A   1      30.063  25.939  24.318  1.00  0.00     0.094 C 
BRANCH   8   9
ATOM      9  C   UNL A   1      31.189  25.212  23.530  1.00  0.00     0.103 C 
BRANCH   9  10
ATOM     10  C   UNL A   1      31.367  23.799  24.060  1.00  0.00    -0.106 C 
ATOM     11  C   UNL A   1      31.519  22.586  24.514  1.00  0.00     0.004 C 
ENDBRANCH   9  10
ENDBRANCH   8   9
BRANCH   8  12
ATOM     12  C   UNL A   1      30.121  27.453  23.917  1.00  0.00     0.018 C 
ATOM     13  C   UNL A   1      31.195  27.802  22.869  1.00  0.00     0.021 C 
ATOM     14  C   UNL A   1      28.793  28.032  23.388  1.00  0.00     0.141 C 
ATOM     15  C   UNL A   1      30.960  29.239  22.409  1.00  0.00     0.137 C 
ATOM     16  S   UNL A   1      29.225  29.585  22.633  1.00  0.00     0.150 S 
ATOM     17  O   UNL A   1      29.099  30.622  23.643  1.00  0.00    -0.229 OA
ATOM     18  O   UNL A   1      28.583  29.694  21.344  1.00  0.00    -0.229 OA
ENDBRANCH   8  12
ENDBRANCH   5   8
ENDBRANCH   3   4
ENDBRANCH   2   3
ENDBRANCH   1   2
BRANCH   1  19
ATOM     19  C   UNL A   1      32.521  30.497  26.404  1.00  0.00     0.116 C 
BRANCH  19  20
ATOM     20  N   UNL A   1      32.431  31.833  27.014  1.00  0.00    -0.352 N 
ATOM     21  C   UNL A   1      33.429  32.560  27.637  1.00  0.00     0.251 C 
ATOM     22  H   UNL A   1      31.546  32.264  26.973  1.00  0.00     0.163 HD
ATOM     23  O   UNL A   1      33.212  33.670  28.108  1.00  0.00    -0.269 OA
BRANCH  21  24
ATOM     24  C   UNL A   1      34.755  31.926  27.763  1.00  0.00     0.039 A 
ATOM     25  C   UNL A   1      35.871  32.729  27.999  1.00  0.00     0.014 A 
ATOM     26  C   UNL A   1      34.817  30.542  27.915  1.00  0.00     0.014 A 
ATOM     27  C   UNL A   1      37.015  32.149  28.549  1.00  0.00     0.010 A 
ATOM     28  C   UNL A   1      35.892  30.004  28.602  1.00  0.00     0.010 A 
ATOM     29  C   UNL A   1      37.000  30.801  28.941  1.00  0.00    -0.014 A 
BRANCH  29  30
ATOM     30  C   UNL A   1      38.098  30.192  29.736  1.00  0.00     0.031 A 
ATOM     31  C   UNL A   1      38.301  30.624  31.165  1.00  0.00     0.074 A 
ATOM     32  C   UNL A   1      38.993  29.369  29.146  1.00  0.00     0.049 A 
ATOM     33  N   UNL A   1      39.276  30.332  31.983  1.00  0.00    -0.248 NA
ATOM     34  C   UNL A   1      37.303  31.549  31.733  1.00  0.00     0.031 C 
ATOM     35  C   UNL A   1      38.973  28.953  27.739  1.00  0.00     0.029 A 
ATOM     36  N   UNL A   1      40.119  28.761  29.647  1.00  0.00    -0.354 N 
ATOM     37  C   UNL A   1      39.042  31.082  33.129  1.00  0.00     0.074 A 
ATOM     38  C   UNL A   1      37.861  31.876  32.887  1.00  0.00     0.031 C 
ATOM     39  C   UNL A   1      40.025  28.153  27.498  1.00  0.00     0.029 A 
ATOM     40  C   UNL A   1      40.823  28.035  28.712  1.00  0.00     0.049 A 
ATOM     41  H   UNL A   1      40.396  28.836  30.589  1.00  0.00     0.167 HD
ATOM     42  C   UNL A   1      39.729  31.086  34.293  1.00  0.00     0.034 A 
ATOM     43  C   UNL A   1      41.991  27.367  28.815  1.00  0.00     0.034 A 
ATOM     44  C   UNL A   1      40.856  30.240  34.558  1.00  0.00     0.049 A 
ATOM     45  C   UNL A   1      42.702  27.342  30.143  1.00  0.00     0.074 A 
ATOM     46  C   UNL A   1      41.536  30.067  35.749  1.00  0.00     0.029 A 
ATOM     47  N   UNL A   1      41.478  29.436  33.617  1.00  0.00    -0.354 N 
ATOM     48  N   UNL A   1      42.356  27.908  31.273  1.00  0.00    -0.248 NA
ATOM     49  C   UNL A   1      43.949  26.565  30.219  1.00  0.00     0.031 C 
ATOM     50  C   UNL A   1      42.597  29.189  35.519  1.00  0.00     0.029 A 
ATOM     51  C   UNL A   1      42.553  28.784  34.194  1.00  0.00     0.049 A 
ATOM     52  H   UNL A   1      41.197  29.342  32.677  1.00  0.00     0.167 HD
ATOM     53  C   UNL A   1      43.323  27.533  32.199  1.00  0.00     0.074 A 
ATOM     54  C   UNL A   1      44.255  26.669  31.506  1.00  0.00     0.031 C 
ATOM     55  C   UNL A   1      43.439  27.885  33.503  1.00  0.00     0.034 A 
BRANCH  42  56
ATOM     56  C   UNL A   1      39.253  32.001  35.388  1.00  0.00     0.023 A 
ATOM     57  C   UNL A   1      38.323  31.536  36.340  1.00  0.00     0.012 A 
ATOM     58  C   UNL A   1      39.780  33.300  35.512  1.00  0.00     0.148 A 
ATOM     59  C   UNL A   1      37.899  32.362  37.380  1.00  0.00     0.002 A 
ATOM     60  C   UNL A   1      39.393  34.098  36.580  1.00  0.00     0.091 A 
ATOM     61  F   UNL A   1      40.644  33.731  34.581  1.00  0.00    -0.205 F 
ATOM     62  C   UNL A   1      38.444  33.636  37.507  1.00  0.00     0.022 A 
BRANCH  60  63
ATOM     63  S   UNL A   1      40.098  35.722  36.881  1.00  0.00     0.127 S 
ATOM     64  O   UNL A   1      39.610  36.474  35.725  1.00  0.00    -0.237 OA
ATOM     65  O   UNL A   1      39.478  36.090  38.154  1.00  0.00    -0.237 OA
ATOM     66  O   UNL A   1      41.541  35.532  36.936  1.00  0.00    -0.744 OA
ENDBRANCH  60  63
ENDBRANCH  42  56
BRANCH  43  67
ATOM     67  C   UNL A   1      42.553  26.637  27.640  1.00  0.00     0.023 A 
ATOM     68  C   UNL A   1      43.417  27.308  26.751  1.00  0.00     0.012 A 
ATOM     69  C   UNL A   1      42.237  25.286  27.397  1.00  0.00     0.148 A 
ATOM     70  C   UNL A   1      43.919  26.660  25.620  1.00  0.00     0.002 A 
ATOM     71  C   UNL A   1      42.787  24.631  26.301  1.00  0.00     0.091 A 
ATOM     72  F   UNL A   1      41.403  24.668  28.245  1.00  0.00    -0.205 F 
ATOM     73  C   UNL A   1      43.612  25.321  25.401  1.00  0.00     0.022 A 
BRANCH  71  74
ATOM     74  S   UNL A   1      42.552  22.873  26.015  1.00  0.00     0.127 S 
ATOM     75  O   UNL A   1      43.115  22.711  24.678  1.00  0.00    -0.237 OA
ATOM     76  O   UNL A   1      43.345  22.283  27.095  1.00  0.00    -0.237 OA
ATOM     77  O   UNL A   1      41.118  22.646  26.131  1.00  0.00    -0.744 OA
ENDBRANCH  71  74
ENDBRANCH  43  67
BRANCH  55  78
ATOM     78  C   UNL A   1      44.589  27.315  34.288  1.00  0.00     0.023 A 
ATOM     79  C   UNL A   1      45.787  28.045  34.409  1.00  0.00     0.012 A 
ATOM     80  C   UNL A   1      44.438  26.105  34.995  1.00  0.00     0.148 A 
ATOM     81  C   UNL A   1      46.828  27.567  35.203  1.00  0.00     0.002 A 
ATOM     82  C   UNL A   1      45.459  25.662  35.825  1.00  0.00     0.091 A 
ATOM     83  F   UNL A   1      43.292  25.423  34.856  1.00  0.00    -0.205 F 
ATOM     84  C   UNL A   1      46.659  26.385  35.921  1.00  0.00     0.022 A 
BRANCH  82  85
ATOM     85  S   UNL A   1      45.294  24.209  36.868  1.00  0.00     0.127 S 
ATOM     86  O   UNL A   1      44.711  23.242  35.940  1.00  0.00    -0.237 OA
ATOM     87  O   UNL A   1      46.682  23.939  37.240  1.00  0.00    -0.237 OA
ATOM     88  O   UNL A   1      44.433  24.601  37.976  1.00  0.00    -0.744 OA
ENDBRANCH  82  85
ENDBRANCH  55  78
ENDBRANCH  29  30
ENDBRANCH  21  24
ENDBRANCH  19  20
ENDBRANCH   1  19
TORSDOF 17
ENDMDL
MODEL 2
REMARK VINA RESULT:     -11.4      1.253      2.024
REMARK SMILES C#CC[C@@H](C(=O)NCCCCNC(=O)c1ccc(-c2c3nc(c(-c4cccc(S(=O)(=O)[O-])c4F)c4ccc([nH]4)c(-c4cccc(S(=O)(=O)[O-])c4F)c4nc(c(-c5cccc(S(=O)(=O)[O-])c5F)c5ccc2[nH]5)C=C4)C=C3)cc1)[C@H]1CCS(=O)(=O)C1
REMARK SMILES IDX 10 1 9 2 8 3 7 4 5 5 6 6 4 8 3 9 2 10 1 11 78 12 79 13 84 14
REMARK SMILES IDX 80 15 81 16 82 17 83 18 11 19 12 20 13 21 14 23 15 24 16 25
REMARK SMILES IDX 77 26 17 27 76 28 18 29 19 30 20 31 70 32 21 33 75 34 69 35
REMARK SMILES IDX 71 36 22 37 74 38 68 39 67 40 23 42 55 43 35 44 54 45 36 46
REMARK SMILES IDX 39 47 53 48 72 49 37 50 38 51 52 53 73 54 40 55 24 56 25 57
REMARK SMILES IDX 33 58 26 59 28 60 34 61 27 62 29 63 30 64 31 65 32 66 56 67
REMARK SMILES IDX 57 68 65 69 58 70 60 71 66 72 59 73 61 74 62 75 63 76 64 77
REMARK SMILES IDX 41 78 42 79 50 80 43 81 45 82 51 83 44 84 46 85 47 86 48 87
REMARK SMILES IDX 49 88
REMARK H PARENT 7 7 12 22 71 41 39 52
REMARK Flexibility Score: inf
ROOT
ATOM      1  C   UNL A   1      31.407  29.488  26.910  1.00  0.00     0.023 C 
ENDROOT
BRANCH   1   2
ATOM      2  C   UNL A   1      31.911  28.192  27.497  1.00  0.00     0.023 C 
BRANCH   2   3
ATOM      3  C   UNL A   1      32.543  27.182  26.526  1.00  0.00     0.116 C 
BRANCH   3   4
ATOM      4  N   UNL A   1      31.522  26.255  26.077  1.00  0.00    -0.356 N 
ATOM      5  C   UNL A   1      30.468  26.359  25.231  1.00  0.00     0.224 C 
ATOM      6  O   UNL A   1      29.634  25.455  25.351  1.00  0.00    -0.275 OA
ATOM      7  H   UNL A   1      31.615  25.358  26.471  1.00  0.00     0.163 HD
BRANCH   5   8
ATOM      8  C   UNL A   1      30.327  27.422  24.108  1.00  0.00     0.094 C 
BRANCH   8   9
ATOM      9  C   UNL A   1      28.938  27.496  23.416  1.00  0.00     0.103 C 
BRANCH   9  10
ATOM     10  C   UNL A   1      28.769  28.840  22.728  1.00  0.00    -0.106 C 
ATOM     11  C   UNL A   1      28.625  29.994  22.137  1.00  0.00     0.004 C 
ENDBRANCH   9  10
ENDBRANCH   8   9
BRANCH   8  12
ATOM     12  C   UNL A   1      31.390  27.165  22.985  1.00  0.00     0.018 C 
ATOM     13  C   UNL A   1      32.690  27.979  23.129  1.00  0.00     0.021 C 
ATOM     14  C   UNL A   1      31.815  25.692  22.823  1.00  0.00     0.141 C 
ATOM     15  C   UNL A   1      33.701  27.440  22.119  1.00  0.00     0.137 C 
ATOM     16  S   UNL A   1      33.282  25.734  21.816  1.00  0.00     0.150 S 
ATOM     17  O   UNL A   1      32.874  25.609  20.427  1.00  0.00    -0.229 OA
ATOM     18  O   UNL A   1      34.293  24.878  22.393  1.00  0.00    -0.229 OA
ENDBRANCH   8  12
ENDBRANCH   5   8
ENDBRANCH   3   4
ENDBRANCH   2   3
ENDBRANCH   1   2
BRANCH   1  19
ATOM     19  C   UNL A   1      32.518  30.453  26.516  1.00  0.00     0.116 C 
BRANCH  19  20
ATOM     20  N   UNL A   1      32.429  31.813  27.067  1.00  0.00    -0.352 N 
ATOM     21  C   UNL A   1      33.433  32.577  27.634  1.00  0.00     0.251 C 
ATOM     22  H   UNL A   1      31.540  32.235  27.027  1.00  0.00     0.163 HD
ATOM     23  O   UNL A   1      33.216  33.705  28.060  1.00  0.00    -0.269 OA
BRANCH  21  24
ATOM     24  C   UNL A   1      34.768  31.960  27.759  1.00  0.00     0.039 A 
ATOM     25  C   UNL A   1      35.866  32.773  28.041  1.00  0.00     0.014 A 
ATOM     26  C   UNL A   1      34.851  30.574  27.863  1.00  0.00     0.014 A 
ATOM     27  C   UNL A   1      37.012  32.193  28.589  1.00  0.00     0.010 A 
ATOM     28  C   UNL A   1      35.925  30.029  28.548  1.00  0.00     0.010 A 
ATOM     29  C   UNL A   1      37.013  30.832  28.932  1.00  0.00    -0.014 A 
BRANCH  29  30
ATOM     30  C   UNL A   1      38.110  30.213  29.723  1.00  0.00     0.031 A 
ATOM     31  C   UNL A   1      38.315  30.636  31.154  1.00  0.00     0.074 A 
ATOM     32  C   UNL A   1      39.000  29.389  29.127  1.00  0.00     0.049 A 
ATOM     33  N   UNL A   1      39.290  30.334  31.970  1.00  0.00    -0.248 NA
ATOM     34  C   UNL A   1      37.322  31.562  31.729  1.00  0.00     0.031 C 
ATOM     35  C   UNL A   1      38.977  28.981  27.718  1.00  0.00     0.029 A 
ATOM     36  N   UNL A   1      40.123  28.773  29.624  1.00  0.00    -0.354 N 
ATOM     37  C   UNL A   1      39.060  31.079  33.120  1.00  0.00     0.074 A 
ATOM     38  C   UNL A   1      37.882  31.880  32.884  1.00  0.00     0.031 C 
ATOM     39  C   UNL A   1      40.025  28.178  27.472  1.00  0.00     0.029 A 
ATOM     40  C   UNL A   1      40.824  28.049  28.685  1.00  0.00     0.049 A 
ATOM     41  H   UNL A   1      40.402  28.842  30.567  1.00  0.00     0.167 HD
ATOM     42  C   UNL A   1      39.748  31.073  34.284  1.00  0.00     0.034 A 
ATOM     43  C   UNL A   1      41.989  27.375  28.783  1.00  0.00     0.034 A 
ATOM     44  C   UNL A   1      40.872  30.219  34.543  1.00  0.00     0.049 A 
ATOM     45  C   UNL A   1      42.700  27.339  30.110  1.00  0.00     0.074 A 
ATOM     46  C   UNL A   1      41.552  30.037  35.733  1.00  0.00     0.029 A 
ATOM     47  N   UNL A   1      41.489  29.418  33.597  1.00  0.00    -0.354 N 
ATOM     48  N   UNL A   1      42.358  27.901  31.244  1.00  0.00    -0.248 NA
ATOM     49  C   UNL A   1      43.944  26.556  30.181  1.00  0.00     0.031 C 
ATOM     50  C   UNL A   1      42.608  29.155  35.496  1.00  0.00     0.029 A 
ATOM     51  C   UNL A   1      42.561  28.758  34.169  1.00  0.00     0.049 A 
ATOM     52  H   UNL A   1      41.206  29.331  32.657  1.00  0.00     0.167 HD
ATOM     53  C   UNL A   1      43.324  27.515  32.167  1.00  0.00     0.074 A 
ATOM     54  C   UNL A   1      44.251  26.651  31.467  1.00  0.00     0.031 C 
ATOM     55  C   UNL A   1      43.442  27.860  33.472  1.00  0.00     0.034 A 
BRANCH  42  56
ATOM     56  C   UNL A   1      39.278  31.983  35.385  1.00  0.00     0.023 A 
ATOM     57  C   UNL A   1      38.392  31.499  36.370  1.00  0.00     0.012 A 
ATOM     58  C   UNL A   1      39.766  33.300  35.480  1.00  0.00     0.148 A 
ATOM     59  C   UNL A   1      37.974  32.322  37.414  1.00  0.00     0.002 A 
ATOM     60  C   UNL A   1      39.387  34.096  36.552  1.00  0.00     0.091 A 
ATOM     61  F   UNL A   1      40.587  33.748  34.519  1.00  0.00    -0.205 F 
ATOM     62  C   UNL A   1      38.482  33.614  37.512  1.00  0.00     0.022 A 
BRANCH  60  63
ATOM     63  S   UNL A   1      40.049  35.744  36.816  1.00  0.00     0.127 S 
ATOM     64  O   UNL A   1      41.487  35.481  36.858  1.00  0.00    -0.237 OA
ATOM     65  O   UNL A   1      39.592  36.450  35.618  1.00  0.00    -0.237 OA
ATOM     66  O   UNL A   1      39.467  36.218  38.063  1.00  0.00    -0.744 OA
ENDBRANCH  60  63
ENDBRANCH  42  56
BRANCH  43  67
ATOM     67  C   UNL A   1      42.547  26.650  27.603  1.00  0.00     0.023 A 
ATOM     68  C   UNL A   1      43.384  27.331  26.698  1.00  0.00     0.012 A 
ATOM     69  C   UNL A   1      42.251  25.292  27.371  1.00  0.00     0.148 A 
ATOM     70  C   UNL A   1      43.882  26.688  25.563  1.00  0.00     0.002 A 
ATOM     71  C   UNL A   1      42.798  24.642  26.271  1.00  0.00     0.091 A 
ATOM     72  F   UNL A   1      41.442  24.663  28.235  1.00  0.00    -0.205 F 
ATOM     73  C   UNL A   1      43.596  25.342  25.354  1.00  0.00     0.022 A 
BRANCH  71  74
ATOM     74  S   UNL A   1      42.591  22.878  25.997  1.00  0.00     0.127 S 
ATOM     75  O   UNL A   1      41.144  22.724  26.119  1.00  0.00    -0.237 OA
ATOM     76  O   UNL A   1      43.116  22.720  24.640  1.00  0.00    -0.237 OA
ATOM     77  O   UNL A   1      43.387  22.226  27.028  1.00  0.00    -0.744 OA
ENDBRANCH  71  74
ENDBRANCH  43  67
BRANCH  55  78
ATOM     78  C   UNL A   1      44.591  27.279  34.253  1.00  0.00     0.023 A 
ATOM     79  C   UNL A   1      45.799  27.994  34.361  1.00  0.00     0.012 A 
ATOM     80  C   UNL A   1      44.429  26.077  34.969  1.00  0.00     0.148 A 
ATOM     81  C   UNL A   1      46.839  27.508  35.150  1.00  0.00     0.002 A 
ATOM     82  C   UNL A   1      45.450  25.626  35.795  1.00  0.00     0.091 A 
ATOM     83  F   UNL A   1      43.273  25.408  34.842  1.00  0.00    -0.205 F 
ATOM     84  C   UNL A   1      46.660  26.333  35.878  1.00  0.00     0.022 A 
BRANCH  82  85
ATOM     85  S   UNL A   1      45.273  24.182  36.849  1.00  0.00     0.127 S 
ATOM     86  O   UNL A   1      46.614  24.063  37.418  1.00  0.00    -0.237 OA
ATOM     87  O   UNL A   1      44.244  24.616  37.794  1.00  0.00    -0.237 OA
ATOM     88  O   UNL A   1      44.872  23.089  35.974  1.00  0.00    -0.744 OA
ENDBRANCH  82  85
ENDBRANCH  55  78
ENDBRANCH  29  30
ENDBRANCH  21  24
ENDBRANCH  19  20
ENDBRANCH   1  19
TORSDOF 17
ENDMDL
MODEL 3
REMARK VINA RESULT:     -11.4      2.226      8.260
REMARK SMILES C#CC[C@@H](C(=O)NCCCCNC(=O)c1ccc(-c2c3nc(c(-c4cccc(S(=O)(=O)[O-])c4F)c4ccc([nH]4)c(-c4cccc(S(=O)(=O)[O-])c4F)c4nc(c(-c5cccc(S(=O)(=O)[O-])c5F)c5ccc2[nH]5)C=C4)C=C3)cc1)[C@H]1CCS(=O)(=O)C1
REMARK SMILES IDX 10 1 9 2 8 3 7 4 5 5 6 6 4 8 3 9 2 10 1 11 78 12 79 13 84 14
REMARK SMILES IDX 80 15 81 16 82 17 83 18 11 19 12 20 13 21 14 23 15 24 16 25
REMARK SMILES IDX 77 26 17 27 76 28 18 29 19 30 20 31 70 32 21 33 75 34 69 35
REMARK SMILES IDX 71 36 22 37 74 38 68 39 67 40 23 42 55 43 35 44 54 45 36 46
REMARK SMILES IDX 39 47 53 48 72 49 37 50 38 51 52 53 73 54 40 55 24 56 25 57
REMARK SMILES IDX 33 58 26 59 28 60 34 61 27 62 29 63 30 64 31 65 32 66 56 67
REMARK SMILES IDX 57 68 65 69 58 70 60 71 66 72 59 73 61 74 62 75 63 76 64 77
REMARK SMILES IDX 41 78 42 79 50 80 43 81 45 82 51 83 44 84 46 85 47 86 48 87
REMARK SMILES IDX 49 88
REMARK H PARENT 7 7 12 22 71 41 39 52
REMARK Flexibility Score: inf
ROOT
ATOM      1  C   UNL A   1      31.458  29.414  25.319  1.00  0.00     0.023 C 
ENDROOT
BRANCH   1   2
ATOM      2  C   UNL A   1      31.771  28.028  24.811  1.00  0.00     0.023 C 
BRANCH   2   3
ATOM      3  C   UNL A   1      33.188  27.786  24.266  1.00  0.00     0.116 C 
BRANCH   3   4
ATOM      4  N   UNL A   1      33.097  27.018  23.038  1.00  0.00    -0.356 N 
ATOM      5  C   UNL A   1      33.576  25.811  22.649  1.00  0.00     0.224 C 
ATOM      6  O   UNL A   1      33.571  25.636  21.426  1.00  0.00    -0.275 OA
ATOM      7  H   UNL A   1      32.575  27.471  22.337  1.00  0.00     0.163 HD
BRANCH   5   8
ATOM      8  C   UNL A   1      33.990  24.665  23.612  1.00  0.00     0.094 C 
BRANCH   8   9
ATOM      9  C   UNL A   1      34.520  23.371  22.933  1.00  0.00     0.103 C 
BRANCH   9  10
ATOM     10  C   UNL A   1      35.855  22.972  23.543  1.00  0.00    -0.106 C 
ATOM     11  C   UNL A   1      36.999  22.631  24.067  1.00  0.00     0.004 C 
ENDBRANCH   9  10
ENDBRANCH   8   9
BRANCH   8  12
ATOM     12  C   UNL A   1      32.776  24.250  24.512  1.00  0.00     0.018 C 
ATOM     13  C   UNL A   1      32.300  22.797  24.325  1.00  0.00     0.021 C 
ATOM     14  C   UNL A   1      33.000  24.443  26.026  1.00  0.00     0.141 C 
ATOM     15  C   UNL A   1      31.295  22.480  25.431  1.00  0.00     0.137 C 
ATOM     16  S   UNL A   1      31.688  23.534  26.814  1.00  0.00     0.150 S 
ATOM     17  O   UNL A   1      30.574  24.445  27.018  1.00  0.00    -0.229 OA
ATOM     18  O   UNL A   1      32.227  22.737  27.891  1.00  0.00    -0.229 OA
ENDBRANCH   8  12
ENDBRANCH   5   8
ENDBRANCH   3   4
ENDBRANCH   2   3
ENDBRANCH   1   2
BRANCH   1  19
ATOM     19  C   UNL A   1      32.555  30.008  26.192  1.00  0.00     0.116 C 
BRANCH  19  20
ATOM     20  N   UNL A   1      32.264  31.309  26.814  1.00  0.00    -0.352 N 
ATOM     21  C   UNL A   1      33.138  32.166  27.458  1.00  0.00     0.251 C 
ATOM     22  H   UNL A   1      31.327  31.607  26.766  1.00  0.00     0.163 HD
ATOM     23  O   UNL A   1      32.756  33.227  27.938  1.00  0.00    -0.269 OA
BRANCH  21  24
ATOM     24  C   UNL A   1      34.540  31.730  27.596  1.00  0.00     0.039 A 
ATOM     25  C   UNL A   1      35.542  32.695  27.711  1.00  0.00     0.014 A 
ATOM     26  C   UNL A   1      34.794  30.390  27.879  1.00  0.00     0.014 A 
ATOM     27  C   UNL A   1      36.767  32.331  28.272  1.00  0.00     0.010 A 
ATOM     28  C   UNL A   1      35.949  30.072  28.574  1.00  0.00     0.010 A 
ATOM     29  C   UNL A   1      36.945  31.040  28.793  1.00  0.00    -0.014 A 
BRANCH  29  30
ATOM     30  C   UNL A   1      38.135  30.666  29.602  1.00  0.00     0.031 A 
ATOM     31  C   UNL A   1      39.117  29.666  29.050  1.00  0.00     0.074 A 
ATOM     32  C   UNL A   1      38.262  31.108  30.873  1.00  0.00     0.049 A 
ATOM     33  N   UNL A   1      40.133  29.097  29.642  1.00  0.00    -0.248 NA
ATOM     34  C   UNL A   1      38.898  29.205  27.667  1.00  0.00     0.031 C 
ATOM     35  C   UNL A   1      37.324  31.997  31.566  1.00  0.00     0.029 A 
ATOM     36  N   UNL A   1      39.215  30.836  31.825  1.00  0.00    -0.354 N 
ATOM     37  C   UNL A   1      40.628  28.173  28.731  1.00  0.00     0.074 A 
ATOM     38  C   UNL A   1      39.778  28.223  27.565  1.00  0.00     0.031 C 
ATOM     39  C   UNL A   1      37.756  32.206  32.822  1.00  0.00     0.029 A 
ATOM     40  C   UNL A   1      38.970  31.430  33.044  1.00  0.00     0.049 A 
ATOM     41  H   UNL A   1      40.002  30.270  31.652  1.00  0.00     0.167 HD
ATOM     42  C   UNL A   1      41.714  27.375  28.839  1.00  0.00     0.034 A 
ATOM     43  C   UNL A   1      39.635  31.343  34.214  1.00  0.00     0.034 A 
ATOM     44  C   UNL A   1      42.601  27.383  29.967  1.00  0.00     0.049 A 
ATOM     45  C   UNL A   1      40.876  30.492  34.286  1.00  0.00     0.074 A 
ATOM     46  C   UNL A   1      43.803  26.716  30.116  1.00  0.00     0.029 A 
ATOM     47  N   UNL A   1      42.377  28.080  31.143  1.00  0.00    -0.354 N 
ATOM     48  N   UNL A   1      41.436  29.771  33.345  1.00  0.00    -0.248 NA
ATOM     49  C   UNL A   1      41.593  30.462  35.570  1.00  0.00     0.031 C 
ATOM     50  C   UNL A   1      44.287  26.977  31.399  1.00  0.00     0.029 A 
ATOM     51  C   UNL A   1      43.405  27.838  32.034  1.00  0.00     0.049 A 
ATOM     52  H   UNL A   1      41.601  28.661  31.317  1.00  0.00     0.167 HD
ATOM     53  C   UNL A   1      42.583  29.228  33.913  1.00  0.00     0.074 A 
ATOM     54  C   UNL A   1      42.654  29.724  35.271  1.00  0.00     0.031 C 
ATOM     55  C   UNL A   1      43.488  28.382  33.364  1.00  0.00     0.034 A 
BRANCH  42  56
ATOM     56  C   UNL A   1      42.034  26.460  27.689  1.00  0.00     0.023 A 
ATOM     57  C   UNL A   1      42.899  26.894  26.663  1.00  0.00     0.012 A 
ATOM     58  C   UNL A   1      41.529  25.147  27.661  1.00  0.00     0.148 A 
ATOM     59  C   UNL A   1      43.230  26.044  25.609  1.00  0.00     0.002 A 
ATOM     60  C   UNL A   1      41.905  24.289  26.636  1.00  0.00     0.091 A 
ATOM     61  F   UNL A   1      40.689  24.764  28.633  1.00  0.00    -0.205 F 
ATOM     62  C   UNL A   1      42.744  24.740  25.603  1.00  0.00     0.022 A 
BRANCH  60  63
ATOM     63  S   UNL A   1      41.404  22.566  26.581  1.00  0.00     0.127 S 
ATOM     64  O   UNL A   1      42.152  22.078  25.423  1.00  0.00    -0.237 OA
ATOM     65  O   UNL A   1      41.884  22.069  27.871  1.00  0.00    -0.237 OA
ATOM     66  O   UNL A   1      39.956  22.572  26.430  1.00  0.00    -0.744 OA
ENDBRANCH  60  63
ENDBRANCH  42  56
BRANCH  43  67
ATOM     67  C   UNL A   1      39.167  32.103  35.411  1.00  0.00     0.023 A 
ATOM     68  C   UNL A   1      39.426  33.485  35.505  1.00  0.00     0.012 A 
ATOM     69  C   UNL A   1      38.470  31.467  36.456  1.00  0.00     0.148 A 
ATOM     70  C   UNL A   1      39.038  34.209  36.634  1.00  0.00     0.002 A 
ATOM     71  C   UNL A   1      38.035  32.205  37.551  1.00  0.00     0.091 A 
ATOM     72  F   UNL A   1      38.243  30.149  36.357  1.00  0.00    -0.205 F 
ATOM     73  C   UNL A   1      38.336  33.571  37.653  1.00  0.00     0.022 A 
BRANCH  71  74
ATOM     74  S   UNL A   1      37.010  31.494  38.844  1.00  0.00     0.127 S 
ATOM     75  O   UNL A   1      37.868  31.635  40.017  1.00  0.00    -0.237 OA
ATOM     76  O   UNL A   1      35.843  32.377  38.823  1.00  0.00    -0.237 OA
ATOM     77  O   UNL A   1      36.736  30.128  38.419  1.00  0.00    -0.744 OA
ENDBRANCH  71  74
ENDBRANCH  43  67
BRANCH  55  78
ATOM     78  C   UNL A   1      44.659  27.957  34.209  1.00  0.00     0.023 A 
ATOM     79  C   UNL A   1      45.821  28.752  34.249  1.00  0.00     0.012 A 
ATOM     80  C   UNL A   1      44.561  26.827  35.045  1.00  0.00     0.148 A 
ATOM     81  C   UNL A   1      46.878  28.414  35.091  1.00  0.00     0.002 A 
ATOM     82  C   UNL A   1      45.597  26.528  35.920  1.00  0.00     0.091 A 
ATOM     83  F   UNL A   1      43.450  26.080  34.981  1.00  0.00    -0.205 F 
ATOM     84  C   UNL A   1      46.761  27.313  35.936  1.00  0.00     0.022 A 
BRANCH  82  85
ATOM     85  S   UNL A   1      45.494  25.193  37.117  1.00  0.00     0.127 S 
ATOM     86  O   UNL A   1      46.738  25.367  37.864  1.00  0.00    -0.237 OA
ATOM     87  O   UNL A   1      44.282  25.539  37.860  1.00  0.00    -0.237 OA
ATOM     88  O   UNL A   1      45.403  23.962  36.345  1.00  0.00    -0.744 OA
ENDBRANCH  82  85
ENDBRANCH  55  78
ENDBRANCH  29  30
ENDBRANCH  21  24
ENDBRANCH  19  20
ENDBRANCH   1  19
TORSDOF 17
ENDMDL
