MODEL 1
REMARK VINA RESULT:     -11.3      0.000      0.000
REMARK SMILES CC[C@@H](O)C[NH+]1CC(n2cc(C(=O)NCCCCNC(=O)c3ccc(-c4c5nc(c(-c6cccc(S(=O)(=O)[O-])c6F)c6ccc([nH]6)c(-c6cccc(S(=O)(=O)[O-])c6F)c6nc(c(-c7cccc(S(=O)(=O)[O-])c7F)c7ccc4[nH]7)C=C6)C=C5)cc3)nn2)C1
REMARK SMILES IDX 16 1 15 2 14 3 12 4 13 5 11 7 9 8 10 9 86 10 85 11 8 12 6 13
REMARK SMILES IDX 7 14 87 15 5 17 3 18 2 19 1 20 4 21 17 23 18 24 19 25 20 26
REMARK SMILES IDX 21 28 22 29 23 30 84 31 24 32 83 33 25 34 26 35 27 36 77 37
REMARK SMILES IDX 28 38 82 39 76 40 78 41 29 42 81 43 75 44 74 45 30 47 62 48
REMARK SMILES IDX 42 49 61 50 43 51 46 52 60 53 79 54 44 55 45 56 59 58 80 59
REMARK SMILES IDX 47 60 31 61 32 62 40 63 33 64 35 65 41 66 34 67 36 68 37 69
REMARK SMILES IDX 38 70 39 71 63 72 64 73 72 74 65 75 67 76 73 77 66 78 68 79
REMARK SMILES IDX 69 80 70 81 71 82 48 83 49 84 57 85 50 86 52 87 58 88 51 89
REMARK SMILES IDX 53 90 54 91 55 92 56 93
REMARK H PARENT 14 6 6 16 4 22 19 27 78 46 46 57
REMARK Flexibility Score: inf
ROOT
ATOM      1  C   UNL A   1      31.936  28.847  26.152  1.00  0.00     0.023 C 
ENDROOT
BRANCH   1   2
ATOM      2  C   UNL A   1      31.425  27.556  25.491  1.00  0.00     0.116 C 
BRANCH   2   3
ATOM      3  N   UNL A   1      30.849  27.815  24.186  1.00  0.00    -0.351 N 
ATOM      4  C   UNL A   1      31.042  27.241  22.946  1.00  0.00     0.273 C 
ATOM      5  O   UNL A   1      30.414  27.731  22.008  1.00  0.00    -0.267 OA
ATOM      6  H   UNL A   1      30.189  28.545  24.184  1.00  0.00     0.163 HD
BRANCH   4   7
ATOM      7  C   UNL A   1      31.975  26.134  22.737  1.00  0.00     0.170 A 
ATOM      8  N   UNL A   1      33.018  24.238  22.529  1.00  0.00    -0.237 N 
ATOM      9  C   UNL A   1      31.833  24.778  22.943  1.00  0.00     0.145 A 
ATOM     10  N   UNL A   1      33.899  25.184  22.194  1.00  0.00    -0.066 NA
ATOM     11  N   UNL A   1      33.279  26.352  22.319  1.00  0.00    -0.125 NA
BRANCH   8  12
ATOM     12  C   UNL A   1      33.310  22.851  22.634  1.00  0.00     0.218 C 
ATOM     13  N   UNL A   1      33.178  21.130  23.788  1.00  0.00    -0.329 N 
ATOM     14  C   UNL A   1      32.164  21.877  22.955  1.00  0.00     0.296 C 
ATOM     15  C   UNL A   1      33.813  22.468  24.039  1.00  0.00     0.296 C 
ATOM     16  H   UNL A   1      33.703  20.330  23.437  1.00  0.00     0.348 HD
BRANCH  13  17
ATOM     17  C   UNL A   1      32.562  20.594  25.009  1.00  0.00     0.294 C 
BRANCH  17  18
ATOM     18  C   UNL A   1      32.683  19.052  25.118  1.00  0.00     0.169 C 
BRANCH  18  19
ATOM     19  C   UNL A   1      33.940  18.484  24.442  1.00  0.00     0.034 C 
ATOM     20  C   UNL A   1      33.672  17.244  23.596  1.00  0.00     0.007 C 
ENDBRANCH  18  19
BRANCH  18  21
ATOM     21  O   UNL A   1      32.685  18.712  26.509  1.00  0.00    -0.387 OA
ATOM     22  H   UNL A   1      31.801  18.863  26.880  1.00  0.00     0.211 HD
ENDBRANCH  18  21
ENDBRANCH  17  18
ENDBRANCH  13  17
ENDBRANCH   8  12
ENDBRANCH   4   7
ENDBRANCH   2   3
ENDBRANCH   1   2
BRANCH   1  23
ATOM     23  C   UNL A   1      33.107  28.672  27.135  1.00  0.00     0.023 C 
BRANCH  23  24
ATOM     24  C   UNL A   1      34.340  29.506  26.810  1.00  0.00     0.116 C 
BRANCH  24  25
ATOM     25  N   UNL A   1      34.254  30.895  27.290  1.00  0.00    -0.352 N 
ATOM     26  C   UNL A   1      34.917  31.470  28.369  1.00  0.00     0.251 C 
ATOM     27  H   UNL A   1      33.653  31.489  26.785  1.00  0.00     0.163 HD
ATOM     28  O   UNL A   1      34.517  32.490  28.899  1.00  0.00    -0.269 OA
BRANCH  26  29
ATOM     29  C   UNL A   1      36.159  30.820  28.821  1.00  0.00     0.039 A 
ATOM     30  C   UNL A   1      36.253  29.461  29.144  1.00  0.00     0.014 A 
ATOM     31  C   UNL A   1      37.276  31.641  28.839  1.00  0.00     0.014 A 
ATOM     32  C   UNL A   1      37.513  28.934  29.427  1.00  0.00     0.010 A 
ATOM     33  C   UNL A   1      38.509  31.071  28.830  1.00  0.00     0.010 A 
ATOM     34  C   UNL A   1      38.631  29.758  29.262  1.00  0.00    -0.014 A 
BRANCH  34  35
ATOM     35  C   UNL A   1      39.995  29.330  29.510  1.00  0.00     0.031 A 
ATOM     36  C   UNL A   1      40.389  29.283  30.942  1.00  0.00     0.074 A 
ATOM     37  C   UNL A   1      40.678  28.708  28.521  1.00  0.00     0.049 A 
ATOM     38  N   UNL A   1      41.318  29.966  31.522  1.00  0.00    -0.248 NA
ATOM     39  C   UNL A   1      39.571  28.490  31.874  1.00  0.00     0.031 C 
ATOM     40  C   UNL A   1      40.214  28.365  27.164  1.00  0.00     0.029 A 
ATOM     41  N   UNL A   1      41.863  28.054  28.592  1.00  0.00    -0.354 N 
ATOM     42  C   UNL A   1      41.350  29.523  32.843  1.00  0.00     0.074 A 
ATOM     43  C   UNL A   1      40.126  28.796  33.048  1.00  0.00     0.031 C 
ATOM     44  C   UNL A   1      40.957  27.348  26.678  1.00  0.00     0.029 A 
ATOM     45  C   UNL A   1      42.039  27.087  27.606  1.00  0.00     0.049 A 
ATOM     46  H   UNL A   1      42.540  28.245  29.279  1.00  0.00     0.167 HD
ATOM     47  C   UNL A   1      42.493  29.581  33.585  1.00  0.00     0.034 A 
ATOM     48  C   UNL A   1      42.957  26.088  27.615  1.00  0.00     0.034 A 
ATOM     49  C   UNL A   1      43.501  30.366  32.914  1.00  0.00     0.049 A 
ATOM     50  C   UNL A   1      44.015  26.487  28.576  1.00  0.00     0.074 A 
ATOM     51  C   UNL A   1      43.580  31.671  32.470  1.00  0.00     0.029 A 
ATOM     52  N   UNL A   1      44.471  29.673  32.226  1.00  0.00    -0.354 N 
ATOM     53  N   UNL A   1      44.769  27.539  28.402  1.00  0.00    -0.248 NA
ATOM     54  C   UNL A   1      43.878  26.037  29.953  1.00  0.00     0.031 C 
ATOM     55  C   UNL A   1      44.217  31.578  31.197  1.00  0.00     0.029 A 
ATOM     56  C   UNL A   1      44.569  30.243  30.983  1.00  0.00     0.049 A 
ATOM     57  H   UNL A   1      44.995  28.911  32.562  1.00  0.00     0.167 HD
ATOM     58  C   UNL A   1      44.807  28.148  29.651  1.00  0.00     0.074 A 
ATOM     59  C   UNL A   1      44.324  27.128  30.586  1.00  0.00     0.031 C 
ATOM     60  C   UNL A   1      44.911  29.506  29.784  1.00  0.00     0.034 A 
BRANCH  47  61
ATOM     61  C   UNL A   1      42.864  28.670  34.733  1.00  0.00     0.023 A 
ATOM     62  C   UNL A   1      43.328  29.291  35.916  1.00  0.00     0.012 A 
ATOM     63  C   UNL A   1      43.040  27.272  34.636  1.00  0.00     0.148 A 
ATOM     64  C   UNL A   1      43.992  28.573  36.916  1.00  0.00     0.002 A 
ATOM     65  C   UNL A   1      43.638  26.550  35.665  1.00  0.00     0.091 A 
ATOM     66  F   UNL A   1      42.754  26.637  33.497  1.00  0.00    -0.205 F 
ATOM     67  C   UNL A   1      44.145  27.199  36.791  1.00  0.00     0.022 A 
BRANCH  65  68
ATOM     68  S   UNL A   1      43.829  24.764  35.578  1.00  0.00     0.127 S 
ATOM     69  O   UNL A   1      44.548  24.487  36.819  1.00  0.00    -0.237 OA
ATOM     70  O   UNL A   1      42.437  24.314  35.555  1.00  0.00    -0.237 OA
ATOM     71  O   UNL A   1      44.560  24.509  34.343  1.00  0.00    -0.744 OA
ENDBRANCH  65  68
ENDBRANCH  47  61
BRANCH  48  72
ATOM     72  C   UNL A   1      42.790  24.702  27.112  1.00  0.00     0.023 A 
ATOM     73  C   UNL A   1      41.548  24.045  27.198  1.00  0.00     0.012 A 
ATOM     74  C   UNL A   1      43.802  24.099  26.328  1.00  0.00     0.148 A 
ATOM     75  C   UNL A   1      41.322  22.835  26.524  1.00  0.00     0.002 A 
ATOM     76  C   UNL A   1      43.583  22.887  25.681  1.00  0.00     0.091 A 
ATOM     77  F   UNL A   1      44.950  24.763  26.134  1.00  0.00    -0.205 F 
ATOM     78  C   UNL A   1      42.339  22.254  25.767  1.00  0.00     0.022 A 
BRANCH  76  79
ATOM     79  S   UNL A   1      44.867  22.099  24.700  1.00  0.00     0.127 S 
ATOM     80  O   UNL A   1      44.241  20.823  24.356  1.00  0.00    -0.237 OA
ATOM     81  O   UNL A   1      45.011  23.037  23.591  1.00  0.00    -0.237 OA
ATOM     82  O   UNL A   1      46.019  21.979  25.588  1.00  0.00    -0.744 OA
ENDBRANCH  76  79
ENDBRANCH  48  72
BRANCH  60  83
ATOM     83  C   UNL A   1      45.144  30.340  28.542  1.00  0.00     0.023 A 
ATOM     84  C   UNL A   1      44.084  30.801  27.730  1.00  0.00     0.012 A 
ATOM     85  C   UNL A   1      46.430  30.853  28.316  1.00  0.00     0.148 A 
ATOM     86  C   UNL A   1      44.302  31.734  26.712  1.00  0.00     0.002 A 
ATOM     87  C   UNL A   1      46.637  31.815  27.333  1.00  0.00     0.091 A 
ATOM     88  F   UNL A   1      47.430  30.420  29.099  1.00  0.00    -0.205 F 
ATOM     89  C   UNL A   1      45.578  32.253  26.523  1.00  0.00     0.022 A 
BRANCH  87  90
ATOM     90  S   UNL A   1      48.228  32.616  27.129  1.00  0.00     0.127 S 
ATOM     91  O   UNL A   1      49.142  31.477  27.110  1.00  0.00    -0.237 OA
ATOM     92  O   UNL A   1      48.074  33.299  25.843  1.00  0.00    -0.237 OA
ATOM     93  O   UNL A   1      48.371  33.518  28.265  1.00  0.00    -0.744 OA
ENDBRANCH  87  90
ENDBRANCH  60  83
ENDBRANCH  34  35
ENDBRANCH  26  29
ENDBRANCH  24  25
ENDBRANCH  23  24
ENDBRANCH   1  23
TORSDOF 19
ENDMDL
MODEL 2
REMARK VINA RESULT:     -11.1      3.046      9.046
REMARK SMILES CC[C@@H](O)C[NH+]1CC(n2cc(C(=O)NCCCCNC(=O)c3ccc(-c4c5nc(c(-c6cccc(S(=O)(=O)[O-])c6F)c6ccc([nH]6)c(-c6cccc(S(=O)(=O)[O-])c6F)c6nc(c(-c7cccc(S(=O)(=O)[O-])c7F)c7ccc4[nH]7)C=C6)C=C5)cc3)nn2)C1
REMARK SMILES IDX 16 1 15 2 14 3 12 4 13 5 11 7 9 8 10 9 86 10 85 11 8 12 6 13
REMARK SMILES IDX 7 14 87 15 5 17 3 18 2 19 1 20 4 21 17 23 18 24 19 25 20 26
REMARK SMILES IDX 21 28 22 29 23 30 84 31 24 32 83 33 25 34 26 35 27 36 77 37
REMARK SMILES IDX 28 38 82 39 76 40 78 41 29 42 81 43 75 44 74 45 30 47 62 48
REMARK SMILES IDX 42 49 61 50 43 51 46 52 60 53 79 54 44 55 45 56 59 58 80 59
REMARK SMILES IDX 47 60 31 61 32 62 40 63 33 64 35 65 41 66 34 67 36 68 37 69
REMARK SMILES IDX 38 70 39 71 63 72 64 73 72 74 65 75 67 76 73 77 66 78 68 79
REMARK SMILES IDX 69 80 70 81 71 82 48 83 49 84 57 85 50 86 52 87 58 88 51 89
REMARK SMILES IDX 53 90 54 91 55 92 56 93
REMARK H PARENT 14 6 6 16 4 22 19 27 78 46 46 57
REMARK Flexibility Score: inf
ROOT
ATOM      1  C   UNL A   1      35.294  22.090  24.629  1.00  0.00     0.023 C 
ENDROOT
BRANCH   1   2
ATOM      2  C   UNL A   1      33.860  21.621  24.924  1.00  0.00     0.116 C 
BRANCH   2   3
ATOM      3  N   UNL A   1      33.538  21.740  26.333  1.00  0.00    -0.351 N 
ATOM      4  C   UNL A   1      32.703  22.586  27.035  1.00  0.00     0.273 C 
ATOM      5  O   UNL A   1      32.685  22.453  28.258  1.00  0.00    -0.267 OA
ATOM      6  H   UNL A   1      34.008  21.089  26.902  1.00  0.00     0.163 HD
BRANCH   4   7
ATOM      7  C   UNL A   1      31.907  23.620  26.374  1.00  0.00     0.170 A 
ATOM      8  N   UNL A   1      30.868  24.969  25.023  1.00  0.00    -0.237 N 
ATOM      9  C   UNL A   1      31.784  23.956  25.042  1.00  0.00     0.145 A 
ATOM     10  N   UNL A   1      30.516  25.338  26.257  1.00  0.00    -0.066 NA
ATOM     11  N   UNL A   1      31.147  24.525  27.098  1.00  0.00    -0.125 NA
BRANCH   8  12
ATOM     12  C   UNL A   1      30.499  25.650  23.831  1.00  0.00     0.218 C 
ATOM     13  N   UNL A   1      29.819  27.417  22.979  1.00  0.00    -0.329 N 
ATOM     14  C   UNL A   1      31.169  26.997  23.513  1.00  0.00     0.296 C 
ATOM     15  C   UNL A   1      29.232  26.507  24.021  1.00  0.00     0.296 C 
ATOM     16  H   UNL A   1      29.569  27.357  21.993  1.00  0.00     0.348 HD
BRANCH  13  17
ATOM     17  C   UNL A   1      29.548  28.827  23.289  1.00  0.00     0.294 C 
BRANCH  17  18
ATOM     18  C   UNL A   1      29.273  29.680  22.023  1.00  0.00     0.169 C 
BRANCH  18  19
ATOM     19  C   UNL A   1      28.474  30.961  22.305  1.00  0.00     0.034 C 
ATOM     20  C   UNL A   1      28.815  31.611  23.641  1.00  0.00     0.007 C 
ENDBRANCH  18  19
BRANCH  18  21
ATOM     21  O   UNL A   1      30.538  30.015  21.440  1.00  0.00    -0.387 OA
ATOM     22  H   UNL A   1      31.231  29.961  22.117  1.00  0.00     0.211 HD
ENDBRANCH  18  21
ENDBRANCH  17  18
ENDBRANCH  13  17
ENDBRANCH   8  12
ENDBRANCH   4   7
ENDBRANCH   2   3
ENDBRANCH   1   2
BRANCH   1  23
ATOM     23  C   UNL A   1      35.651  23.497  25.141  1.00  0.00     0.023 C 
BRANCH  23  24
ATOM     24  C   UNL A   1      36.851  23.546  26.080  1.00  0.00     0.116 C 
BRANCH  24  25
ATOM     25  N   UNL A   1      37.714  22.357  25.995  1.00  0.00    -0.352 N 
ATOM     26  C   UNL A   1      39.084  22.276  26.222  1.00  0.00     0.251 C 
ATOM     27  H   UNL A   1      37.267  21.517  25.744  1.00  0.00     0.163 HD
ATOM     28  O   UNL A   1      39.755  21.361  25.782  1.00  0.00    -0.269 OA
BRANCH  26  29
ATOM     29  C   UNL A   1      39.690  23.323  27.062  1.00  0.00     0.039 A 
ATOM     30  C   UNL A   1      40.904  23.170  27.743  1.00  0.00     0.014 A 
ATOM     31  C   UNL A   1      39.005  24.528  27.080  1.00  0.00     0.014 A 
ATOM     32  C   UNL A   1      41.442  24.280  28.394  1.00  0.00     0.010 A 
ATOM     33  C   UNL A   1      39.664  25.653  27.461  1.00  0.00     0.010 A 
ATOM     34  C   UNL A   1      40.805  25.516  28.238  1.00  0.00    -0.014 A 
BRANCH  34  35
ATOM     35  C   UNL A   1      41.269  26.746  28.851  1.00  0.00     0.031 A 
ATOM     36  C   UNL A   1      42.510  27.314  28.264  1.00  0.00     0.074 A 
ATOM     37  C   UNL A   1      40.419  27.448  29.638  1.00  0.00     0.049 A 
ATOM     38  N   UNL A   1      43.642  27.502  28.854  1.00  0.00    -0.248 NA
ATOM     39  C   UNL A   1      42.549  27.579  26.815  1.00  0.00     0.031 C 
ATOM     40  C   UNL A   1      39.015  27.143  29.968  1.00  0.00     0.029 A 
ATOM     41  N   UNL A   1      40.565  28.700  30.136  1.00  0.00    -0.354 N 
ATOM     42  C   UNL A   1      44.466  28.117  27.913  1.00  0.00     0.074 A 
ATOM     43  C   UNL A   1      43.823  27.932  26.640  1.00  0.00     0.031 C 
ATOM     44  C   UNL A   1      38.383  28.279  30.334  1.00  0.00     0.029 A 
ATOM     45  C   UNL A   1      39.364  29.341  30.426  1.00  0.00     0.049 A 
ATOM     46  H   UNL A   1      41.443  29.119  30.281  1.00  0.00     0.167 HD
ATOM     47  C   UNL A   1      45.484  28.941  28.291  1.00  0.00     0.034 A 
ATOM     48  C   UNL A   1      39.192  30.671  30.628  1.00  0.00     0.034 A 
ATOM     49  C   UNL A   1      45.714  28.855  29.713  1.00  0.00     0.049 A 
ATOM     50  C   UNL A   1      40.525  31.229  30.964  1.00  0.00     0.074 A 
ATOM     51  C   UNL A   1      46.055  27.838  30.582  1.00  0.00     0.029 A 
ATOM     52  N   UNL A   1      45.168  29.850  30.491  1.00  0.00    -0.354 N 
ATOM     53  N   UNL A   1      41.190  30.881  32.033  1.00  0.00    -0.248 NA
ATOM     54  C   UNL A   1      41.330  31.754  29.871  1.00  0.00     0.031 C 
ATOM     55  C   UNL A   1      45.235  28.056  31.728  1.00  0.00     0.029 A 
ATOM     56  C   UNL A   1      44.515  29.238  31.530  1.00  0.00     0.049 A 
ATOM     57  H   UNL A   1      45.232  30.819  30.332  1.00  0.00     0.167 HD
ATOM     58  C   UNL A   1      42.493  30.696  31.586  1.00  0.00     0.074 A 
ATOM     59  C   UNL A   1      42.538  31.342  30.271  1.00  0.00     0.031 C 
ATOM     60  C   UNL A   1      43.322  29.769  32.156  1.00  0.00     0.034 A 
BRANCH  47  61
ATOM     61  C   UNL A   1      46.057  30.087  27.487  1.00  0.00     0.023 A 
ATOM     62  C   UNL A   1      47.460  30.262  27.535  1.00  0.00     0.012 A 
ATOM     63  C   UNL A   1      45.302  31.138  26.920  1.00  0.00     0.148 A 
ATOM     64  C   UNL A   1      48.071  31.445  27.108  1.00  0.00     0.002 A 
ATOM     65  C   UNL A   1      45.922  32.284  26.430  1.00  0.00     0.091 A 
ATOM     66  F   UNL A   1      43.968  31.106  26.964  1.00  0.00    -0.205 F 
ATOM     67  C   UNL A   1      47.301  32.457  26.552  1.00  0.00     0.022 A 
BRANCH  65  68
ATOM     68  S   UNL A   1      44.982  33.612  25.665  1.00  0.00     0.127 S 
ATOM     69  O   UNL A   1      46.047  34.513  25.235  1.00  0.00    -0.237 OA
ATOM     70  O   UNL A   1      44.292  32.906  24.584  1.00  0.00    -0.237 OA
ATOM     71  O   UNL A   1      44.097  34.116  26.708  1.00  0.00    -0.744 OA
ENDBRANCH  65  68
ENDBRANCH  47  61
BRANCH  48  72
ATOM     72  C   UNL A   1      38.036  31.506  30.220  1.00  0.00     0.023 A 
ATOM     73  C   UNL A   1      37.572  31.501  28.890  1.00  0.00     0.012 A 
ATOM     74  C   UNL A   1      37.230  32.140  31.196  1.00  0.00     0.148 A 
ATOM     75  C   UNL A   1      36.351  32.102  28.548  1.00  0.00     0.002 A 
ATOM     76  C   UNL A   1      36.032  32.755  30.849  1.00  0.00     0.091 A 
ATOM     77  F   UNL A   1      37.590  32.054  32.484  1.00  0.00    -0.205 F 
ATOM     78  C   UNL A   1      35.581  32.731  29.526  1.00  0.00     0.022 A 
BRANCH  76  79
ATOM     79  S   UNL A   1      35.011  33.583  32.076  1.00  0.00     0.127 S 
ATOM     80  O   UNL A   1      34.515  34.736  31.324  1.00  0.00    -0.237 OA
ATOM     81  O   UNL A   1      34.012  32.560  32.370  1.00  0.00    -0.237 OA
ATOM     82  O   UNL A   1      35.914  33.926  33.169  1.00  0.00    -0.744 OA
ENDBRANCH  76  79
ENDBRANCH  48  72
BRANCH  60  83
ATOM     83  C   UNL A   1      42.853  29.043  33.399  1.00  0.00     0.023 A 
ATOM     84  C   UNL A   1      41.899  28.003  33.354  1.00  0.00     0.012 A 
ATOM     85  C   UNL A   1      43.545  29.261  34.599  1.00  0.00     0.148 A 
ATOM     86  C   UNL A   1      41.631  27.212  34.475  1.00  0.00     0.002 A 
ATOM     87  C   UNL A   1      43.312  28.446  35.700  1.00  0.00     0.091 A 
ATOM     88  F   UNL A   1      44.459  30.244  34.632  1.00  0.00    -0.205 F 
ATOM     89  C   UNL A   1      42.349  27.425  35.647  1.00  0.00     0.022 A 
BRANCH  87  90
ATOM     90  S   UNL A   1      44.297  28.584  37.193  1.00  0.00     0.127 S 
ATOM     91  O   UNL A   1      45.658  28.534  36.665  1.00  0.00    -0.237 OA
ATOM     92  O   UNL A   1      43.891  29.889  37.717  1.00  0.00    -0.237 OA
ATOM     93  O   UNL A   1      43.907  27.460  38.035  1.00  0.00    -0.744 OA
ENDBRANCH  87  90
ENDBRANCH  60  83
ENDBRANCH  34  35
ENDBRANCH  26  29
ENDBRANCH  24  25
ENDBRANCH  23  24
ENDBRANCH   1  23
TORSDOF 19
ENDMDL
MODEL 3
REMARK VINA RESULT:     -10.9      3.318      8.953
REMARK SMILES CC[C@@H](O)C[NH+]1CC(n2cc(C(=O)NCCCCNC(=O)c3ccc(-c4c5nc(c(-c6cccc(S(=O)(=O)[O-])c6F)c6ccc([nH]6)c(-c6cccc(S(=O)(=O)[O-])c6F)c6nc(c(-c7cccc(S(=O)(=O)[O-])c7F)c7ccc4[nH]7)C=C6)C=C5)cc3)nn2)C1
REMARK SMILES IDX 16 1 15 2 14 3 12 4 13 5 11 7 9 8 10 9 86 10 85 11 8 12 6 13
REMARK SMILES IDX 7 14 87 15 5 17 3 18 2 19 1 20 4 21 17 23 18 24 19 25 20 26
REMARK SMILES IDX 21 28 22 29 23 30 84 31 24 32 83 33 25 34 26 35 27 36 77 37
REMARK SMILES IDX 28 38 82 39 76 40 78 41 29 42 81 43 75 44 74 45 30 47 62 48
REMARK SMILES IDX 42 49 61 50 43 51 46 52 60 53 79 54 44 55 45 56 59 58 80 59
REMARK SMILES IDX 47 60 31 61 32 62 40 63 33 64 35 65 41 66 34 67 36 68 37 69
REMARK SMILES IDX 38 70 39 71 63 72 64 73 72 74 65 75 67 76 73 77 66 78 68 79
REMARK SMILES IDX 69 80 70 81 71 82 48 83 49 84 57 85 50 86 52 87 58 88 51 89
REMARK SMILES IDX 53 90 54 91 55 92 56 93
REMARK H PARENT 14 6 6 16 4 22 19 27 78 46 46 57
REMARK Flexibility Score: inf
ROOT
ATOM      1  C   UNL A   1      37.929  21.249  25.316  1.00  0.00     0.023 C 
ENDROOT
BRANCH   1   2
ATOM      2  C   UNL A   1      36.517  21.255  24.707  1.00  0.00     0.116 C 
BRANCH   2   3
ATOM      3  N   UNL A   1      35.509  21.585  25.696  1.00  0.00    -0.351 N 
ATOM      4  C   UNL A   1      34.480  22.504  25.714  1.00  0.00     0.273 C 
ATOM      5  O   UNL A   1      33.814  22.566  26.747  1.00  0.00    -0.267 OA
ATOM      6  H   UNL A   1      35.571  21.046  26.517  1.00  0.00     0.163 HD
BRANCH   4   7
ATOM      7  C   UNL A   1      34.212  23.396  24.587  1.00  0.00     0.170 A 
ATOM      8  N   UNL A   1      33.814  25.035  23.216  1.00  0.00    -0.237 N 
ATOM      9  C   UNL A   1      33.921  24.743  24.546  1.00  0.00     0.145 A 
ATOM     10  N   UNL A   1      33.911  23.938  22.462  1.00  0.00    -0.066 NA
ATOM     11  N   UNL A   1      34.151  22.922  23.285  1.00  0.00    -0.125 NA
BRANCH   8  12
ATOM     12  C   UNL A   1      33.455  26.325  22.738  1.00  0.00     0.218 C 
ATOM     13  N   UNL A   1      31.920  27.652  22.303  1.00  0.00    -0.329 N 
ATOM     14  C   UNL A   1      32.542  27.207  23.605  1.00  0.00     0.296 C 
ATOM     15  C   UNL A   1      32.240  26.277  21.791  1.00  0.00     0.296 C 
ATOM     16  H   UNL A   1      32.202  28.501  21.814  1.00  0.00     0.348 HD
BRANCH  13  17
ATOM     17  C   UNL A   1      30.470  27.842  22.452  1.00  0.00     0.294 C 
BRANCH  17  18
ATOM     18  C   UNL A   1      30.028  29.310  22.223  1.00  0.00     0.169 C 
BRANCH  18  19
ATOM     19  C   UNL A   1      29.720  30.070  23.522  1.00  0.00     0.034 C 
ATOM     20  C   UNL A   1      28.453  30.915  23.450  1.00  0.00     0.007 C 
ENDBRANCH  18  19
BRANCH  18  21
ATOM     21  O   UNL A   1      31.076  29.976  21.509  1.00  0.00    -0.387 OA
ATOM     22  H   UNL A   1      31.121  29.630  20.604  1.00  0.00     0.211 HD
ENDBRANCH  18  21
ENDBRANCH  17  18
ENDBRANCH  13  17
ENDBRANCH   8  12
ENDBRANCH   4   7
ENDBRANCH   2   3
ENDBRANCH   1   2
BRANCH   1  23
ATOM     23  C   UNL A   1      38.436  22.608  25.831  1.00  0.00     0.023 C 
BRANCH  23  24
ATOM     24  C   UNL A   1      39.600  22.523  26.811  1.00  0.00     0.116 C 
BRANCH  24  25
ATOM     25  N   UNL A   1      40.895  22.255  26.164  1.00  0.00    -0.352 N 
ATOM     26  C   UNL A   1      41.844  23.177  25.735  1.00  0.00     0.251 C 
ATOM     27  H   UNL A   1      41.115  21.307  26.016  1.00  0.00     0.163 HD
ATOM     28  O   UNL A   1      42.688  22.892  24.905  1.00  0.00    -0.269 OA
BRANCH  26  29
ATOM     29  C   UNL A   1      41.820  24.510  26.361  1.00  0.00     0.039 A 
ATOM     30  C   UNL A   1      40.849  25.481  26.089  1.00  0.00     0.014 A 
ATOM     31  C   UNL A   1      42.801  24.724  27.317  1.00  0.00     0.014 A 
ATOM     32  C   UNL A   1      40.854  26.651  26.847  1.00  0.00     0.010 A 
ATOM     33  C   UNL A   1      42.625  25.717  28.227  1.00  0.00     0.010 A 
ATOM     34  C   UNL A   1      41.751  26.749  27.916  1.00  0.00    -0.014 A 
BRANCH  34  35
ATOM     35  C   UNL A   1      41.849  27.905  28.787  1.00  0.00     0.031 A 
ATOM     36  C   UNL A   1      42.801  28.953  28.338  1.00  0.00     0.074 A 
ATOM     37  C   UNL A   1      40.883  28.112  29.713  1.00  0.00     0.049 A 
ATOM     38  N   UNL A   1      43.857  29.367  28.953  1.00  0.00    -0.248 NA
ATOM     39  C   UNL A   1      42.647  29.515  26.986  1.00  0.00     0.031 C 
ATOM     40  C   UNL A   1      39.674  27.308  29.970  1.00  0.00     0.029 A 
ATOM     41  N   UNL A   1      40.665  29.210  30.477  1.00  0.00    -0.354 N 
ATOM     42  C   UNL A   1      44.375  30.400  28.171  1.00  0.00     0.074 A 
ATOM     43  C   UNL A   1      43.730  30.289  26.890  1.00  0.00     0.031 C 
ATOM     44  C   UNL A   1      38.746  28.075  30.582  1.00  0.00     0.029 A 
ATOM     45  C   UNL A   1      39.348  29.352  30.906  1.00  0.00     0.049 A 
ATOM     46  H   UNL A   1      41.375  29.849  30.710  1.00  0.00     0.167 HD
ATOM     47  C   UNL A   1      45.107  31.409  28.721  1.00  0.00     0.034 A 
ATOM     48  C   UNL A   1      38.782  30.481  31.401  1.00  0.00     0.034 A 
ATOM     49  C   UNL A   1      45.457  31.104  30.088  1.00  0.00     0.049 A 
ATOM     50  C   UNL A   1      39.894  31.356  31.849  1.00  0.00     0.074 A 
ATOM     51  C   UNL A   1      46.164  30.093  30.707  1.00  0.00     0.029 A 
ATOM     52  N   UNL A   1      44.685  31.682  31.070  1.00  0.00    -0.354 N 
ATOM     53  N   UNL A   1      40.711  31.025  32.812  1.00  0.00    -0.248 NA
ATOM     54  C   UNL A   1      40.409  32.330  30.899  1.00  0.00     0.031 C 
ATOM     55  C   UNL A   1      45.404  29.788  31.875  1.00  0.00     0.029 A 
ATOM     56  C   UNL A   1      44.337  30.687  31.947  1.00  0.00     0.049 A 
ATOM     57  H   UNL A   1      44.430  32.630  31.131  1.00  0.00     0.167 HD
ATOM     58  C   UNL A   1      41.969  31.368  32.332  1.00  0.00     0.074 A 
ATOM     59  C   UNL A   1      41.711  32.256  31.194  1.00  0.00     0.031 C 
ATOM     60  C   UNL A   1      43.088  30.661  32.679  1.00  0.00     0.034 A 
BRANCH  47  61
ATOM     61  C   UNL A   1      45.229  32.820  28.192  1.00  0.00     0.023 A 
ATOM     62  C   UNL A   1      46.539  33.311  27.979  1.00  0.00     0.012 A 
ATOM     63  C   UNL A   1      44.180  33.765  28.149  1.00  0.00     0.148 A 
ATOM     64  C   UNL A   1      46.798  34.673  27.801  1.00  0.00     0.002 A 
ATOM     65  C   UNL A   1      44.435  35.111  27.901  1.00  0.00     0.091 A 
ATOM     66  F   UNL A   1      42.937  33.403  28.476  1.00  0.00    -0.205 F 
ATOM     67  C   UNL A   1      45.743  35.575  27.760  1.00  0.00     0.022 A 
BRANCH  65  68
ATOM     68  S   UNL A   1      43.108  36.319  27.797  1.00  0.00     0.127 S 
ATOM     69  O   UNL A   1      43.858  37.567  27.681  1.00  0.00    -0.237 OA
ATOM     70  O   UNL A   1      42.413  35.898  26.581  1.00  0.00    -0.237 OA
ATOM     71  O   UNL A   1      42.330  36.150  29.018  1.00  0.00    -0.744 OA
ENDBRANCH  65  68
ENDBRANCH  47  61
BRANCH  48  72
ATOM     72  C   UNL A   1      37.395  30.964  31.192  1.00  0.00     0.023 A 
ATOM     73  C   UNL A   1      36.595  31.365  32.279  1.00  0.00     0.012 A 
ATOM     74  C   UNL A   1      36.927  31.255  29.888  1.00  0.00     0.148 A 
ATOM     75  C   UNL A   1      35.378  32.034  32.074  1.00  0.00     0.002 A 
ATOM     76  C   UNL A   1      35.710  31.896  29.687  1.00  0.00     0.091 A 
ATOM     77  F   UNL A   1      37.724  30.991  28.843  1.00  0.00    -0.205 F 
ATOM     78  C   UNL A   1      34.934  32.298  30.779  1.00  0.00     0.022 A 
BRANCH  76  79
ATOM     79  S   UNL A   1      35.094  32.251  28.036  1.00  0.00     0.127 S 
ATOM     80  O   UNL A   1      36.084  33.210  27.546  1.00  0.00    -0.237 OA
ATOM     81  O   UNL A   1      35.146  30.933  27.410  1.00  0.00    -0.237 OA
ATOM     82  O   UNL A   1      33.761  32.813  28.228  1.00  0.00    -0.744 OA
ENDBRANCH  76  79
ENDBRANCH  48  72
BRANCH  60  83
ATOM     83  C   UNL A   1      42.964  29.578  33.729  1.00  0.00     0.023 A 
ATOM     84  C   UNL A   1      42.466  28.290  33.434  1.00  0.00     0.012 A 
ATOM     85  C   UNL A   1      43.564  29.790  34.980  1.00  0.00     0.148 A 
ATOM     86  C   UNL A   1      42.549  27.247  34.362  1.00  0.00     0.002 A 
ATOM     87  C   UNL A   1      43.688  28.742  35.884  1.00  0.00     0.091 A 
ATOM     88  F   UNL A   1      44.045  31.014  35.249  1.00  0.00    -0.205 F 
ATOM     89  C   UNL A   1      43.174  27.470  35.584  1.00  0.00     0.022 A 
BRANCH  87  90
ATOM     90  S   UNL A   1      44.598  28.932  37.417  1.00  0.00     0.127 S 
ATOM     91  O   UNL A   1      43.946  30.094  38.016  1.00  0.00    -0.237 OA
ATOM     92  O   UNL A   1      44.334  27.663  38.099  1.00  0.00    -0.237 OA
ATOM     93  O   UNL A   1      45.992  29.120  37.035  1.00  0.00    -0.744 OA
ENDBRANCH  87  90
ENDBRANCH  60  83
ENDBRANCH  34  35
ENDBRANCH  26  29
ENDBRANCH  24  25
ENDBRANCH  23  24
ENDBRANCH   1  23
TORSDOF 19
ENDMDL
