MODEL 1
REMARK VINA RESULT:     -10.6      0.000      0.000
REMARK SMILES CCOC(=O)CS(=O)(=O)N1CCC(CC(=O)NCCCCNC(=O)c2ccc(-c3c4nc(c(-c5cccc(S(=O)(=O)[O-])c5F)c5ccc([nH]5)c(-c5cccc(S(=O)(=O)[O-])c5F)c5nc(c(-c6cccc(S(=O)(=O)[O-])c6F)c6ccc3[nH]6)C=C5)C=C4)cc2)CC1
REMARK SMILES IDX 18 1 17 2 15 3 16 4 14 6 13 7 10 8 11 9 89 10 12 11 88 12
REMARK SMILES IDX 7 13 8 14 9 15 6 16 4 17 5 18 3 19 2 20 1 21 19 22 20 23
REMARK SMILES IDX 21 24 22 25 23 26 24 28 25 29 26 30 87 31 27 32 86 33 28 34
REMARK SMILES IDX 29 35 30 36 80 37 31 38 85 39 79 40 81 41 32 42 84 43 78 44
REMARK SMILES IDX 77 45 33 47 65 48 45 49 64 50 46 51 49 52 63 53 82 54 47 55
REMARK SMILES IDX 48 56 62 58 83 59 50 60 34 61 35 62 43 63 36 64 38 65 44 66
REMARK SMILES IDX 37 67 39 68 40 69 41 70 42 71 66 72 67 73 75 74 68 75 70 76
REMARK SMILES IDX 76 77 69 78 71 79 72 80 73 81 74 82 51 83 52 84 60 85 53 86
REMARK SMILES IDX 55 87 61 88 54 89 56 90 57 91 58 92 59 93
REMARK H PARENT 17 5 22 27 81 46 49 57
REMARK Flexibility Score: inf
ROOT
ATOM      1  C   UNL A   1      35.910  21.548  25.727  1.00  0.00     0.116 C 
ENDROOT
BRANCH   1   2
ATOM      2  N   UNL A   1      34.948  20.461  25.878  1.00  0.00    -0.356 N 
ATOM      3  C   UNL A   1      33.792  20.159  25.211  1.00  0.00     0.220 C 
ATOM      4  O   UNL A   1      33.145  19.183  25.599  1.00  0.00    -0.275 OA
ATOM      5  H   UNL A   1      35.173  19.825  26.595  1.00  0.00     0.163 HD
BRANCH   3   6
ATOM      6  C   UNL A   1      33.275  21.001  24.036  1.00  0.00     0.103 C 
BRANCH   6   7
ATOM      7  C   UNL A   1      32.086  21.924  24.403  1.00  0.00     0.001 C 
ATOM      8  N   UNL A   1      31.371  24.717  25.167  1.00  0.00    -0.201 NA
ATOM      9  C   UNL A   1      31.486  23.668  26.190  1.00  0.00     0.102 C 
ATOM     10  C   UNL A   1      30.834  24.105  23.900  1.00  0.00     0.102 C 
ATOM     11  C   UNL A   1      32.400  22.580  25.721  1.00  0.00     0.021 C 
ATOM     12  C   UNL A   1      31.793  23.017  23.366  1.00  0.00     0.021 C 
BRANCH   8  13
ATOM     13  S   UNL A   1      30.483  26.083  25.704  1.00  0.00     0.224 S 
ATOM     14  O   UNL A   1      29.500  25.616  26.664  1.00  0.00    -0.212 OA
ATOM     15  O   UNL A   1      30.032  26.765  24.509  1.00  0.00    -0.212 OA
BRANCH  13  16
ATOM     16  C   UNL A   1      31.653  27.171  26.487  1.00  0.00     0.276 C 
BRANCH  16  17
ATOM     17  C   UNL A   1      32.957  27.383  25.804  1.00  0.00     0.322 C 
ATOM     18  O   UNL A   1      33.899  26.612  25.963  1.00  0.00    -0.251 OA
BRANCH  17  19
ATOM     19  O   UNL A   1      32.993  28.443  24.958  1.00  0.00    -0.465 OA
BRANCH  19  20
ATOM     20  C   UNL A   1      32.670  29.736  25.515  1.00  0.00     0.229 C 
ATOM     21  C   UNL A   1      31.252  30.166  25.180  1.00  0.00     0.049 C 
ENDBRANCH  19  20
ENDBRANCH  17  19
ENDBRANCH  16  17
ENDBRANCH  13  16
ENDBRANCH   8  13
ENDBRANCH   6   7
ENDBRANCH   3   6
ENDBRANCH   1   2
BRANCH   1  22
ATOM     22  C   UNL A   1      36.934  21.269  24.614  1.00  0.00     0.023 C 
BRANCH  22  23
ATOM     23  C   UNL A   1      37.914  20.139  24.855  1.00  0.00     0.023 C 
BRANCH  23  24
ATOM     24  C   UNL A   1      39.019  20.482  25.824  1.00  0.00     0.116 C 
BRANCH  24  25
ATOM     25  N   UNL A   1      39.986  19.408  26.021  1.00  0.00    -0.352 N 
ATOM     26  C   UNL A   1      41.326  19.508  26.316  1.00  0.00     0.251 C 
ATOM     27  H   UNL A   1      39.634  18.493  25.934  1.00  0.00     0.163 HD
ATOM     28  O   UNL A   1      42.027  18.504  26.381  1.00  0.00    -0.269 OA
BRANCH  26  29
ATOM     29  C   UNL A   1      41.915  20.849  26.509  1.00  0.00     0.039 A 
ATOM     30  C   UNL A   1      42.142  21.662  25.398  1.00  0.00     0.014 A 
ATOM     31  C   UNL A   1      42.155  21.329  27.797  1.00  0.00     0.014 A 
ATOM     32  C   UNL A   1      42.554  22.980  25.593  1.00  0.00     0.010 A 
ATOM     33  C   UNL A   1      42.409  22.675  27.990  1.00  0.00     0.010 A 
ATOM     34  C   UNL A   1      42.657  23.507  26.891  1.00  0.00    -0.014 A 
BRANCH  34  35
ATOM     35  C   UNL A   1      43.082  24.907  27.130  1.00  0.00     0.031 A 
ATOM     36  C   UNL A   1      42.132  25.867  27.802  1.00  0.00     0.074 A 
ATOM     37  C   UNL A   1      44.284  25.330  26.691  1.00  0.00     0.049 A 
ATOM     38  N   UNL A   1      42.304  27.130  28.086  1.00  0.00    -0.248 NA
ATOM     39  C   UNL A   1      40.798  25.354  28.166  1.00  0.00     0.031 C 
ATOM     40  C   UNL A   1      45.246  24.523  25.938  1.00  0.00     0.029 A 
ATOM     41  N   UNL A   1      44.895  26.552  26.805  1.00  0.00    -0.354 N 
ATOM     42  C   UNL A   1      41.096  27.565  28.621  1.00  0.00     0.074 A 
ATOM     43  C   UNL A   1      40.178  26.453  28.562  1.00  0.00     0.031 C 
ATOM     44  C   UNL A   1      46.338  25.261  25.685  1.00  0.00     0.029 A 
ATOM     45  C   UNL A   1      46.142  26.601  26.228  1.00  0.00     0.049 A 
ATOM     46  H   UNL A   1      44.479  27.322  27.257  1.00  0.00     0.167 HD
ATOM     47  C   UNL A   1      40.789  28.767  29.159  1.00  0.00     0.034 A 
ATOM     48  C   UNL A   1      47.027  27.614  26.153  1.00  0.00     0.034 A 
ATOM     49  C   UNL A   1      41.723  29.849  29.269  1.00  0.00     0.049 A 
ATOM     50  C   UNL A   1      46.682  28.924  26.808  1.00  0.00     0.074 A 
ATOM     51  C   UNL A   1      41.552  31.076  29.882  1.00  0.00     0.029 A 
ATOM     52  N   UNL A   1      43.008  29.835  28.747  1.00  0.00    -0.354 N 
ATOM     53  N   UNL A   1      45.596  29.262  27.461  1.00  0.00    -0.248 NA
ATOM     54  C   UNL A   1      47.702  29.981  26.751  1.00  0.00     0.031 C 
ATOM     55  C   UNL A   1      42.724  31.818  29.703  1.00  0.00     0.029 A 
ATOM     56  C   UNL A   1      43.638  31.038  29.011  1.00  0.00     0.049 A 
ATOM     57  H   UNL A   1      43.412  29.082  28.260  1.00  0.00     0.167 HD
ATOM     58  C   UNL A   1      45.813  30.556  27.920  1.00  0.00     0.074 A 
ATOM     59  C   UNL A   1      47.147  30.929  27.494  1.00  0.00     0.031 C 
ATOM     60  C   UNL A   1      44.982  31.371  28.614  1.00  0.00     0.034 A 
BRANCH  47  61
ATOM     61  C   UNL A   1      39.401  28.947  29.719  1.00  0.00     0.023 A 
ATOM     62  C   UNL A   1      39.114  28.520  31.033  1.00  0.00     0.012 A 
ATOM     63  C   UNL A   1      38.393  29.571  28.961  1.00  0.00     0.148 A 
ATOM     64  C   UNL A   1      37.836  28.673  31.568  1.00  0.00     0.002 A 
ATOM     65  C   UNL A   1      37.136  29.768  29.520  1.00  0.00     0.091 A 
ATOM     66  F   UNL A   1      38.675  29.947  27.706  1.00  0.00    -0.205 F 
ATOM     67  C   UNL A   1      36.852  29.307  30.816  1.00  0.00     0.022 A 
BRANCH  65  68
ATOM     68  S   UNL A   1      35.822  30.646  28.668  1.00  0.00     0.127 S 
ATOM     69  O   UNL A   1      35.115  29.550  28.006  1.00  0.00    -0.237 OA
ATOM     70  O   UNL A   1      35.092  31.258  29.779  1.00  0.00    -0.237 OA
ATOM     71  O   UNL A   1      36.479  31.591  27.777  1.00  0.00    -0.744 OA
ENDBRANCH  65  68
ENDBRANCH  47  61
BRANCH  48  72
ATOM     72  C   UNL A   1      48.349  27.408  25.494  1.00  0.00     0.023 A 
ATOM     73  C   UNL A   1      49.461  27.028  26.271  1.00  0.00     0.012 A 
ATOM     74  C   UNL A   1      48.506  27.568  24.105  1.00  0.00     0.148 A 
ATOM     75  C   UNL A   1      50.714  26.851  25.682  1.00  0.00     0.002 A 
ATOM     76  C   UNL A   1      49.743  27.335  23.516  1.00  0.00     0.091 A 
ATOM     77  F   UNL A   1      47.438  27.937  23.384  1.00  0.00    -0.205 F 
ATOM     78  C   UNL A   1      50.853  26.996  24.305  1.00  0.00     0.022 A 
BRANCH  76  79
ATOM     79  S   UNL A   1      49.985  27.369  21.737  1.00  0.00     0.127 S 
ATOM     80  O   UNL A   1      48.933  26.465  21.275  1.00  0.00    -0.237 OA
ATOM     81  O   UNL A   1      49.762  28.782  21.429  1.00  0.00    -0.237 OA
ATOM     82  O   UNL A   1      51.350  26.915  21.516  1.00  0.00    -0.744 OA
ENDBRANCH  76  79
ENDBRANCH  48  72
BRANCH  60  83
ATOM     83  C   UNL A   1      45.498  32.736  28.986  1.00  0.00     0.023 A 
ATOM     84  C   UNL A   1      46.169  32.922  30.211  1.00  0.00     0.012 A 
ATOM     85  C   UNL A   1      45.374  33.816  28.091  1.00  0.00     0.148 A 
ATOM     86  C   UNL A   1      46.670  34.176  30.559  1.00  0.00     0.002 A 
ATOM     87  C   UNL A   1      45.925  35.048  28.421  1.00  0.00     0.091 A 
ATOM     88  F   UNL A   1      44.720  33.621  26.938  1.00  0.00    -0.205 F 
ATOM     89  C   UNL A   1      46.558  35.234  29.659  1.00  0.00     0.022 A 
BRANCH  87  90
ATOM     90  S   UNL A   1      45.920  36.438  27.283  1.00  0.00     0.127 S 
ATOM     91  O   UNL A   1      46.457  35.829  26.068  1.00  0.00    -0.237 OA
ATOM     92  O   UNL A   1      44.498  36.778  27.218  1.00  0.00    -0.237 OA
ATOM     93  O   UNL A   1      46.759  37.459  27.894  1.00  0.00    -0.744 OA
ENDBRANCH  87  90
ENDBRANCH  60  83
ENDBRANCH  34  35
ENDBRANCH  26  29
ENDBRANCH  24  25
ENDBRANCH  23  24
ENDBRANCH  22  23
ENDBRANCH   1  22
TORSDOF 20
ENDMDL
MODEL 2
REMARK VINA RESULT:     -10.5      5.856      9.744
REMARK SMILES CCOC(=O)CS(=O)(=O)N1CCC(CC(=O)NCCCCNC(=O)c2ccc(-c3c4nc(c(-c5cccc(S(=O)(=O)[O-])c5F)c5ccc([nH]5)c(-c5cccc(S(=O)(=O)[O-])c5F)c5nc(c(-c6cccc(S(=O)(=O)[O-])c6F)c6ccc3[nH]6)C=C5)C=C4)cc2)CC1
REMARK SMILES IDX 18 1 17 2 15 3 16 4 14 6 13 7 10 8 11 9 89 10 12 11 88 12
REMARK SMILES IDX 7 13 8 14 9 15 6 16 4 17 5 18 3 19 2 20 1 21 19 22 20 23
REMARK SMILES IDX 21 24 22 25 23 26 24 28 25 29 26 30 87 31 27 32 86 33 28 34
REMARK SMILES IDX 29 35 30 36 80 37 31 38 85 39 79 40 81 41 32 42 84 43 78 44
REMARK SMILES IDX 77 45 33 47 65 48 45 49 64 50 46 51 49 52 63 53 82 54 47 55
REMARK SMILES IDX 48 56 62 58 83 59 50 60 34 61 35 62 43 63 36 64 38 65 44 66
REMARK SMILES IDX 37 67 39 68 40 69 41 70 42 71 66 72 67 73 75 74 68 75 70 76
REMARK SMILES IDX 76 77 69 78 71 79 72 80 73 81 74 82 51 83 52 84 60 85 53 86
REMARK SMILES IDX 55 87 61 88 54 89 56 90 57 91 58 92 59 93
REMARK H PARENT 17 5 22 27 81 46 49 57
REMARK Flexibility Score: inf
ROOT
ATOM      1  C   UNL A   1      31.390  29.794  24.948  1.00  0.00     0.116 C 
ENDROOT
BRANCH   1   2
ATOM      2  N   UNL A   1      32.313  29.126  24.036  1.00  0.00    -0.356 N 
ATOM      3  C   UNL A   1      32.121  28.180  23.067  1.00  0.00     0.220 C 
ATOM      4  O   UNL A   1      33.118  27.755  22.476  1.00  0.00    -0.275 OA
ATOM      5  H   UNL A   1      33.251  29.408  24.138  1.00  0.00     0.163 HD
BRANCH   3   6
ATOM      6  C   UNL A   1      30.732  27.625  22.721  1.00  0.00     0.103 C 
BRANCH   6   7
ATOM      7  C   UNL A   1      30.303  26.423  23.598  1.00  0.00     0.001 C 
ATOM      8  N   UNL A   1      31.344  24.247  25.352  1.00  0.00    -0.201 NA
ATOM      9  C   UNL A   1      30.970  23.969  23.957  1.00  0.00     0.102 C 
ATOM     10  C   UNL A   1      30.423  25.303  25.902  1.00  0.00     0.102 C 
ATOM     11  C   UNL A   1      31.069  25.214  23.133  1.00  0.00     0.021 C 
ATOM     12  C   UNL A   1      30.552  26.618  25.100  1.00  0.00     0.021 C 
BRANCH   8  13
ATOM     13  S   UNL A   1      31.427  22.832  26.318  1.00  0.00     0.224 S 
ATOM     14  O   UNL A   1      30.969  21.720  25.506  1.00  0.00    -0.212 OA
ATOM     15  O   UNL A   1      30.727  23.142  27.547  1.00  0.00    -0.212 OA
BRANCH  13  16
ATOM     16  C   UNL A   1      33.138  22.619  26.759  1.00  0.00     0.276 C 
BRANCH  16  17
ATOM     17  C   UNL A   1      34.058  22.107  25.708  1.00  0.00     0.322 C 
ATOM     18  O   UNL A   1      34.115  20.914  25.428  1.00  0.00    -0.251 OA
BRANCH  17  19
ATOM     19  O   UNL A   1      34.767  23.062  25.056  1.00  0.00    -0.465 OA
BRANCH  19  20
ATOM     20  C   UNL A   1      34.958  22.882  23.635  1.00  0.00     0.229 C 
ATOM     21  C   UNL A   1      36.416  23.022  23.231  1.00  0.00     0.049 C 
ENDBRANCH  19  20
ENDBRANCH  17  19
ENDBRANCH  16  17
ENDBRANCH  13  16
ENDBRANCH   8  13
ENDBRANCH   6   7
ENDBRANCH   3   6
ENDBRANCH   1   2
BRANCH   1  22
ATOM     22  C   UNL A   1      32.068  30.203  26.267  1.00  0.00     0.023 C 
BRANCH  22  23
ATOM     23  C   UNL A   1      31.767  31.594  26.787  1.00  0.00     0.023 C 
BRANCH  23  24
ATOM     24  C   UNL A   1      32.988  32.360  27.232  1.00  0.00     0.116 C 
BRANCH  24  25
ATOM     25  N   UNL A   1      32.699  33.712  27.698  1.00  0.00    -0.352 N 
ATOM     26  C   UNL A   1      33.349  34.437  28.670  1.00  0.00     0.251 C 
ATOM     27  H   UNL A   1      31.942  34.164  27.260  1.00  0.00     0.163 HD
ATOM     28  O   UNL A   1      32.938  35.545  29.001  1.00  0.00    -0.269 OA
BRANCH  26  29
ATOM     29  C   UNL A   1      34.523  33.841  29.338  1.00  0.00     0.039 A 
ATOM     30  C   UNL A   1      34.332  32.843  30.295  1.00  0.00     0.014 A 
ATOM     31  C   UNL A   1      35.811  34.210  28.949  1.00  0.00     0.014 A 
ATOM     32  C   UNL A   1      35.442  32.177  30.813  1.00  0.00     0.010 A 
ATOM     33  C   UNL A   1      36.893  33.443  29.346  1.00  0.00     0.010 A 
ATOM     34  C   UNL A   1      36.729  32.447  30.317  1.00  0.00    -0.014 A 
BRANCH  34  35
ATOM     35  C   UNL A   1      37.927  31.747  30.839  1.00  0.00     0.031 A 
ATOM     36  C   UNL A   1      38.476  32.124  32.191  1.00  0.00     0.074 A 
ATOM     37  C   UNL A   1      38.552  30.827  30.079  1.00  0.00     0.049 A 
ATOM     38  N   UNL A   1      39.519  31.647  32.818  1.00  0.00    -0.248 NA
ATOM     39  C   UNL A   1      37.793  33.209  32.921  1.00  0.00     0.031 C 
ATOM     40  C   UNL A   1      38.175  30.452  28.715  1.00  0.00     0.029 A 
ATOM     41  N   UNL A   1      39.648  30.048  30.345  1.00  0.00    -0.354 N 
ATOM     42  C   UNL A   1      39.634  32.395  33.984  1.00  0.00     0.074 A 
ATOM     43  C   UNL A   1      38.600  33.402  33.951  1.00  0.00     0.031 C 
ATOM     44  C   UNL A   1      39.006  29.493  28.275  1.00  0.00     0.029 A 
ATOM     45  C   UNL A   1      39.993  29.208  29.312  1.00  0.00     0.049 A 
ATOM     46  H   UNL A   1      40.143  30.086  31.196  1.00  0.00     0.167 HD
ATOM     47  C   UNL A   1      40.492  32.232  35.017  1.00  0.00     0.034 A 
ATOM     48  C   UNL A   1      40.990  28.308  29.218  1.00  0.00     0.034 A 
ATOM     49  C   UNL A   1      41.479  31.193  35.072  1.00  0.00     0.049 A 
ATOM     50  C   UNL A   1      41.897  28.107  30.402  1.00  0.00     0.074 A 
ATOM     51  C   UNL A   1      42.335  30.872  36.109  1.00  0.00     0.029 A 
ATOM     52  N   UNL A   1      41.745  30.306  34.040  1.00  0.00    -0.354 N 
ATOM     53  N   UNL A   1      41.881  28.710  31.567  1.00  0.00    -0.248 NA
ATOM     54  C   UNL A   1      42.934  27.073  30.274  1.00  0.00     0.031 C 
ATOM     55  C   UNL A   1      43.143  29.810  35.690  1.00  0.00     0.029 A 
ATOM     56  C   UNL A   1      42.763  29.445  34.409  1.00  0.00     0.049 A 
ATOM     57  H   UNL A   1      41.279  30.291  33.173  1.00  0.00     0.167 HD
ATOM     58  C   UNL A   1      42.882  28.108  32.321  1.00  0.00     0.074 A 
ATOM     59  C   UNL A   1      43.463  27.074  31.490  1.00  0.00     0.031 C 
ATOM     60  C   UNL A   1      43.297  28.395  33.580  1.00  0.00     0.034 A 
BRANCH  47  61
ATOM     61  C   UNL A   1      40.356  33.166  36.192  1.00  0.00     0.023 A 
ATOM     62  C   UNL A   1      40.995  34.424  36.165  1.00  0.00     0.012 A 
ATOM     63  C   UNL A   1      39.569  32.816  37.305  1.00  0.00     0.148 A 
ATOM     64  C   UNL A   1      40.887  35.301  37.243  1.00  0.00     0.002 A 
ATOM     65  C   UNL A   1      39.422  33.717  38.353  1.00  0.00     0.091 A 
ATOM     66  F   UNL A   1      38.990  31.608  37.325  1.00  0.00    -0.205 F 
ATOM     67  C   UNL A   1      40.092  34.952  38.331  1.00  0.00     0.022 A 
BRANCH  65  68
ATOM     68  S   UNL A   1      38.356  33.401  39.762  1.00  0.00     0.127 S 
ATOM     69  O   UNL A   1      38.446  34.666  40.490  1.00  0.00    -0.237 OA
ATOM     70  O   UNL A   1      37.064  33.158  39.120  1.00  0.00    -0.237 OA
ATOM     71  O   UNL A   1      38.923  32.248  40.446  1.00  0.00    -0.744 OA
ENDBRANCH  65  68
ENDBRANCH  47  61
BRANCH  48  72
ATOM     72  C   UNL A   1      41.140  27.480  27.986  1.00  0.00     0.023 A 
ATOM     73  C   UNL A   1      41.746  28.038  26.843  1.00  0.00     0.012 A 
ATOM     74  C   UNL A   1      40.705  26.142  27.947  1.00  0.00     0.148 A 
ATOM     75  C   UNL A   1      41.879  27.292  25.671  1.00  0.00     0.002 A 
ATOM     76  C   UNL A   1      40.892  25.386  26.796  1.00  0.00     0.091 A 
ATOM     77  F   UNL A   1      40.124  25.631  29.042  1.00  0.00    -0.205 F 
ATOM     78  C   UNL A   1      41.460  25.965  25.650  1.00  0.00     0.022 A 
BRANCH  76  79
ATOM     79  S   UNL A   1      40.504  23.635  26.720  1.00  0.00     0.127 S 
ATOM     80  O   UNL A   1      40.845  23.195  28.072  1.00  0.00    -0.237 OA
ATOM     81  O   UNL A   1      39.072  23.655  26.421  1.00  0.00    -0.237 OA
ATOM     82  O   UNL A   1      41.333  23.094  25.652  1.00  0.00    -0.744 OA
ENDBRANCH  76  79
ENDBRANCH  48  72
BRANCH  60  83
ATOM     83  C   UNL A   1      44.412  27.559  34.150  1.00  0.00     0.023 A 
ATOM     84  C   UNL A   1      45.750  27.974  33.994  1.00  0.00     0.012 A 
ATOM     85  C   UNL A   1      44.128  26.399  34.895  1.00  0.00     0.148 A 
ATOM     86  C   UNL A   1      46.791  27.220  34.534  1.00  0.00     0.002 A 
ATOM     87  C   UNL A   1      45.167  25.684  35.478  1.00  0.00     0.091 A 
ATOM     88  F   UNL A   1      42.850  26.014  35.020  1.00  0.00    -0.205 F 
ATOM     89  C   UNL A   1      46.499  26.084  35.285  1.00  0.00     0.022 A 
BRANCH  87  90
ATOM     90  S   UNL A   1      44.880  24.269  36.546  1.00  0.00     0.127 S 
ATOM     91  O   UNL A   1      46.245  23.876  36.891  1.00  0.00    -0.237 OA
ATOM     92  O   UNL A   1      44.120  24.862  37.646  1.00  0.00    -0.237 OA
ATOM     93  O   UNL A   1      44.136  23.306  35.746  1.00  0.00    -0.744 OA
ENDBRANCH  87  90
ENDBRANCH  60  83
ENDBRANCH  34  35
ENDBRANCH  26  29
ENDBRANCH  24  25
ENDBRANCH  23  24
ENDBRANCH  22  23
ENDBRANCH   1  22
TORSDOF 20
ENDMDL
MODEL 3
REMARK VINA RESULT:     -10.2      5.835     11.468
REMARK SMILES CCOC(=O)CS(=O)(=O)N1CCC(CC(=O)NCCCCNC(=O)c2ccc(-c3c4nc(c(-c5cccc(S(=O)(=O)[O-])c5F)c5ccc([nH]5)c(-c5cccc(S(=O)(=O)[O-])c5F)c5nc(c(-c6cccc(S(=O)(=O)[O-])c6F)c6ccc3[nH]6)C=C5)C=C4)cc2)CC1
REMARK SMILES IDX 18 1 17 2 15 3 16 4 14 6 13 7 10 8 11 9 89 10 12 11 88 12
REMARK SMILES IDX 7 13 8 14 9 15 6 16 4 17 5 18 3 19 2 20 1 21 19 22 20 23
REMARK SMILES IDX 21 24 22 25 23 26 24 28 25 29 26 30 87 31 27 32 86 33 28 34
REMARK SMILES IDX 29 35 30 36 80 37 31 38 85 39 79 40 81 41 32 42 84 43 78 44
REMARK SMILES IDX 77 45 33 47 65 48 45 49 64 50 46 51 49 52 63 53 82 54 47 55
REMARK SMILES IDX 48 56 62 58 83 59 50 60 34 61 35 62 43 63 36 64 38 65 44 66
REMARK SMILES IDX 37 67 39 68 40 69 41 70 42 71 66 72 67 73 75 74 68 75 70 76
REMARK SMILES IDX 76 77 69 78 71 79 72 80 73 81 74 82 51 83 52 84 60 85 53 86
REMARK SMILES IDX 55 87 61 88 54 89 56 90 57 91 58 92 59 93
REMARK H PARENT 17 5 22 27 81 46 49 57
REMARK Flexibility Score: inf
ROOT
ATOM      1  C   UNL A   1      31.740  28.695  26.449  1.00  0.00     0.116 C 
ENDROOT
BRANCH   1   2
ATOM      2  N   UNL A   1      31.364  28.959  25.063  1.00  0.00    -0.356 N 
ATOM      3  C   UNL A   1      32.052  28.836  23.887  1.00  0.00     0.220 C 
ATOM      4  O   UNL A   1      31.482  29.187  22.850  1.00  0.00    -0.275 OA
ATOM      5  H   UNL A   1      30.443  29.287  24.954  1.00  0.00     0.163 HD
BRANCH   3   6
ATOM      6  C   UNL A   1      33.493  28.309  23.827  1.00  0.00     0.103 C 
BRANCH   6   7
ATOM      7  C   UNL A   1      33.592  26.789  23.546  1.00  0.00     0.001 C 
ATOM      8  N   UNL A   1      32.480  24.134  24.329  1.00  0.00    -0.201 NA
ATOM      9  C   UNL A   1      33.765  24.597  24.873  1.00  0.00     0.102 C 
ATOM     10  C   UNL A   1      32.338  24.642  22.918  1.00  0.00     0.102 C 
ATOM     11  C   UNL A   1      33.829  26.091  24.859  1.00  0.00     0.021 C 
ATOM     12  C   UNL A   1      32.343  26.187  22.887  1.00  0.00     0.021 C 
BRANCH   8  13
ATOM     13  S   UNL A   1      32.261  22.439  24.478  1.00  0.00     0.224 S 
ATOM     14  O   UNL A   1      32.048  21.906  23.144  1.00  0.00    -0.212 OA
ATOM     15  O   UNL A   1      31.236  22.253  25.482  1.00  0.00    -0.212 OA
BRANCH  13  16
ATOM     16  C   UNL A   1      33.765  21.793  25.175  1.00  0.00     0.276 C 
BRANCH  16  17
ATOM     17  C   UNL A   1      33.957  20.318  25.144  1.00  0.00     0.322 C 
ATOM     18  O   UNL A   1      35.020  19.815  24.793  1.00  0.00    -0.251 OA
BRANCH  17  19
ATOM     19  O   UNL A   1      32.900  19.596  25.591  1.00  0.00    -0.465 OA
BRANCH  19  20
ATOM     20  C   UNL A   1      32.643  18.335  24.934  1.00  0.00     0.229 C 
ATOM     21  C   UNL A   1      32.439  18.501  23.437  1.00  0.00     0.049 C 
ENDBRANCH  19  20
ENDBRANCH  17  19
ENDBRANCH  16  17
ENDBRANCH  13  16
ENDBRANCH   8  13
ENDBRANCH   6   7
ENDBRANCH   3   6
ENDBRANCH   1   2
BRANCH   1  22
ATOM     22  C   UNL A   1      32.344  29.933  27.134  1.00  0.00     0.023 C 
BRANCH  22  23
ATOM     23  C   UNL A   1      31.677  31.264  26.851  1.00  0.00     0.023 C 
BRANCH  23  24
ATOM     24  C   UNL A   1      32.643  32.380  26.541  1.00  0.00     0.116 C 
BRANCH  24  25
ATOM     25  N   UNL A   1      32.333  33.635  27.218  1.00  0.00    -0.352 N 
ATOM     26  C   UNL A   1      32.993  34.223  28.272  1.00  0.00     0.251 C 
ATOM     27  H   UNL A   1      31.551  34.125  26.875  1.00  0.00     0.163 HD
ATOM     28  O   UNL A   1      32.562  35.253  28.780  1.00  0.00    -0.269 OA
BRANCH  26  29
ATOM     29  C   UNL A   1      34.203  33.569  28.808  1.00  0.00     0.039 A 
ATOM     30  C   UNL A   1      35.385  34.303  28.920  1.00  0.00     0.014 A 
ATOM     31  C   UNL A   1      34.138  32.258  29.282  1.00  0.00     0.014 A 
ATOM     32  C   UNL A   1      36.482  33.732  29.565  1.00  0.00     0.010 A 
ATOM     33  C   UNL A   1      35.171  31.757  30.056  1.00  0.00     0.010 A 
ATOM     34  C   UNL A   1      36.372  32.467  30.168  1.00  0.00    -0.014 A 
BRANCH  34  35
ATOM     35  C   UNL A   1      37.516  31.840  30.871  1.00  0.00     0.031 A 
ATOM     36  C   UNL A   1      38.383  30.847  30.138  1.00  0.00     0.074 A 
ATOM     37  C   UNL A   1      37.736  32.110  32.172  1.00  0.00     0.049 A 
ATOM     38  N   UNL A   1      39.417  30.178  30.575  1.00  0.00    -0.248 NA
ATOM     39  C   UNL A   1      38.019  30.531  28.744  1.00  0.00     0.031 C 
ATOM     40  C   UNL A   1      36.905  32.973  33.015  1.00  0.00     0.029 A 
ATOM     41  N   UNL A   1      38.722  31.673  33.019  1.00  0.00    -0.354 N 
ATOM     42  C   UNL A   1      39.795  29.342  29.530  1.00  0.00     0.074 A 
ATOM     43  C   UNL A   1      38.844  29.537  28.461  1.00  0.00     0.031 C 
ATOM     44  C   UNL A   1      37.434  33.027  34.248  1.00  0.00     0.029 A 
ATOM     45  C   UNL A   1      38.620  32.178  34.294  1.00  0.00     0.049 A 
ATOM     46  H   UNL A   1      39.436  31.054  32.741  1.00  0.00     0.167 HD
ATOM     47  C   UNL A   1      40.866  28.521  29.444  1.00  0.00     0.034 A 
ATOM     48  C   UNL A   1      39.401  31.982  35.373  1.00  0.00     0.034 A 
ATOM     49  C   UNL A   1      41.840  28.376  30.487  1.00  0.00     0.049 A 
ATOM     50  C   UNL A   1      40.617  31.107  35.235  1.00  0.00     0.074 A 
ATOM     51  C   UNL A   1      43.016  27.649  30.472  1.00  0.00     0.029 A 
ATOM     52  N   UNL A   1      41.749  28.970  31.736  1.00  0.00    -0.354 N 
ATOM     53  N   UNL A   1      41.054  30.457  34.182  1.00  0.00    -0.248 NA
ATOM     54  C   UNL A   1      41.471  30.968  36.424  1.00  0.00     0.031 C 
ATOM     55  C   UNL A   1      43.620  27.776  31.727  1.00  0.00     0.029 A 
ATOM     56  C   UNL A   1      42.840  28.614  32.508  1.00  0.00     0.049 A 
ATOM     57  H   UNL A   1      41.017  29.557  32.031  1.00  0.00     0.167 HD
ATOM     58  C   UNL A   1      42.248  29.860  34.571  1.00  0.00     0.074 A 
ATOM     59  C   UNL A   1      42.480  30.251  35.947  1.00  0.00     0.031 C 
ATOM     60  C   UNL A   1      43.071  29.049  33.862  1.00  0.00     0.034 A 
BRANCH  47  61
ATOM     61  C   UNL A   1      41.063  27.763  28.157  1.00  0.00     0.023 A 
ATOM     62  C   UNL A   1      41.613  28.419  27.034  1.00  0.00     0.012 A 
ATOM     63  C   UNL A   1      40.741  26.396  28.067  1.00  0.00     0.148 A 
ATOM     64  C   UNL A   1      41.799  27.737  25.832  1.00  0.00     0.002 A 
ATOM     65  C   UNL A   1      40.979  25.710  26.882  1.00  0.00     0.091 A 
ATOM     66  F   UNL A   1      40.197  25.796  29.135  1.00  0.00    -0.205 F 
ATOM     67  C   UNL A   1      41.493  26.382  25.760  1.00  0.00     0.022 A 
BRANCH  65  68
ATOM     68  S   UNL A   1      40.697  23.946  26.709  1.00  0.00     0.127 S 
ATOM     69  O   UNL A   1      41.046  23.459  28.043  1.00  0.00    -0.237 OA
ATOM     70  O   UNL A   1      39.269  23.893  26.396  1.00  0.00    -0.237 OA
ATOM     71  O   UNL A   1      41.573  23.500  25.635  1.00  0.00    -0.744 OA
ENDBRANCH  65  68
ENDBRANCH  47  61
BRANCH  48  72
ATOM     72  C   UNL A   1      39.098  32.680  36.656  1.00  0.00     0.023 A 
ATOM     73  C   UNL A   1      39.620  33.969  36.886  1.00  0.00     0.012 A 
ATOM     74  C   UNL A   1      38.283  32.086  37.637  1.00  0.00     0.148 A 
ATOM     75  C   UNL A   1      39.370  34.634  38.087  1.00  0.00     0.002 A 
ATOM     76  C   UNL A   1      37.990  32.776  38.807  1.00  0.00     0.091 A 
ATOM     77  F   UNL A   1      37.802  30.857  37.403  1.00  0.00    -0.205 F 
ATOM     78  C   UNL A   1      38.549  34.043  39.043  1.00  0.00     0.022 A 
BRANCH  76  79
ATOM     79  S   UNL A   1      36.838  32.150  40.033  1.00  0.00     0.127 S 
ATOM     80  O   UNL A   1      37.670  31.199  40.767  1.00  0.00    -0.237 OA
ATOM     81  O   UNL A   1      36.493  33.365  40.772  1.00  0.00    -0.237 OA
ATOM     82  O   UNL A   1      35.735  31.573  39.278  1.00  0.00    -0.744 OA
ENDBRANCH  76  79
ENDBRANCH  48  72
BRANCH  60  83
ATOM     83  C   UNL A   1      44.316  28.552  34.549  1.00  0.00     0.023 A 
ATOM     84  C   UNL A   1      45.504  29.307  34.480  1.00  0.00     0.012 A 
ATOM     85  C   UNL A   1      44.287  27.371  35.315  1.00  0.00     0.148 A 
ATOM     86  C   UNL A   1      46.657  28.869  35.129  1.00  0.00     0.002 A 
ATOM     87  C   UNL A   1      45.425  26.970  36.003  1.00  0.00     0.091 A 
ATOM     88  F   UNL A   1      43.151  26.661  35.355  1.00  0.00    -0.205 F 
ATOM     89  C   UNL A   1      46.615  27.708  35.898  1.00  0.00     0.022 A 
BRANCH  87  90
ATOM     90  S   UNL A   1      45.434  25.548  37.100  1.00  0.00     0.127 S 
ATOM     91  O   UNL A   1      45.184  24.452  36.166  1.00  0.00    -0.237 OA
ATOM     92  O   UNL A   1      46.791  25.588  37.645  1.00  0.00    -0.237 OA
ATOM     93  O   UNL A   1      44.382  25.788  38.078  1.00  0.00    -0.744 OA
ENDBRANCH  87  90
ENDBRANCH  60  83
ENDBRANCH  34  35
ENDBRANCH  26  29
ENDBRANCH  24  25
ENDBRANCH  23  24
ENDBRANCH  22  23
ENDBRANCH   1  22
TORSDOF 20
ENDMDL
